data_PCOD9046002
_publ_section_title
;
Structure prediction by ZEFSAII (Michael W. Deem and Ramdas Pophale) SiO2 
 PCOD9046002
Probable space group: P -1
;
_chemical_formula_sum "Si O2"
_cell_formula_units_Z 14
_cell_length_a 16.099433
_cell_length_b 7.842871
_cell_length_c 9.102850
_cell_angle_alpha 105.546829
_cell_angle_beta 146.349543
_cell_angle_gamma 77.277457
_cell_volume 613.587131
_symmetry_space_group_name_H-M "P -1"
_symmetry_group_IT_number 2
_symmetry_cell_setting 'triclinic'
loop_
_space_group_symop_operation_xyz
x,y,z
-x,-y,-z
loop_
_atom_site_type_symbol
_atom_site_label
_atom_site_fract_x
_atom_site_fract_y
_atom_site_fract_z
Si Si1 0.378109 0.151724 0.333457
Si Si2 0.429099 0.730955 0.601697
Si Si3 0.116691 0.162862 0.740496
Si Si4 0.850378 0.072272 0.719489
Si Si5 0.653009 0.596968 0.387774
Si Si6 0.345556 0.189124 0.823384
Si Si7 0.055168 0.599983 0.251562
O O1 0.463989 0.289643 0.384614
O O2 0.328329 0.242986 0.431307
O O3 0.500000 0.000000 0.500000
O O4 0.233742 0.088601 0.016434
O O5 0.270086 0.813325 0.338278
O O6 0.405425 0.556892 0.624599
O O7 0.519758 0.861781 0.878343
O O8 0.214088 0.226075 0.758242
O O9 0.050853 0.341970 0.758871
O O10 0.000000 0.000000 0.500000
O O11 0.896618 0.209156 0.693071
O O12 0.750319 0.929393 0.456299
O O13 0.000000 0.000000 0.000000
O O14 0.577385 0.674258 0.148014
O O15 0.805305 0.518249 0.525490
O O16 0.000000 0.500000 0.000000
#
# Coordination Sequence:
#
# PCOD9046002 Si02
#       7
#     2   2   2   2   2   2   2
#     4  11  24  43  72  99 136 184 233 280 334 419
#     4  10  24  42  66 101 139 177 228 292 338 397
#     4  11  24  45  68 104 138 175 231 289 341 400
#     4  11  23  39  70  99 134 184 230 274 341 417
#     4  11  23  43  69  99 137 185 231 276 349 407
#     4  11  23  42  68  98 140 177 229 282 345 407
#     4  11  22  42  69  97 142 178 224 287 341 404
#
# _framework density 22.816645000000001
#
# number of rings (size 3 to 8) (size 9 to 14) (size 15 to 20)
#    0.000    1.143    2.857    3.000    2.000    1.714 
#    2.571    0.000    0.000    0.000    0.000    0.000 
#    0.000    0.000    0.000    0.000    0.000    0.000 
#
# Total GULP energy -77994.116286 kJ/mol
# GULP energy per Si atom -5571.008306 kJ/mol
# Density = 2.276471 g / cm^3
# Si number density = 22.816645 Si / 1000 Ang^3
#
#
#
# Elastic Constant Matrix: (Units=GPa)
#
#
# Indices 1 2 3 4 5 6 
#
# 1 149.6332 36.0502 41.0861 2.8057 -10.2916 -8.9779
# 2 36.0502 84.5178 53.9781 3.3920 -8.1063 -4.1375
# 3 41.0861 53.9781 124.6914 -17.8756 -0.8514 -19.4157
# 4 2.8057 3.3920 -17.8756 33.8116 1.4309 2.5672
# 5 -10.2916 -8.1063 -0.8514 1.4309 29.6215 2.8301
# 6 -8.9779 -4.1375 -19.4157 2.5672 2.8301 31.0748
#
#
#
# Elastic Compliance Matrix: (Units=1/GPa)
#
#
# Indices 1 2 3 4 5 6 
#
# 1 0.007873 -0.001834 -0.001896 -0.001624 0.002183 0.000781
# 2 -0.001834 0.018954 -0.009052 -0.006472 0.004944 -0.003578
# 3 -0.001896 -0.009052 0.014882 0.008549 -0.003808 0.007186
# 4 -0.001624 -0.006472 0.008549 0.034933 -0.003919 0.001481
# 5 0.002183 0.004944 -0.003808 -0.003919 0.036340 -0.004076
# 6 0.000781 -0.003578 0.007186 0.001481 -0.004076 0.036668
#
#
# Mechanical properties :
#
#
# Convention : Reuss Voigt Hill
#
# Bulk Modulus (GPa) = 61.94415 69.00791 65.47603
# Shear Modulus (GPa) = 27.68617 34.08345 30.88481
#
# Velocity S-wave (km/s) = 3.48720 3.86916 3.68313
# Velocity P-wave (km/s) = 6.58951 7.09019 6.84443
#
# Compressibility (1/GPa) = 0.01614357
#
# Stress axis : x y z
#
# Youngs Moduli (GPa) = 127.01536 52.75898 67.19728
#
# Poissons Ratio (x) = 0.09677 0.12743
# Poissons Ratio (y) = 0.23298 0.60826
# Poissons Ratio (z) = 0.24087 0.47757
#
# Static dielectric constant tensor:
#      x y z
#    x 1.869570 -0.075750 -0.021920 
#    y -0.075750 1.672990 -0.103620 
#    z -0.021920 -0.103620 1.802220 
# 
# From -- ./inp_files/299376.got.cif
#   From: 2010.05.17/outbox.cif.g08.bks.cpg/sg2_150_cif.got.tgz:299376.got - 2010.06.03 11:33:40.
