data_PCOD9046069
_publ_section_title
;
Structure prediction by ZEFSAII (Michael W. Deem and Ramdas Pophale) SiO2 
 PCOD9046069
Probable space group: P -1
;
_chemical_formula_sum "Si O2"
_cell_formula_units_Z 14
_cell_length_a 23.158925
_cell_length_b 14.089857
_cell_length_c 14.659715
_cell_angle_alpha 29.006810
_cell_angle_beta 159.811821
_cell_angle_gamma 159.118142
_cell_volume 588.316069
_symmetry_space_group_name_H-M "P -1"
_symmetry_group_IT_number 2
_symmetry_cell_setting 'triclinic'
loop_
_space_group_symop_operation_xyz
x,y,z
-x,-y,-z
loop_
_atom_site_type_symbol
_atom_site_label
_atom_site_fract_x
_atom_site_fract_y
_atom_site_fract_z
Si Si1 0.766968 0.254131 0.990022
Si Si2 0.912025 0.782922 0.295984
Si Si3 0.623044 0.889434 0.755009
Si Si4 0.675860 0.785878 0.344885
Si Si5 0.764759 0.499897 0.614030
Si Si6 0.835128 0.692705 0.042959
Si Si7 0.000017 0.424828 0.767641
O O1 0.022530 0.421159 0.189857
O O2 0.799436 0.410640 0.997259
O O3 0.659909 0.968283 0.106135
O O4 0.662267 0.274305 0.729565
O O5 0.853598 0.703026 0.170655
O O6 0.886082 0.548511 0.498870
O O7 0.753456 0.832687 0.057921
O O8 0.177621 0.045460 0.490007
O O9 0.431565 0.615068 0.651289
O O10 0.500000 0.000000 0.500000
O O11 0.826245 0.122497 0.795624
O O12 0.829229 0.748600 0.551308
O O13 0.424745 0.495354 0.220691
O O14 0.918089 0.564034 0.220877
O O15 0.000000 0.000000 0.000000
#
# Coordination Sequence:
#
# PCOD9046069 Si02
#       7
#     2   2   2   2   2   2   2
#     4  10  24  42  67 101 135 185 230 281 346 408
#     4  11  26  46  70 104 137 182 234 284 345 410
#     4  12  24  44  70 102 142 184 228 286 347 410
#     4  11  25  46  70 102 142 178 230 288 343 409
#     4  11  22  42  69  99 141 185 223 285 343 409
#     4  12  25  48  72 102 138 184 236 284 350 411
#     4  11  24  47  67 100 140 177 238 283 339 416
#
# _framework density 23.796733
#
# number of rings (size 3 to 8) (size 9 to 14) (size 15 to 20)
#    0.000    0.857    4.286    1.714    4.000    3.429 
#    5.143    0.000    0.000    0.000    0.000    0.000 
#    0.000    0.000    0.000    0.000    0.000    0.000 
#
# Total GULP energy -78135.990137 kJ/mol
# GULP energy per Si atom -5581.142153 kJ/mol
# Density = 2.374257 g / cm^3
# Si number density = 23.796733 Si / 1000 Ang^3
#
#
#
# Elastic Constant Matrix: (Units=GPa)
#
#
# Indices 1 2 3 4 5 6 
#
# 1 91.6701 23.5576 19.1360 0.0535 4.5937 -18.6878
# 2 23.5576 103.2067 32.3291 28.5704 5.2802 0.2369
# 3 19.1360 32.3291 107.4286 -1.8812 -4.0059 -6.3072
# 4 0.0535 28.5704 -1.8812 42.9059 -10.8635 2.1942
# 5 4.5937 5.2802 -4.0059 -10.8635 31.8104 0.0388
# 6 -18.6878 0.2369 -6.3072 2.1942 0.0388 33.0403
#
#
#
# Elastic Compliance Matrix: (Units=1/GPa)
#
#
# Indices 1 2 3 4 5 6 
#
# 1 0.013474 -0.003065 -0.001065 0.001315 -0.001131 0.007353
# 2 -0.003065 0.015632 -0.004745 -0.012271 -0.006938 -0.001928
# 3 -0.001065 -0.004745 0.011227 0.004580 0.003918 0.001266
# 4 0.001315 -0.012271 0.004580 0.035384 0.014509 -0.000661
# 5 -0.001131 -0.006938 0.003918 0.014509 0.038200 -0.000850
# 6 0.007353 -0.001928 0.001266 -0.000661 -0.000850 0.034726
#
#
# Mechanical properties :
#
#
# Convention : Reuss Voigt Hill
#
# Bulk Modulus (GPa) = 44.28276 50.26119 47.27198
# Shear Modulus (GPa) = 28.74893 36.70349 32.72621
#
# Velocity S-wave (km/s) = 3.47955 3.93157 3.71245
# Velocity P-wave (km/s) = 5.89849 6.46348 6.18744
#
# Compressibility (1/GPa) = 0.02258215
#
# Stress axis : x y z
#
# Youngs Moduli (GPa) = 74.21920 63.97330 89.07261
#
# Poissons Ratio (x) = 0.19606 0.09488
# Poissons Ratio (y) = 0.22747 0.42265
# Poissons Ratio (z) = 0.07905 0.30355
#
# Static dielectric constant tensor:
#      x y z
#    x 1.943460 -0.061760 0.010940 
#    y -0.061760 1.936120 0.056680 
#    z 0.010940 0.056680 2.041570 
# 
# From -- ./inp_files/535441.got.cif
#   From: 2010.05.17/outbox.cif.g08.bks.cpg/sg2_268_cif.got.tgz:535441.got - 2010.06.03 11:33:40.
