data_PCOD9046538
_publ_section_title
;
Structure prediction by ZEFSAII (Michael W. Deem and Ramdas Pophale) SiO2 
 PCOD9046538
Probable space group: P -1
;
_chemical_formula_sum "Si O2"
_cell_formula_units_Z 14
_cell_length_a 20.372778
_cell_length_b 14.479668
_cell_length_c 6.933502
_cell_angle_alpha 103.264290
_cell_angle_beta 104.216927
_cell_angle_gamma 17.471410
_cell_volume 595.177710
_symmetry_space_group_name_H-M "P -1"
_symmetry_group_IT_number 2
_symmetry_cell_setting 'triclinic'
loop_
_space_group_symop_operation_xyz
x,y,z
-x,-y,-z
loop_
_atom_site_type_symbol
_atom_site_label
_atom_site_fract_x
_atom_site_fract_y
_atom_site_fract_z
Si Si1 0.024916 0.077015 0.183962
Si Si2 0.728353 0.141172 0.442313
Si Si3 0.503387 0.722799 0.512366
Si Si4 0.861175 0.688546 0.682688
Si Si5 0.818499 0.174058 0.224357
Si Si6 0.640827 0.661169 0.928432
Si Si7 0.183354 0.365135 0.033251
O O1 0.005325 0.008148 0.266660
O O2 0.103617 0.058052 0.361270
O O3 0.789896 0.410072 0.074795
O O4 0.196326 0.831566 0.015762
O O5 0.500000 0.500000 0.500000
O O6 0.658990 0.124328 0.397223
O O7 0.828533 0.060011 0.288166
O O8 0.631220 0.480598 0.349023
O O9 0.641617 0.601474 0.702185
O O10 0.373744 0.964489 0.391863
O O11 0.000000 0.500000 0.500000
O O12 0.977377 0.606649 0.874018
O O13 0.857595 0.595379 0.751565
O O14 0.388340 0.021200 0.970610
O O15 0.749439 0.618864 0.959165
#
# Coordination Sequence:
#
# PCOD9046538 Si02
#       7
#     2   2   2   2   2   2   2
#     4  11  24  43  68  94 131 178 212 268 322 388
#     4  10  24  43  63  93 131 170 218 265 318 382
#     4  11  24  43  67  99 131 172 217 270 318 388
#     4  11  22  45  69  96 129 170 216 269 325 382
#     4  10  25  43  68  94 134 170 220 262 323 385
#     4  11  24  44  67  99 130 173 218 264 330 380
#     4  10  24  46  68  96 134 169 215 272 323 389
#
# _framework density 23.522383999999999
#
# number of rings (size 3 to 8) (size 9 to 14) (size 15 to 20)
#    0.000    1.429    1.429    2.143   10.000    4.000 
#    5.143    0.000    0.000    0.000    0.000    0.000 
#    0.000    0.000    0.000    0.000    0.000    0.000 
#
# Total GULP energy -78257.524412 kJ/mol
# GULP energy per Si atom -5589.823172 kJ/mol
# Density = 2.346885 g / cm^3
# Si number density = 23.522384 Si / 1000 Ang^3
#
#
#
# Elastic Constant Matrix: (Units=GPa)
#
#
# Indices 1 2 3 4 5 6 
#
# 1 94.6041 -3.7146 26.3337 -6.2306 -16.1012 -8.7673
# 2 -3.7146 81.2343 27.9655 -11.2604 -6.8988 6.6678
# 3 26.3337 27.9655 86.7135 -4.7811 -25.8150 -1.2075
# 4 -6.2306 -11.2604 -4.7811 48.8986 -11.1114 -0.0881
# 5 -16.1012 -6.8988 -25.8150 -11.1114 35.9669 0.4740
# 6 -8.7673 6.6678 -1.2075 -0.0881 0.4740 26.6468
#
#
#
# Elastic Compliance Matrix: (Units=1/GPa)
#
#
# Indices 1 2 3 4 5 6 
#
# 1 0.012819 0.002129 -0.002897 0.002969 0.004939 0.003475
# 2 0.002129 0.014980 -0.004892 0.003569 0.001461 -0.003284
# 3 -0.002897 -0.004892 0.017470 0.002746 0.011140 0.000873
# 4 0.002969 0.003569 0.002746 0.024547 0.011567 0.000084
# 5 0.004939 0.001461 0.011140 0.011567 0.041850 0.001058
# 6 0.003475 -0.003284 0.000873 0.000084 0.001058 0.039514
#
#
# Mechanical properties :
#
#
# Convention : Reuss Voigt Hill
#
# Bulk Modulus (GPa) = 29.45594 40.41346 34.93470
# Shear Modulus (GPa) = 28.76629 36.43362 32.59996
#
# Velocity S-wave (km/s) = 3.50084 3.93987 3.72682
# Velocity P-wave (km/s) = 5.37502 6.15751 5.77952
#
# Compressibility (1/GPa) = 0.03394901
#
# Stress axis : x y z
#
# Youngs Moduli (GPa) = 78.01169 66.75701 57.24224
#
# Poissons Ratio (x) = -0.14214 0.16584
# Poissons Ratio (y) = -0.16610 0.28000
# Poissons Ratio (z) = 0.22601 0.32655
#
# Static dielectric constant tensor:
#      x y z
#    x 1.884060 -0.006440 -0.023530 
#    y -0.006440 1.939390 0.035960 
#    z -0.023530 0.035960 1.861520 
# 
# From -- ./inp_files/119486.got.cif
#   From: 2010.05.17/outbox.cif.g08.bks.cpg/sg2_60_cif.got.tgz:119486.got - 2010.06.03 11:33:40.
