data_PCOD9046813
_publ_section_title
;
Structure prediction by ZEFSAII (Michael W. Deem and Ramdas Pophale) SiO2 
 PCOD9046813
Probable space group: P -1
;
_chemical_formula_sum "Si O2"
_cell_formula_units_Z 16
_cell_length_a 11.659301
_cell_length_b 10.670724
_cell_length_c 12.022129
_cell_angle_alpha 99.169824
_cell_angle_beta 101.622774
_cell_angle_gamma 28.104885
_cell_volume 689.616463
_symmetry_space_group_name_H-M "P -1"
_symmetry_group_IT_number 2
_symmetry_cell_setting 'triclinic'
loop_
_space_group_symop_operation_xyz
x,y,z
-x,-y,-z
loop_
_atom_site_type_symbol
_atom_site_label
_atom_site_fract_x
_atom_site_fract_y
_atom_site_fract_z
Si Si1 0.424801 0.760848 0.259971
Si Si2 0.662759 0.666912 0.738200
Si Si3 0.817071 0.790373 0.875019
Si Si4 0.939939 0.181727 0.624163
Si Si5 0.572457 0.247085 0.477577
Si Si6 0.958312 0.060829 0.837210
Si Si7 0.651094 0.106049 0.076682
Si Si8 0.232957 0.562630 0.900290
O O1 0.420059 0.774772 0.392517
O O2 0.688553 0.529032 0.225169
O O3 0.272119 0.017333 0.204198
O O4 0.323279 0.719357 0.193734
O O5 0.754352 0.714441 0.804136
O O6 0.506630 0.805529 0.613268
O O7 0.485171 0.779616 0.816033
O O8 0.895461 0.355608 0.709345
O O9 0.099328 0.561415 0.911193
O O10 0.696632 0.934315 0.991353
O O11 0.661982 0.439338 0.557583
O O12 0.158333 0.977813 0.549979
O O13 0.011337 0.011029 0.707072
O O14 0.090907 0.064543 0.897643
O O15 0.083647 0.833994 0.903298
O O16 0.462982 0.360865 0.996950
#
# Coordination Sequence:
#
# PCOD9046813 Si02
#       8
#     2   2   2   2   2   2   2   2
#     4  10  25  43  67  99 137 178 226 278 342 407
#     4  10  24  43  70 100 136 176 230 283 339 405
#     4  10  24  44  67  99 134 180 227 281 338 405
#     4  10  24  43  68 104 136 178 226 278 344 401
#     4  10  24  45  70 104 137 178 227 282 345 403
#     4  11  23  42  68  95 141 172 229 280 339 412
#     4  11  23  43  67 102 133 178 227 282 344 401
#     4  10  25  41  65  97 136 183 225 277 341 402
#
# _framework density 23.2013
#
# number of rings (size 3 to 8) (size 9 to 14) (size 15 to 20)
#    0.750    1.000    1.250    0.750    8.750    8.500 
#    0.000    1.250    0.000    0.000    0.000    0.000 
#    0.000    0.000    0.000    0.000    0.000    0.000 
#
# Total GULP energy -89215.868934 kJ/mol
# GULP energy per Si atom -5575.991808 kJ/mol
# Density = 2.314849 g / cm^3
# Si number density = 23.201300 Si / 1000 Ang^3
#
#
#
# Elastic Constant Matrix: (Units=GPa)
#
#
# Indices 1 2 3 4 5 6 
#
# 1 108.6713 32.1259 47.0706 15.3079 23.0170 -3.9407
# 2 32.1259 78.2758 38.5769 18.7011 3.3403 -12.1503
# 3 47.0706 38.5769 144.0569 21.7284 4.1758 -3.0917
# 4 15.3079 18.7011 21.7284 40.9831 -5.0297 -6.6554
# 5 23.0170 3.3403 4.1758 -5.0297 46.1280 6.8239
# 6 -3.9407 -12.1503 -3.0917 -6.6554 6.8239 24.5879
#
#
#
# Elastic Compliance Matrix: (Units=1/GPa)
#
#
# Indices 1 2 3 4 5 6 
#
# 1 0.013112 -0.002808 -0.002912 -0.002643 -0.006580 0.001458
# 2 -0.002808 0.017559 -0.002937 -0.004411 -0.001117 0.006974
# 3 -0.002912 -0.002937 0.008999 -0.002517 0.000828 -0.001698
# 4 -0.002643 -0.004411 -0.002517 0.029930 0.004550 0.003919
# 5 -0.006580 -0.001117 0.000828 0.004550 0.026596 -0.007652
# 6 0.001458 0.006974 -0.001698 0.003919 -0.007652 0.047321
#
#
# Mechanical properties :
#
#
# Convention : Reuss Voigt Hill
#
# Bulk Modulus (GPa) = 44.72936 62.95008 53.83972
# Shear Modulus (GPa) = 29.71167 36.55517 33.13342
#
# Velocity S-wave (km/s) = 3.58243 3.97365 3.78310
# Velocity P-wave (km/s) = 6.03593 6.94580 6.50679
#
# Compressibility (1/GPa) = 0.02235668
#
# Stress axis : x y z
#
# Youngs Moduli (GPa) = 76.26481 56.94949 111.12366
#
# Poissons Ratio (x) = 0.15990 0.32357
# Poissons Ratio (y) = 0.21413 0.32641
# Poissons Ratio (z) = 0.22207 0.16728
#
# Static dielectric constant tensor:
#      x y z
#    x 1.887370 -0.026500 0.047340 
#    y -0.026500 1.973560 0.022920 
#    z 0.047340 0.022920 1.893490 
# 
# From -- ./inp_files/66872.got.cif
#   From: 2010.05.17/outbox.cif.g08.bks.cpg/sg2_34_cif.got.tgz:66872.got - 2010.06.03 11:33:40.
