data_PCOD9046260
_publ_section_title
;
Structure prediction by ZEFSAII (Michael W. Deem and Ramdas Pophale) SiO2 
 PCOD9046260
Probable space group: P -1
;
_chemical_formula_sum "Si O2"
_cell_formula_units_Z 10
_cell_length_a 6.859895
_cell_length_b 15.951128
_cell_length_c 12.131727
_cell_angle_alpha 28.017154
_cell_angle_beta 52.074670
_cell_angle_gamma 42.021759
_cell_volume 413.828094
_symmetry_space_group_name_H-M "P -1"
_symmetry_group_IT_number 2
_symmetry_cell_setting 'triclinic'
loop_
_space_group_symop_operation_xyz
x,y,z
-x,-y,-z
loop_
_atom_site_type_symbol
_atom_site_label
_atom_site_fract_x
_atom_site_fract_y
_atom_site_fract_z
Si Si1 0.338327 0.143179 0.782998
Si Si2 0.617384 0.872529 0.781093
Si Si3 0.078424 0.539908 0.137708
Si Si4 0.693350 0.155186 0.279481
Si Si5 0.755570 0.467339 0.529121
O O1 0.371198 0.342670 0.559775
O O2 0.986474 0.248952 0.765120
O O3 0.487524 0.009934 0.776672
O O4 0.500000 0.000000 0.000000
O O5 0.363866 0.900609 0.756582
O O6 0.794133 0.952306 0.556654
O O7 0.826416 0.630775 0.027352
O O8 0.375101 0.334151 0.231922
O O9 0.962289 0.496088 0.339233
O O10 0.129025 0.731577 0.915104
O O11 0.500000 0.500000 0.500000
#
# Coordination Sequence:
#
# PCOD9046260 Si02
#       5
#     2   2   2   2   2
#     4  11  24  47  68 100 136 178 231 279 334 401
#     4  11  22  43  69 100 130 175 223 278 337 402
#     4  11  22  45  66  99 134 173 223 282 332 400
#     4  10  24  42  69  98 134 172 224 275 341 394
#     4  11  26  46  69  98 139 182 227 280 337 400
#
# _framework density 24.164622000000001
#
# number of rings (size 3 to 8) (size 9 to 14) (size 15 to 20)
#    0.000    1.200    4.000    1.200    0.000    5.600 
#    3.600    0.000    0.000    0.000    0.000    0.000 
#    0.000    0.000    0.000    0.000    0.000    0.000 
#
# Total GULP energy -55958.544629 kJ/mol
# GULP energy per Si atom -5595.854463 kJ/mol
# Density = 2.410962 g / cm^3
# Si number density = 24.164622 Si / 1000 Ang^3
#
#
#
# Elastic Constant Matrix: (Units=GPa)
#
#
# Indices 1 2 3 4 5 6 
#
# 1 151.3950 34.7626 31.1065 4.1821 25.4299 19.1345
# 2 34.7626 83.8395 15.4151 6.8387 -5.7745 20.1524
# 3 31.1065 15.4151 93.1472 9.8444 32.0763 -0.1125
# 4 4.1821 6.8387 9.8444 31.0076 4.9817 12.2627
# 5 25.4299 -5.7745 32.0763 4.9817 41.7465 -3.3511
# 6 19.1345 20.1524 -0.1125 12.2627 -3.3511 40.2937
#
#
#
# Elastic Compliance Matrix: (Units=1/GPa)
#
#
# Indices 1 2 3 4 5 6 
#
# 1 0.008894 -0.003261 -0.000611 0.002152 -0.005957 -0.003744
# 2 -0.003261 0.015843 -0.003776 -0.000716 0.006715 -0.005609
# 3 -0.000611 -0.003776 0.015991 -0.003115 -0.011890 0.002183
# 4 0.002152 -0.000716 -0.003115 0.038974 -0.004705 -0.012925
# 5 -0.005957 0.006715 -0.011890 -0.004705 0.038536 0.004074
# 6 -0.003744 -0.005609 0.002183 -0.012925 0.004074 0.033680
#
#
# Mechanical properties :
#
#
# Convention : Reuss Voigt Hill
#
# Bulk Modulus (GPa) = 39.32180 54.55001 46.93590
# Shear Modulus (GPa) = 28.45897 39.08273 33.77085
#
# Velocity S-wave (km/s) = 3.43550 4.02600 3.74241
# Velocity P-wave (km/s) = 5.66080 6.65093 6.17574
#
# Compressibility (1/GPa) = 0.02543119
#
# Stress axis : x y z
#
# Youngs Moduli (GPa) = 112.43601 63.11850 62.53509
#
# Poissons Ratio (x) = 0.20583 0.03822
# Poissons Ratio (y) = 0.36666 0.23615
# Poissons Ratio (z) = 0.06872 0.23835
#
# Static dielectric constant tensor:
#      x y z
#    x 1.960180 -0.038120 0.006700 
#    y -0.038120 1.898180 -0.017990 
#    z 0.006700 -0.017990 1.949410 
# 
# From -- ./inp_files/19363.got.cif
#   From: 2010.05.17/outbox.cif.g08.bks.cpg/sg2_10_cif.got.tgz:19363.got - 2010.06.03 11:33:40.
