data_PCOD9046048
_publ_section_title
;
Structure prediction by ZEFSAII (Michael W. Deem and Ramdas Pophale) SiO2 
 PCOD9046048
Probable space group: P -1
;
_chemical_formula_sum "Si O2"
_cell_formula_units_Z 16
_cell_length_a 26.796082
_cell_length_b 6.056164
_cell_length_c 8.817101
_cell_angle_alpha 80.745799
_cell_angle_beta 31.140394
_cell_angle_gamma 84.428196
_cell_volume 728.007364
_symmetry_space_group_name_H-M "P -1"
_symmetry_group_IT_number 2
_symmetry_cell_setting 'triclinic'
loop_
_space_group_symop_operation_xyz
x,y,z
-x,-y,-z
loop_
_atom_site_type_symbol
_atom_site_label
_atom_site_fract_x
_atom_site_fract_y
_atom_site_fract_z
Si Si1 0.259969 0.823723 0.718910
Si Si2 0.453795 0.241755 0.612533
Si Si3 0.138333 0.037677 0.752136
Si Si4 0.389033 0.538646 0.252980
Si Si5 0.950771 0.281488 0.236224
Si Si6 0.303039 0.396705 0.180496
Si Si7 0.810514 0.480481 0.807757
Si Si8 0.297295 0.222970 0.774765
O O1 0.192423 0.928121 0.761207
O O2 0.356811 0.762752 0.389910
O O3 0.287291 0.971831 0.776715
O O4 0.203559 0.620885 0.977127
O O5 0.500000 0.500000 0.500000
O O6 0.394684 0.276415 0.609262
O O7 0.500000 0.000000 0.500000
O O8 0.374450 0.216181 0.955684
O O9 0.120400 0.859902 0.680722
O O10 0.204158 0.258591 0.503762
O O11 0.035391 0.117523 0.064584
O O12 0.356666 0.528317 0.164031
O O13 0.318526 0.352271 0.545901
O O14 0.500000 0.500000 0.000000
O O15 0.899968 0.381603 0.503668
O O16 0.000000 0.500000 0.000000
O O17 0.273742 0.550820 0.098756
O O18 0.791785 0.733441 0.884537
#
# Coordination Sequence:
#
# PCOD9046048 Si02
#       8
#     2   2   2   2   2   2   2   2
#     4  11  25  44  69  98 143 181 227 298 355 434
#     4  11  27  44  69 105 145 191 251 307 363 435
#     4  11  25  44  70 107 133 182 232 288 366 421
#     4  11  24  43  67 100 139 183 242 290 355 420
#     4  11  24  44  76 102 138 171 238 293 343 450
#     4  11  23  44  72 100 138 188 242 290 358 431
#     4  10  24  42  69  98 135 182 224 286 361 416
#     4  10  24  42  66  96 140 182 234 287 361 423
#
# _framework density 21.977802000000001
#
# number of rings (size 3 to 8) (size 9 to 14) (size 15 to 20)
#    0.000    1.250    2.500    1.500   10.500    3.000 
#    0.000    1.250    0.000    0.000    0.000    0.000 
#    0.000    0.000    0.000    0.000    0.000    0.000 
#
# Total GULP energy -89094.319304 kJ/mol
# GULP energy per Si atom -5568.394956 kJ/mol
# Density = 2.192778 g / cm^3
# Si number density = 21.977802 Si / 1000 Ang^3
#
#
#
# Elastic Constant Matrix: (Units=GPa)
#
#
# Indices 1 2 3 4 5 6 
#
# 1 102.5026 31.3843 33.6996 14.2387 -1.4413 -4.6410
# 2 31.3843 75.5084 34.1089 31.4323 -6.9133 11.2840
# 3 33.6996 34.1089 117.3327 45.5791 2.7776 1.8532
# 4 14.2387 31.4323 45.5791 47.5814 6.8189 6.0257
# 5 -1.4413 -6.9133 2.7776 6.8189 26.8194 -5.1111
# 6 -4.6410 11.2840 1.8532 6.0257 -5.1111 35.6831
#
#
#
# Elastic Compliance Matrix: (Units=1/GPa)
#
#
# Indices 1 2 3 4 5 6 
#
# 1 0.012087 -0.005109 -0.002878 0.002199 -0.000374 0.002912
# 2 -0.005109 0.022598 0.000368 -0.014422 0.008380 -0.004194
# 3 -0.002878 0.000368 0.014524 -0.013789 0.002209 0.001400
# 4 0.002199 -0.014422 -0.013789 0.045726 -0.014608 -0.004251
# 5 -0.000374 0.008380 0.002209 -0.014608 0.044048 0.005963
# 6 0.002912 -0.004194 0.001400 -0.004251 0.005963 0.031229
#
#
# Mechanical properties :
#
#
# Convention : Reuss Voigt Hill
#
# Bulk Modulus (GPa) = 29.43527 54.85881 42.14704
# Shear Modulus (GPa) = 25.40973 35.09351 30.25162
#
# Velocity S-wave (km/s) = 3.40392 4.00030 3.71410
# Velocity P-wave (km/s) = 5.37318 6.80821 6.13281
#
# Compressibility (1/GPa) = 0.03397285
#
# Stress axis : x y z
#
# Youngs Moduli (GPa) = 82.73080 44.25107 68.84950
#
# Poissons Ratio (x) = 0.22607 0.19815
# Poissons Ratio (y) = 0.42266 -0.02536
# Poissons Ratio (z) = 0.23811 -0.01630
#
# Static dielectric constant tensor:
#      x y z
#    x 1.793390 -0.092980 -0.027860 
#    y -0.092980 2.000660 -0.184160 
#    z -0.027860 -0.184160 1.485360 
# 
# From -- ./inp_files/98020.got.cif
#   From: 2010.05.17/outbox.cif.g08.bks.cpg/sg2_50_cif.got.tgz:98020.got - 2010.06.03 11:33:40.
