data_PCOD9046983
_publ_section_title
;
Structure prediction by ZEFSAII (Michael W. Deem and Ramdas Pophale) SiO2 
 PCOD9046983
Probable space group: P -1
;
_chemical_formula_sum "Si O2"
_cell_formula_units_Z 16
_cell_length_a 5.311393
_cell_length_b 11.590780
_cell_length_c 16.018811
_cell_angle_alpha 51.021716
_cell_angle_beta 88.926231
_cell_angle_gamma 64.870076
_cell_volume 649.406121
_symmetry_space_group_name_H-M "P -1"
_symmetry_group_IT_number 2
_symmetry_cell_setting 'triclinic'
loop_
_space_group_symop_operation_xyz
x,y,z
-x,-y,-z
loop_
_atom_site_type_symbol
_atom_site_label
_atom_site_fract_x
_atom_site_fract_y
_atom_site_fract_z
Si Si1 0.622780 0.243192 0.307281
Si Si2 0.771293 0.497761 0.255473
Si Si3 0.246237 0.514011 0.438812
Si Si4 0.181477 0.028381 0.310817
Si Si5 0.032079 0.099311 0.781643
Si Si6 0.876335 0.621676 0.866164
Si Si7 0.326327 0.217822 0.472331
Si Si8 0.529025 0.094827 0.875929
O O1 0.566640 0.426729 0.258247
O O2 0.466000 0.293557 0.195358
O O3 0.483552 0.166993 0.405122
O O4 0.965862 0.093593 0.362914
O O5 0.634542 0.694082 0.201210
O O6 0.955760 0.470052 0.180592
O O7 0.982766 0.349899 0.390187
O O8 0.500000 0.500000 0.500000
O O9 0.111967 0.692894 0.308767
O O10 0.401183 0.353401 0.449302
O O11 0.000000 0.500000 0.500000
O O12 0.100416 0.212217 0.190315
O O13 0.073337 0.935126 0.290930
O O14 0.520147 0.924441 0.390365
O O15 0.862390 0.040898 0.872873
O O16 0.368353 0.042154 0.829595
O O17 0.000000 0.500000 0.000000
O O18 0.500000 0.000000 0.000000
#
# Coordination Sequence:
#
# PCOD9046983 Si02
#       8
#     2   2   2   2   2   2   2   2
#     4  10  24  44  69 101 138 192 241 299 369 434
#     4  10  24  43  70 101 136 189 240 300 364 441
#     4  12  25  43  71 108 148 197 236 299 374 444
#     4  11  26  42  70 106 143 190 242 303 366 442
#     4  12  27  47  72 111 148 192 249 306 376 443
#     4  10  25  45  69  97 138 187 243 304 359 426
#     4  11  23  42  70 100 147 181 240 295 369 441
#     4  12  28  48  75 108 147 196 252 310 373 441
#
# _framework density 24.637895
#
# number of rings (size 3 to 8) (size 9 to 14) (size 15 to 20)
#    0.000    1.000    2.500    2.250    7.000    8.500 
#    0.000    0.000    0.000    0.000    0.000    0.000 
#    0.000    0.000    0.000    0.000    0.000    0.000 
#
# Total GULP energy -89309.604206 kJ/mol
# GULP energy per Si atom -5581.850263 kJ/mol
# Density = 2.458182 g / cm^3
# Si number density = 24.637895 Si / 1000 Ang^3
#
#
#
# Elastic Constant Matrix: (Units=GPa)
#
#
# Indices 1 2 3 4 5 6 
#
# 1 114.1214 12.9153 28.6134 5.5255 -10.1826 21.3575
# 2 12.9153 101.4347 10.0554 1.3392 -1.6214 28.7168
# 3 28.6134 10.0554 125.3044 2.3983 -2.5375 4.9961
# 4 5.5255 1.3392 2.3983 29.1430 8.4602 1.5712
# 5 -10.1826 -1.6214 -2.5375 8.4602 39.0577 9.7308
# 6 21.3575 28.7168 4.9961 1.5712 9.7308 45.2228
#
#
#
# Elastic Compliance Matrix: (Units=1/GPa)
#
#
# Indices 1 2 3 4 5 6 
#
# 1 0.011016 0.000748 -0.002160 -0.003058 0.005023 -0.006413
# 2 0.000748 0.012378 -0.000732 -0.001071 0.003075 -0.008757
# 3 -0.002160 -0.000732 0.008511 -0.000251 -0.000131 0.000581
# 4 -0.003058 -0.001071 -0.000251 0.037633 -0.009742 0.002940
# 5 0.005023 0.003075 -0.000131 -0.009742 0.031838 -0.010823
# 6 -0.006413 -0.008757 0.000581 0.002940 -0.010823 0.032865
#
#
# Mechanical properties :
#
#
# Convention : Reuss Voigt Hill
#
# Bulk Modulus (GPa) = 36.20856 49.33652 42.77254
# Shear Modulus (GPa) = 33.84433 41.96979 37.90706
#
# Velocity S-wave (km/s) = 3.71033 4.13178 3.92671
# Velocity P-wave (km/s) = 5.75183 6.54449 6.16092
#
# Compressibility (1/GPa) = 0.02761778
#
# Stress axis : x y z
#
# Youngs Moduli (GPa) = 90.77814 80.78589 117.48916
#
# Poissons Ratio (x) = -0.06041 0.25372
# Poissons Ratio (y) = -0.06788 0.08602
# Poissons Ratio (z) = 0.19604 0.05915
#
# Static dielectric constant tensor:
#      x y z
#    x 2.077220 -0.032690 0.031520 
#    y -0.032690 2.011700 0.056490 
#    z 0.031520 0.056490 1.998400 
# 
# From -- ./inp_files/482635.got.cif
#   From: 2010.05.17/outbox.cif.g08.bks.cpg/sg2_242_cif.got.tgz:482635.got - 2010.06.03 11:33:40.
