data_PCOD9046976
_publ_section_title
;
Structure prediction by ZEFSAII (Michael W. Deem and Ramdas Pophale) SiO2 
 PCOD9046976
Probable space group: P -1
;
_chemical_formula_sum "Si O2"
_cell_formula_units_Z 16
_cell_length_a 15.699906
_cell_length_b 11.111411
_cell_length_c 9.227789
_cell_angle_alpha 67.772169
_cell_angle_beta 142.174812
_cell_angle_gamma 129.548786
_cell_volume 734.285468
_symmetry_space_group_name_H-M "P -1"
_symmetry_group_IT_number 2
_symmetry_cell_setting 'triclinic'
loop_
_space_group_symop_operation_xyz
x,y,z
-x,-y,-z
loop_
_atom_site_type_symbol
_atom_site_label
_atom_site_fract_x
_atom_site_fract_y
_atom_site_fract_z
Si Si1 0.328579 0.808944 0.570310
Si Si2 0.966300 0.713424 0.232059
Si Si3 0.158253 0.163382 0.210070
Si Si4 0.689024 0.099572 0.040179
Si Si5 0.094214 0.997972 0.487894
Si Si6 0.190756 0.658533 0.143951
Si Si7 0.529214 0.364606 0.628173
Si Si8 0.694617 0.358752 0.121097
O O1 0.291464 0.759510 0.376485
O O2 0.333482 0.678551 0.730648
O O3 0.159785 0.791246 0.406988
O O4 0.505134 0.980296 0.769053
O O5 0.871920 0.533230 0.246692
O O6 0.976950 0.828833 0.317986
O O7 0.863231 0.710316 0.955331
O O8 0.343349 0.203602 0.404443
O O9 0.138455 0.134837 0.368645
O O10 0.000000 0.000000 0.000000
O O11 0.819228 0.227163 0.034869
O O12 0.746547 0.999097 0.239713
O O13 0.686946 0.210699 0.107884
O O14 0.000000 0.000000 0.500000
O O15 0.314851 0.621508 0.249434
O O16 0.000000 0.500000 0.000000
O O17 0.500000 0.500000 0.500000
O O18 0.556919 0.359600 0.839292
#
# Coordination Sequence:
#
# PCOD9046976 Si02
#       8
#     2   2   2   2   2   2   2   2
#     4  12  24  42  72 104 142 185 244 299 359 425
#     4  11  24  43  71 105 142 194 236 296 362 432
#     4  10  24  43  70 100 142 191 235 281 366 429
#     4  11  25  45  71 102 140 186 242 298 364 425
#     4  11  26  44  69 103 146 186 243 297 357 430
#     4  11  28  45  71 107 145 188 244 305 358 429
#     4  11  23  46  70 101 145 188 235 292 362 429
#     4  11  23  43  72 104 141 185 241 294 361 425
#
# _framework density 21.789891000000001
#
# number of rings (size 3 to 8) (size 9 to 14) (size 15 to 20)
#    0.000    1.000    2.500    3.375   10.500    2.000 
#    0.000    0.625    0.000    0.000    0.000    0.000 
#    0.000    0.000    0.000    0.000    0.000    0.000 
#
# Total GULP energy -89389.590705 kJ/mol
# GULP energy per Si atom -5586.849419 kJ/mol
# Density = 2.174030 g / cm^3
# Si number density = 21.789891 Si / 1000 Ang^3
#
#
#
# Elastic Constant Matrix: (Units=GPa)
#
#
# Indices 1 2 3 4 5 6 
#
# 1 82.0933 23.9002 33.3272 0.6824 -11.5526 2.5487
# 2 23.9002 78.2055 27.2526 -1.3066 0.4582 11.4820
# 3 33.3272 27.2526 130.6380 -8.8764 -2.3883 8.0858
# 4 0.6824 -1.3066 -8.8764 57.3608 9.8124 -3.0378
# 5 -11.5526 0.4582 -2.3883 9.8124 42.7395 2.0809
# 6 2.5487 11.4820 8.0858 -3.0378 2.0809 35.5196
#
#
#
# Elastic Compliance Matrix: (Units=1/GPa)
#
#
# Indices 1 2 3 4 5 6 
#
# 1 0.015115 -0.003636 -0.003145 -0.001456 0.004262 0.000433
# 2 -0.003636 0.015211 -0.002006 0.000043 -0.001067 -0.004133
# 3 -0.003145 -0.002006 0.009026 0.001438 -0.000605 -0.001022
# 4 -0.001456 0.000043 0.001438 0.018556 -0.004653 0.001623
# 5 0.004262 -0.001067 -0.000605 -0.004653 0.025680 -0.001726
# 6 0.000433 -0.004133 -0.001022 0.001623 -0.001726 0.029931
#
#
# Mechanical properties :
#
#
# Convention : Reuss Voigt Hill
#
# Bulk Modulus (GPa) = 45.92140 51.09966 48.51053
# Shear Modulus (GPa) = 36.13950 40.88774 38.51362
#
# Velocity S-wave (km/s) = 4.07694 4.33651 4.20872
# Velocity P-wave (km/s) = 6.57893 6.96963 6.77709
#
# Compressibility (1/GPa) = 0.02177634
#
# Stress axis : x y z
#
# Youngs Moduli (GPa) = 66.15867 65.74182 110.79631
#
# Poissons Ratio (x) = 0.23904 0.34849
# Poissons Ratio (y) = 0.24056 0.22230
# Poissons Ratio (z) = 0.20809 0.13190
#
# Static dielectric constant tensor:
#      x y z
#    x 1.765940 0.028040 0.007960 
#    y 0.028040 1.885950 0.004670 
#    z 0.007960 0.004670 1.834210 
# 
# From -- ./inp_files/307212.got.cif
#   From: 2010.05.17/outbox.cif.g08.bks.cpg/sg2_154_cif.got.tgz:307212.got - 2010.06.03 11:33:40.
