data_PCOD9046864
_publ_section_title
;
Structure prediction by ZEFSAII (Michael W. Deem and Ramdas Pophale) SiO2 
 PCOD9046864
Probable space group: P -1
;
_chemical_formula_sum "Si O2"
_cell_formula_units_Z 14
_cell_length_a 22.023881
_cell_length_b 6.652249
_cell_length_c 6.612534
_cell_angle_alpha 68.596835
_cell_angle_beta 59.986037
_cell_angle_gamma 47.785951
_cell_volume 620.679543
_symmetry_space_group_name_H-M "P -1"
_symmetry_group_IT_number 2
_symmetry_cell_setting 'triclinic'
loop_
_space_group_symop_operation_xyz
x,y,z
-x,-y,-z
loop_
_atom_site_type_symbol
_atom_site_label
_atom_site_fract_x
_atom_site_fract_y
_atom_site_fract_z
Si Si1 0.706848 0.472994 0.647591
Si Si2 0.410762 0.541663 0.840658
Si Si3 0.128961 0.260462 0.752983
Si Si4 0.555006 0.060183 0.528797
Si Si5 0.815694 0.535474 0.741270
Si Si6 0.252890 0.664206 0.808478
Si Si7 0.961485 0.307659 0.905046
O O1 0.783934 0.401210 0.696781
O O2 0.752012 0.310973 0.430697
O O3 0.643407 0.786599 0.566797
O O4 0.640287 0.430446 0.882129
O O5 0.499198 0.245490 0.748786
O O6 0.427208 0.762260 0.701768
O O7 0.344368 0.587743 0.759099
O O8 0.189023 0.255885 0.480370
O O9 0.041396 0.328302 0.769642
O O10 0.176338 0.971910 0.891660
O O11 0.101456 0.489909 0.881818
O O12 0.500000 0.000000 0.500000
O O13 0.909142 0.384545 0.753233
O O14 0.755788 0.567810 0.018597
O O15 0.000000 0.000000 0.000000
#
# Coordination Sequence:
#
# PCOD9046864 Si02
#       7
#     2   2   2   2   2   2   2
#     4  11  24  43  69  99 136 178 221 273 335 392
#     4  10  24  43  68  99 132 177 222 271 333 389
#     4  11  25  44  71  98 134 178 221 274 336 388
#     4  11  22  45  70  95 137 173 224 276 325 394
#     4  11  24  42  70  98 132 178 221 272 335 392
#     4  11  23  45  64 102 136 172 224 275 326 403
#     4  11  24  48  69  98 136 172 227 277 327 401
#
# _framework density 22.555923
#
# number of rings (size 3 to 8) (size 9 to 14) (size 15 to 20)
#    0.000    1.143    2.857    2.571    0.000    4.571 
#    2.571    0.000    0.000    0.000    0.000    0.000 
#    0.000    0.000    0.000    0.000    0.000    0.000 
#
# Total GULP energy -78109.378141 kJ/mol
# GULP energy per Si atom -5579.241296 kJ/mol
# Density = 2.250459 g / cm^3
# Si number density = 22.555923 Si / 1000 Ang^3
#
#
#
# Elastic Constant Matrix: (Units=GPa)
#
#
# Indices 1 2 3 4 5 6 
#
# 1 95.0485 45.0448 19.1548 -9.1067 0.9723 10.0286
# 2 45.0448 87.3113 36.8918 -9.6951 -2.6975 1.1673
# 3 19.1548 36.8918 118.4161 -15.9136 -9.8344 27.9429
# 4 -9.1067 -9.6951 -15.9136 25.2253 2.0457 -6.0315
# 5 0.9723 -2.6975 -9.8344 2.0457 32.6659 -19.5152
# 6 10.0286 1.1673 27.9429 -6.0315 -19.5152 25.5484
#
#
#
# Elastic Compliance Matrix: (Units=1/GPa)
#
#
# Indices 1 2 3 4 5 6 
#
# 1 0.016996 -0.010622 0.004411 0.001038 -0.012051 -0.019971
# 2 -0.010622 0.021224 -0.009053 0.003319 0.013668 0.024325
# 3 0.004411 -0.009053 0.016701 0.002752 -0.013492 -0.029240
# 4 0.001038 0.003319 0.002752 0.045191 0.004568 0.010589
# 5 -0.012051 0.013668 -0.013492 0.004568 0.072960 0.075672
# 6 -0.019971 0.024325 -0.029240 0.010589 0.075672 0.138153
#
#
# Mechanical properties :
#
#
# Convention : Reuss Voigt Hill
#
# Bulk Modulus (GPa) = 40.99479 55.88430 48.43955
# Shear Modulus (GPa) = 14.29049 30.00022 22.14535
#
# Velocity S-wave (km/s) = 2.51979 3.65092 3.13676
# Velocity P-wave (km/s) = 5.16527 6.52702 5.88566
#
# Compressibility (1/GPa) = 0.02439334
#
# Stress axis : x y z
#
# Youngs Moduli (GPa) = 58.83749 47.11594 59.87729
#
# Poissons Ratio (x) = 0.50048 -0.26415
# Poissons Ratio (y) = 0.62500 0.54206
# Poissons Ratio (z) = -0.25956 0.42654
#
# Static dielectric constant tensor:
#      x y z
#    x 1.829740 0.014660 -0.023080 
#    y 0.014660 1.830250 0.032130 
#    z -0.023080 0.032130 1.886810 
# 
# From -- ./inp_files/10350.got.cif
#   From: 2010.05.17/outbox.cif.g08.bks.cpg/sg2_6_cif.got.tgz:10350.got - 2010.06.03 11:33:40.
