data_PCOD9046644
_publ_section_title
;
Structure prediction by ZEFSAII (Michael W. Deem and Ramdas Pophale) SiO2 
 PCOD9046644
Probable space group: P -1
;
_chemical_formula_sum "Si O2"
_cell_formula_units_Z 14
_cell_length_a 13.424561
_cell_length_b 11.127411
_cell_length_c 12.032503
_cell_angle_alpha 112.262972
_cell_angle_beta 111.797075
_cell_angle_gamma 21.143810
_cell_volume 599.147353
_symmetry_space_group_name_H-M "P -1"
_symmetry_group_IT_number 2
_symmetry_cell_setting 'triclinic'
loop_
_space_group_symop_operation_xyz
x,y,z
-x,-y,-z
loop_
_atom_site_type_symbol
_atom_site_label
_atom_site_fract_x
_atom_site_fract_y
_atom_site_fract_z
Si Si1 0.574867 0.754885 0.720203
Si Si2 0.068697 0.702449 0.658786
Si Si3 0.235281 0.649777 0.920471
Si Si4 0.361568 0.756288 0.871351
Si Si5 0.068372 0.314656 0.874421
Si Si6 0.346122 0.619601 0.369249
Si Si7 0.604957 0.026001 0.522744
O O1 0.735610 0.437913 0.662186
O O2 0.404785 0.956203 0.607628
O O3 0.815299 0.590471 0.780181
O O4 0.358164 0.005934 0.820504
O O5 0.119276 0.668369 0.798985
O O6 0.360037 0.381705 0.603590
O O7 0.887236 0.021563 0.643140
O O8 0.894189 0.764994 0.590214
O O9 0.364070 0.611631 0.876415
O O10 0.437761 0.387623 0.012576
O O11 0.000000 0.000000 0.000000
O O12 0.456896 0.621350 0.739275
O O13 0.092371 0.147177 0.887489
O O14 0.000000 0.500000 0.000000
O O15 0.500000 0.500000 0.500000
O O16 0.500000 0.000000 0.500000
#
# Coordination Sequence:
#
# PCOD9046644 Si02
#       7
#     2   2   2   2   2   2   2
#     4  11  25  46  71 104 140 180 230 302 346 406
#     4  12  25  45  73 105 135 194 233 282 363 409
#     4  11  23  43  69 100 147 175 233 290 350 420
#     4  10  24  43  66 108 143 182 227 294 350 412
#     4  11  25  47  72 100 139 184 238 280 349 415
#     4  11  22  43  74 104 139 176 230 296 351 413
#     4  12  28  49  67 103 145 185 239 285 344 426
#
# _framework density 23.366539
#
# number of rings (size 3 to 8) (size 9 to 14) (size 15 to 20)
#    0.000    0.857    2.857    3.429    6.000    2.857 
#    2.571    0.000    0.000    0.000    0.000    0.000 
#    0.000    0.000    0.000    0.000    0.000    0.000 
#
# Total GULP energy -78254.081268 kJ/mol
# GULP energy per Si atom -5589.577233 kJ/mol
# Density = 2.331336 g / cm^3
# Si number density = 23.366539 Si / 1000 Ang^3
#
#
#
# Elastic Constant Matrix: (Units=GPa)
#
#
# Indices 1 2 3 4 5 6 
#
# 1 44.5245 -5.6247 19.6773 -7.7157 2.6527 2.2651
# 2 -5.6247 62.4929 41.5025 -2.2589 2.8214 -11.2131
# 3 19.6773 41.5025 191.8467 -27.8210 8.2876 3.1112
# 4 -7.7157 -2.2589 -27.8210 45.6549 -10.2372 9.3904
# 5 2.6527 2.8214 8.2876 -10.2372 31.0261 1.0002
# 6 2.2651 -11.2131 3.1112 9.3904 1.0002 28.7350
#
#
#
# Elastic Compliance Matrix: (Units=1/GPa)
#
#
# Indices 1 2 3 4 5 6 
#
# 1 0.024876 0.004264 -0.003060 0.002518 -0.000842 -0.000759
# 2 0.004264 0.022191 -0.005959 -0.004576 -0.002641 0.010556
# 3 -0.003060 -0.005959 0.007568 0.004844 0.000525 -0.004505
# 4 0.002518 -0.004576 0.004844 0.029671 0.009100 -0.012521
# 5 -0.000842 -0.002641 0.000525 0.009100 0.035574 -0.005233
# 6 -0.000759 0.010556 -0.004505 -0.012521 -0.005233 0.043741
#
#
# Mechanical properties :
#
#
# Convention : Reuss Voigt Hill
#
# Bulk Modulus (GPa) = 22.16053 45.55271 33.85662
# Shear Modulus (GPa) = 26.57149 37.30378 31.93763
#
# Velocity S-wave (km/s) = 3.37584 3.99991 3.70105
# Velocity P-wave (km/s) = 4.96986 6.39293 5.72578
#
# Compressibility (1/GPa) = 0.04512528
#
# Stress axis : x y z
#
# Youngs Moduli (GPa) = 40.19995 45.06414 132.13104
#
# Poissons Ratio (x) = -0.19216 0.40434
# Poissons Ratio (y) = -0.17141 0.78731
# Poissons Ratio (z) = 0.12302 0.26852
#
# Static dielectric constant tensor:
#      x y z
#    x 2.046940 0.073840 -0.022810 
#    y 0.073840 1.900170 -0.052520 
#    z -0.022810 -0.052520 1.912770 
# 
# From -- ./inp_files/67111.got.cif
#   From: 2010.05.17/outbox.cif.g08.bks.cpg/sg2_34_cif.got.tgz:67111.got - 2010.06.03 11:33:40.
