data_PCOD9046065
_publ_section_title
;
Structure prediction by ZEFSAII (Michael W. Deem and Ramdas Pophale) SiO2 
 PCOD9046065
Probable space group: P -1
;
_chemical_formula_sum "Si O2"
_cell_formula_units_Z 14
_cell_length_a 8.985444
_cell_length_b 7.715318
_cell_length_c 21.288895
_cell_angle_alpha 143.151904
_cell_angle_beta 143.015399
_cell_angle_gamma 52.520763
_cell_volume 530.520959
_symmetry_space_group_name_H-M "P -1"
_symmetry_group_IT_number 2
_symmetry_cell_setting 'triclinic'
loop_
_space_group_symop_operation_xyz
x,y,z
-x,-y,-z
loop_
_atom_site_type_symbol
_atom_site_label
_atom_site_fract_x
_atom_site_fract_y
_atom_site_fract_z
Si Si1 0.585939 0.330223 0.634144
Si Si2 0.678316 0.020401 0.347743
Si Si3 0.829378 0.132131 0.073569
Si Si4 0.212178 0.696734 0.093545
Si Si5 0.881762 0.656356 0.146993
Si Si6 0.377865 0.822775 0.764427
Si Si7 0.898352 0.417470 0.637181
O O1 0.375741 0.489059 0.647203
O O2 0.705593 0.426357 0.633373
O O3 0.828172 0.372193 0.772018
O O4 0.500000 0.000000 0.500000
O O5 0.448918 0.838384 0.251680
O O6 0.916640 0.838973 0.367254
O O7 0.559552 0.054137 0.249047
O O8 0.757687 0.317232 0.496943
O O9 0.812324 0.420143 0.109349
O O10 0.924044 0.282184 0.214809
O O11 0.057801 0.941523 0.079925
O O12 0.585277 0.924369 0.915239
O O13 0.292484 0.464172 0.002971
O O14 0.000000 0.500000 0.000000
O O15 0.851806 0.993508 0.245123
#
# Coordination Sequence:
#
# PCOD9046065 Si02
#       7
#     2   2   2   2   2   2   2
#     4  11  25  42  67 100 140 178 232 288 348 415
#     4  11  22  43  67  99 136 183 233 285 343 414
#     4  11  21  43  71 101 131 181 238 282 330 425
#     4  12  26  41  69 105 144 182 229 295 359 400
#     4  11  22  44  70 104 132 183 237 282 340 418
#     4  12  22  42  80  97 130 189 239 284 338 415
#     4  10  24  42  66  99 138 181 232 286 340 412
#
# _framework density 26.389156
#
# number of rings (size 3 to 8) (size 9 to 14) (size 15 to 20)
#    0.000    0.857    5.714    3.429    2.000    2.857 
#    0.000    4.286    0.000    0.000    0.000    0.000 
#    0.000    0.000    0.000    0.000    0.000    0.000 
#
# Total GULP energy -78102.894319 kJ/mol
# GULP energy per Si atom -5578.778166 kJ/mol
# Density = 2.632909 g / cm^3
# Si number density = 26.389156 Si / 1000 Ang^3
#
#
#
# Elastic Constant Matrix: (Units=GPa)
#
#
# Indices 1 2 3 4 5 6 
#
# 1 45.1787 26.5707 8.8064 1.4527 -11.1202 0.7043
# 2 26.5707 95.0387 14.0403 13.2380 -9.4847 -30.2038
# 3 8.8064 14.0403 148.3717 16.9627 -33.0143 6.0182
# 4 1.4527 13.2380 16.9627 48.1502 -13.0011 -9.6509
# 5 -11.1202 -9.4847 -33.0143 -13.0011 36.9343 11.3834
# 6 0.7043 -30.2038 6.0182 -9.6509 11.3834 30.8443
#
#
#
# Elastic Compliance Matrix: (Units=1/GPa)
#
#
# Indices 1 2 3 4 5 6 
#
# 1 0.036248 -0.017040 0.004402 0.002188 0.018837 -0.024640
# 2 -0.017040 0.024430 -0.005254 -0.002028 -0.013405 0.029649
# 3 0.004402 -0.005254 0.010455 -0.001446 0.012635 -0.012401
# 4 0.002188 -0.002028 -0.001446 0.024163 0.006276 0.003490
# 5 0.018837 -0.013405 0.012635 0.006276 0.053190 -0.033689
# 6 -0.024640 0.029649 -0.012401 0.003490 -0.033689 0.077962
#
#
# Mechanical properties :
#
#
# Convention : Reuss Voigt Hill
#
# Bulk Modulus (GPa) = 28.28970 43.04711 35.66840
# Shear Modulus (GPa) = 18.24709 39.13054 28.68882
#
# Velocity S-wave (km/s) = 2.63242 3.85493 3.30076
# Velocity P-wave (km/s) = 4.47023 6.01347 5.29834
#
# Compressibility (1/GPa) = 0.03534856
#
# Stress axis : x y z
#
# Youngs Moduli (GPa) = 27.58755 40.93388 95.64443
#
# Poissons Ratio (x) = 0.69752 -0.42099
# Poissons Ratio (y) = 0.47009 0.50251
# Poissons Ratio (z) = -0.12143 0.21506
#
# Static dielectric constant tensor:
#      x y z
#    x 2.206190 0.063190 -0.029110 
#    y 0.063190 2.152480 0.012740 
#    z -0.029110 0.012740 2.117800 
# 
# From -- ./inp_files/618186.got.cif
#   From: 2010.05.17/outbox.cif.g08.bks.cpg/sg2_310_cif.got.tgz:618186.got - 2010.06.03 11:33:40.
