data_PCOD9046646
_publ_section_title
;
Structure prediction by ZEFSAII (Michael W. Deem and Ramdas Pophale) SiO2 
 PCOD9046646
Probable space group: P -1
;
_chemical_formula_sum "Si O2"
_cell_formula_units_Z 12
_cell_length_a 6.877710
_cell_length_b 4.969907
_cell_length_c 18.266555
_cell_angle_alpha 81.238023
_cell_angle_beta 49.100091
_cell_angle_gamma 70.302491
_cell_volume 442.270319
_symmetry_space_group_name_H-M "P -1"
_symmetry_group_IT_number 2
_symmetry_cell_setting 'triclinic'
loop_
_space_group_symop_operation_xyz
x,y,z
-x,-y,-z
loop_
_atom_site_type_symbol
_atom_site_label
_atom_site_fract_x
_atom_site_fract_y
_atom_site_fract_z
Si Si1 0.899148 0.314558 0.867541
Si Si2 0.585146 0.238084 0.812035
Si Si3 0.375584 0.763644 0.928534
Si Si4 0.651048 0.907555 0.571047
Si Si5 0.976448 0.464189 0.621365
Si Si6 0.696673 0.490044 0.323207
O O1 0.815962 0.164913 0.822984
O O2 0.651317 0.617644 0.915019
O O3 0.170634 0.391113 0.781830
O O4 0.862816 0.152682 0.956805
O O5 0.356510 0.509266 0.892056
O O6 0.732602 0.339013 0.705255
O O7 0.460088 0.985703 0.848386
O O8 0.785098 0.787391 0.465450
O O9 0.402976 0.781611 0.650849
O O10 0.871851 0.734339 0.582661
O O11 0.550052 0.244559 0.595249
O O12 0.077352 0.566186 0.666788
#
# Coordination Sequence:
#
# PCOD9046646 Si02
#       6
#     2   2   2   2   2   2
#     4   8  19  30  57  85 119 152 201 246 298 363
#     4   9  18  30  55  84 109 158 199 238 298 362
#     4   9  17  30  54  89 113 152 208 234 301 374
#     4  11  26  42  62  96 124 163 213 254 307 372
#     4  10  24  43  66  88 130 167 202 260 311 362
#     4  11  24  40  66  94 123 163 210 255 308 368
#
# _framework density 27.132726999999999
#
# number of rings (size 3 to 8) (size 9 to 14) (size 15 to 20)
#    1.000    1.333    0.000    1.500    4.667    6.667 
#    0.000    0.000    0.000    6.000    0.000    0.000 
#    0.000    0.000    0.000    0.000    0.000    0.000 
#
# Total GULP energy -67253.526097 kJ/mol
# GULP energy per Si atom -5604.460508 kJ/mol
# Density = 2.707097 g / cm^3
# Si number density = 27.132727 Si / 1000 Ang^3
#
#
#
# Elastic Constant Matrix: (Units=GPa)
#
#
# Indices 1 2 3 4 5 6 
#
# 1 75.7756 9.4420 18.2210 -5.2487 -9.0708 -0.6903
# 2 9.4420 73.7528 -6.0706 -6.5240 -4.6412 4.4851
# 3 18.2210 -6.0706 125.2173 -9.3424 -12.6730 -4.1347
# 4 -5.2487 -6.5240 -9.3424 38.2073 -3.6116 1.8312
# 5 -9.0708 -4.6412 -12.6730 -3.6116 47.6693 -5.3343
# 6 -0.6903 4.4851 -4.1347 1.8312 -5.3343 26.3147
#
#
#
# Elastic Compliance Matrix: (Units=1/GPa)
#
#
# Indices 1 2 3 4 5 6 
#
# 1 0.014219 -0.001749 -0.001798 0.001392 0.002246 0.000747
# 2 -0.001749 0.014345 0.001218 0.002740 0.001347 -0.002217
# 3 -0.001798 0.001218 0.008771 0.002267 0.002444 0.001461
# 4 0.001392 0.002740 0.002267 0.027744 0.003082 -0.001380
# 5 0.002246 0.001347 0.002444 0.003082 0.022940 0.004649
# 6 0.000747 -0.002217 0.001461 -0.001380 0.004649 0.039667
#
#
# Mechanical properties :
#
#
# Convention : Reuss Voigt Hill
#
# Bulk Modulus (GPa) = 30.60346 35.32561 32.96453
# Shear Modulus (GPa) = 34.90690 39.31516 37.11103
#
# Velocity S-wave (km/s) = 3.59071 3.81069 3.70233
# Velocity P-wave (km/s) = 5.33803 5.69295 5.51834
#
# Compressibility (1/GPa) = 0.03267605
#
# Stress axis : x y z
#
# Youngs Moduli (GPa) = 70.32695 69.71073 114.00604
#
# Poissons Ratio (x) = 0.12195 0.20499
# Poissons Ratio (y) = 0.12303 -0.13881
# Poissons Ratio (z) = 0.12645 -0.08488
#
# Static dielectric constant tensor:
#      x y z
#    x 2.160680 -0.084120 -0.003480 
#    y -0.084120 2.035010 0.022960 
#    z -0.003480 0.022960 2.067280 
# 
# From -- ./inp_files/584861.got.cif
#   From: 2010.05.17/outbox.cif.g08.bks.cpg/sg2_293_cif.got.tgz:584861.got - 2010.06.03 11:33:40.
