data_PCOD9046659
_publ_section_title
;
Structure prediction by ZEFSAII (Michael W. Deem and Ramdas Pophale) SiO2 
 PCOD9046659
Probable space group: P -1
;
_chemical_formula_sum "Si O2"
_cell_formula_units_Z 13
_cell_length_a 12.186558
_cell_length_b 15.440779
_cell_length_c 11.101179
_cell_angle_alpha 31.746829
_cell_angle_beta 35.510229
_cell_angle_gamma 27.060773
_cell_volume 485.782415
_symmetry_space_group_name_H-M "P -1"
_symmetry_group_IT_number 2
_symmetry_cell_setting 'triclinic'
loop_
_space_group_symop_operation_xyz
x,y,z
-x,-y,-z
loop_
_atom_site_type_symbol
_atom_site_label
_atom_site_fract_x
_atom_site_fract_y
_atom_site_fract_z
Si Si1 0.258454 0.263704 0.539205
Si Si2 0.551295 0.691419 0.449736
Si Si3 0.000000 0.500000 0.000000
Si Si4 0.061734 0.791328 0.758515
Si Si5 0.309730 0.890116 0.813543
Si Si6 0.418146 0.877674 0.089144
Si Si7 0.851244 0.235707 0.689292
O O1 0.403749 0.220197 0.582431
O O2 0.409780 0.260123 0.299291
O O3 0.000000 0.500000 0.500000
O O4 0.259331 0.070363 0.736771
O O5 0.474336 0.832921 0.234111
O O6 0.803733 0.455450 0.460906
O O7 0.343103 0.672431 0.688060
O O8 0.299849 0.264405 0.043748
O O9 0.055264 0.643515 0.847761
O O10 0.855597 0.876945 0.945597
O O11 0.000000 0.000000 0.500000
O O12 0.236586 0.769504 0.092431
O O13 0.136170 0.021842 0.696780
O O14 0.314834 0.764931 0.257493
#
# Coordination Sequence:
#
# PCOD9046659 Si02
#       7
#     2   2   1   2   2   2   2
#     4  11  23  46  68  97 134 178 229 280 338 406
#     4  11  23  45  72  99 135 185 222 282 349 407
#     4  12  24  42  66 100 142 182 226 276 338 422
#     4  10  24  43  66  96 135 185 224 276 340 406
#     4  10  25  44  69  98 132 178 230 282 334 402
#     4  11  25  44  70 102 143 179 225 284 350 419
#     4  11  22  45  70  99 135 179 225 283 340 403
#
# _framework density 26.760952
#
# number of rings (size 3 to 8) (size 9 to 14) (size 15 to 20)
#    0.000    1.231    3.077    1.846    2.154    5.538 
#    2.769    0.000    0.000    0.000    0.000    0.000 
#    0.000    0.000    0.000    0.000    0.000    0.000 
#
# Total GULP energy -72467.875874 kJ/mol
# GULP energy per Si atom -5574.451990 kJ/mol
# Density = 2.670004 g / cm^3
# Si number density = 26.760952 Si / 1000 Ang^3
#
#
#
# Elastic Constant Matrix: (Units=GPa)
#
#
# Indices 1 2 3 4 5 6 
#
# 1 166.4147 30.0274 15.1489 3.2892 -35.2860 6.0783
# 2 30.0274 184.3801 35.7303 14.7832 -12.0747 -13.2026
# 3 15.1489 35.7303 62.8488 7.2371 -21.7373 3.9707
# 4 3.2892 14.7832 7.2371 36.4236 -3.6623 -3.9208
# 5 -35.2860 -12.0747 -21.7373 -3.6623 36.9411 -0.0777
# 6 6.0783 -13.2026 3.9707 -3.9208 -0.0777 40.4032
#
#
#
# Elastic Compliance Matrix: (Units=1/GPa)
#
#
# Indices 1 2 3 4 5 6 
#
# 1 0.007853 -0.001206 0.001698 0.000073 0.008110 -0.001720
# 2 -0.001206 0.006604 -0.003944 -0.001660 -0.001473 0.002563
# 3 0.001698 -0.003944 0.022956 -0.002173 0.013616 -0.003985
# 4 0.000073 -0.001660 -0.002173 0.028932 0.001122 0.002470
# 5 0.008110 -0.001473 0.013616 0.001122 0.042452 -0.002849
# 6 -0.001720 0.002563 -0.003985 0.002470 -0.002849 0.026473
#
#
# Mechanical properties :
#
#
# Convention : Reuss Voigt Hill
#
# Bulk Modulus (GPa) = 32.77780 63.93964 48.35872
# Shear Modulus (GPa) = 32.82014 44.93608 38.87811
#
# Velocity S-wave (km/s) = 3.50583 4.10221 3.81569
# Velocity P-wave (km/s) = 5.35376 6.81045 6.12556
#
# Compressibility (1/GPa) = 0.03050845
#
# Stress axis : x y z
#
# Youngs Moduli (GPa) = 127.33961 151.41199 43.56168
#
# Poissons Ratio (x) = 0.18258 -0.07396
# Poissons Ratio (y) = 0.15355 0.17183
# Poissons Ratio (z) = -0.21619 0.59723
#
# Static dielectric constant tensor:
#      x y z
#    x 2.209480 -0.165670 0.117130 
#    y -0.165670 2.290320 0.008710 
#    z 0.117130 0.008710 2.246170 
# 
# From -- ./inp_files/430883.got.cif
#   From: 2010.05.17/outbox.cif.g08.bks.cpg/sg2_216_cif.got.tgz:430883.got - 2010.06.03 11:33:40.
