data_PCOD9046457
_publ_section_title
;
Structure prediction by ZEFSAII (Michael W. Deem and Ramdas Pophale) SiO2 
 PCOD9046457
Probable space group: P -1
;
_chemical_formula_sum "Si O2"
_cell_formula_units_Z 15
_cell_length_a 7.419310
_cell_length_b 8.257795
_cell_length_c 11.835676
_cell_angle_alpha 84.602648
_cell_angle_beta 53.206179
_cell_angle_gamma 93.845898
_cell_volume 571.144690
_symmetry_space_group_name_H-M "P -1"
_symmetry_group_IT_number 2
_symmetry_cell_setting 'triclinic'
loop_
_space_group_symop_operation_xyz
x,y,z
-x,-y,-z
loop_
_atom_site_type_symbol
_atom_site_label
_atom_site_fract_x
_atom_site_fract_y
_atom_site_fract_z
Si Si1 0.616177 0.831850 0.388183
Si Si2 0.634172 0.283161 0.295671
Si Si3 0.500000 0.500000 0.000000
Si Si4 0.036011 0.412981 0.300835
Si Si5 0.109499 0.803359 0.230248
Si Si6 0.323691 0.369320 0.847569
Si Si7 0.141462 0.850690 0.968663
Si Si8 0.174464 0.870270 0.445804
O O1 0.556674 0.739196 0.535245
O O2 0.885752 0.894688 0.293982
O O3 0.602732 0.721758 0.285787
O O4 0.390185 0.916765 0.445689
O O5 0.618846 0.440516 0.216520
O O6 0.864240 0.325657 0.277785
O O7 0.673223 0.145758 0.198628
O O8 0.712947 0.589483 0.838471
O O9 0.432343 0.361936 0.929762
O O10 0.959787 0.306227 0.447974
O O11 0.017314 0.607775 0.293598
O O12 0.233742 0.833291 0.061278
O O13 0.241552 0.859162 0.290314
O O14 0.052603 0.309115 0.961530
O O15 0.000000 0.000000 0.000000
O O16 0.000000 0.000000 0.500000
#
# Coordination Sequence:
#
# PCOD9046457 Si02
#       8
#     2   2   1   2   2   2   2   2
#     4  10  24  42  73 103 141 177 239 297 359 425
#     4  11  21  42  71  99 133 184 238 298 351 422
#     4  12  24  36  72 106 146 180 234 304 354 424
#     4  11  23  43  72 102 142 185 241 302 354 427
#     4  11  24  46  71 104 137 191 241 300 361 422
#     4  11  22  42  67 106 134 182 241 292 356 419
#     4  11  24  42  69  99 146 190 234 292 360 440
#     4  11  27  45  68 105 148 186 238 299 365 442
#
# _framework density 26.263048999999999
#
# number of rings (size 3 to 8) (size 9 to 14) (size 15 to 20)
#    0.000    1.067    4.000    2.800    7.467    0.533 
#    2.400    0.000    0.000    6.400    0.000    0.000 
#    0.000    0.000    0.000    0.000    0.000    0.000 
#
# Total GULP energy -83641.417355 kJ/mol
# GULP energy per Si atom -5576.094490 kJ/mol
# Density = 2.620327 g / cm^3
# Si number density = 26.263049 Si / 1000 Ang^3
#
#
#
# Elastic Constant Matrix: (Units=GPa)
#
#
# Indices 1 2 3 4 5 6 
#
# 1 102.6463 7.3018 33.3076 -3.0122 25.7291 -10.1999
# 2 7.3018 78.6343 8.8192 -2.2725 18.3396 -18.4805
# 3 33.3076 8.8192 146.3527 4.8036 12.8166 3.4027
# 4 -3.0122 -2.2725 4.8036 36.2294 11.8191 3.1638
# 5 25.7291 18.3396 12.8166 11.8191 40.6919 -3.9321
# 6 -10.1999 -18.4805 3.4027 3.1638 -3.9321 35.9772
#
#
#
# Elastic Compliance Matrix: (Units=1/GPa)
#
#
# Indices 1 2 3 4 5 6 
#
# 1 0.013305 0.002288 -0.002561 0.004374 -0.009544 0.003762
# 2 0.002288 0.016690 -0.001051 0.003579 -0.008901 0.008034
# 3 -0.002561 -0.001051 0.007573 -0.001062 -0.000168 -0.001907
# 4 0.004374 0.003579 -0.001062 0.032913 -0.013722 -0.001215
# 5 -0.009544 -0.008901 -0.000168 -0.013722 0.038481 -0.001850
# 6 0.003762 0.008034 -0.001907 -0.001215 -0.001850 0.033074
#
#
# Mechanical properties :
#
#
# Convention : Reuss Voigt Hill
#
# Bulk Modulus (GPa) = 28.63709 47.38784 38.01246
# Shear Modulus (GPa) = 31.98479 41.12667 36.55573
#
# Velocity S-wave (km/s) = 3.49357 3.96150 3.73487
# Velocity P-wave (km/s) = 5.21546 6.24559 5.75363
#
# Compressibility (1/GPa) = 0.03491975
#
# Stress axis : x y z
#
# Youngs Moduli (GPa) = 75.15960 59.91617 132.04921
#
# Poissons Ratio (x) = -0.13711 0.33819
# Poissons Ratio (y) = -0.17199 0.13882
# Poissons Ratio (z) = 0.19249 0.06299
#
# Static dielectric constant tensor:
#      x y z
#    x 2.031940 -0.055190 -0.015640 
#    y -0.055190 2.155130 0.070360 
#    z -0.015640 0.070360 2.048220 
# 
# From -- ./inp_files/203737.got.cif
#   From: 2010.05.17/outbox.cif.g08.bks.cpg/sg2_102_cif.got.tgz:203737.got - 2010.06.03 11:33:40.
