data_PCOD9046775
_publ_section_title
;
Structure prediction by ZEFSAII (Michael W. Deem and Ramdas Pophale) SiO2 
 PCOD9046775
Probable space group: P -1
;
_chemical_formula_sum "Si O2"
_cell_formula_units_Z 16
_cell_length_a 5.921644
_cell_length_b 15.793597
_cell_length_c 9.100148
_cell_angle_alpha 77.790479
_cell_angle_beta 126.206922
_cell_angle_gamma 88.213562
_cell_volume 657.916259
_symmetry_space_group_name_H-M "P -1"
_symmetry_group_IT_number 2
_symmetry_cell_setting 'triclinic'
loop_
_space_group_symop_operation_xyz
x,y,z
-x,-y,-z
loop_
_atom_site_type_symbol
_atom_site_label
_atom_site_fract_x
_atom_site_fract_y
_atom_site_fract_z
Si Si1 0.664921 0.000542 0.907142
Si Si2 0.484072 0.184710 0.617113
Si Si3 0.585670 0.079820 0.406541
Si Si4 0.211840 0.739719 0.046118
Si Si5 0.124639 0.808055 0.683473
Si Si6 0.653975 0.657395 0.847938
Si Si7 0.647795 0.438705 0.448540
Si Si8 0.735685 0.588176 0.205382
O O1 0.607164 0.920231 0.812241
O O2 0.505953 0.093191 0.745779
O O3 0.500000 0.000000 0.000000
O O4 0.000000 0.000000 0.000000
O O5 0.553898 0.156519 0.487305
O O6 0.706698 0.230004 0.773306
O O7 0.150887 0.227979 0.464564
O O8 0.870780 0.098257 0.427574
O O9 0.500000 0.000000 0.500000
O O10 0.490021 0.667931 0.134682
O O11 0.144969 0.815247 0.865846
O O12 0.941867 0.694234 0.946898
O O13 0.397982 0.734448 0.774521
O O14 0.559239 0.622274 0.670745
O O15 0.704748 0.582024 0.020833
O O16 0.500000 0.500000 0.500000
O O17 0.705113 0.500697 0.312880
O O18 0.956270 0.391278 0.642611
#
# Coordination Sequence:
#
# PCOD9046775 Si02
#       8
#     2   2   2   2   2   2   2   2
#     4  11  27  46  76 107 146 190 248 306 376 449
#     4  11  26  44  71  99 143 184 238 296 371 433
#     4  10  25  44  70 103 138 182 239 299 364 433
#     4  11  25  45  69 101 140 186 236 296 357 435
#     4  11  25  44  71  98 141 186 240 296 364 441
#     4  11  25  44  69 100 140 182 240 288 360 427
#     4  11  24  43  70 102 139 183 233 290 351 425
#     4  10  24  43  68 100 140 183 234 284 357 421
#
# _framework density 24.319206000000001
#
# number of rings (size 3 to 8) (size 9 to 14) (size 15 to 20)
#    0.000    1.250    0.000    3.375    8.750   13.000 
#    0.000    0.000    0.000    0.000    0.000    0.000 
#    0.000    0.000    0.000    0.000    0.000    0.000 
#
# Total GULP energy -89331.375887 kJ/mol
# GULP energy per Si atom -5583.210993 kJ/mol
# Density = 2.426385 g / cm^3
# Si number density = 24.319206 Si / 1000 Ang^3
#
#
#
# Elastic Constant Matrix: (Units=GPa)
#
#
# Indices 1 2 3 4 5 6 
#
# 1 136.4554 43.2333 97.7524 18.2633 6.8962 10.1091
# 2 43.2333 73.0391 58.5730 36.1028 11.1110 5.0985
# 3 97.7524 58.5730 176.3907 40.3545 20.6651 -1.3561
# 4 18.2633 36.1028 40.3545 69.4496 5.9767 -4.3265
# 5 6.8962 11.1110 20.6651 5.9767 47.7988 0.7688
# 6 10.1091 5.0985 -1.3561 -4.3265 0.7688 39.5353
#
#
#
# Elastic Compliance Matrix: (Units=1/GPa)
#
#
# Indices 1 2 3 4 5 6 
#
# 1 0.013162 -0.003267 -0.006858 0.001894 0.001637 -0.003004
# 2 -0.003267 0.023813 -0.003716 -0.009377 -0.002231 -0.003346
# 3 -0.006858 -0.003716 0.011667 -0.002645 -0.002899 0.002400
# 4 0.001894 -0.009377 -0.002645 0.020453 0.000447 0.002864
# 5 0.001637 -0.002231 -0.002899 0.000447 0.022411 -0.000617
# 6 -0.003004 -0.003346 0.002400 0.002864 -0.000617 0.026901
#
#
# Mechanical properties :
#
#
# Convention : Reuss Voigt Hill
#
# Bulk Modulus (GPa) = 47.70751 87.22251 67.46501
# Shear Modulus (GPa) = 32.66370 43.77850 38.22110
#
# Velocity S-wave (km/s) = 3.66884 4.24743 3.96870
# Velocity P-wave (km/s) = 6.13245 7.74583 6.98587
#
# Compressibility (1/GPa) = 0.02096106
#
# Stress axis : x y z
#
# Youngs Moduli (GPa) = 75.97367 41.99352 85.71413
#
# Poissons Ratio (x) = 0.13720 0.58779
# Poissons Ratio (y) = 0.24821 0.31851
# Poissons Ratio (z) = 0.52100 0.15605
#
# Static dielectric constant tensor:
#      x y z
#    x 2.003410 0.033580 -0.024570 
#    y 0.033580 1.987850 -0.022970 
#    z -0.024570 -0.022970 1.944600 
# 
# From -- ./inp_files/139007.got.cif
#   From: 2010.05.17/outbox.cif.g08.bks.cpg/sg2_70_cif.got.tgz:139007.got - 2010.06.03 11:33:40.
