data_PCOD9046617
_publ_section_title
;
Structure prediction by ZEFSAII (Michael W. Deem and Ramdas Pophale) SiO2 
 PCOD9046617
Probable space group: P -1
;
_chemical_formula_sum "Si O2"
_cell_formula_units_Z 14
_cell_length_a 8.953159
_cell_length_b 13.078734
_cell_length_c 5.452569
_cell_angle_alpha 76.720889
_cell_angle_beta 82.880496
_cell_angle_gamma 101.339590
_cell_volume 599.629820
_symmetry_space_group_name_H-M "P -1"
_symmetry_group_IT_number 2
_symmetry_cell_setting 'triclinic'
loop_
_space_group_symop_operation_xyz
x,y,z
-x,-y,-z
loop_
_atom_site_type_symbol
_atom_site_label
_atom_site_fract_x
_atom_site_fract_y
_atom_site_fract_z
Si Si1 0.133559 0.548146 0.134850
Si Si2 0.052465 0.099206 0.628632
Si Si3 0.250036 0.013033 0.993262
Si Si4 0.923423 0.661205 0.409021
Si Si5 0.455431 0.677031 0.852250
Si Si6 0.508633 0.088766 0.242529
Si Si7 0.405191 0.377031 0.636415
O O1 0.137817 0.447043 0.361201
O O2 0.076841 0.640816 0.253314
O O3 0.293477 0.589484 0.937061
O O4 0.000000 0.500000 0.000000
O O5 0.057855 0.225538 0.509590
O O6 0.208400 0.085019 0.741028
O O7 0.000000 0.000000 0.500000
O O8 0.911086 0.066611 0.865821
O O9 0.341133 0.084039 0.157389
O O10 0.368236 0.939478 0.953212
O O11 0.778425 0.651932 0.260107
O O12 0.420227 0.792301 0.749013
O O13 0.569522 0.668961 0.611940
O O14 0.520101 0.666992 0.118277
O O15 0.500000 0.000000 0.500000
O O16 0.500000 0.500000 0.500000
#
# Coordination Sequence:
#
# PCOD9046617 Si02
#       7
#     2   2   2   2   2   2   2
#     4  11  26  47  71 107 139 197 238 310 372 446
#     4  11  24  44  69 101 142 192 235 295 365 439
#     4  10  24  43  66 100 142 181 246 289 357 428
#     4  11  26  44  74 102 150 184 251 301 369 441
#     4  12  28  46  78 105 149 192 247 299 378 434
#     4  11  25  44  71 101 143 189 239 303 356 436
#     4  12  26  49  75 111 142 195 245 310 366 441
#
# _framework density 23.347739000000001
#
# number of rings (size 3 to 8) (size 9 to 14) (size 15 to 20)
#    0.000    0.857    1.429    3.857   12.000    4.571 
#    0.000    0.000    0.000    0.000    0.000    0.000 
#    0.000    0.000    0.000    0.000    0.000    0.000 
#
# Total GULP energy -78159.312736 kJ/mol
# GULP energy per Si atom -5582.808053 kJ/mol
# Density = 2.329460 g / cm^3
# Si number density = 23.347739 Si / 1000 Ang^3
#
#
#
# Elastic Constant Matrix: (Units=GPa)
#
#
# Indices 1 2 3 4 5 6 
#
# 1 102.3687 3.9720 17.6476 -4.7395 9.1386 2.0105
# 2 3.9720 124.1556 23.0260 -12.0708 2.8104 -20.3641
# 3 17.6476 23.0260 79.1843 -4.4603 8.8230 -2.6368
# 4 -4.7395 -12.0708 -4.4603 26.3537 -0.4568 -3.5150
# 5 9.1386 2.8104 8.8230 -0.4568 36.8951 1.7319
# 6 2.0105 -20.3641 -2.6368 -3.5150 1.7319 28.8634
#
#
#
# Elastic Compliance Matrix: (Units=1/GPa)
#
#
# Indices 1 2 3 4 5 6 
#
# 1 0.010380 0.000161 -0.002064 0.001490 -0.002048 -0.000494
# 2 0.000161 0.010295 -0.002410 0.005356 -0.000544 0.007717
# 3 -0.002064 -0.002410 0.014137 0.000871 -0.002675 0.000001
# 4 0.001490 0.005356 0.000871 0.041989 -0.000884 0.008921
# 5 -0.002048 -0.000544 -0.002675 -0.000884 0.028389 -0.002296
# 6 -0.000494 0.007717 0.000001 0.008921 -0.002296 0.041349
#
#
# Mechanical properties :
#
#
# Convention : Reuss Voigt Hill
#
# Bulk Modulus (GPa) = 38.19093 43.88887 41.03990
# Shear Modulus (GPa) = 30.50743 35.82666 33.16705
#
# Velocity S-wave (km/s) = 3.61869 3.92149 3.77313
# Velocity P-wave (km/s) = 5.81832 6.27239 6.04962
#
# Compressibility (1/GPa) = 0.02618422
#
# Stress axis : x y z
#
# Youngs Moduli (GPa) = 96.34149 97.13344 70.73668
#
# Poissons Ratio (x) = -0.01564 0.14603
# Poissons Ratio (y) = -0.01551 0.17050
# Poissons Ratio (z) = 0.19889 0.23413
#
# Static dielectric constant tensor:
#      x y z
#    x 1.652260 -0.002270 -0.140390 
#    y -0.002270 2.008800 0.057530 
#    z -0.140390 0.057530 1.726370 
# 
# From -- ./inp_files/26900.got.cif
#   From: 2010.05.17/outbox.cif.g08.bks.cpg/sg2_14_cif.got.tgz:26900.got - 2010.06.03 11:33:40.
