data_PCOD9046529
_publ_section_title
;
Structure prediction by ZEFSAII (Michael W. Deem and Ramdas Pophale) SiO2 
 PCOD9046529
Probable space group: P -1
;
_chemical_formula_sum "Si O2"
_cell_formula_units_Z 16
_cell_length_a 10.252051
_cell_length_b 12.256166
_cell_length_c 7.405560
_cell_angle_alpha 44.282150
_cell_angle_beta 88.562301
_cell_angle_gamma 82.165720
_cell_volume 640.069614
_symmetry_space_group_name_H-M "P -1"
_symmetry_group_IT_number 2
_symmetry_cell_setting 'triclinic'
loop_
_space_group_symop_operation_xyz
x,y,z
-x,-y,-z
loop_
_atom_site_type_symbol
_atom_site_label
_atom_site_fract_x
_atom_site_fract_y
_atom_site_fract_z
Si Si1 0.390622 0.886838 0.593046
Si Si2 0.274889 0.481295 0.856669
Si Si3 0.807800 0.540621 0.511905
Si Si4 0.271632 0.111461 0.818089
Si Si5 0.072577 0.625084 0.957344
Si Si6 0.565255 0.194251 0.706616
Si Si7 0.568610 0.397861 0.809275
Si Si8 0.820905 0.843398 0.643820
O O1 0.429633 0.789061 0.527462
O O2 0.379370 0.769562 0.895704
O O3 0.500000 0.000000 0.500000
O O4 0.254842 0.007144 0.424530
O O5 0.204791 0.519637 0.619018
O O6 0.208603 0.605403 0.862016
O O7 0.431039 0.457027 0.845373
O O8 0.443956 0.661836 0.324497
O O9 0.810598 0.728850 0.278899
O O10 0.912972 0.437611 0.763019
O O11 0.675033 0.514348 0.657134
O O12 0.423062 0.140009 0.799147
O O13 0.214641 0.119774 0.607913
O O14 0.300796 0.930893 0.101175
O O15 0.245917 0.308974 0.122034
O O16 0.000000 0.500000 0.000000
O O17 0.975391 0.790823 0.743246
#
# Coordination Sequence:
#
# PCOD9046529 Si02
#       8
#     2   2   2   2   2   2   2   2
#     4  12  21  40  68  97 126 172 217 265 328 376
#     4  11  22  39  64  94 132 169 207 258 337 379
#     4  12  25  41  62  99 135 169 211 266 326 388
#     4  11  19  38  64  90 132 158 209 268 309 379
#     4  10  24  43  62  92 128 176 221 267 305 380
#     4  11  22  37  62  97 130 164 209 266 324 382
#     4  12  25  39  64 102 138 163 204 272 334 391
#     4  11  21  42  67  94 126 166 227 271 302 375
#
# _framework density 24.997281000000001
#
# number of rings (size 3 to 8) (size 9 to 14) (size 15 to 20)
#    0.000    0.750    7.500    1.875    0.000    3.500 
#    2.250    0.625    0.000    1.500    0.000    0.000 
#    0.000    0.000    0.000    0.000    0.000    0.000 
#
# Total GULP energy -89455.815816 kJ/mol
# GULP energy per Si atom -5590.988489 kJ/mol
# Density = 2.494039 g / cm^3
# Si number density = 24.997281 Si / 1000 Ang^3
#
#
#
# Elastic Constant Matrix: (Units=GPa)
#
#
# Indices 1 2 3 4 5 6 
#
# 1 72.2898 23.6262 11.1779 -25.1913 12.7624 -10.1157
# 2 23.6262 134.4536 25.6715 -11.4936 20.9282 -9.7766
# 3 11.1779 25.6715 135.3198 13.3556 32.6730 -7.9991
# 4 -25.1913 -11.4936 13.3556 58.5627 -0.6214 6.9056
# 5 12.7624 20.9282 32.6730 -0.6214 46.2107 -3.1129
# 6 -10.1157 -9.7766 -7.9991 6.9056 -3.1129 38.7998
#
#
#
# Elastic Compliance Matrix: (Units=1/GPa)
#
#
# Indices 1 2 3 4 5 6 
#
# 1 0.017999 -0.001664 -0.000952 0.007302 -0.003277 0.002515
# 2 -0.001664 0.008477 -0.000851 0.000980 -0.002688 0.001137
# 3 -0.000952 -0.000851 0.009458 -0.002978 -0.005975 0.001538
# 4 0.007302 0.000980 -0.002978 0.021355 -0.000221 -0.002282
# 5 -0.003277 -0.002688 -0.005975 -0.000221 0.027952 -0.000482
# 6 0.002515 0.001137 0.001538 -0.002282 -0.000482 0.027400
#
#
# Mechanical properties :
#
#
# Convention : Reuss Voigt Hill
#
# Bulk Modulus (GPa) = 34.48334 51.44606 42.96470
# Shear Modulus (GPa) = 38.68746 47.48713 43.08729
#
# Velocity S-wave (km/s) = 3.93831 4.36327 4.15623
# Velocity P-wave (km/s) = 5.87411 6.78303 6.34487
#
# Compressibility (1/GPa) = 0.02899951
#
# Stress axis : x y z
#
# Youngs Moduli (GPa) = 55.55835 117.96308 105.73619
#
# Poissons Ratio (x) = 0.19629 0.10066
# Poissons Ratio (y) = 0.09245 0.09000
# Poissons Ratio (z) = 0.05289 0.10041
#
# Static dielectric constant tensor:
#      x y z
#    x 2.085940 0.000460 -0.003650 
#    y 0.000460 1.974810 -0.059080 
#    z -0.003650 -0.059080 2.069490 
# 
# From -- ./inp_files/309066.got.cif
#   From: 2010.05.17/outbox.cif.g08.bks.cpg/sg2_155_cif.got.tgz:309066.got - 2010.06.03 11:33:40.
