data_PCOD9046413
_publ_section_title
;
Structure prediction by ZEFSAII (Michael W. Deem and Ramdas Pophale) SiO2 
 PCOD9046413
Probable space group: P -1
;
_chemical_formula_sum "Si O2"
_cell_formula_units_Z 14
_cell_length_a 16.408676
_cell_length_b 5.519221
_cell_length_c 11.618591
_cell_angle_alpha 89.546124
_cell_angle_beta 133.861990
_cell_angle_gamma 64.938892
_cell_volume 609.667967
_symmetry_space_group_name_H-M "P -1"
_symmetry_group_IT_number 2
_symmetry_cell_setting 'triclinic'
loop_
_space_group_symop_operation_xyz
x,y,z
-x,-y,-z
loop_
_atom_site_type_symbol
_atom_site_label
_atom_site_fract_x
_atom_site_fract_y
_atom_site_fract_z
Si Si1 0.602976 0.687506 0.667854
Si Si2 0.289118 0.493248 0.590808
Si Si3 0.785948 0.751930 0.024661
Si Si4 0.632996 0.679767 0.083669
Si Si5 0.438873 0.595515 0.176083
Si Si6 0.821935 0.142636 0.726671
Si Si7 0.908639 0.535214 0.756522
O O1 0.520446 0.635738 0.681265
O O2 0.687480 0.403983 0.665900
O O3 0.500000 0.000000 0.500000
O O4 0.718072 0.686483 0.854619
O O5 0.277902 0.507317 0.716230
O O6 0.453813 0.318792 0.725726
O O7 0.215145 0.804558 0.446981
O O8 0.217901 0.358325 0.457802
O O9 0.730080 0.701661 0.088180
O O10 0.950964 0.567008 0.171189
O O11 0.714982 0.106190 0.949432
O O12 0.569348 0.536827 0.950612
O O13 0.500000 0.000000 0.000000
O O14 0.923873 0.249789 0.832057
O O15 0.132592 0.188524 0.203135
#
# Coordination Sequence:
#
# PCOD9046413 Si02
#       7
#     2   2   2   2   2   2   2
#     4  11  27  44  73 107 143 185 243 301 358 421
#     4  10  24  42  72 103 144 182 237 293 358 424
#     4  11  26  46  71 104 142 187 241 296 353 437
#     4  11  24  41  71 107 141 182 240 297 362 416
#     4  11  25  43  73 102 143 184 242 297 361 420
#     4  10  26  46  72 102 148 191 240 286 364 424
#     4  10  27  47  71 107 145 195 236 291 363 429
#
# _framework density 22.963318999999998
#
# number of rings (size 3 to 8) (size 9 to 14) (size 15 to 20)
#    0.857    0.571    1.429    1.286   12.000    2.857 
#    0.000    2.143    0.000    0.000    0.000    0.000 
#    0.000    0.000    0.000    0.000    0.000    0.000 
#
# Total GULP energy -78249.351822 kJ/mol
# GULP energy per Si atom -5589.239416 kJ/mol
# Density = 2.291105 g / cm^3
# Si number density = 22.963319 Si / 1000 Ang^3
#
#
#
# Elastic Constant Matrix: (Units=GPa)
#
#
# Indices 1 2 3 4 5 6 
#
# 1 128.5519 59.5871 70.7242 4.8685 -0.6797 10.0811
# 2 59.5871 149.8937 53.6139 17.5750 10.6762 -8.2206
# 3 70.7242 53.6139 119.3341 31.4703 -3.0459 4.4066
# 4 4.8685 17.5750 31.4703 33.6522 3.8343 -2.1858
# 5 -0.6797 10.6762 -3.0459 3.8343 51.4226 -6.2060
# 6 10.0811 -8.2206 4.4066 -2.1858 -6.2060 30.3741
#
#
#
# Elastic Compliance Matrix: (Units=1/GPa)
#
#
# Indices 1 2 3 4 5 6 
#
# 1 0.014320 -0.003645 -0.008791 0.007865 -0.000647 -0.004030
# 2 -0.003645 0.009242 -0.001493 -0.002513 -0.001452 0.003450
# 3 -0.008791 -0.001493 0.018441 -0.015513 0.002347 -0.000799
# 4 0.007865 -0.002513 -0.015513 0.044888 -0.003461 0.001483
# 5 -0.000647 -0.001452 0.002347 -0.003461 0.020551 0.003431
# 6 -0.004030 0.003450 -0.000799 0.001483 0.003431 0.036118
#
#
# Mechanical properties :
#
#
# Convention : Reuss Voigt Hill
#
# Bulk Modulus (GPa) = 70.70261 85.07003 77.88632
# Shear Modulus (GPa) = 28.38757 37.34675 32.86716
#
# Velocity S-wave (km/s) = 3.51980 4.03720 3.78734
# Velocity P-wave (km/s) = 6.88294 7.67192 7.28812
#
# Compressibility (1/GPa) = 0.01414375
#
# Stress axis : x y z
#
# Youngs Moduli (GPa) = 69.83362 108.20178 54.22666
#
# Poissons Ratio (x) = 0.39443 0.47669
# Poissons Ratio (y) = 0.25457 0.08099
# Poissons Ratio (z) = 0.61389 0.16160
#
# Static dielectric constant tensor:
#      x y z
#    x 1.866820 0.034650 -0.011990 
#    y 0.034650 1.873530 -0.016520 
#    z -0.011990 -0.016520 1.887790 
# 
# From -- ./inp_files/85371.got.cif
#   From: 2010.05.17/outbox.cif.g08.bks.cpg/sg2_43_cif.got.tgz:85371.got - 2010.06.03 11:33:40.
