data_PCOD9046363
_publ_section_title
;
Structure prediction by ZEFSAII (Michael W. Deem and Ramdas Pophale) SiO2 
 PCOD9046363
Probable space group: P -1
;
_chemical_formula_sum "Si O2"
_cell_formula_units_Z 16
_cell_length_a 19.934213
_cell_length_b 11.165982
_cell_length_c 16.671975
_cell_angle_alpha 42.404339
_cell_angle_beta 158.701377
_cell_angle_gamma 147.675531
_cell_volume 697.518710
_symmetry_space_group_name_H-M "P -1"
_symmetry_group_IT_number 2
_symmetry_cell_setting 'triclinic'
loop_
_space_group_symop_operation_xyz
x,y,z
-x,-y,-z
loop_
_atom_site_type_symbol
_atom_site_label
_atom_site_fract_x
_atom_site_fract_y
_atom_site_fract_z
Si Si1 0.553536 0.715525 0.349441
Si Si2 0.952436 0.292726 0.684786
Si Si3 0.351232 0.208286 0.392641
Si Si4 0.930133 0.446261 0.149240
Si Si5 0.453839 0.553727 0.042523
Si Si6 0.179967 0.726425 0.142303
Si Si7 0.166175 0.208810 0.520259
Si Si8 0.532140 0.808707 0.852843
O O1 0.407346 0.440232 0.311151
O O2 0.628079 0.772109 0.496931
O O3 0.779118 0.849540 0.474838
O O4 0.353354 0.738579 0.094605
O O5 0.025258 0.461629 0.756731
O O6 0.710881 0.225763 0.410120
O O7 0.885045 0.052564 0.758813
O O8 0.171796 0.415802 0.806936
O O9 0.573221 0.229501 0.596086
O O10 0.053807 0.662507 0.118906
O O11 0.058079 0.338269 0.327891
O O12 0.577222 0.627971 0.229506
O O13 0.498396 0.390683 0.132676
O O14 0.565608 0.769178 0.001053
O O15 0.250769 0.947552 0.065122
O O16 0.000000 0.500000 0.000000
O O17 0.000000 0.000000 0.500000
#
# Coordination Sequence:
#
# PCOD9046363 Si02
#       8
#     2   2   2   2   2   2   2   2
#     4  11  24  46  68 104 141 177 234 277 349 413
#     4  11  24  44  70 104 138 177 232 282 345 410
#     4  10  24  42  71 105 138 184 223 290 342 409
#     4  12  25  45  71 100 140 178 228 290 342 409
#     4  11  24  46  68  98 139 187 231 277 349 413
#     4  11  23  42  70 102 141 180 231 284 346 405
#     4  12  28  46  70 100 139 183 232 286 346 417
#     4  10  25  43  68 101 139 184 229 285 342 413
#
# _framework density 22.938454
#
# number of rings (size 3 to 8) (size 9 to 14) (size 15 to 20)
#    0.000    1.000    5.000    0.375    3.500    6.000 
#    4.500    0.000    0.000    0.000    0.000    0.000 
#    0.000    0.000    0.000    0.000    0.000    0.000 
#
# Total GULP energy -89564.011113 kJ/mol
# GULP energy per Si atom -5597.750695 kJ/mol
# Density = 2.288624 g / cm^3
# Si number density = 22.938454 Si / 1000 Ang^3
#
#
#
# Elastic Constant Matrix: (Units=GPa)
#
#
# Indices 1 2 3 4 5 6 
#
# 1 77.0189 9.6784 16.9888 -7.4414 20.8960 19.4566
# 2 9.6784 95.8349 15.7663 -6.6442 12.0339 22.8429
# 3 16.9888 15.7663 72.7285 -8.7085 13.2206 11.5679
# 4 -7.4414 -6.6442 -8.7085 22.8090 1.9002 0.1954
# 5 20.8960 12.0339 13.2206 1.9002 38.1168 6.1672
# 6 19.4566 22.8429 11.5679 0.1954 6.1672 29.6364
#
#
#
# Elastic Compliance Matrix: (Units=1/GPa)
#
#
# Indices 1 2 3 4 5 6 
#
# 1 0.019350 0.002944 -0.000398 0.007938 -0.009717 -0.012848
# 2 0.002944 0.013874 -0.000449 0.005282 -0.004224 -0.011607
# 3 -0.000398 -0.000449 0.016358 0.006431 -0.004856 -0.004809
# 4 0.007938 0.005282 0.006431 0.051276 -0.009151 -0.010227
# 5 -0.009717 -0.004224 -0.004856 -0.009151 0.034316 0.004449
# 6 -0.012848 -0.011607 -0.004809 -0.010227 0.004449 0.052143
#
#
# Mechanical properties :
#
#
# Convention : Reuss Voigt Hill
#
# Bulk Modulus (GPa) = 18.59528 36.71661 27.65594
# Shear Modulus (GPa) = 24.86960 31.65570 28.26265
#
# Velocity S-wave (km/s) = 3.29627 3.71890 3.51395
# Velocity P-wave (km/s) = 4.75515 5.87211 5.34290
#
# Compressibility (1/GPa) = 0.05377708
#
# Stress axis : x y z
#
# Youngs Moduli (GPa) = 51.67827 72.07498 61.13305
#
# Poissons Ratio (x) = -0.21220 0.02433
# Poissons Ratio (y) = -0.15215 0.02744
# Poissons Ratio (z) = 0.02057 0.03236
#
# Static dielectric constant tensor:
#      x y z
#    x 2.179190 0.209990 -0.294280 
#    y 0.209990 1.981370 -0.162210 
#    z -0.294280 -0.162210 2.094540 
# 
# From -- ./inp_files/278873.got.cif
#   From: 2010.05.17/outbox.cif.g08.bks.cpg/sg2_140_cif.got.tgz:278873.got - 2010.06.03 11:33:40.
