data_PCOD9046418
_publ_section_title
;
Structure prediction by ZEFSAII (Michael W. Deem and Ramdas Pophale) SiO2 
 PCOD9046418
Probable space group: P -1
;
_chemical_formula_sum "Si O2"
_cell_formula_units_Z 15
_cell_length_a 12.065469
_cell_length_b 9.299373
_cell_length_c 21.431209
_cell_angle_alpha 136.408659
_cell_angle_beta 153.686073
_cell_angle_gamma 35.791013
_cell_volume 623.355438
_symmetry_space_group_name_H-M "P -1"
_symmetry_group_IT_number 2
_symmetry_cell_setting 'triclinic'
loop_
_space_group_symop_operation_xyz
x,y,z
-x,-y,-z
loop_
_atom_site_type_symbol
_atom_site_label
_atom_site_fract_x
_atom_site_fract_y
_atom_site_fract_z
Si Si1 0.675761 0.657576 0.417458
Si Si2 0.049251 0.096112 0.703623
Si Si3 0.579943 0.344052 0.928120
Si Si4 0.087010 0.397566 0.212883
Si Si5 0.533533 0.373973 0.164068
Si Si6 0.000000 0.500000 0.000000
Si Si7 0.517459 0.887907 0.779784
Si Si8 0.591130 0.764208 0.550862
O O1 0.494598 0.554453 0.259381
O O2 0.684941 0.639955 0.491274
O O3 0.000000 0.500000 0.500000
O O4 0.512020 0.948414 0.414154
O O5 0.110762 0.313264 0.809084
O O6 0.702295 0.221289 0.569433
O O7 0.189355 0.893560 0.765081
O O8 0.209257 0.957117 0.676982
O O9 0.429572 0.511962 0.844184
O O10 0.513886 0.132141 0.836514
O O11 0.500000 0.500000 0.000000
O O12 0.922161 0.258780 0.067096
O O13 0.381826 0.277667 0.282902
O O14 0.161497 0.365226 0.313043
O O15 0.233367 0.379674 0.021209
O O16 0.761473 0.733438 0.907596
#
# Coordination Sequence:
#
# PCOD9046418 Si02
#       8
#     2   2   2   2   2   1   2   2
#     4  11  25  47  73 102 140 190 243 290 355 419
#     4  11  26  47  68 108 141 192 240 292 356 416
#     4  12  26  45  72 108 143 185 236 294 358 428
#     4  12  26  45  71 103 150 182 236 297 358 425
#     4  11  25  48  75 102 145 188 239 294 356 429
#     4  10  24  42  72 104 140 184 234 288 350 434
#     4  11  25  47  71 107 143 193 234 289 368 423
#     4  11  27  45  71 107 140 189 242 296 348 430
#
# _framework density 24.063317999999999
#
# number of rings (size 3 to 8) (size 9 to 14) (size 15 to 20)
#    0.000    0.800    4.000    1.600    7.467    3.200 
#    0.000    0.000    0.000    0.000    0.000    0.000 
#    0.000    0.000    0.000    0.000    0.000    0.000 
#
# Total GULP energy -83713.436114 kJ/mol
# GULP energy per Si atom -5580.895741 kJ/mol
# Density = 2.400855 g / cm^3
# Si number density = 24.063318 Si / 1000 Ang^3
#
#
#
# Elastic Constant Matrix: (Units=GPa)
#
#
# Indices 1 2 3 4 5 6 
#
# 1 154.3330 56.3761 26.4543 -6.8003 -33.0073 5.8979
# 2 56.3761 117.3680 31.5739 1.7086 -26.5387 15.3224
# 3 26.4543 31.5739 47.5900 -11.1195 -18.0193 11.6205
# 4 -6.8003 1.7086 -11.1195 24.1194 -5.1243 -2.4304
# 5 -33.0073 -26.5387 -18.0193 -5.1243 44.0976 -5.1511
# 6 5.8979 15.3224 11.6205 -2.4304 -5.1511 52.0056
#
#
#
# Elastic Compliance Matrix: (Units=1/GPa)
#
#
# Indices 1 2 3 4 5 6 
#
# 1 0.008941 -0.003226 -0.000100 0.003883 0.005238 0.000659
# 2 -0.003226 0.012515 -0.006468 -0.004608 0.001714 -0.001922
# 3 -0.000100 -0.006468 0.035366 0.018941 0.012230 -0.003889
# 4 0.003883 -0.004608 0.018941 0.054720 0.014308 0.000659
# 5 0.005238 0.001714 0.012230 0.014308 0.034317 0.000236
# 6 0.000659 -0.001922 -0.003889 0.000659 0.000236 0.020643
#
#
# Mechanical properties :
#
#
# Convention : Reuss Voigt Hill
#
# Bulk Modulus (GPa) = 26.85772 60.89996 43.87884
# Shear Modulus (GPa) = 25.18840 37.70363 31.44602
#
# Velocity S-wave (km/s) = 3.23887 3.96264 3.61889
# Velocity P-wave (km/s) = 5.01722 6.80440 5.97798
#
# Compressibility (1/GPa) = 0.03723325
#
# Stress axis : x y z
#
# Youngs Moduli (GPa) = 111.84045 79.90113 28.27568
#
# Poissons Ratio (x) = 0.25776 0.00284
# Poissons Ratio (y) = 0.36079 0.18290
# Poissons Ratio (z) = 0.01123 0.51684
#
# Static dielectric constant tensor:
#      x y z
#    x 1.900260 -0.043630 -0.057080 
#    y -0.043630 1.856330 -0.088880 
#    z -0.057080 -0.088880 1.729280 
# 
# From -- ./inp_files/593764.got.cif
#   From: 2010.05.17/outbox.cif.g08.bks.cpg/sg2_297_cif.got.tgz:593764.got - 2010.06.03 11:33:40.
