data_PCOD9046706
_publ_section_title
;
Structure prediction by ZEFSAII (Michael W. Deem and Ramdas Pophale) SiO2 
 PCOD9046706
Probable space group: P -1
;
_chemical_formula_sum "Si O2"
_cell_formula_units_Z 14
_cell_length_a 11.756788
_cell_length_b 5.133857
_cell_length_c 14.018773
_cell_angle_alpha 68.690242
_cell_angle_beta 121.860241
_cell_angle_gamma 118.445073
_cell_volume 624.753584
_symmetry_space_group_name_H-M "P -1"
_symmetry_group_IT_number 2
_symmetry_cell_setting 'triclinic'
loop_
_space_group_symop_operation_xyz
x,y,z
-x,-y,-z
loop_
_atom_site_type_symbol
_atom_site_label
_atom_site_fract_x
_atom_site_fract_y
_atom_site_fract_z
Si Si1 0.467423 0.791902 0.920322
Si Si2 0.080032 0.360840 0.127537
Si Si3 0.191340 0.692814 0.689303
Si Si4 0.639076 0.229152 0.580588
Si Si5 0.402807 0.686803 0.227777
Si Si6 0.699858 0.625480 0.380781
Si Si7 0.935113 0.261473 0.744606
O O1 0.305188 0.702780 0.822066
O O2 0.565260 0.996841 0.852725
O O3 0.500000 0.500000 0.000000
O O4 0.500000 0.000000 0.000000
O O5 0.247213 0.462151 0.158434
O O6 0.070602 0.512847 0.204276
O O7 0.017829 0.003523 0.159031
O O8 0.000000 0.500000 0.000000
O O9 0.247148 0.588627 0.631959
O O10 0.039841 0.454649 0.684461
O O11 0.199538 0.031093 0.635326
O O12 0.601728 0.277331 0.665471
O O13 0.689541 0.526391 0.498923
O O14 0.772032 0.114986 0.655329
O O15 0.500000 0.000000 0.500000
O O16 0.540107 0.596088 0.279627
#
# Coordination Sequence:
#
# PCOD9046706 Si02
#       7
#     2   2   2   2   2   2   2
#     4  11  24  39  65  92 127 178 217 271 327 389
#     4  11  25  43  69  97 134 182 225 279 337 393
#     4  11  25  44  65  99 143 170 231 274 330 413
#     4  11  23  44  74 100 136 179 227 284 341 396
#     4  10  24  43  67 103 133 170 235 278 330 407
#     4  11  23  43  70  99 135 180 220 283 337 393
#     4  11  26  44  67 101 138 177 224 281 332 406
#
# _framework density 22.408832
#
# number of rings (size 3 to 8) (size 9 to 14) (size 15 to 20)
#    0.000    1.143    0.000    6.000    4.000    9.143 
#    0.000    0.000    0.000    0.000    0.000    0.000 
#    0.000    0.000    0.000    0.000    0.000    0.000 
#
# Total GULP energy -78416.090712 kJ/mol
# GULP energy per Si atom -5601.149337 kJ/mol
# Density = 2.235783 g / cm^3
# Si number density = 22.408832 Si / 1000 Ang^3
#
#
#
# Elastic Constant Matrix: (Units=GPa)
#
#
# Indices 1 2 3 4 5 6 
#
# 1 66.2615 18.1387 14.3820 10.1420 -10.5165 12.8414
# 2 18.1387 72.0330 9.8402 -12.2239 -1.0989 -4.2841
# 3 14.3820 9.8402 83.9970 -17.8177 -6.8953 4.7223
# 4 10.1420 -12.2239 -17.8177 41.6994 -5.0672 2.5262
# 5 -10.5165 -1.0989 -6.8953 -5.0672 24.6620 0.6992
# 6 12.8414 -4.2841 4.7223 2.5262 0.6992 40.9871
#
#
#
# Elastic Compliance Matrix: (Units=1/GPa)
#
#
# Indices 1 2 3 4 5 6 
#
# 1 0.020967 -0.006326 -0.003507 -0.007286 0.006365 -0.006486
# 2 -0.006326 0.016692 0.000204 0.006230 -0.000711 0.003331
# 3 -0.003507 0.000204 0.014519 0.007691 0.004184 -0.001098
# 4 -0.007286 0.006230 0.007691 0.031572 0.005808 0.000003
# 5 0.006365 -0.000711 0.004184 0.005808 0.045699 -0.003688
# 6 -0.006486 0.003331 -0.001098 0.000003 -0.003688 0.026967
#
#
# Mechanical properties :
#
#
# Convention : Reuss Voigt Hill
#
# Bulk Modulus (GPa) = 30.37768 34.11259 32.24514
# Shear Modulus (GPa) = 26.78852 33.46507 30.12679
#
# Velocity S-wave (km/s) = 3.46127 3.86863 3.67061
# Velocity P-wave (km/s) = 5.43686 5.93388 5.69080
#
# Compressibility (1/GPa) = 0.03291891
#
# Stress axis : x y z
#
# Youngs Moduli (GPa) = 47.69411 59.90835 68.87725
#
# Poissons Ratio (x) = 0.37896 0.24158
# Poissons Ratio (y) = 0.30170 -0.01402
# Poissons Ratio (z) = 0.16728 -0.01220
#
# Static dielectric constant tensor:
#      x y z
#    x 1.821710 0.009290 0.023180 
#    y 0.009290 1.822700 0.000390 
#    z 0.023180 0.000390 1.823330 
# 
# From -- ./inp_files/510760.got.cif
#   From: 2010.05.17/outbox.cif.g08.bks.cpg/sg2_256_cif.got.tgz:510760.got - 2010.06.03 11:33:40.
