data_PCOD9046288
_publ_section_title
;
Structure prediction by ZEFSAII (Michael W. Deem and Ramdas Pophale) SiO2 
 PCOD9046288
Probable space group: P -1
;
_chemical_formula_sum "Si O2"
_cell_formula_units_Z 10
_cell_length_a 9.170086
_cell_length_b 8.180844
_cell_length_c 12.120713
_cell_angle_alpha 145.566804
_cell_angle_beta 70.851020
_cell_angle_gamma 88.537547
_cell_volume 404.264503
_symmetry_space_group_name_H-M "P -1"
_symmetry_group_IT_number 2
_symmetry_cell_setting 'triclinic'
loop_
_space_group_symop_operation_xyz
x,y,z
-x,-y,-z
loop_
_atom_site_type_symbol
_atom_site_label
_atom_site_fract_x
_atom_site_fract_y
_atom_site_fract_z
Si Si1 0.548865 0.389766 0.296859
Si Si2 0.103554 0.616228 0.816431
Si Si3 0.850115 0.833115 0.654510
Si Si4 0.900839 0.306293 0.785277
Si Si5 0.583070 0.706631 0.930133
O O1 0.500000 0.500000 0.500000
O O2 0.692160 0.472003 0.258227
O O3 0.643682 0.974490 0.044137
O O4 0.388995 0.510404 0.309773
O O5 0.143807 0.342565 0.559104
O O6 0.985987 0.538679 0.887106
O O7 0.000000 0.000000 0.000000
O O8 0.000000 0.500000 0.500000
O O9 0.910116 0.104716 0.780109
O O10 0.636291 0.053329 0.863927
O O11 0.690840 0.514928 0.906999
O O12 0.000000 0.000000 0.500000
#
# Coordination Sequence:
#
# PCOD9046288 Si02
#       5
#     2   2   2   2   2
#     4  11  23  40  71 105 137 183 235 283 348 419
#     4  11  21  41  67 102 141 179 230 292 341 415
#     4  11  24  43  73 102 140 188 233 287 354 410
#     4  10  24  42  70 102 144 183 231 289 348 416
#     4  11  23  44  72 101 141 187 230 287 354 407
#
# _framework density 24.736281000000002
#
# number of rings (size 3 to 8) (size 9 to 14) (size 15 to 20)
#    0.000    1.200    4.000    1.800    8.400    0.000 
#    0.000    8.000    8.800    0.000    0.000    0.000 
#    0.000    0.000    0.000    0.000    0.000    0.000 
#
# Total GULP energy -55795.968926 kJ/mol
# GULP energy per Si atom -5579.596893 kJ/mol
# Density = 2.467998 g / cm^3
# Si number density = 24.736281 Si / 1000 Ang^3
#
#
#
# Elastic Constant Matrix: (Units=GPa)
#
#
# Indices 1 2 3 4 5 6 
#
# 1 180.7776 75.5727 52.7904 12.7350 18.8018 24.6016
# 2 75.5727 132.0461 45.8708 27.7443 -1.3013 31.4771
# 3 52.7904 45.8708 83.5275 0.8367 -1.5032 10.8478
# 4 12.7350 27.7443 0.8367 45.3836 -3.7050 12.0657
# 5 18.8018 -1.3013 -1.5032 -3.7050 51.4884 -3.3633
# 6 24.6016 31.4771 10.8478 12.0657 -3.3633 45.3902
#
#
#
# Elastic Compliance Matrix: (Units=1/GPa)
#
#
# Indices 1 2 3 4 5 6 
#
# 1 0.008493 -0.003267 -0.003408 -0.000139 -0.003407 -0.001739
# 2 -0.003267 0.013441 -0.004618 -0.005875 0.000659 -0.004836
# 3 -0.003408 -0.004618 0.016625 0.003555 0.001887 0.000271
# 4 -0.000139 -0.005875 0.003555 0.026715 0.001688 -0.003676
# 5 -0.003407 0.000659 0.001887 0.001688 0.020993 0.002045
# 6 -0.001739 -0.004836 0.000271 -0.003676 0.002045 0.027391
#
#
# Mechanical properties :
#
#
# Convention : Reuss Voigt Hill
#
# Bulk Modulus (GPa) = 62.60187 82.75767 72.67977
# Shear Modulus (GPa) = 35.31880 43.26026 39.28953
#
# Velocity S-wave (km/s) = 3.78274 4.18647 3.98972
# Velocity P-wave (km/s) = 6.66645 7.54303 7.11825
#
# Compressibility (1/GPa) = 0.01597396
#
# Stress axis : x y z
#
# Youngs Moduli (GPa) = 117.73945 74.40082 60.15032
#
# Poissons Ratio (x) = 0.24306 0.20499
# Poissons Ratio (y) = 0.38464 0.27776
# Poissons Ratio (z) = 0.40124 0.34357
#
# Static dielectric constant tensor:
#      x y z
#    x 2.040290 -0.008430 -0.023780 
#    y -0.008430 1.992900 0.000840 
#    z -0.023780 0.000840 1.970050 
# 
# From -- ./inp_files/146083.got.cif
#   From: 2010.05.17/outbox.cif.g08.bks.cpg/sg2_74_cif.got.tgz:146083.got - 2010.06.03 11:33:40.
