data_PCOD9046684
_publ_section_title
;
Structure prediction by ZEFSAII (Michael W. Deem and Ramdas Pophale) SiO2 
 PCOD9046684
Probable space group: P -1
;
_chemical_formula_sum "Si O2"
_cell_formula_units_Z 14
_cell_length_a 5.130808
_cell_length_b 19.643800
_cell_length_c 7.414787
_cell_angle_alpha 133.220119
_cell_angle_beta 73.035587
_cell_angle_gamma 97.709560
_cell_volume 518.583579
_symmetry_space_group_name_H-M "P -1"
_symmetry_group_IT_number 2
_symmetry_cell_setting 'triclinic'
loop_
_space_group_symop_operation_xyz
x,y,z
-x,-y,-z
loop_
_atom_site_type_symbol
_atom_site_label
_atom_site_fract_x
_atom_site_fract_y
_atom_site_fract_z
Si Si1 0.609850 0.881463 0.574040
Si Si2 0.453835 0.319997 0.939305
Si Si3 0.820014 0.162120 0.147167
Si Si4 0.127118 0.983057 0.643334
Si Si5 0.817619 0.482743 0.678894
Si Si6 0.502295 0.686496 0.679276
Si Si7 0.013336 0.668289 0.336075
O O1 0.629583 0.776070 0.301048
O O2 0.415357 0.889942 0.803579
O O3 0.905070 0.912538 0.624878
O O4 0.428868 0.940625 0.563434
O O5 0.781574 0.331628 0.875121
O O6 0.315428 0.415167 0.050662
O O7 0.359878 0.320313 0.166474
O O8 0.706453 0.219431 0.098729
O O9 0.877279 0.247668 0.417412
O O10 0.070820 0.086123 0.926883
O O11 0.000000 0.000000 0.500000
O O12 0.616745 0.411471 0.509014
O O13 0.938766 0.427303 0.729351
O O14 0.000000 0.500000 0.500000
O O15 0.693545 0.696270 0.485233
#
# Coordination Sequence:
#
# PCOD9046684 Si02
#       7
#     2   2   2   2   2   2   2
#     4  11  27  45  70 106 137 189 236 287 358 419
#     4  11  24  44  70  99 140 182 237 293 351 422
#     4  10  25  44  69  96 141 175 235 294 348 422
#     4  12  26  45  72 106 140 186 236 290 354 424
#     4  11  23  44  65 101 139 184 233 291 354 422
#     4  11  24  44  68 101 134 185 232 290 357 418
#     4  10  24  43  67 100 136 182 237 286 359 419
#
# _framework density 26.996614000000001
#
# number of rings (size 3 to 8) (size 9 to 14) (size 15 to 20)
#    0.000    1.143    1.429    3.000    8.000    1.714 
#    5.143    0.000    0.000    0.000    0.000    0.000 
#    0.000    0.000    0.000    0.000    0.000    0.000 
#
# Total GULP energy -78357.736895 kJ/mol
# GULP energy per Si atom -5596.981207 kJ/mol
# Density = 2.693517 g / cm^3
# Si number density = 26.996614 Si / 1000 Ang^3
#
#
#
# Elastic Constant Matrix: (Units=GPa)
#
#
# Indices 1 2 3 4 5 6 
#
# 1 87.8782 17.3293 20.5711 19.6614 -16.2849 1.6395
# 2 17.3293 96.2982 25.4145 12.5147 -16.1482 -18.1783
# 3 20.5711 25.4145 104.1303 21.9801 -15.6703 -24.2045
# 4 19.6614 12.5147 21.9801 56.5500 -9.3302 -12.0278
# 5 -16.2849 -16.1482 -15.6703 -9.3302 28.6201 -0.6459
# 6 1.6395 -18.1783 -24.2045 -12.0278 -0.6459 59.2751
#
#
#
# Elastic Compliance Matrix: (Units=1/GPa)
#
#
# Indices 1 2 3 4 5 6 
#
# 1 0.013717 -0.001143 -0.001349 -0.003544 0.005223 -0.001943
# 2 -0.001143 0.012539 -0.001107 -0.000258 0.005812 0.003436
# 3 -0.001349 -0.001107 0.012352 -0.002398 0.004687 0.004306
# 4 -0.003544 -0.000258 -0.002398 0.021203 0.003514 0.003381
# 5 0.005223 0.005812 0.004687 0.003514 0.045011 0.004755
# 6 -0.001943 0.003436 0.004306 0.003381 0.004755 0.020474
#
#
# Mechanical properties :
#
#
# Convention : Reuss Voigt Hill
#
# Bulk Modulus (GPa) = 31.83493 46.10406 38.96950
# Shear Modulus (GPa) = 34.97376 43.88850 39.43113
#
# Velocity S-wave (km/s) = 3.60319 4.03638 3.82592
# Velocity P-wave (km/s) = 5.39708 6.23201 5.82951
#
# Compressibility (1/GPa) = 0.03141203
#
# Stress axis : x y z
#
# Youngs Moduli (GPa) = 72.90015 79.75166 80.95605
#
# Poissons Ratio (x) = 0.09116 0.10917
# Poissons Ratio (y) = 0.08333 0.08960
# Poissons Ratio (z) = 0.09831 0.08827
#
# Static dielectric constant tensor:
#      x y z
#    x 2.174160 -0.035620 -0.030160 
#    y -0.035620 2.181390 -0.018730 
#    z -0.030160 -0.018730 2.028400 
# 
# From -- ./inp_files/43536.got.cif
#   From: 2010.05.17/outbox.cif.g08.bks.cpg/sg2_22_cif.got.tgz:43536.got - 2010.06.03 11:33:40.
