data_PCOD9046371
_publ_section_title
;
Structure prediction by ZEFSAII (Michael W. Deem and Ramdas Pophale) SiO2 
 PCOD9046371
Probable space group: P -1
;
_chemical_formula_sum "Si O2"
_cell_formula_units_Z 16
_cell_length_a 10.897543
_cell_length_b 16.085557
_cell_length_c 9.235225
_cell_angle_alpha 53.736375
_cell_angle_beta 58.651051
_cell_angle_gamma 30.053280
_cell_volume 653.564792
_symmetry_space_group_name_H-M "P -1"
_symmetry_group_IT_number 2
_symmetry_cell_setting 'triclinic'
loop_
_space_group_symop_operation_xyz
x,y,z
-x,-y,-z
loop_
_atom_site_type_symbol
_atom_site_label
_atom_site_fract_x
_atom_site_fract_y
_atom_site_fract_z
Si Si1 0.170872 0.986749 0.977868
Si Si2 0.612115 0.830503 0.526171
Si Si3 0.816654 0.336519 0.680814
Si Si4 0.992520 0.915551 0.710559
Si Si5 0.617829 0.959605 0.817175
Si Si6 0.018580 0.344311 0.299393
Si Si7 0.582617 0.609174 0.076213
Si Si8 0.468678 0.357504 0.249223
O O1 0.436297 0.801379 0.954966
O O2 0.165752 0.970277 0.167867
O O3 0.000000 0.000000 0.000000
O O4 0.043500 0.163668 0.816975
O O5 0.866104 0.661743 0.628310
O O6 0.483751 0.793015 0.632787
O O7 0.500000 0.000000 0.500000
O O8 0.596984 0.870765 0.326291
O O9 0.604869 0.371873 0.774890
O O10 0.699729 0.503807 0.659713
O O11 0.920567 0.300634 0.494457
O O12 0.266793 0.743879 0.780902
O O13 0.848679 0.902658 0.748702
O O14 0.000000 0.000000 0.500000
O O15 0.756483 0.793719 0.808508
O O16 0.500000 0.000000 0.000000
O O17 0.793317 0.504141 0.171323
O O18 0.643709 0.546105 0.937009
#
# Coordination Sequence:
#
# PCOD9046371 Si02
#       8
#     2   2   2   2   2   2   2   2
#     4  10  24  42  71 114 156 198 246 317 389 451
#     4  10  26  48  73 105 152 204 260 312 387 458
#     4  11  25  44  75 115 157 193 254 323 398 453
#     4  12  25  43  80 116 153 195 263 319 388 451
#     4  11  27  47  77 114 152 205 262 318 393 467
#     4  11  27  46  76 101 159 206 255 313 391 459
#     4  11  25  44  76 115 152 196 257 315 389 468
#     4  12  25  46  75 114 154 196 258 330 382 460
#
# _framework density 24.481124000000001
#
# number of rings (size 3 to 8) (size 9 to 14) (size 15 to 20)
#    0.000    1.000    3.750    1.500   12.250    2.000 
#    0.000    0.000    0.000    0.000    0.000    0.000 
#    0.000    0.000    0.000    0.000    0.000    0.000 
#
# Total GULP energy -89304.936245 kJ/mol
# GULP energy per Si atom -5581.558515 kJ/mol
# Density = 2.442540 g / cm^3
# Si number density = 24.481124 Si / 1000 Ang^3
#
#
#
# Elastic Constant Matrix: (Units=GPa)
#
#
# Indices 1 2 3 4 5 6 
#
# 1 165.0869 33.7933 48.4160 -11.4008 0.0757 -24.7449
# 2 33.7933 98.6135 53.8703 7.0509 4.4515 5.0148
# 3 48.4160 53.8703 142.2178 11.0085 30.2556 -3.0162
# 4 -11.4008 7.0509 11.0085 42.5751 -6.9238 8.5660
# 5 0.0757 4.4515 30.2556 -6.9238 55.0496 -6.8307
# 6 -24.7449 5.0148 -3.0162 8.5660 -6.8307 41.5095
#
#
#
# Elastic Compliance Matrix: (Units=1/GPa)
#
#
# Indices 1 2 3 4 5 6 
#
# 1 0.008123 -0.001847 -0.002712 0.002643 0.002550 0.004743
# 2 -0.001847 0.013491 -0.004703 -0.000790 0.001058 -0.002736
# 3 -0.002712 -0.004703 0.011388 -0.003838 -0.006418 -0.000485
# 4 0.002643 -0.000790 -0.003838 0.026817 0.005134 -0.003297
# 5 0.002550 0.001058 -0.006418 0.005134 0.022696 0.003601
# 6 0.004743 -0.002736 -0.000485 -0.003297 0.003601 0.028486
#
#
# Mechanical properties :
#
#
# Convention : Reuss Voigt Hill
#
# Bulk Modulus (GPa) = 69.07341 75.34191 72.20766
# Shear Modulus (GPa) = 37.21538 45.81607 41.51573
#
# Velocity S-wave (km/s) = 3.90316 4.33076 4.12251
# Velocity P-wave (km/s) = 6.97059 7.47326 7.22630
#
# Compressibility (1/GPa) = 0.01447735
#
# Stress axis : x y z
#
# Youngs Moduli (GPa) = 123.10424 74.12499 87.80871
#
# Poissons Ratio (x) = 0.13694 0.23814
# Poissons Ratio (y) = 0.22742 0.41297
# Poissons Ratio (z) = 0.33387 0.34861
#
# Static dielectric constant tensor:
#      x y z
#    x 1.978920 0.021800 0.002490 
#    y 0.021800 2.014650 -0.001600 
#    z 0.002490 -0.001600 1.988250 
# 
# From -- ./inp_files/278984.got.cif
#   From: 2010.05.17/outbox.cif.g08.bks.cpg/sg2_140_cif.got.tgz:278984.got - 2010.06.03 11:33:40.
