data_PCOD9046246
_publ_section_title
;
Structure prediction by ZEFSAII (Michael W. Deem and Ramdas Pophale) SiO2 
 PCOD9046246
Probable space group: P -1
;
_chemical_formula_sum "Si O2"
_cell_formula_units_Z 16
_cell_length_a 11.479585
_cell_length_b 8.815235
_cell_length_c 18.261682
_cell_angle_alpha 147.304966
_cell_angle_beta 45.165587
_cell_angle_gamma 124.327528
_cell_volume 705.798167
_symmetry_space_group_name_H-M "P -1"
_symmetry_group_IT_number 2
_symmetry_cell_setting 'triclinic'
loop_
_space_group_symop_operation_xyz
x,y,z
-x,-y,-z
loop_
_atom_site_type_symbol
_atom_site_label
_atom_site_fract_x
_atom_site_fract_y
_atom_site_fract_z
Si Si1 0.737679 0.066100 0.196662
Si Si2 0.800313 0.838917 0.692252
Si Si3 0.213248 0.182671 0.136747
Si Si4 0.047285 0.698206 0.925069
Si Si5 0.630703 0.293735 0.493458
Si Si6 0.491181 0.809378 0.096047
Si Si7 0.095357 0.820815 0.448205
Si Si8 0.270366 0.167907 0.616417
O O1 0.578278 0.004234 0.195174
O O2 0.860778 0.251877 0.172405
O O3 0.687382 0.209728 0.353043
O O4 0.852445 0.773576 0.037263
O O5 0.796089 0.853177 0.786979
O O6 0.711536 0.565737 0.596089
O O7 0.980266 0.812627 0.567512
O O8 0.693841 0.092387 0.803160
O O9 0.140948 0.498080 0.275589
O O10 0.397310 0.166564 0.016165
O O11 0.116622 0.937130 0.043185
O O12 0.113551 0.385318 0.790228
O O13 0.433208 0.334341 0.601913
O O14 0.691653 0.040813 0.417856
O O15 0.500000 0.500000 0.000000
O O16 0.245529 0.986496 0.480210
O O17 0.000000 0.000000 0.500000
#
# Coordination Sequence:
#
# PCOD9046246 Si02
#       8
#     2   2   2   2   2   2   2   2
#     4  10  24  42  69  95 138 177 228 276 349 408
#     4  12  26  46  74  99 139 191 230 282 355 415
#     4  11  24  48  71  99 142 183 233 279 350 423
#     4  10  24  44  69 100 134 181 225 286 341 412
#     4  11  25  46  71 101 139 183 227 288 341 421
#     4  11  26  42  67 105 137 181 232 286 343 407
#     4  12  28  45  72 104 142 181 234 294 343 413
#     4  11  27  45  68 106 139 176 237 283 349 401
#
# _framework density 22.669371000000002
#
# number of rings (size 3 to 8) (size 9 to 14) (size 15 to 20)
#    0.000    1.000    1.250    3.750   14.000    2.500 
#    0.000    0.000    0.000    0.000    0.000    0.000 
#    0.000    0.000    0.000    0.000    0.000    0.000 
#
# Total GULP energy -89634.864603 kJ/mol
# GULP energy per Si atom -5602.179038 kJ/mol
# Density = 2.261777 g / cm^3
# Si number density = 22.669371 Si / 1000 Ang^3
#
#
#
# Elastic Constant Matrix: (Units=GPa)
#
#
# Indices 1 2 3 4 5 6 
#
# 1 66.4075 8.2603 13.3842 0.3753 11.1249 -9.8091
# 2 8.2603 48.8682 7.6157 1.6221 21.3892 -2.1732
# 3 13.3842 7.6157 77.7547 9.5715 8.7865 -15.5368
# 4 0.3753 1.6221 9.5715 46.5173 -8.5623 2.5332
# 5 11.1249 21.3892 8.7865 -8.5623 44.7488 -3.6958
# 6 -9.8091 -2.1732 -15.5368 2.5332 -3.6958 31.2055
#
#
#
# Elastic Compliance Matrix: (Units=1/GPa)
#
#
# Indices 1 2 3 4 5 6 
#
# 1 0.016619 -0.001002 -0.001523 -0.000583 -0.003129 0.004073
# 2 -0.001002 0.026473 -0.000579 -0.003169 -0.012900 -0.000030
# 3 -0.001523 -0.000579 0.015390 -0.003992 -0.002538 0.007167
# 4 -0.000583 -0.003169 -0.003992 0.023863 0.006718 -0.003533
# 5 -0.003129 -0.012900 -0.002538 0.006718 0.031074 -0.000011
# 6 0.004073 -0.000030 0.007167 -0.003533 -0.000011 0.037177
#
#
# Mechanical properties :
#
#
# Convention : Reuss Voigt Hill
#
# Bulk Modulus (GPa) = 19.12985 27.95006 23.53996
# Shear Modulus (GPa) = 28.69799 35.41235 32.05517
#
# Velocity S-wave (km/s) = 3.56186 3.95666 3.76444
# Velocity P-wave (km/s) = 5.03714 5.76452 5.41306
#
# Compressibility (1/GPa) = 0.05227432
#
# Stress axis : x y z
#
# Youngs Moduli (GPa) = 60.17126 37.77491 64.97656
#
# Poissons Ratio (x) = 0.03784 0.09899
# Poissons Ratio (y) = 0.06028 0.03760
# Poissons Ratio (z) = 0.09167 0.02186
#
# Static dielectric constant tensor:
#      x y z
#    x 1.799600 -0.001970 -0.017420 
#    y -0.001970 1.814640 0.013120 
#    z -0.017420 0.013120 1.810850 
# 
# From -- ./inp_files/401716.got.cif
#   From: 2010.05.17/outbox.cif.g08.bks.cpg/sg2_201_cif.got.tgz:401716.got - 2010.06.03 11:33:40.
