data_PCOD9046921
_publ_section_title
;
Structure prediction by ZEFSAII (Michael W. Deem and Ramdas Pophale) SiO2 
 PCOD9046921
Probable space group: P -1
;
_chemical_formula_sum "Si O2"
_cell_formula_units_Z 14
_cell_length_a 9.292518
_cell_length_b 11.863017
_cell_length_c 9.313337
_cell_angle_alpha 71.787518
_cell_angle_beta 130.931907
_cell_angle_gamma 119.811769
_cell_volume 672.861095
_symmetry_space_group_name_H-M "P -1"
_symmetry_group_IT_number 2
_symmetry_cell_setting 'triclinic'
loop_
_space_group_symop_operation_xyz
x,y,z
-x,-y,-z
loop_
_atom_site_type_symbol
_atom_site_label
_atom_site_fract_x
_atom_site_fract_y
_atom_site_fract_z
Si Si1 0.611537 0.777846 0.813395
Si Si2 0.980874 0.856296 0.512539
Si Si3 0.027687 0.245178 0.763699
Si Si4 0.557725 0.633472 0.399759
Si Si5 0.436539 0.827995 0.400724
Si Si6 0.637314 0.513169 0.222062
Si Si7 0.560835 0.066021 0.168566
O O1 0.600940 0.849087 0.630217
O O2 0.426202 0.635506 0.718287
O O3 0.555120 0.847439 0.882820
O O4 0.824523 0.766191 0.005824
O O5 0.956149 0.834400 0.333871
O O6 0.790839 0.746710 0.516098
O O7 0.193702 0.847701 0.701462
O O8 0.000000 0.000000 0.500000
O O9 0.129310 0.393258 0.709220
O O10 0.790128 0.198687 0.673836
O O11 0.500000 0.500000 0.500000
O O12 0.419832 0.705660 0.340439
O O13 0.553933 0.587159 0.252996
O O14 0.514625 0.952274 0.300072
O O15 0.500000 0.500000 0.000000
O O16 0.500000 0.000000 0.000000
#
# Coordination Sequence:
#
# PCOD9046921 Si02
#       7
#     2   2   2   2   2   2   2
#     4  11  23  44  70  97 141 182 228 284 347 415
#     4  11  22  43  70  97 141 186 227 283 351 410
#     4  10  24  43  69 105 135 183 231 281 348 419
#     4  11  23  42  70 103 139 180 232 291 341 412
#     4  12  25  44  69  99 141 176 237 282 351 404
#     4   9  21  42  69  96 138 182 222 282 346 410
#     4  12  27  44  68 103 138 183 234 292 350 416
#
# _framework density 20.80667
#
# number of rings (size 3 to 8) (size 9 to 14) (size 15 to 20)
#    0.000    1.143    4.286    1.286    4.000    3.429 
#    0.000    2.857    0.000    0.000    0.000    0.000 
#    0.000    0.000    0.000    0.000    0.000    0.000 
#
# Total GULP energy -78146.338973 kJ/mol
# GULP energy per Si atom -5581.881355 kJ/mol
# Density = 2.075931 g / cm^3
# Si number density = 20.806670 Si / 1000 Ang^3
#
#
#
# Elastic Constant Matrix: (Units=GPa)
#
#
# Indices 1 2 3 4 5 6 
#
# 1 113.0701 44.0683 35.1207 1.6434 -8.2679 2.9425
# 2 44.0683 113.1666 16.5271 6.7622 -4.0562 -1.3644
# 3 35.1207 16.5271 101.5960 8.0031 -7.9850 10.4078
# 4 1.6434 6.7622 8.0031 25.9715 -7.4170 -3.5163
# 5 -8.2679 -4.0562 -7.9850 -7.4170 29.3374 1.5264
# 6 2.9425 -1.3644 10.4078 -3.5163 1.5264 37.0856
#
#
#
# Elastic Compliance Matrix: (Units=1/GPa)
#
#
# Indices 1 2 3 4 5 6 
#
# 1 0.011603 -0.004071 -0.003320 0.002003 0.002312 -0.000044
# 2 -0.004071 0.010593 -0.000209 -0.002474 -0.000394 0.000553
# 3 -0.003320 -0.000209 0.011765 -0.003379 0.001562 -0.003431
# 4 0.002003 -0.002474 -0.003379 0.043539 0.010081 0.004412
# 5 0.002312 -0.000394 0.001562 0.010081 0.037721 -0.001233
# 6 -0.000044 0.000553 -0.003431 0.004412 -0.001233 0.028420
#
#
# Mechanical properties :
#
#
# Convention : Reuss Voigt Hill
#
# Bulk Modulus (GPa) = 53.30204 57.69609 55.49907
# Shear Modulus (GPa) = 30.28574 33.95334 32.11954
#
# Velocity S-wave (km/s) = 3.81934 4.04400 3.93327
# Velocity P-wave (km/s) = 6.71738 7.04237 6.88180
#
# Compressibility (1/GPa) = 0.01876101
#
# Stress axis : x y z
#
# Youngs Moduli (GPa) = 86.18386 94.40573 84.99712
#
# Poissons Ratio (x) = 0.38431 0.28223
# Poissons Ratio (y) = 0.35084 0.01773
# Poissons Ratio (z) = 0.28617 0.01970
#
# Static dielectric constant tensor:
#      x y z
#    x 1.760150 0.030840 -0.016810 
#    y 0.030840 1.839990 -0.017600 
#    z -0.016810 -0.017600 1.749010 
# 
# From -- ./inp_files/185623.got.cif
#   From: 2010.05.17/outbox.cif.g08.bks.cpg/sg2_93_cif.got.tgz:185623.got - 2010.06.03 11:33:40.
