data_PCOD9046238
_publ_section_title
;
Structure prediction by ZEFSAII (Michael W. Deem and Ramdas Pophale) SiO2 
 PCOD9046238
Probable space group: P -1
;
_chemical_formula_sum "Si O2"
_cell_formula_units_Z 15
_cell_length_a 13.482871
_cell_length_b 8.239144
_cell_length_c 8.897232
_cell_angle_alpha 69.051172
_cell_angle_beta 48.036965
_cell_angle_gamma 83.442259
_cell_volume 675.163726
_symmetry_space_group_name_H-M "P -1"
_symmetry_group_IT_number 2
_symmetry_cell_setting 'triclinic'
loop_
_space_group_symop_operation_xyz
x,y,z
-x,-y,-z
loop_
_atom_site_type_symbol
_atom_site_label
_atom_site_fract_x
_atom_site_fract_y
_atom_site_fract_z
Si Si1 0.712638 0.629399 0.784579
Si Si2 0.673120 0.036103 0.054401
Si Si3 0.574687 0.296069 0.843295
Si Si4 0.214899 0.634114 0.967820
Si Si5 0.163855 0.052917 0.644768
Si Si6 0.869706 0.823522 0.024160
Si Si7 0.000000 0.500000 0.000000
Si Si8 0.603316 0.183853 0.517562
O O1 0.661216 0.473343 0.767869
O O2 0.807939 0.787220 0.552946
O O3 0.579265 0.697243 0.957303
O O4 0.781631 0.535070 0.877253
O O5 0.763255 0.195532 0.001352
O O6 0.763706 0.886400 0.996611
O O7 0.540026 0.946061 0.310949
O O8 0.621947 0.127217 0.929921
O O9 0.593796 0.283352 0.651191
O O10 0.076806 0.623097 0.018804
O O11 0.346918 0.679866 0.711092
O O12 0.169923 0.126771 0.784018
O O13 0.279018 0.933228 0.550455
O O14 0.018027 0.934813 0.802427
O O15 0.881234 0.620192 0.069430
#
# Coordination Sequence:
#
# PCOD9046238 Si02
#       8
#     2   2   2   2   2   2   1   2
#     4  10  24  45  69 104 152 189 226 297 364 412
#     4  11  23  46  73 107 144 190 237 294 357 426
#     4  10  24  42  69 112 148 178 239 297 354 419
#     4  11  25  45  69 105 144 189 237 291 355 422
#     4  11  23  46  73 100 144 193 235 292 359 419
#     4  11  25  44  70 104 139 189 243 290 355 427
#     4  12  26  48  68 102 148 178 244 302 340 430
#     4  12  23  43  76 104 141 191 243 292 347 425
#
# _framework density 22.216833000000001
#
# number of rings (size 3 to 8) (size 9 to 14) (size 15 to 20)
#    0.000    1.067    4.000    1.600    3.733    0.533 
#    2.400    3.333    0.000    0.000    0.000    0.000 
#    0.000    0.000    0.000    0.000    0.000    0.000 
#
# Total GULP energy -83721.611441 kJ/mol
# GULP energy per Si atom -5581.440763 kJ/mol
# Density = 2.216627 g / cm^3
# Si number density = 22.216833 Si / 1000 Ang^3
#
#
#
# Elastic Constant Matrix: (Units=GPa)
#
#
# Indices 1 2 3 4 5 6 
#
# 1 86.3310 22.4184 3.1386 -5.3528 -9.9977 -5.9070
# 2 22.4184 91.2687 29.3466 18.6751 3.3895 -24.0646
# 3 3.1386 29.3466 73.6088 -17.5378 -2.8267 -14.5204
# 4 -5.3528 18.6751 -17.5378 33.1536 -8.1620 3.9194
# 5 -9.9977 3.3895 -2.8267 -8.1620 23.9896 1.3148
# 6 -5.9070 -24.0646 -14.5204 3.9194 1.3148 44.3268
#
#
#
# Elastic Compliance Matrix: (Units=1/GPa)
#
#
# Indices 1 2 3 4 5 6 
#
# 1 0.017429 -0.012674 0.008762 0.019191 0.016829 -0.003884
# 2 -0.012674 0.033766 -0.020780 -0.040391 -0.027022 0.014208
# 3 0.008762 -0.020780 0.029848 0.034853 0.022186 -0.004076
# 4 0.019191 -0.040391 0.034853 0.088518 0.048872 -0.017230
# 5 0.016829 -0.027022 0.022186 0.048872 0.072396 -0.011628
# 6 -0.003884 0.014208 -0.004076 -0.017230 -0.011628 0.030289
#
#
# Mechanical properties :
#
#
# Convention : Reuss Voigt Hill
#
# Bulk Modulus (GPa) = 31.58605 40.11285 35.84945
# Shear Modulus (GPa) = 15.05194 33.38099 24.21647
#
# Velocity S-wave (km/s) = 2.60571 3.88043 3.30510
# Velocity P-wave (km/s) = 4.82711 6.17829 5.54402
#
# Compressibility (1/GPa) = 0.03165955
#
# Stress axis : x y z
#
# Youngs Moduli (GPa) = 57.37511 29.61572 33.50281
#
# Poissons Ratio (x) = 0.37536 -0.29357
# Poissons Ratio (y) = 0.72720 0.69618
# Poissons Ratio (z) = -0.50275 0.61541
#
# Static dielectric constant tensor:
#      x y z
#    x 1.823690 0.069060 -0.002730 
#    y 0.069060 1.986070 -0.059230 
#    z -0.002730 -0.059230 1.792610 
# 
# From -- ./inp_files/237430.got.cif
#   From: 2010.05.17/outbox.cif.g08.bks.cpg/sg2_119_cif.got.tgz:237430.got - 2010.06.03 11:33:40.
