data_PCOD9046696
_publ_section_title
;
Structure prediction by ZEFSAII (Michael W. Deem and Ramdas Pophale) SiO2 
 PCOD9046696
Probable space group: P -1
;
_chemical_formula_sum "Si O2"
_cell_formula_units_Z 16
_cell_length_a 18.554761
_cell_length_b 9.155055
_cell_length_c 5.959210
_cell_angle_alpha 79.911189
_cell_angle_beta 62.280438
_cell_angle_gamma 50.868435
_cell_volume 684.707649
_symmetry_space_group_name_H-M "P -1"
_symmetry_group_IT_number 2
_symmetry_cell_setting 'triclinic'
loop_
_space_group_symop_operation_xyz
x,y,z
-x,-y,-z
loop_
_atom_site_type_symbol
_atom_site_label
_atom_site_fract_x
_atom_site_fract_y
_atom_site_fract_z
Si Si1 0.009842 0.367537 0.211571
Si Si2 0.719708 0.102402 0.594107
Si Si3 0.341724 0.233858 0.827045
Si Si4 0.048152 0.984936 0.184820
Si Si5 0.830707 0.696303 0.632892
Si Si6 0.270294 0.638770 0.810135
Si Si7 0.582073 0.346085 0.104674
Si Si8 0.438574 0.886562 0.476511
O O1 0.045841 0.165416 0.140410
O O2 0.093890 0.338460 0.267901
O O3 0.894965 0.500135 0.457101
O O4 0.000000 0.500000 0.000000
O O5 0.741586 0.234355 0.413984
O O6 0.617493 0.148283 0.616183
O O7 0.807441 0.877587 0.491435
O O8 0.686870 0.164014 0.880591
O O9 0.286316 0.449742 0.775282
O O10 0.460326 0.141766 0.744670
O O11 0.356493 0.097399 0.645321
O O12 0.276413 0.241268 0.123984
O O13 0.000000 0.000000 0.500000
O O14 0.164202 0.781722 0.065842
O O15 0.000000 0.000000 0.000000
O O16 0.371868 0.581300 0.816832
O O17 0.532710 0.264036 0.329193
O O18 0.500000 0.500000 0.000000
#
# Coordination Sequence:
#
# PCOD9046696 Si02
#       8
#     2   2   2   2   2   2   2   2
#     4  11  27  48  76 103 142 191 248 309 374 452
#     4  11  23  44  70  97 135 189 233 292 359 442
#     4  11  23  46  65 101 144 178 234 295 356 432
#     4  12  30  50  77 112 154 192 251 319 385 445
#     4  11  25  44  74 102 140 186 248 294 377 440
#     4  11  26  44  72 101 142 188 243 299 373 436
#     4  11  22  43  69  99 138 189 239 290 360 442
#     4  10  24  43  67 101 143 183 235 293 357 435
#
# _framework density 23.367636000000001
#
# number of rings (size 3 to 8) (size 9 to 14) (size 15 to 20)
#    0.000    1.000    1.250    3.750   12.250    2.500 
#    6.750    0.000    0.000    0.000    0.000    0.000 
#    0.000    0.000    0.000    0.000    0.000    0.000 
#
# Total GULP energy -89504.113095 kJ/mol
# GULP energy per Si atom -5594.007068 kJ/mol
# Density = 2.331445 g / cm^3
# Si number density = 23.367636 Si / 1000 Ang^3
#
#
#
# Elastic Constant Matrix: (Units=GPa)
#
#
# Indices 1 2 3 4 5 6 
#
# 1 46.2822 31.3414 38.1076 -5.3419 4.1370 3.6102
# 2 31.3414 150.3423 36.8909 2.8666 0.9288 11.8985
# 3 38.1076 36.8909 121.2372 9.4245 -23.1232 7.0730
# 4 -5.3419 2.8666 9.4245 46.5382 -2.9771 2.7206
# 5 4.1370 0.9288 -23.1232 -2.9771 30.4610 2.7870
# 6 3.6102 11.8985 7.0730 2.7206 2.7870 41.6412
#
#
#
# Elastic Compliance Matrix: (Units=1/GPa)
#
#
# Indices 1 2 3 4 5 6 
#
# 1 0.038447 -0.004652 -0.014148 0.006530 -0.015272 0.000995
# 2 -0.004652 0.007975 -0.000840 -0.000768 -0.000171 -0.001671
# 3 -0.014148 -0.000840 0.016012 -0.003812 0.013907 -0.001935
# 4 0.006530 -0.000768 -0.003812 0.023032 -0.001405 -0.001110
# 5 -0.015272 -0.000171 0.013907 -0.001405 0.045689 -0.003955
# 6 0.000995 -0.001671 -0.001935 -0.001110 -0.003955 0.025072
#
#
# Mechanical properties :
#
#
# Convention : Reuss Voigt Hill
#
# Bulk Modulus (GPa) = 43.18670 58.94905 51.06787
# Shear Modulus (GPa) = 24.60322 37.82953 31.21637
#
# Velocity S-wave (km/s) = 3.24832 4.02790 3.65894
# Velocity P-wave (km/s) = 5.70880 6.84935 6.30492
#
# Compressibility (1/GPa) = 0.02315528
#
# Stress axis : x y z
#
# Youngs Moduli (GPa) = 26.00985 125.38554 62.45192
#
# Poissons Ratio (x) = 0.58333 0.88354
# Poissons Ratio (y) = 0.12101 0.05245
# Poissons Ratio (z) = 0.36798 0.10531
#
# Static dielectric constant tensor:
#      x y z
#    x 1.858680 -0.029290 -0.008540 
#    y -0.029290 1.853240 0.021020 
#    z -0.008540 0.021020 1.923740 
# 
# From -- ./inp_files/116898.got.cif
#   From: 2010.05.17/outbox.cif.g08.bks.cpg/sg2_59_cif.got.tgz:116898.got - 2010.06.03 11:33:40.
