data_PCOD9046668
_publ_section_title
;
Structure prediction by ZEFSAII (Michael W. Deem and Ramdas Pophale) SiO2 
 PCOD9046668
Probable space group: P -1
;
_chemical_formula_sum "Si O2"
_cell_formula_units_Z 16
_cell_length_a 11.895378
_cell_length_b 8.595599
_cell_length_c 21.494847
_cell_angle_alpha 139.169990
_cell_angle_beta 148.593509
_cell_angle_gamma 51.699948
_cell_volume 746.623046
_symmetry_space_group_name_H-M "P -1"
_symmetry_group_IT_number 2
_symmetry_cell_setting 'triclinic'
loop_
_space_group_symop_operation_xyz
x,y,z
-x,-y,-z
loop_
_atom_site_type_symbol
_atom_site_label
_atom_site_fract_x
_atom_site_fract_y
_atom_site_fract_z
Si Si1 0.564315 0.895311 0.187765
Si Si2 0.109981 0.524002 0.627436
Si Si3 0.967034 0.720359 0.259575
Si Si4 0.034146 0.994702 0.782690
Si Si5 0.721976 0.253914 0.801466
Si Si6 0.278150 0.029259 0.583476
Si Si7 0.106061 0.750977 0.983438
Si Si8 0.572949 0.756476 0.878732
O O1 0.736736 0.731093 0.188896
O O2 0.671113 0.024343 0.337655
O O3 0.491869 0.080598 0.159012
O O4 0.347214 0.762085 0.072024
O O5 0.138291 0.261157 0.586263
O O6 0.350966 0.656857 0.776454
O O7 0.000000 0.500000 0.500000
O O8 0.995831 0.708857 0.672888
O O9 0.960806 0.902687 0.253785
O O10 0.013078 0.467507 0.175654
O O11 0.149035 0.818215 0.422655
O O12 0.845692 0.104630 0.765533
O O13 0.257382 0.092270 0.951338
O O14 0.499162 0.114196 0.677097
O O15 0.674813 0.513726 0.832932
O O16 0.865702 0.295255 0.944202
O O17 0.000000 0.000000 0.000000
#
# Coordination Sequence:
#
# PCOD9046668 Si02
#       8
#     2   2   2   2   2   2   2   2
#     4  11  24  42  68  97 132 176 215 270 327 382
#     4  11  22  42  65 100 131 167 217 272 320 386
#     4  12  24  43  69  98 129 174 221 270 325 388
#     4  12  23  39  70 100 130 167 225 267 327 382
#     4  10  24  43  66  98 132 175 213 274 325 389
#     4  10  24  46  66  94 137 172 216 267 330 391
#     4  11  25  45  66  97 135 168 219 272 330 386
#     4  11  22  41  68  98 129 170 223 265 326 380
#
# _framework density 21.429822000000001
#
# number of rings (size 3 to 8) (size 9 to 14) (size 15 to 20)
#    0.000    1.000    3.750    2.250    1.750    2.500 
#    0.000    3.750    0.000    0.000    0.000    0.000 
#    0.000    0.000    0.000    0.000    0.000    0.000 
#
# Total GULP energy -89537.104256 kJ/mol
# GULP energy per Si atom -5596.069016 kJ/mol
# Density = 2.138105 g / cm^3
# Si number density = 21.429822 Si / 1000 Ang^3
#
#
#
# Elastic Constant Matrix: (Units=GPa)
#
#
# Indices 1 2 3 4 5 6 
#
# 1 70.4319 -7.8558 10.3117 3.0500 -3.1220 -30.0543
# 2 -7.8558 53.5106 33.0458 3.5682 -22.0082 -28.9437
# 3 10.3117 33.0458 99.1180 5.4871 -21.3645 -23.9603
# 4 3.0500 3.5682 5.4871 31.0458 -1.6183 -14.6293
# 5 -3.1220 -22.0082 -21.3645 -1.6183 34.2344 1.8516
# 6 -30.0543 -28.9437 -23.9603 -14.6293 1.8516 37.7209
#
#
#
# Elastic Compliance Matrix: (Units=1/GPa)
#
#
# Indices 1 2 3 4 5 6 
#
# 1 -0.031389 -0.066839 -0.003933 -0.033005 -0.045011 -0.089384
# 2 -0.066839 -0.080670 -0.009313 -0.050496 -0.058703 -0.137772
# 3 -0.003933 -0.009313 0.013563 -0.002034 0.002160 -0.002559
# 4 -0.033005 -0.050496 -0.002034 0.011506 -0.032938 -0.060256
# 5 -0.045011 -0.058703 0.002160 -0.032938 -0.007870 -0.091923
# 6 -0.089384 -0.137772 -0.002559 -0.060256 -0.091923 -0.170903
#
#
# Mechanical properties :
#
#
# Convention : Reuss Voigt Hill
#
# Bulk Modulus (GPa) = -3.86598 32.67373 14.40387
# Shear Modulus (GPa) = -26.06660 33.10412 3.51876
#
# Velocity S-wave (km/s) = -3.49143 3.93462 1.28279
# Velocity P-wave (km/s) = 4.24987 5.99346 2.98832
#
# Compressibility (1/GPa) = -0.25866639
#
# Stress axis : x y z
#
# Youngs Moduli (GPa) = -31.85857 -12.39611 73.73147
#
# Poissons Ratio (x) = -0.82854 0.28997
# Poissons Ratio (y) = -2.12939 0.68668
# Poissons Ratio (z) = -0.12529 -0.11545
#
# Static dielectric constant tensor:
#      x y z
#    x 1.787730 -0.006240 0.036140 
#    y -0.006240 1.779120 0.001770 
#    z 0.036140 0.001770 1.772130 
# 
# From -- ./inp_files/158715.got.cif
#   From: 2010.05.17/outbox.cif.g08.bks.cpg/sg2_80_cif.got.tgz:158715.got - 2010.06.03 11:33:40.
