data_PCOD9046679
_publ_section_title
;
Structure prediction by ZEFSAII (Michael W. Deem and Ramdas Pophale) SiO2 
 PCOD9046679
Probable space group: P -1
;
_chemical_formula_sum "Si O2"
_cell_formula_units_Z 16
_cell_length_a 5.293315
_cell_length_b 17.743109
_cell_length_c 8.521155
_cell_angle_alpha 123.586254
_cell_angle_beta 68.344776
_cell_angle_gamma 109.674188
_cell_volume 610.497856
_symmetry_space_group_name_H-M "P -1"
_symmetry_group_IT_number 2
_symmetry_cell_setting 'triclinic'
loop_
_space_group_symop_operation_xyz
x,y,z
-x,-y,-z
loop_
_atom_site_type_symbol
_atom_site_label
_atom_site_fract_x
_atom_site_fract_y
_atom_site_fract_z
Si Si1 0.416208 0.693931 0.467105
Si Si2 0.773104 0.791386 0.279843
Si Si3 0.713656 0.430608 0.342411
Si Si4 0.802455 0.473111 0.865034
Si Si5 0.069055 0.841405 0.785268
Si Si6 0.590442 0.741963 0.934242
Si Si7 0.247436 0.907286 0.154224
Si Si8 0.407379 0.932268 0.585064
O O1 0.726526 0.723820 0.360294
O O2 0.327651 0.627598 0.556148
O O3 0.260261 0.634812 0.290551
O O4 0.322517 0.786963 0.653202
O O5 0.505701 0.840027 0.401054
O O6 0.020508 0.876772 0.306977
O O7 0.757486 0.741836 0.058542
O O8 0.500000 0.500000 0.500000
O O9 0.604895 0.354096 0.148580
O O10 0.016357 0.476945 0.266242
O O11 0.500000 0.500000 0.000000
O O12 0.000000 0.500000 0.000000
O O13 0.104693 0.905577 0.698692
O O14 0.809730 0.760952 0.765144
O O15 0.098750 0.894437 0.004625
O O16 0.437396 0.829364 0.048004
O O17 0.418036 0.008470 0.249144
O O18 0.500000 0.000000 0.500000
#
# Coordination Sequence:
#
# PCOD9046679 Si02
#       8
#     2   2   2   2   2   2   2   2
#     4  11  24  46  72  99 139 183 235 293 362 435
#     4  10  24  43  68  98 137 178 230 284 347 433
#     4  12  26  48  75 107 145 188 244 306 371 441
#     4  12  28  48  76 110 146 195 246 311 373 445
#     4  10  24  43  66  99 133 181 233 282 349 429
#     4  11  23  44  70  98 135 182 230 292 350 424
#     4  11  22  43  67  95 137 178 227 284 348 417
#     4  11  22  42  64 100 136 179 225 285 349 413
#
# _framework density 26.208120000000001
#
# number of rings (size 3 to 8) (size 9 to 14) (size 15 to 20)
#    0.000    1.000    2.500    3.375    1.750    2.500 
#    4.500    0.000    0.000    0.000    0.000    0.000 
#    0.000    0.000    0.000    0.000    0.000    0.000 
#
# Total GULP energy -89388.325540 kJ/mol
# GULP energy per Si atom -5586.770346 kJ/mol
# Density = 2.614847 g / cm^3
# Si number density = 26.208120 Si / 1000 Ang^3
#
#
#
# Elastic Constant Matrix: (Units=GPa)
#
#
# Indices 1 2 3 4 5 6 
#
# 1 58.5143 15.8543 20.2020 -6.8454 -10.3059 11.5681
# 2 15.8543 134.0970 51.5082 -35.3526 -10.1191 34.3817
# 3 20.2020 51.5082 91.5633 -19.5021 -3.3382 5.7075
# 4 -6.8454 -35.3526 -19.5021 72.3326 20.5634 -2.9358
# 5 -10.3059 -10.1191 -3.3382 20.5634 37.7364 -0.5551
# 6 11.5681 34.3817 5.7075 -2.9358 -0.5551 51.1141
#
#
#
# Elastic Compliance Matrix: (Units=1/GPa)
#
#
# Indices 1 2 3 4 5 6 
#
# 1 0.020277 0.000764 -0.004569 -0.000738 0.005673 -0.004573
# 2 0.000764 0.012858 -0.005984 0.004220 0.000711 -0.007904
# 3 -0.004569 -0.005984 0.015334 0.001570 -0.002301 0.003412
# 4 -0.000738 0.004220 0.001570 0.018778 -0.009191 -0.001868
# 5 0.005673 0.000711 -0.002301 -0.009191 0.033020 -0.001675
# 6 -0.004573 -0.007904 0.003412 -0.001868 -0.001675 0.025409
#
#
# Mechanical properties :
#
#
# Convention : Reuss Voigt Hill
#
# Bulk Modulus (GPa) = 34.61356 51.03372 42.82364
# Shear Modulus (GPa) = 32.28190 45.34397 38.81293
#
# Velocity S-wave (km/s) = 3.51344 4.16402 3.85249
# Velocity P-wave (km/s) = 5.44930 6.52943 6.01367
#
# Compressibility (1/GPa) = 0.02889041
#
# Stress axis : x y z
#
# Youngs Moduli (GPa) = 49.31617 77.77002 65.21615
#
# Poissons Ratio (x) = -0.05939 0.29796
# Poissons Ratio (y) = -0.03766 0.39028
# Poissons Ratio (z) = 0.22531 0.46541
#
# Static dielectric constant tensor:
#      x y z
#    x 2.175860 0.023380 0.025670 
#    y 0.023380 2.352640 -0.034990 
#    z 0.025670 -0.034990 2.121250 
# 
# From -- ./inp_files/116878.got.cif
#   From: 2010.05.17/outbox.cif.g08.bks.cpg/sg2_59_cif.got.tgz:116878.got - 2010.06.03 11:33:40.
