data_PCOD9046392
_publ_section_title
;
Structure prediction by ZEFSAII (Michael W. Deem and Ramdas Pophale) SiO2 
 PCOD9046392
Probable space group: P -1
;
_chemical_formula_sum "Si O2"
_cell_formula_units_Z 13
_cell_length_a 6.277368
_cell_length_b 15.961717
_cell_length_c 6.002748
_cell_angle_alpha 71.150844
_cell_angle_beta 78.489591
_cell_angle_gamma 86.325501
_cell_volume 557.758243
_symmetry_space_group_name_H-M "P -1"
_symmetry_group_IT_number 2
_symmetry_cell_setting 'triclinic'
loop_
_space_group_symop_operation_xyz
x,y,z
-x,-y,-z
loop_
_atom_site_type_symbol
_atom_site_label
_atom_site_fract_x
_atom_site_fract_y
_atom_site_fract_z
Si Si1 0.237627 0.107706 0.447338
Si Si2 0.359379 0.956172 0.871883
Si Si3 0.726134 0.321070 0.279152
Si Si4 0.682592 0.741847 0.371525
Si Si5 0.500000 0.500000 0.000000
Si Si6 0.090569 0.426414 0.380616
Si Si7 0.029258 0.826564 0.925213
O O1 0.463793 0.087956 0.291226
O O2 0.242754 0.204832 0.470573
O O3 0.237667 0.036320 0.704585
O O4 0.039557 0.107899 0.316885
O O5 0.180405 0.880605 0.018921
O O6 0.500000 0.000000 0.000000
O O7 0.574757 0.267060 0.533274
O O8 0.578283 0.395228 0.126621
O O9 0.904512 0.373415 0.338543
O O10 0.836677 0.254588 0.138352
O O11 0.776744 0.643446 0.437857
O O12 0.801780 0.792392 0.103805
O O13 0.251971 0.473073 0.135922
O O14 0.000000 0.500000 0.500000
#
# Coordination Sequence:
#
# PCOD9046392 Si02
#       7
#     2   2   2   2   1   2   2
#     4  11  24  47  71 107 148 189 246 300 357 440
#     4  11  26  46  74 109 147 191 245 303 365 428
#     4  11  24  47  70 104 147 185 242 298 357 436
#     4  11  25  43  72 109 139 189 246 292 363 431
#     4  10  24  42  72 100 140 186 238 286 360 424
#     4  11  24  44  69 106 142 187 235 301 357 427
#     4  12  25  46  78 102 145 199 239 301 366 427
#
# _framework density 23.307590000000001
#
# number of rings (size 3 to 8) (size 9 to 14) (size 15 to 20)
#    0.000    0.923    3.077    2.769    0.000   11.077 
#    0.000    0.000    0.000    0.000    0.000    0.000 
#    0.000    0.000    0.000    0.000    0.000    0.000 
#
# Total GULP energy -72469.952994 kJ/mol
# GULP energy per Si atom -5574.611769 kJ/mol
# Density = 2.325454 g / cm^3
# Si number density = 23.307590 Si / 1000 Ang^3
#
#
#
# Elastic Constant Matrix: (Units=GPa)
#
#
# Indices 1 2 3 4 5 6 
#
# 1 123.2586 61.2819 48.1060 8.2271 -30.0829 21.7193
# 2 61.2819 119.7900 42.0595 4.4111 -15.4212 4.6613
# 3 48.1060 42.0595 76.0819 -9.5558 -8.7697 11.7535
# 4 8.2271 4.4111 -9.5558 30.9642 -6.4776 0.4377
# 5 -30.0829 -15.4212 -8.7697 -6.4776 40.4053 -11.0832
# 6 21.7193 4.6613 11.7535 0.4377 -11.0832 57.8562
#
#
#
# Elastic Compliance Matrix: (Units=1/GPa)
#
#
# Indices 1 2 3 4 5 6 
#
# 1 0.015254 -0.004380 -0.006509 -0.003956 0.006898 -0.002700
# 2 -0.004380 0.012215 -0.004403 -0.001831 0.000615 0.001686
# 3 -0.006509 -0.004403 0.020916 0.008610 -0.001079 -0.001723
# 4 -0.003956 -0.001831 0.008610 0.037158 0.004298 0.000426
# 5 0.006898 0.000615 -0.001079 0.004298 0.031560 0.003593
# 6 -0.002700 0.001686 -0.001723 0.000426 0.003593 0.019197
#
#
# Mechanical properties :
#
#
# Convention : Reuss Voigt Hill
#
# Bulk Modulus (GPa) = 56.17016 69.11393 62.64205
# Shear Modulus (GPa) = 28.93210 37.02402 32.97806
#
# Velocity S-wave (km/s) = 3.52705 3.98992 3.76560
# Velocity P-wave (km/s) = 6.38268 7.13746 6.77060
#
# Compressibility (1/GPa) = 0.01780305
#
# Stress axis : x y z
#
# Youngs Moduli (GPa) = 65.55602 81.86365 47.80917
#
# Poissons Ratio (x) = 0.35854 0.31117
# Poissons Ratio (y) = 0.28711 0.21052
# Poissons Ratio (z) = 0.42668 0.36047
#
# Static dielectric constant tensor:
#      x y z
#    x 1.868910 0.002520 -0.000750 
#    y 0.002520 1.844570 -0.020190 
#    z -0.000750 -0.020190 1.923330 
# 
# From -- ./inp_files/4322.got.cif
#   From: 2010.05.17/outbox.cif.g08.bks.cpg/sg2_3_cif.got.tgz:4322.got - 2010.06.03 11:33:40.
