data_PCOD9046658
_publ_section_title
;
Structure prediction by ZEFSAII (Michael W. Deem and Ramdas Pophale) SiO2 
 PCOD9046658
Probable space group: P -1
;
_chemical_formula_sum "Si O2"
_cell_formula_units_Z 16
_cell_length_a 10.846446
_cell_length_b 14.704450
_cell_length_c 8.745538
_cell_angle_alpha 51.002815
_cell_angle_beta 53.541460
_cell_angle_gamma 48.068689
_cell_volume 769.195082
_symmetry_space_group_name_H-M "P -1"
_symmetry_group_IT_number 2
_symmetry_cell_setting 'triclinic'
loop_
_space_group_symop_operation_xyz
x,y,z
-x,-y,-z
loop_
_atom_site_type_symbol
_atom_site_label
_atom_site_fract_x
_atom_site_fract_y
_atom_site_fract_z
Si Si1 0.835047 0.647945 0.275441
Si Si2 0.914115 0.957491 0.473164
Si Si3 0.138515 0.445702 0.094517
Si Si4 0.723320 0.789095 0.533189
Si Si5 0.706620 0.924138 0.915039
Si Si6 0.750273 0.146837 0.811215
Si Si7 0.687207 0.081553 0.254114
Si Si8 0.415368 0.405018 0.689911
O O1 0.794707 0.700396 0.422093
O O2 0.713057 0.587630 0.361502
O O3 0.036176 0.550076 0.193952
O O4 0.779260 0.776758 0.075218
O O5 0.775929 0.924433 0.694019
O O6 0.803594 0.078196 0.314291
O O7 0.078118 0.846766 0.377573
O O8 0.000000 0.000000 0.500000
O O9 0.188660 0.304511 0.285675
O O10 0.307719 0.436934 0.894841
O O11 0.000000 0.500000 0.000000
O O12 0.738727 0.924718 0.363980
O O13 0.516709 0.840861 0.644165
O O14 0.770740 0.006060 0.888685
O O15 0.500000 0.000000 0.000000
O O16 0.576900 0.258246 0.743586
O O17 0.730273 0.143099 0.010395
O O18 0.500000 0.500000 0.500000
#
# Coordination Sequence:
#
# PCOD9046658 Si02
#       8
#     2   2   2   2   2   2   2   2
#     4  11  23  41  69  96 136 171 231 278 336 393
#     4  10  25  38  62  99 140 174 213 269 340 403
#     4  10  24  43  66  96 133 178 226 276 325 404
#     4  11  23  41  70 106 131 173 228 286 337 388
#     4  11  21  39  69 103 128 176 222 282 338 396
#     4  11  22  43  64 100 140 172 219 279 345 401
#     4  11  23  39  71 103 138 172 222 284 343 397
#     4  11  25  43  67  94 135 185 221 270 337 406
#
# _framework density 20.800965000000001
#
# number of rings (size 3 to 8) (size 9 to 14) (size 15 to 20)
#    0.000    1.250    3.750    1.500    8.750    1.000 
#    0.000    0.625    0.000    0.000    0.000    0.000 
#    0.000    0.000    0.000    0.000    0.000    0.000 
#
# Total GULP energy -89317.485579 kJ/mol
# GULP energy per Si atom -5582.342849 kJ/mol
# Density = 2.075362 g / cm^3
# Si number density = 20.800965 Si / 1000 Ang^3
#
#
#
# Elastic Constant Matrix: (Units=GPa)
#
#
# Indices 1 2 3 4 5 6 
#
# 1 51.1369 9.4784 8.1717 10.2194 4.9307 -4.9847
# 2 9.4784 95.3257 22.7074 17.6405 -11.2324 -8.7171
# 3 8.1717 22.7074 100.3216 30.1975 -3.8201 -0.4656
# 4 10.2194 17.6405 30.1975 41.7522 -5.0984 -4.2052
# 5 4.9307 -11.2324 -3.8201 -5.0984 37.2214 3.1577
# 6 -4.9847 -8.7171 -0.4656 -4.2052 3.1577 37.6514
#
#
#
# Elastic Compliance Matrix: (Units=1/GPa)
#
#
# Indices 1 2 3 4 5 6 
#
# 1 0.021437 -0.001495 -0.000106 -0.004814 -0.004156 0.002302
# 2 -0.001495 0.012126 -0.001582 -0.003033 0.003111 0.001990
# 3 -0.000106 -0.001582 0.012982 -0.008844 -0.000242 -0.001187
# 4 -0.004814 -0.003033 -0.008844 0.033403 0.003220 0.002012
# 5 -0.004156 0.003111 -0.000242 0.003220 0.028933 -0.001900
# 6 0.002302 0.001990 -0.001187 0.002012 -0.001900 0.027694
#
#
# Mechanical properties :
#
#
# Convention : Reuss Voigt Hill
#
# Bulk Modulus (GPa) = 24.88925 36.38881 30.63903
# Shear Modulus (GPa) = 31.98299 37.08678 34.53489
#
# Velocity S-wave (km/s) = 3.92544 4.22706 4.07904
# Velocity P-wave (km/s) = 5.70411 6.43085 6.07835
#
# Compressibility (1/GPa) = 0.04017799
#
# Stress axis : x y z
#
# Youngs Moduli (GPa) = 46.64931 82.47011 77.02896
#
# Poissons Ratio (x) = 0.12325 0.00819
# Poissons Ratio (y) = 0.06972 0.12189
# Poissons Ratio (z) = 0.00496 0.13049
#
# Static dielectric constant tensor:
#      x y z
#    x 1.800440 0.022400 -0.010120 
#    y 0.022400 1.762460 0.032720 
#    z -0.010120 0.032720 1.767280 
# 
# From -- ./inp_files/189352.got.cif
#   From: 2010.05.17/outbox.cif.g08.bks.cpg/sg2_95_cif.got.tgz:189352.got - 2010.06.03 11:33:40.
