data_PCOD9046725
_publ_section_title
;
Structure prediction by ZEFSAII (Michael W. Deem and Ramdas Pophale) SiO2 
 PCOD9046725
Probable space group: P -1
;
_chemical_formula_sum "Si O2"
_cell_formula_units_Z 14
_cell_length_a 7.707051
_cell_length_b 12.850580
_cell_length_c 10.815021
_cell_angle_alpha 42.574101
_cell_angle_beta 71.932751
_cell_angle_gamma 96.032283
_cell_volume 589.100224
_symmetry_space_group_name_H-M "P -1"
_symmetry_group_IT_number 2
_symmetry_cell_setting 'triclinic'
loop_
_space_group_symop_operation_xyz
x,y,z
-x,-y,-z
loop_
_atom_site_type_symbol
_atom_site_label
_atom_site_fract_x
_atom_site_fract_y
_atom_site_fract_z
Si Si1 0.496427 0.680386 0.860127
Si Si2 0.139042 0.446823 0.598912
Si Si3 0.696688 0.169675 0.060957
Si Si4 0.173248 0.993180 0.622230
Si Si5 0.323483 0.820151 0.330476
Si Si6 0.973630 0.872360 0.232508
Si Si7 0.838044 0.302263 0.252241
O O1 0.393293 0.703054 0.989087
O O2 0.726032 0.854963 0.636445
O O3 0.371791 0.710531 0.749463
O O4 0.500000 0.500000 0.000000
O O5 0.198955 0.328087 0.603762
O O6 0.000000 0.500000 0.500000
O O7 0.321869 0.641296 0.439228
O O8 0.949760 0.299812 0.860976
O O9 0.675049 0.052288 0.288506
O O10 0.540784 0.010777 0.140479
O O11 0.075850 0.055122 0.696501
O O12 0.065374 0.809957 0.730623
O O13 0.176712 0.859082 0.239239
O O14 0.202941 0.748606 0.551130
O O15 0.000000 0.000000 0.000000
O O16 0.000000 0.500000 0.000000
#
# Coordination Sequence:
#
# PCOD9046725 Si02
#       7
#     2   2   2   2   2   2   2
#     4  11  24  40  65 101 139 168 214 284 346 395
#     4  10  24  43  67  92 136 178 224 272 336 391
#     4  11  21  46  69  95 133 182 219 278 340 404
#     4  11  22  44  68  92 145 170 217 281 347 394
#     4  11  23  44  72  96 130 181 232 269 340 405
#     4  11  25  43  65  96 134 179 222 281 326 390
#     4  11  23  41  68 102 133 177 221 279 345 406
#
# _framework density 23.765055
#
# number of rings (size 3 to 8) (size 9 to 14) (size 15 to 20)
#    0.000    1.143    4.286    2.571    6.000    4.000 
#    0.000    0.714    3.143    0.000    0.000    0.000 
#    0.000    0.000    0.000    0.000    0.000    0.000 
#
# Total GULP energy -77995.631125 kJ/mol
# GULP energy per Si atom -5571.116509 kJ/mol
# Density = 2.371097 g / cm^3
# Si number density = 23.765055 Si / 1000 Ang^3
#
#
#
# Elastic Constant Matrix: (Units=GPa)
#
#
# Indices 1 2 3 4 5 6 
#
# 1 70.0508 6.3106 23.2142 -8.6544 21.4303 6.3607
# 2 6.3106 104.2219 42.9428 -22.0069 11.4081 -23.4185
# 3 23.2142 42.9428 120.9916 -24.9969 12.1178 -20.4553
# 4 -8.6544 -22.0069 -24.9969 55.0739 -0.1583 8.7882
# 5 21.4303 11.4081 12.1178 -0.1583 24.5228 0.7578
# 6 6.3607 -23.4185 -20.4553 8.7882 0.7578 32.1307
#
#
#
# Elastic Compliance Matrix: (Units=1/GPa)
#
#
# Indices 1 2 3 4 5 6 
#
# 1 0.021547 0.001330 -0.003113 0.003377 -0.017710 -0.005784
# 2 0.001330 0.013595 -0.002517 0.003317 -0.006446 0.007288
# 3 -0.003113 -0.002517 0.011434 0.002839 -0.001905 0.005329
# 4 0.003377 0.003317 0.002839 0.021641 -0.005688 -0.002228
# 5 -0.017710 -0.006446 -0.001905 -0.005688 0.060229 -0.002270
# 6 -0.005784 0.007288 0.005329 -0.002228 -0.002270 0.041635
#
#
# Mechanical properties :
#
#
# Convention : Reuss Voigt Hill
#
# Bulk Modulus (GPa) = 26.33230 48.91106 37.62168
# Shear Modulus (GPa) = 26.13131 37.19860 31.66495
#
# Velocity S-wave (km/s) = 3.31957 3.96063 3.65419
# Velocity P-wave (km/s) = 5.07908 6.44525 5.80251
#
# Compressibility (1/GPa) = 0.03797617
#
# Stress axis : x y z
#
# Youngs Moduli (GPa) = 46.40930 73.55502 87.45867
#
# Poissons Ratio (x) = -0.09781 0.27223
# Poissons Ratio (y) = -0.06171 0.22016
# Poissons Ratio (z) = 0.14446 0.18516
#
# Static dielectric constant tensor:
#      x y z
#    x 2.270300 0.121660 -0.256090 
#    y 0.121660 2.097600 -0.069460 
#    z -0.256090 -0.069460 2.024360 
# 
# From -- ./inp_files/187072.got.cif
#   From: 2010.05.17/outbox.cif.g08.bks.cpg/sg2_94_cif.got.tgz:187072.got - 2010.06.03 11:33:40.
