data_PCOD9046681
_publ_section_title
;
Structure prediction by ZEFSAII (Michael W. Deem and Ramdas Pophale) SiO2 
 PCOD9046681
Probable space group: P -1
;
_chemical_formula_sum "Si O2"
_cell_formula_units_Z 15
_cell_length_a 7.178437
_cell_length_b 6.480854
_cell_length_c 21.097698
_cell_angle_alpha 112.081677
_cell_angle_beta 50.008138
_cell_angle_gamma 119.127876
_cell_volume 653.950154
_symmetry_space_group_name_H-M "P -1"
_symmetry_group_IT_number 2
_symmetry_cell_setting 'triclinic'
loop_
_space_group_symop_operation_xyz
x,y,z
-x,-y,-z
loop_
_atom_site_type_symbol
_atom_site_label
_atom_site_fract_x
_atom_site_fract_y
_atom_site_fract_z
Si Si1 0.996175 0.120142 0.755378
Si Si2 0.424223 0.160461 0.268767
Si Si3 0.500000 0.500000 0.500000
Si Si4 0.640012 0.417167 0.865313
Si Si5 0.073572 0.824032 0.415859
Si Si6 0.527862 0.359315 0.619421
Si Si7 0.681515 0.884861 0.982921
Si Si8 0.796590 0.872919 0.147494
O O1 0.254602 0.146729 0.662728
O O2 0.080977 0.127669 0.810458
O O3 0.881996 0.331058 0.791079
O O4 0.760178 0.888656 0.758172
O O5 0.500388 0.420403 0.310142
O O6 0.247023 0.981311 0.339896
O O7 0.667729 0.076552 0.194706
O O8 0.591011 0.434302 0.542160
O O9 0.807090 0.634243 0.428227
O O10 0.712488 0.675373 0.908336
O O11 0.444587 0.364728 0.842665
O O12 0.464359 0.236313 0.935966
O O13 0.250113 0.711015 0.403513
O O14 0.000000 0.000000 0.500000
O O15 0.966641 0.079121 0.947449
O O16 0.500000 0.000000 0.000000
#
# Coordination Sequence:
#
# PCOD9046681 Si02
#       8
#     2   2   1   2   2   2   2   2
#     4  11  23  45  67  97 134 171 219 272 325 386
#     4  11  25  44  67  95 133 170 219 272 329 392
#     4  12  26  44  70  96 130 172 218 272 334 388
#     4  10  24  43  66  99 135 169 219 270 316 390
#     4  12  26  46  66  98 131 169 221 272 329 397
#     4  12  26  45  69  99 129 177 221 271 333 394
#     4  11  22  43  68  97 134 175 217 264 324 381
#     4  11  23  44  67  97 131 177 215 270 328 383
#
# _framework density 22.937526999999999
#
# number of rings (size 3 to 8) (size 9 to 14) (size 15 to 20)
#    0.000    0.800    5.333    1.600    0.000    4.267 
#    2.400    0.000    0.000    0.000    0.000    0.000 
#    0.000    0.000    0.000    0.000    0.000    0.000 
#
# Total GULP energy -83699.595360 kJ/mol
# GULP energy per Si atom -5579.973024 kJ/mol
# Density = 2.288532 g / cm^3
# Si number density = 22.937527 Si / 1000 Ang^3
#
#
#
# Elastic Constant Matrix: (Units=GPa)
#
#
# Indices 1 2 3 4 5 6 
#
# 1 159.8831 18.1318 15.4593 -12.7934 -12.0162 8.5101
# 2 18.1318 40.7228 -0.7911 -2.3225 -12.7908 1.3663
# 3 15.4593 -0.7911 61.7398 -11.8313 -11.9603 -3.8234
# 4 -12.7934 -2.3225 -11.8313 32.0250 -2.5271 -5.4989
# 5 -12.0162 -12.7908 -11.9603 -2.5271 56.2401 -5.9013
# 6 8.5101 1.3663 -3.8234 -5.4989 -5.9013 14.3314
#
#
#
# Elastic Compliance Matrix: (Units=1/GPa)
#
#
# Indices 1 2 3 4 5 6 
#
# 1 0.007078 -0.002945 -0.001774 0.001308 0.000121 -0.003844
# 2 -0.002945 0.028217 0.003386 0.003401 0.007101 0.004190
# 3 -0.001774 0.003386 0.020632 0.009860 0.006556 0.012718
# 4 0.001308 0.003401 0.009860 0.039550 0.006981 0.019580
# 5 0.000121 0.007101 0.006556 0.006981 0.022487 0.012939
# 6 -0.003844 0.004190 0.012718 0.019580 0.012939 0.087893
#
#
# Mechanical properties :
#
#
# Convention : Reuss Voigt Hill
#
# Bulk Modulus (GPa) = 18.77553 36.43841 27.60697
# Shear Modulus (GPa) = 22.09672 35.82234 28.95953
#
# Velocity S-wave (km/s) = 3.10714 3.95617 3.55708
# Velocity P-wave (km/s) = 4.59083 6.06537 5.37887
#
# Compressibility (1/GPa) = 0.05326082
#
# Stress axis : x y z
#
# Youngs Moduli (GPa) = 141.27458 35.43986 48.46895
#
# Poissons Ratio (x) = 0.10436 0.08599
# Poissons Ratio (y) = 0.41600 -0.16410
# Poissons Ratio (z) = 0.25063 -0.11999
#
# Static dielectric constant tensor:
#      x y z
#    x 1.841490 0.033010 0.057940 
#    y 0.033010 1.862460 0.009250 
#    z 0.057940 0.009250 1.878520 
# 
# From -- ./inp_files/7972.got.cif
#   From: 2010.05.17/outbox.cif.g08.bks.cpg/sg2_4_cif.got.tgz:7972.got - 2010.06.03 11:33:40.
