data_PCOD9046765
_publ_section_title
;
Structure prediction by ZEFSAII (Michael W. Deem and Ramdas Pophale) SiO2 
 PCOD9046765
Probable space group: P -1
;
_chemical_formula_sum "Si O2"
_cell_formula_units_Z 12
_cell_length_a 8.440747
_cell_length_b 15.467208
_cell_length_c 12.958479
_cell_angle_alpha 27.516928
_cell_angle_beta 107.323342
_cell_angle_gamma 125.431839
_cell_volume 521.143957
_symmetry_space_group_name_H-M "P -1"
_symmetry_group_IT_number 2
_symmetry_cell_setting 'triclinic'
loop_
_space_group_symop_operation_xyz
x,y,z
-x,-y,-z
loop_
_atom_site_type_symbol
_atom_site_label
_atom_site_fract_x
_atom_site_fract_y
_atom_site_fract_z
Si Si1 0.582237 0.357436 0.189749
Si Si2 0.961052 0.362881 0.479298
Si Si3 0.636115 0.286184 0.672668
Si Si4 0.405104 0.310645 0.420962
Si Si5 0.098453 0.741877 0.921518
Si Si6 0.534308 0.837670 0.835467
O O1 0.561292 0.340144 0.328047
O O2 0.427391 0.125674 0.319457
O O3 0.856196 0.537306 0.027019
O O4 0.500000 0.500000 0.000000
O O5 0.804005 0.327470 0.575816
O O6 0.197843 0.478876 0.459026
O O7 0.051794 0.595851 0.173271
O O8 0.782489 0.082533 0.680595
O O9 0.479667 0.301759 0.558136
O O10 0.500000 0.000000 0.000000
O O11 0.435296 0.555521 0.151469
O O12 0.155317 0.006894 0.670968
O O13 0.327032 0.818907 0.839853
#
# Coordination Sequence:
#
# PCOD9046765 Si02
#       6
#     2   2   2   2   2   2
#     4  10  24  43  67  99 138 179 221 272 332 399
#     4  11  23  41  71  96 134 176 223 277 335 390
#     4  11  21  44  72  95 131 179 225 273 336 395
#     4  11  24  44  69  99 136 178 226 270 333 398
#     4  12  22  44  67  99 137 179 218 276 336 393
#     4  11  25  42  66 105 135 174 229 270 333 399
#
# _framework density 23.026267000000001
#
# number of rings (size 3 to 8) (size 9 to 14) (size 15 to 20)
#    0.000    1.000    5.000    0.500    0.000   10.000 
#    0.000    3.333    0.000    0.000    0.000    0.000 
#    0.000    0.000    0.000    0.000    0.000    0.000 
#
# Total GULP energy -66950.616725 kJ/mol
# GULP energy per Si atom -5579.218060 kJ/mol
# Density = 2.297386 g / cm^3
# Si number density = 23.026267 Si / 1000 Ang^3
#
#
#
# Elastic Constant Matrix: (Units=GPa)
#
#
# Indices 1 2 3 4 5 6 
#
# 1 56.2149 22.3458 25.4626 1.9157 9.2592 -1.5082
# 2 22.3458 175.1305 33.0826 -25.5856 11.8035 13.7186
# 3 25.4626 33.0826 106.1855 -6.0419 34.0373 -8.9849
# 4 1.9157 -25.5856 -6.0419 47.3081 -0.1728 1.3996
# 5 9.2592 11.8035 34.0373 -0.1728 33.0230 3.3577
# 6 -1.5082 13.7186 -8.9849 1.3996 3.3577 24.3075
#
#
#
# Elastic Compliance Matrix: (Units=1/GPa)
#
#
# Indices 1 2 3 4 5 6 
#
# 1 0.020814 -0.002341 -0.003934 -0.002659 -0.001107 0.001465
# 2 -0.002341 0.007388 -0.002289 0.003965 0.000957 -0.005522
# 3 -0.003934 -0.002289 0.017396 0.000792 -0.016999 0.009780
# 4 -0.002659 0.003965 0.000792 0.023586 -0.001026 -0.003327
# 5 -0.001107 0.000957 -0.016999 -0.001026 0.049151 -0.013623
# 6 0.001465 -0.005522 0.009780 -0.003327 -0.013623 0.050035
#
#
# Mechanical properties :
#
#
# Convention : Reuss Voigt Hill
#
# Bulk Modulus (GPa) = 35.12540 55.47920 45.30230
# Shear Modulus (GPa) = 25.64261 38.03703 31.83982
#
# Velocity S-wave (km/s) = 3.34072 4.06876 3.72258
# Velocity P-wave (km/s) = 5.49256 6.79848 6.18011
#
# Compressibility (1/GPa) = 0.02846942
#
# Stress axis : x y z
#
# Youngs Moduli (GPa) = 48.04537 135.34649 57.48610
#
# Poissons Ratio (x) = 0.31686 0.22616
# Poissons Ratio (y) = 0.11248 0.13158
# Poissons Ratio (z) = 0.18902 0.30979
#
# Static dielectric constant tensor:
#      x y z
#    x 1.885230 -0.003650 -0.044290 
#    y -0.003650 1.902530 -0.009200 
#    z -0.044290 -0.009200 1.940760 
# 
# From -- ./inp_files/34029.got.cif
#   From: 2010.05.17/outbox.cif.g08.bks.cpg/sg2_18_cif.got.tgz:34029.got - 2010.06.03 11:33:40.
