data_PCOD9046802
_publ_section_title
;
Structure prediction by ZEFSAII (Michael W. Deem and Ramdas Pophale) SiO2 
 PCOD9046802
Probable space group: P -1
;
_chemical_formula_sum "Si O2"
_cell_formula_units_Z 14
_cell_length_a 13.846713
_cell_length_b 14.875748
_cell_length_c 5.663478
_cell_angle_alpha 128.630335
_cell_angle_beta 126.165131
_cell_angle_gamma 44.027837
_cell_volume 611.557889
_symmetry_space_group_name_H-M "P -1"
_symmetry_group_IT_number 2
_symmetry_cell_setting 'triclinic'
loop_
_space_group_symop_operation_xyz
x,y,z
-x,-y,-z
loop_
_atom_site_type_symbol
_atom_site_label
_atom_site_fract_x
_atom_site_fract_y
_atom_site_fract_z
Si Si1 0.913829 0.049149 0.200575
Si Si2 0.406438 0.711595 0.290407
Si Si3 0.810929 0.301028 0.751609
Si Si4 0.635468 0.839206 0.401277
Si Si5 0.355066 0.007883 0.719297
Si Si6 0.439664 0.384334 0.134016
Si Si7 0.143374 0.147074 0.029967
O O1 0.818901 0.211531 0.388938
O O2 0.000000 0.000000 0.500000
O O3 0.828599 0.974176 0.948905
O O4 0.000000 0.000000 0.000000
O O5 0.252416 0.738082 0.181732
O O6 0.477041 0.628384 0.012183
O O7 0.406096 0.850584 0.479976
O O8 0.486399 0.643822 0.547182
O O9 0.704424 0.463332 0.822112
O O10 0.973949 0.256411 0.958123
O O11 0.710009 0.857916 0.318050
O O12 0.590666 0.734848 0.127385
O O13 0.756793 0.794977 0.698161
O O14 0.500000 0.000000 0.500000
O O15 0.218453 0.053243 0.757601
O O16 0.500000 0.000000 0.000000
#
# Coordination Sequence:
#
# PCOD9046802 Si02
#       7
#     2   2   2   2   2   2   2
#     4  10  24  43  68 102 139 182 228 287 358 418
#     4  12  25  47  76 105 145 190 244 298 359 434
#     4  11  27  48  72 109 150 187 237 300 371 436
#     4  12  24  43  74 102 141 190 249 296 351 427
#     4  12  22  43  70 102 136 185 248 299 346 417
#     4  12  27  48  74 107 147 195 239 297 363 432
#     4  11  25  44  69 105 141 187 240 304 357 424
#
# _framework density 22.892354999999998
#
# number of rings (size 3 to 8) (size 9 to 14) (size 15 to 20)
#    0.000    0.571    5.714    0.857    4.000    5.143 
#    0.000    0.714    0.000    0.000    0.000    0.000 
#    0.000    0.000    0.000    0.000    0.000    0.000 
#
# Total GULP energy -77994.294771 kJ/mol
# GULP energy per Si atom -5571.021055 kJ/mol
# Density = 2.284025 g / cm^3
# Si number density = 22.892355 Si / 1000 Ang^3
#
#
#
# Elastic Constant Matrix: (Units=GPa)
#
#
# Indices 1 2 3 4 5 6 
#
# 1 156.9441 50.3915 58.7221 11.5175 -19.0946 -6.7408
# 2 50.3915 133.5484 66.8426 13.6560 -6.9870 -21.7356
# 3 58.7221 66.8426 120.1317 8.2155 -7.7821 -7.6414
# 4 11.5175 13.6560 8.2155 40.5081 -1.4695 2.5728
# 5 -19.0946 -6.9870 -7.7821 -1.4695 57.1951 -3.5640
# 6 -6.7408 -21.7356 -7.6414 2.5728 -3.5640 41.6842
#
#
#
# Elastic Compliance Matrix: (Units=1/GPa)
#
#
# Indices 1 2 3 4 5 6 
#
# 1 0.008318 -0.001284 -0.003101 -0.001247 0.002189 0.000371
# 2 -0.001284 0.011840 -0.005401 -0.002842 0.000534 0.005197
# 3 -0.003101 -0.005401 0.012769 0.000175 -0.000015 -0.000989
# 4 -0.001247 -0.002842 0.000175 0.026163 -0.000273 -0.003290
# 5 0.002189 0.000534 -0.000015 -0.000273 0.018409 0.002220
# 6 0.000371 0.005197 -0.000989 -0.003290 0.002220 0.026971
#
#
# Mechanical properties :
#
#
# Convention : Reuss Voigt Hill
#
# Bulk Modulus (GPa) = 74.87296 84.72628 79.79962
# Shear Modulus (GPa) = 38.91244 43.52202 41.21723
#
# Velocity S-wave (km/s) = 4.12734 4.36496 4.24781
# Velocity P-wave (km/s) = 7.44921 7.90537 7.68068
#
# Compressibility (1/GPa) = 0.01335596
#
# Stress axis : x y z
#
# Youngs Moduli (GPa) = 120.22088 84.46016 78.31436
#
# Poissons Ratio (x) = 0.10846 0.24283
# Poissons Ratio (y) = 0.15438 0.42295
# Poissons Ratio (z) = 0.37277 0.45614
#
# Static dielectric constant tensor:
#      x y z
#    x 1.910410 0.018200 -0.080120 
#    y 0.018200 1.918830 -0.080610 
#    z -0.080120 -0.080610 2.019980 
# 
# From -- ./inp_files/96721.got.cif
#   From: 2010.05.17/outbox.cif.g08.bks.cpg/sg2_49_cif.got.tgz:96721.got - 2010.06.03 11:33:40.
