data_PCOD9046887
_publ_section_title
;
Structure prediction by ZEFSAII (Michael W. Deem and Ramdas Pophale) SiO2 
 PCOD9046887
Probable space group: P -1
;
_chemical_formula_sum "Si O2"
_cell_formula_units_Z 16
_cell_length_a 16.504018
_cell_length_b 5.284244
_cell_length_c 12.602611
_cell_angle_alpha 71.966092
_cell_angle_beta 140.665876
_cell_angle_gamma 102.422540
_cell_volume 661.884886
_symmetry_space_group_name_H-M "P -1"
_symmetry_group_IT_number 2
_symmetry_cell_setting 'triclinic'
loop_
_space_group_symop_operation_xyz
x,y,z
-x,-y,-z
loop_
_atom_site_type_symbol
_atom_site_label
_atom_site_fract_x
_atom_site_fract_y
_atom_site_fract_z
Si Si1 0.798194 0.792276 0.996044
Si Si2 0.570850 0.622635 0.423061
Si Si3 0.090804 0.852214 0.282890
Si Si4 0.322671 0.943044 0.362789
Si Si5 0.876592 0.560922 0.436886
Si Si6 0.373099 0.681769 0.862084
Si Si7 0.242671 0.142978 0.558747
Si Si8 0.312109 0.772162 0.023156
O O1 0.706555 0.899959 0.794966
O O2 0.760314 0.966759 0.038164
O O3 0.943108 0.852846 0.104504
O O4 0.778584 0.480559 0.034324
O O5 0.590123 0.326072 0.527646
O O6 0.665400 0.627398 0.415088
O O7 0.570073 0.308824 0.770014
O O8 0.620147 0.854495 0.519825
O O9 0.187181 0.843470 0.283442
O O10 0.110006 0.619649 0.420081
O O11 0.139494 0.101176 0.367862
O O12 0.751633 0.489939 0.255362
O O13 0.839860 0.841208 0.418630
O O14 0.000000 0.500000 0.500000
O O15 0.346915 0.902264 0.716178
O O16 0.500000 0.500000 0.000000
O O17 0.368509 0.806057 0.958448
#
# Coordination Sequence:
#
# PCOD9046887 Si02
#       8
#     2   2   2   2   2   2   2   2
#     4  12  28  46  70 104 144 181 237 297 356 411
#     4  11  24  46  74 100 142 179 241 283 356 423
#     4  10  24  43  69 101 141 182 236 286 350 429
#     4  11  24  47  75 101 132 191 236 294 351 419
#     4  11  23  41  69 102 146 184 235 289 364 423
#     4  11  27  43  71 103 144 190 240 287 356 434
#     4  10  24  44  72 104 136 192 229 294 351 432
#     4  12  29  45  69 106 144 185 228 300 351 423
#
# _framework density 24.173389
#
# number of rings (size 3 to 8) (size 9 to 14) (size 15 to 20)
#    0.000    1.000    1.250    3.375   12.250    5.000 
#    0.000    3.125    0.000    0.000    0.000    0.000 
#    0.000    0.000    0.000    0.000    0.000    0.000 
#
# Total GULP energy -89554.003435 kJ/mol
# GULP energy per Si atom -5597.125215 kJ/mol
# Density = 2.411837 g / cm^3
# Si number density = 24.173389 Si / 1000 Ang^3
#
#
#
# Elastic Constant Matrix: (Units=GPa)
#
#
# Indices 1 2 3 4 5 6 
#
# 1 110.0459 19.0223 10.1470 -1.9201 19.0061 7.3054
# 2 19.0223 90.8249 22.4240 2.2739 9.1073 -7.1164
# 3 10.1470 22.4240 92.5934 7.5764 13.3416 7.9238
# 4 -1.9201 2.2739 7.5764 32.6349 7.9500 1.2561
# 5 19.0061 9.1073 13.3416 7.9500 51.8541 -1.6169
# 6 7.3054 -7.1164 7.9238 1.2561 -1.6169 23.9044
#
#
#
# Elastic Compliance Matrix: (Units=1/GPa)
#
#
# Indices 1 2 3 4 5 6 
#
# 1 0.010444 -0.002219 0.000169 0.001844 -0.003897 -0.004269
# 2 -0.002219 0.012754 -0.003236 -0.000393 -0.000361 0.005544
# 3 0.000169 -0.003236 0.012540 -0.001840 -0.002602 -0.005251
# 4 0.001844 -0.000393 -0.001840 0.032552 -0.005190 -0.002132
# 5 -0.003897 -0.000361 -0.002602 -0.005190 0.022358 0.003731
# 6 -0.004269 0.005544 -0.005251 -0.002132 0.003731 0.046893
#
#
# Mechanical properties :
#
#
# Convention : Reuss Voigt Hill
#
# Bulk Modulus (GPa) = 39.73582 44.07234 41.90408
# Shear Modulus (GPa) = 31.94859 37.80340 34.87599
#
# Velocity S-wave (km/s) = 3.63938 3.95884 3.80247
# Velocity P-wave (km/s) = 5.84240 6.25842 6.05399
#
# Compressibility (1/GPa) = 0.02516621
#
# Stress axis : x y z
#
# Youngs Moduli (GPa) = 95.75088 78.40519 79.74596
#
# Poissons Ratio (x) = 0.17397 -0.01347
# Poissons Ratio (y) = 0.21246 0.25805
# Poissons Ratio (z) = -0.01617 0.25371
#
# Static dielectric constant tensor:
#      x y z
#    x 1.963850 -0.049600 -0.021290 
#    y -0.049600 2.050570 -0.015380 
#    z -0.021290 -0.015380 1.884210 
# 
# From -- ./inp_files/85377.got.cif
#   From: 2010.05.17/outbox.cif.g08.bks.cpg/sg2_43_cif.got.tgz:85377.got - 2010.06.03 11:33:40.
