data_PCOD9046449
_publ_section_title
;
Structure prediction by ZEFSAII (Michael W. Deem and Ramdas Pophale) SiO2 
 PCOD9046449
Probable space group: P -1
;
_chemical_formula_sum "Si O2"
_cell_formula_units_Z 14
_cell_length_a 11.968170
_cell_length_b 8.525770
_cell_length_c 17.408747
_cell_angle_alpha 113.142532
_cell_angle_beta 158.732629
_cell_angle_gamma 67.721513
_cell_volume 592.030676
_symmetry_space_group_name_H-M "P -1"
_symmetry_group_IT_number 2
_symmetry_cell_setting 'triclinic'
loop_
_space_group_symop_operation_xyz
x,y,z
-x,-y,-z
loop_
_atom_site_type_symbol
_atom_site_label
_atom_site_fract_x
_atom_site_fract_y
_atom_site_fract_z
Si Si1 0.704915 0.336359 0.131527
Si Si2 0.750941 0.077686 0.418131
Si Si3 0.862072 0.989322 0.081576
Si Si4 0.687217 0.047405 0.759893
Si Si5 0.278567 0.341187 0.994788
Si Si6 0.657139 0.444026 0.779303
Si Si7 0.148845 0.550874 0.388030
O O1 0.033385 0.419335 0.353487
O O2 0.727425 0.166255 0.063373
O O3 0.500000 0.500000 0.000000
O O4 0.561200 0.287242 0.110098
O O5 0.881283 0.257776 0.562107
O O6 0.624360 0.998288 0.402938
O O7 0.421271 0.080178 0.164096
O O8 0.000000 0.000000 0.500000
O O9 0.903222 0.826919 0.132366
O O10 0.184005 0.027845 0.253215
O O11 0.658265 0.247863 0.764102
O O12 0.000000 0.000000 0.000000
O O13 0.043707 0.458976 0.815007
O O14 0.432361 0.441678 0.181848
O O15 0.503756 0.496856 0.609810
O O16 0.000000 0.500000 0.000000
#
# Coordination Sequence:
#
# PCOD9046449 Si02
#       7
#     2   2   2   2   2   2   2
#     4  10  24  43  71 108 140 185 240 295 355 421
#     4  11  23  43  71 105 143 187 242 289 353 430
#     4  11  22  48  70 100 148 189 233 296 362 422
#     4  10  24  42  72  99 140 193 228 287 364 421
#     4  11  24  44  75 100 146 186 234 299 356 421
#     4  12  24  48  69 106 144 185 237 296 361 423
#     4  11  26  45  68 109 136 186 242 290 356 421
#
# _framework density 23.647423
#
# number of rings (size 3 to 8) (size 9 to 14) (size 15 to 20)
#    0.000    1.143    2.857    3.000   10.000    3.429 
#    2.571    1.429    0.000    0.000    0.000    0.000 
#    0.000    0.000    0.000    0.000    0.000    0.000 
#
# Total GULP energy -77989.813569 kJ/mol
# GULP energy per Si atom -5570.700969 kJ/mol
# Density = 2.359360 g / cm^3
# Si number density = 23.647423 Si / 1000 Ang^3
#
#
#
# Elastic Constant Matrix: (Units=GPa)
#
#
# Indices 1 2 3 4 5 6 
#
# 1 114.1708 21.2704 0.8166 0.5355 28.6479 2.7768
# 2 21.2704 98.2495 -18.7707 -4.6625 -11.9607 -5.7405
# 3 0.8166 -18.7707 53.3859 -7.3135 -4.7316 11.8851
# 4 0.5355 -4.6625 -7.3135 31.8928 -0.7030 -1.4289
# 5 28.6479 -11.9607 -4.7316 -0.7030 42.7054 2.5686
# 6 2.7768 -5.7405 11.8851 -1.4289 2.5686 32.1540
#
#
#
# Elastic Compliance Matrix: (Units=1/GPa)
#
#
# Indices 1 2 3 4 5 6 
#
# 1 0.012024 -0.004396 -0.002795 -0.001702 -0.009629 -0.000097
# 2 -0.004396 0.013323 0.005854 0.003534 0.007377 0.000162
# 3 -0.002795 0.005854 0.024031 0.006210 0.006752 -0.007860
# 4 -0.001702 0.003534 0.006210 0.033385 0.003387 -0.000305
# 5 -0.009629 0.007377 0.006752 0.003387 0.032916 -0.002826
# 6 -0.000097 0.000162 -0.007860 -0.000305 -0.002826 0.034255
#
#
# Mechanical properties :
#
#
# Convention : Reuss Voigt Hill
#
# Bulk Modulus (GPa) = 21.41063 30.27098 25.84080
# Shear Modulus (GPa) = 29.73062 38.84975 34.29019
#
# Velocity S-wave (km/s) = 3.54961 4.05764 3.81210
# Velocity P-wave (km/s) = 5.08659 5.89757 5.50703
#
# Compressibility (1/GPa) = 0.04670577
#
# Stress axis : x y z
#
# Youngs Moduli (GPa) = 83.16554 75.05572 41.61232
#
# Poissons Ratio (x) = 0.32992 0.11629
# Poissons Ratio (y) = 0.36557 -0.24358
# Poissons Ratio (z) = 0.23241 -0.43935
#
# Static dielectric constant tensor:
#      x y z
#    x 4.203630 0.731470 1.529470 
#    y 0.731470 2.011320 0.333780 
#    z 1.529470 0.333780 3.061960 
# 
# From -- ./inp_files/225901.got.cif
#   From: 2010.05.17/outbox.cif.g08.bks.cpg/sg2_113_cif.got.tgz:225901.got - 2010.06.03 11:33:40.
