data_PCOD9046298
_publ_section_title
;
Structure prediction by ZEFSAII (Michael W. Deem and Ramdas Pophale) SiO2 
 PCOD9046298
Probable space group: P -1
;
_chemical_formula_sum "Si O2"
_cell_formula_units_Z 16
_cell_length_a 8.754294
_cell_length_b 6.541440
_cell_length_c 16.517084
_cell_angle_alpha 131.998222
_cell_angle_beta 81.786906
_cell_angle_gamma 105.131053
_cell_volume 677.895503
_symmetry_space_group_name_H-M "P -1"
_symmetry_group_IT_number 2
_symmetry_cell_setting 'triclinic'
loop_
_space_group_symop_operation_xyz
x,y,z
-x,-y,-z
loop_
_atom_site_type_symbol
_atom_site_label
_atom_site_fract_x
_atom_site_fract_y
_atom_site_fract_z
Si Si1 0.067789 0.253919 0.719123
Si Si2 0.865673 0.646889 0.079476
Si Si3 0.832799 0.301730 0.481122
Si Si4 0.583919 0.243574 0.940915
Si Si5 0.427100 0.697387 0.382865
Si Si6 0.695466 0.169259 0.730636
Si Si7 0.417035 0.713267 0.642833
Si Si8 0.726520 0.112967 0.152056
O O1 0.084968 0.202629 0.799700
O O2 0.164414 0.575287 0.781689
O O3 0.879923 0.217384 0.708677
O O4 0.140170 0.017639 0.605556
O O5 0.826917 0.871561 0.077170
O O6 0.718002 0.379664 0.030085
O O7 0.000000 0.500000 0.000000
O O8 0.751642 0.379199 0.589040
O O9 0.707372 0.347988 0.435215
O O10 0.000000 0.500000 0.500000
O O11 0.669780 0.201882 0.837522
O O12 0.441896 0.982127 0.906180
O O13 0.500000 0.500000 0.000000
O O14 0.399020 0.667033 0.280460
O O15 0.544813 0.515274 0.359255
O O16 0.500000 0.000000 0.500000
O O17 0.591241 0.857636 0.635537
O O18 0.343946 0.920184 0.759770
#
# Coordination Sequence:
#
# PCOD9046298 Si02
#       8
#     2   2   2   2   2   2   2   2
#     4  12  26  45  72 106 143 184 240 300 348 426
#     4  11  22  46  72 102 145 183 230 292 360 420
#     4  12  27  46  73 103 143 191 234 296 366 411
#     4   9  21  44  71  97 139 184 226 286 354 422
#     4  12  26  43  70  98 135 186 240 291 340 424
#     4  11  25  45  67 100 139 184 233 282 355 417
#     4  11  24  47  67  97 139 183 233 286 353 418
#     4  10  24  42  70 104 141 182 233 291 352 418
#
# _framework density 23.602457999999999
#
# number of rings (size 3 to 8) (size 9 to 14) (size 15 to 20)
#    0.000    1.000    3.750    1.875    3.500    2.500 
#    0.000    0.000    0.000    0.000    0.000    0.000 
#    0.000    0.000    0.000    0.000    0.000    0.000 
#
# Total GULP energy -89275.315199 kJ/mol
# GULP energy per Si atom -5579.707200 kJ/mol
# Density = 2.354874 g / cm^3
# Si number density = 23.602458 Si / 1000 Ang^3
#
#
#
# Elastic Constant Matrix: (Units=GPa)
#
#
# Indices 1 2 3 4 5 6 
#
# 1 162.7704 56.3481 36.8204 27.7714 16.6415 7.5051
# 2 56.3481 77.5350 11.5383 20.8907 11.3258 2.2635
# 3 36.8204 11.5383 46.5611 9.9319 2.3163 -9.7005
# 4 27.7714 20.8907 9.9319 43.0178 -2.2755 8.1561
# 5 16.6415 11.3258 2.3163 -2.2755 53.1233 4.8118
# 6 7.5051 2.2635 -9.7005 8.1561 4.8118 42.7582
#
#
#
# Elastic Compliance Matrix: (Units=1/GPa)
#
#
# Indices 1 2 3 4 5 6 
#
# 1 0.010201 -0.005593 -0.006704 -0.001937 -0.001570 -0.002469
# 2 -0.005593 0.018789 0.001666 -0.006406 -0.002773 0.001899
# 3 -0.006704 0.001666 0.029259 -0.004919 -0.000532 0.008725
# 4 -0.001937 -0.006406 -0.004919 0.030222 0.004085 -0.006661
# 5 -0.001570 -0.002773 -0.000532 0.004085 0.020356 -0.002768
# 6 -0.002469 0.001899 0.008725 -0.006661 -0.002768 0.027282
#
#
# Mechanical properties :
#
#
# Convention : Reuss Voigt Hill
#
# Bulk Modulus (GPa) = 27.03535 55.14222 41.08878
# Shear Modulus (GPa) = 29.46372 39.92383 34.69378
#
# Velocity S-wave (km/s) = 3.53701 4.11726 3.83812
# Velocity P-wave (km/s) = 5.30659 6.78352 6.08999
#
# Compressibility (1/GPa) = 0.03698861
#
# Stress axis : x y z
#
# Youngs Moduli (GPa) = 98.02863 53.22165 34.17715
#
# Poissons Ratio (x) = 0.29765 0.22913
# Poissons Ratio (y) = 0.54824 -0.05695
# Poissons Ratio (z) = 0.65722 -0.08869
#
# Static dielectric constant tensor:
#      x y z
#    x 1.919060 0.029430 0.036500 
#    y 0.029430 2.031170 0.039950 
#    z 0.036500 0.039950 2.000800 
# 
# From -- ./inp_files/485172.got.cif
#   From: 2010.05.17/outbox.cif.g08.bks.cpg/sg2_243_cif.got.tgz:485172.got - 2010.06.03 11:33:40.
