data_PCOD9046991
_publ_section_title
;
Structure prediction by ZEFSAII (Michael W. Deem and Ramdas Pophale) SiO2 
 PCOD9046991
Probable space group: P -1
;
_chemical_formula_sum "Si O2"
_cell_formula_units_Z 14
_cell_length_a 12.069938
_cell_length_b 5.010213
_cell_length_c 8.869951
_cell_angle_alpha 90.229098
_cell_angle_beta 88.878939
_cell_angle_gamma 73.119433
_cell_volume 513.155681
_symmetry_space_group_name_H-M "P -1"
_symmetry_group_IT_number 2
_symmetry_cell_setting 'triclinic'
loop_
_space_group_symop_operation_xyz
x,y,z
-x,-y,-z
loop_
_atom_site_type_symbol
_atom_site_label
_atom_site_fract_x
_atom_site_fract_y
_atom_site_fract_z
Si Si1 0.138473 0.766367 0.268488
Si Si2 0.107264 0.586877 0.565105
Si Si3 0.342946 0.104556 0.574751
Si Si4 0.368165 0.262562 0.240742
Si Si5 0.073811 0.386570 0.852242
Si Si6 0.592315 0.440508 0.238435
Si Si7 0.275279 0.961302 0.011234
O O1 0.133581 0.808902 0.449681
O O2 0.237629 0.469854 0.248371
O O3 0.011662 0.759437 0.227643
O O4 0.187380 0.939185 0.147572
O O5 0.213702 0.307508 0.565549
O O6 0.085532 0.634218 0.743133
O O7 0.000000 0.500000 0.500000
O O8 0.389205 0.113661 0.403367
O O9 0.397445 0.270542 0.696912
O O10 0.358070 0.795099 0.633669
O O11 0.460932 0.433434 0.221784
O O12 0.370887 0.065992 0.097297
O O13 0.196703 0.185100 0.898730
O O14 0.000000 0.500000 0.000000
O O15 0.665871 0.316603 0.086893
#
# Coordination Sequence:
#
# PCOD9046991 Si02
#       7
#     2   2   2   2   2   2   2
#     4  10  24  43  70 102 143 191 243 305 366 445
#     4   9  21  45  71 102 143 190 243 301 362 443
#     4  11  26  49  75 108 150 197 253 303 373 448
#     4  11  26  47  72 106 148 195 250 305 370 445
#     4  11  21  44  70 103 146 189 242 307 377 442
#     4  12  28  47  77 109 151 198 250 311 371 440
#     4  12  26  44  74 109 148 190 248 311 377 439
#
# _framework density 27.282167999999999
#
# number of rings (size 3 to 8) (size 9 to 14) (size 15 to 20)
#    0.000    1.143    2.857    1.714   10.000    0.571 
#    0.000    1.429    0.000    0.000    0.000    0.000 
#    0.000    0.000    0.000    0.000    0.000    0.000 
#
# Total GULP energy -78488.191431 kJ/mol
# GULP energy per Si atom -5606.299388 kJ/mol
# Density = 2.722007 g / cm^3
# Si number density = 27.282168 Si / 1000 Ang^3
#
#
#
# Elastic Constant Matrix: (Units=GPa)
#
#
# Indices 1 2 3 4 5 6 
#
# 1 118.4488 26.4460 53.0258 12.8653 4.3282 -3.1907
# 2 26.4460 77.6536 45.6532 9.2727 -0.6457 -8.2115
# 3 53.0258 45.6532 203.7007 -19.2774 -12.1164 2.1742
# 4 12.8653 9.2727 -19.2774 41.4760 3.0163 -10.0002
# 5 4.3282 -0.6457 -12.1164 3.0163 53.4786 2.2236
# 6 -3.1907 -8.2115 2.1742 -10.0002 2.2236 33.1358
#
#
#
# Elastic Compliance Matrix: (Units=1/GPa)
#
#
# Indices 1 2 3 4 5 6 
#
# 1 0.010568 -0.001421 -0.002912 -0.004308 -0.001274 -0.000358
# 2 -0.001421 0.016382 -0.003759 -0.004234 -0.000421 0.002920
# 3 -0.002912 -0.003759 0.007062 0.004838 0.001531 -0.000318
# 4 -0.004308 -0.004234 0.004838 0.030487 -0.000636 0.007462
# 5 -0.001274 -0.000421 0.001531 -0.000636 0.019255 -0.001812
# 6 -0.000358 0.002920 -0.000318 0.007462 -0.001812 0.033262
#
#
# Mechanical properties :
#
#
# Convention : Reuss Voigt Hill
#
# Bulk Modulus (GPa) = 56.08957 72.22811 64.15884
# Shear Modulus (GPa) = 35.93411 43.92996 39.93203
#
# Velocity S-wave (km/s) = 3.63316 4.01709 3.82994
# Velocity P-wave (km/s) = 6.18090 6.93167 6.56702
#
# Compressibility (1/GPa) = 0.01782863
#
# Stress axis : x y z
#
# Youngs Moduli (GPa) = 94.62309 61.04179 141.60554
#
# Poissons Ratio (x) = 0.08675 0.41238
# Poissons Ratio (y) = 0.13447 0.53223
# Poissons Ratio (z) = 0.27556 0.22943
#
# Static dielectric constant tensor:
#      x y z
#    x 2.142090 0.004820 0.025950 
#    y 0.004820 2.081230 0.016970 
#    z 0.025950 0.016970 2.283790 
# 
# From -- ./inp_files/26790.got.cif
#   From: 2010.05.17/outbox.cif.g08.bks.cpg/sg2_14_cif.got.tgz:26790.got - 2010.06.03 11:33:40.
