data_PCOD9046484
_publ_section_title
;
Structure prediction by ZEFSAII (Michael W. Deem and Ramdas Pophale) SiO2 
 PCOD9046484
Probable space group: P -1
;
_chemical_formula_sum "Si O2"
_cell_formula_units_Z 15
_cell_length_a 21.988816
_cell_length_b 5.286320
_cell_length_c 15.702907
_cell_angle_alpha 105.869137
_cell_angle_beta 27.964270
_cell_angle_gamma 87.246366
_cell_volume 631.258164
_symmetry_space_group_name_H-M "P -1"
_symmetry_group_IT_number 2
_symmetry_cell_setting 'triclinic'
loop_
_space_group_symop_operation_xyz
x,y,z
-x,-y,-z
loop_
_atom_site_type_symbol
_atom_site_label
_atom_site_fract_x
_atom_site_fract_y
_atom_site_fract_z
Si Si1 0.582996 0.607215 0.344603
Si Si2 0.000000 0.500000 0.000000
Si Si3 0.052591 0.708126 0.087347
Si Si4 0.466956 0.307341 0.956677
Si Si5 0.531968 0.453222 0.206089
Si Si6 0.818890 0.722162 0.701368
Si Si7 0.826222 0.714320 0.498134
Si Si8 0.829669 0.331391 0.325047
O O1 0.500000 0.500000 0.500000
O O2 0.565175 0.556321 0.262468
O O3 0.500000 0.000000 0.500000
O O4 0.784368 0.349964 0.091397
O O5 0.146131 0.470886 0.753644
O O6 0.876033 0.651334 0.078258
O O7 0.918002 0.812331 0.335806
O O8 0.946972 0.912558 0.146569
O O9 0.492205 0.345496 0.830856
O O10 0.626566 0.922705 0.749449
O O11 0.500000 0.500000 0.000000
O O12 0.282813 0.418728 0.199705
O O13 0.359359 0.518354 0.434697
O O14 0.689163 0.063466 0.948490
O O15 0.848208 0.768811 0.572240
O O16 0.000000 0.500000 0.500000
O O17 0.893625 0.355024 0.341118
#
# Coordination Sequence:
#
# PCOD9046484 Si02
#       8
#     2   1   2   2   2   2   2   2
#     4  12  33  53  78 113 166 212 268 333 415 492
#     4  10  24  42  74 106 146 186 264 326 390 452
#     4  11  26  44  76 106 149 199 262 319 402 463
#     4  12  24  46  75 110 152 199 261 328 397 478
#     4  12  27  48  79 109 152 208 262 326 408 480
#     4  12  29  45  75 112 160 204 261 322 411 494
#     4  11  24  44  73 109 148 195 254 326 388 475
#     4  11  23  44  75 109 146 196 261 327 390 469
#
# _framework density 23.762069
#
# number of rings (size 3 to 8) (size 9 to 14) (size 15 to 20)
#    0.000    0.533    4.000    2.400   11.200    0.533 
#    0.000    0.000    0.000    0.000    0.000    0.000 
#    0.000    0.000    0.000    0.000    0.000    0.000 
#
# Total GULP energy -83594.312886 kJ/mol
# GULP energy per Si atom -5572.954192 kJ/mol
# Density = 2.370799 g / cm^3
# Si number density = 23.762069 Si / 1000 Ang^3
#
#
#
# Elastic Constant Matrix: (Units=GPa)
#
#
# Indices 1 2 3 4 5 6 
#
# 1 215.7576 42.5347 81.1460 -6.4054 5.5337 -7.0175
# 2 42.5347 88.2207 38.2726 -19.2828 6.7872 -6.2695
# 3 81.1460 38.2726 148.0064 -11.1316 -22.8705 -7.7801
# 4 -6.4054 -19.2828 -11.1316 50.3971 -1.4776 9.5871
# 5 5.5337 6.7872 -22.8705 -1.4776 56.8316 3.7718
# 6 -7.0175 -6.2695 -7.7801 9.5871 3.7718 28.4380
#
#
#
# Elastic Compliance Matrix: (Units=1/GPa)
#
#
# Indices 1 2 3 4 5 6 
#
# 1 0.006236 -0.001529 -0.003320 -0.000728 -0.001832 0.000782
# 2 -0.001529 0.014621 -0.002982 0.004494 -0.002739 0.000879
# 3 -0.003320 -0.002982 0.010161 0.000741 0.004760 0.000422
# 4 -0.000728 0.004494 0.000741 0.022961 0.000884 -0.006844
# 5 -0.001832 -0.002739 0.004760 0.000884 0.020221 -0.002733
# 6 0.000782 0.000879 0.000422 -0.006844 -0.002733 0.038336
#
#
# Mechanical properties :
#
#
# Convention : Reuss Voigt Hill
#
# Bulk Modulus (GPa) = 65.11745 86.21015 75.66380
# Shear Modulus (GPa) = 37.50471 46.46874 41.98673
#
# Velocity S-wave (km/s) = 3.97715 4.42700 4.20809
# Velocity P-wave (km/s) = 6.96805 7.90509 7.45131
#
# Compressibility (1/GPa) = 0.01535687
#
# Stress axis : x y z
#
# Youngs Moduli (GPa) = 160.36676 68.39350 98.41354
#
# Poissons Ratio (x) = 0.10456 0.32675
# Poissons Ratio (y) = 0.24517 0.29344
# Poissons Ratio (z) = 0.53244 0.20393
#
# Static dielectric constant tensor:
#      x y z
#    x 1.892490 0.127320 0.040690 
#    y 0.127320 2.269940 0.123020 
#    z 0.040690 0.123020 1.955110 
# 
# From -- ./inp_files/428385.got.cif
#   From: 2010.05.17/outbox.cif.g08.bks.cpg/sg2_215_cif.got.tgz:428385.got - 2010.06.03 11:33:40.
