data_PCOD9046930
_publ_section_title
;
Structure prediction by ZEFSAII (Michael W. Deem and Ramdas Pophale) SiO2 
 PCOD9046930
Probable space group: P -1
;
_chemical_formula_sum "Si O2"
_cell_formula_units_Z 16
_cell_length_a 14.525656
_cell_length_b 12.047910
_cell_length_c 5.216423
_cell_angle_alpha 99.617318
_cell_angle_beta 64.833760
_cell_angle_gamma 130.879782
_cell_volume 616.397195
_symmetry_space_group_name_H-M "P -1"
_symmetry_group_IT_number 2
_symmetry_cell_setting 'triclinic'
loop_
_space_group_symop_operation_xyz
x,y,z
-x,-y,-z
loop_
_atom_site_type_symbol
_atom_site_label
_atom_site_fract_x
_atom_site_fract_y
_atom_site_fract_z
Si Si1 0.285298 0.026640 0.632879
Si Si2 0.800885 0.262415 0.586024
Si Si3 0.923533 0.521149 0.901112
Si Si4 0.839205 0.688732 0.095403
Si Si5 0.658248 0.704898 0.649934
Si Si6 0.887054 0.935269 0.837890
Si Si7 0.576633 0.237654 0.555587
Si Si8 0.388619 0.589582 0.928239
O O1 0.319532 0.165930 0.495484
O O2 0.423935 0.084755 0.625318
O O3 0.247395 0.901920 0.425721
O O4 0.163536 0.980669 0.949216
O O5 0.702081 0.246177 0.480014
O O6 0.959996 0.363932 0.393123
O O7 0.807751 0.360662 0.842913
O O8 0.903695 0.624998 0.111325
O O9 0.000000 0.500000 0.000000
O O10 0.728935 0.655041 0.404210
O O11 0.758431 0.567859 0.916257
O O12 0.916415 0.855183 0.975611
O O13 0.743519 0.791640 0.834386
O O14 0.500308 0.573740 0.794132
O O15 0.000000 0.000000 0.500000
O O16 0.607985 0.340184 0.316131
O O17 0.565534 0.300294 0.851836
#
# Coordination Sequence:
#
# PCOD9046930 Si02
#       8
#     2   2   2   2   2   2   2   2
#     4  10  24  47  70 106 146 194 246 308 378 441
#     4  11  25  44  72 101 146 194 246 311 368 446
#     4  11  26  47  69 106 141 193 256 301 372 444
#     4  11  25  44  73 104 142 196 241 312 378 439
#     4  10  24  43  69 107 142 190 244 304 373 447
#     4  11  26  44  71 105 144 191 252 302 373 451
#     4  11  23  47  73 112 149 192 252 312 373 451
#     4  11  23  45  75 109 153 187 250 311 377 448
#
# _framework density 25.957288999999999
#
# number of rings (size 3 to 8) (size 9 to 14) (size 15 to 20)
#    0.000    1.250    2.500    1.500    5.250    4.500 
#    0.000    1.875    0.000    0.000    0.000    0.000 
#    0.000    0.000    0.000    0.000    0.000    0.000 
#
# Total GULP energy -89257.567026 kJ/mol
# GULP energy per Si atom -5578.597939 kJ/mol
# Density = 2.589821 g / cm^3
# Si number density = 25.957289 Si / 1000 Ang^3
#
#
#
# Elastic Constant Matrix: (Units=GPa)
#
#
# Indices 1 2 3 4 5 6 
#
# 1 136.6815 44.8651 26.1997 0.5030 -15.4918 -7.7178
# 2 44.8651 155.5350 12.6780 17.8436 -2.6514 0.7335
# 3 26.1997 12.6780 62.8051 -0.5648 -5.6121 -18.8569
# 4 0.5030 17.8436 -0.5648 23.5532 0.8601 -7.8762
# 5 -15.4918 -2.6514 -5.6121 0.8601 43.3525 7.3466
# 6 -7.7178 0.7335 -18.8569 -7.8762 7.3466 52.4632
#
#
#
# Elastic Compliance Matrix: (Units=1/GPa)
#
#
# Indices 1 2 3 4 5 6 
#
# 1 0.009002 -0.002494 -0.002952 0.001587 0.002622 0.000169
# 2 -0.002494 0.008023 -0.001221 -0.006688 -0.000103 -0.001908
# 3 -0.002952 -0.001221 0.019605 0.003860 0.000113 0.007193
# 4 0.001587 -0.006688 0.003860 0.050875 -0.001984 0.009630
# 5 0.002622 -0.000103 0.000113 -0.001984 0.024613 -0.003317
# 6 0.000169 -0.001908 0.007193 0.009630 -0.003317 0.023608
#
#
# Mechanical properties :
#
#
# Convention : Reuss Voigt Hill
#
# Bulk Modulus (GPa) = 42.92927 58.05634 50.49281
# Shear Modulus (GPa) = 31.88234 41.95904 36.92069
#
# Velocity S-wave (km/s) = 3.50846 4.02489 3.77551
# Velocity P-wave (km/s) = 5.74341 6.63433 6.20488
#
# Compressibility (1/GPa) = 0.02329413
#
# Stress axis : x y z
#
# Youngs Moduli (GPa) = 111.08916 124.64192 51.00782
#
# Poissons Ratio (x) = 0.31088 0.15059
# Poissons Ratio (y) = 0.27708 0.06229
# Poissons Ratio (z) = 0.32798 0.15221
#
# Static dielectric constant tensor:
#      x y z
#    x 2.220910 0.008530 -0.090860 
#    y 0.008530 2.184620 -0.141890 
#    z -0.090860 -0.141890 2.330290 
# 
# From -- ./inp_files/94903.got.cif
#   From: 2010.05.17/outbox.cif.g08.bks.cpg/sg2_48_cif.got.tgz:94903.got - 2010.06.03 11:33:40.
