data_PCOD9046190
_publ_section_title
;
Structure prediction by ZEFSAII (Michael W. Deem and Ramdas Pophale) SiO2 
 PCOD9046190
Probable space group: P -1
;
_chemical_formula_sum "Si O2"
_cell_formula_units_Z 16
_cell_length_a 15.229471
_cell_length_b 11.000082
_cell_length_c 14.630407
_cell_angle_alpha 148.223702
_cell_angle_beta 37.261415
_cell_angle_gamma 123.195216
_cell_volume 714.530115
_symmetry_space_group_name_H-M "P -1"
_symmetry_group_IT_number 2
_symmetry_cell_setting 'triclinic'
loop_
_space_group_symop_operation_xyz
x,y,z
-x,-y,-z
loop_
_atom_site_type_symbol
_atom_site_label
_atom_site_fract_x
_atom_site_fract_y
_atom_site_fract_z
Si Si1 0.451619 0.410329 0.312689
Si Si2 0.278236 0.262928 0.913786
Si Si3 0.393690 0.034182 0.245687
Si Si4 0.834843 0.174831 0.295034
Si Si5 0.161722 0.677683 0.407707
Si Si6 0.263678 0.435517 0.840444
Si Si7 0.958151 0.908737 0.379852
Si Si8 0.582067 0.122159 0.685505
O O1 0.415599 0.278818 0.347379
O O2 0.288724 0.599432 0.520324
O O3 0.576180 0.537336 0.306053
O O4 0.545629 0.179169 0.018435
O O5 0.171921 0.421014 0.187999
O O6 0.254112 0.447883 0.966536
O O7 0.245551 0.025062 0.757788
O O8 0.456459 0.170709 0.741645
O O9 0.210861 0.100502 0.464156
O O10 0.489412 0.903999 0.174356
O O11 0.866692 0.274560 0.430543
O O12 0.000000 0.000000 0.000000
O O13 0.055381 0.902021 0.571607
O O14 0.335382 0.684006 0.255815
O O15 0.282975 0.156797 0.621479
O O16 0.103599 0.645965 0.069523
O O17 0.000000 0.000000 0.500000
#
# Coordination Sequence:
#
# PCOD9046190 Si02
#       8
#     2   2   2   2   2   2   2   2
#     4  11  23  44  66  94 137 178 222 280 341 397
#     4  12  23  44  71  96 137 176 226 290 334 401
#     4  10  24  42  68  97 134 182 223 282 336 407
#     4  12  28  46  67 101 140 181 229 283 345 408
#     4  11  24  43  71 100 132 179 229 282 339 408
#     4  12  22  40  70  97 131 177 223 277 338 398
#     4  11  22  42  69 101 134 176 233 278 335 405
#     4  11  22  41  68 102 129 172 234 276 343 402
#
# _framework density 22.392337999999999
#
# number of rings (size 3 to 8) (size 9 to 14) (size 15 to 20)
#    0.000    0.750    5.000    3.000    1.750    4.000 
#    2.250    0.000    0.000    0.000    0.000    0.000 
#    0.000    0.000    0.000    0.000    0.000    0.000 
#
# Total GULP energy -89444.585252 kJ/mol
# GULP energy per Si atom -5590.286578 kJ/mol
# Density = 2.234137 g / cm^3
# Si number density = 22.392338 Si / 1000 Ang^3
#
#
#
# Elastic Constant Matrix: (Units=GPa)
#
#
# Indices 1 2 3 4 5 6 
#
# 1 86.1505 18.4245 15.3003 -9.5530 -1.0892 -11.6143
# 2 18.4245 79.3673 2.9154 -4.7256 0.1630 -9.8322
# 3 15.3003 2.9154 89.3105 -5.9638 -9.8425 -4.4786
# 4 -9.5530 -4.7256 -5.9638 26.2594 -2.1312 4.1549
# 5 -1.0892 0.1630 -9.8425 -2.1312 51.3755 3.9103
# 6 -11.6143 -9.8322 -4.4786 4.1549 3.9103 28.8328
#
#
#
# Elastic Compliance Matrix: (Units=1/GPa)
#
#
# Indices 1 2 3 4 5 6 
#
# 1 0.013320 -0.002350 -0.001810 0.003390 -0.000207 0.003823
# 2 -0.002350 0.013651 0.000176 0.001045 -0.000292 0.003625
# 3 -0.001810 0.000176 0.011928 0.002180 0.002294 0.000558
# 4 0.003390 0.001045 0.002180 0.040860 0.002498 -0.004166
# 5 -0.000207 -0.000292 0.002294 0.002498 0.020227 -0.002930
# 6 0.003823 0.003625 0.000558 -0.004166 -0.002930 0.038543
#
#
# Mechanical properties :
#
#
# Convention : Reuss Voigt Hill
#
# Bulk Modulus (GPa) = 32.32978 36.45654 34.39316
# Shear Modulus (GPa) = 31.88648 35.83941 33.86295
#
# Velocity S-wave (km/s) = 3.77767 4.00499 3.89299
# Velocity P-wave (km/s) = 5.78766 6.14026 5.96656
#
# Compressibility (1/GPa) = 0.03093124
#
# Stress axis : x y z
#
# Youngs Moduli (GPa) = 75.07357 73.25736 83.83908
#
# Poissons Ratio (x) = 0.17215 0.15175
# Poissons Ratio (y) = 0.17641 -0.01478
# Poissons Ratio (z) = 0.13589 -0.01292
#
# Static dielectric constant tensor:
#      x y z
#    x 1.859690 -0.023090 0.005630 
#    y -0.023090 1.861590 -0.039360 
#    z 0.005630 -0.039360 1.894040 
# 
# From -- ./inp_files/437181.got.cif
#   From: 2010.05.17/outbox.cif.g08.bks.cpg/sg2_219_cif.got.tgz:437181.got - 2010.06.03 11:33:40.
