data_PCOD9046515
_publ_section_title
;
Structure prediction by ZEFSAII (Michael W. Deem and Ramdas Pophale) SiO2 
 PCOD9046515
Probable space group: P -1
;
_chemical_formula_sum "Si O2"
_cell_formula_units_Z 15
_cell_length_a 8.592931
_cell_length_b 16.103058
_cell_length_c 9.116819
_cell_angle_alpha 51.039182
_cell_angle_beta 48.535177
_cell_angle_gamma 83.990131
_cell_volume 621.086554
_symmetry_space_group_name_H-M "P -1"
_symmetry_group_IT_number 2
_symmetry_cell_setting 'triclinic'
loop_
_space_group_symop_operation_xyz
x,y,z
-x,-y,-z
loop_
_atom_site_type_symbol
_atom_site_label
_atom_site_fract_x
_atom_site_fract_y
_atom_site_fract_z
Si Si1 0.849165 0.042897 0.138122
Si Si2 0.889424 0.702775 0.141515
Si Si3 0.962335 0.223278 0.338442
Si Si4 0.093612 0.575789 0.707990
Si Si5 0.500000 0.500000 0.500000
Si Si6 0.338375 0.170395 0.274261
Si Si7 0.476401 0.028229 0.154273
Si Si8 0.201377 0.592217 0.156976
O O1 0.684321 0.929873 0.480189
O O2 0.699789 0.067248 0.081581
O O3 0.000000 0.000000 0.000000
O O4 0.035692 0.167599 0.975435
O O5 0.626721 0.583878 0.479716
O O6 0.108427 0.681760 0.057397
O O7 0.840828 0.684608 0.012541
O O8 0.084854 0.163379 0.421011
O O9 0.859150 0.288228 0.431982
O O10 0.746266 0.111139 0.503478
O O11 0.315342 0.561455 0.531903
O O12 0.854905 0.504520 0.830743
O O13 0.000000 0.500000 0.000000
O O14 0.398603 0.127757 0.130348
O O15 0.536923 0.311413 0.044844
O O16 0.500000 0.000000 0.000000
O O17 0.000000 0.500000 0.500000
#
# Coordination Sequence:
#
# PCOD9046515 Si02
#       8
#     2   2   2   2   1   2   2   2
#     4  12  27  47  77 109 148 196 255 312 385 453
#     4  11  24  48  72 107 146 198 249 309 377 450
#     4  12  26  44  76 108 149 191 257 308 378 451
#     4  11  25  47  73 106 141 196 255 302 376 451
#     4  10  24  42  78 108 142 188 254 306 374 440
#     4  12  27  49  73 110 153 198 246 324 380 445
#     4  12  27  46  75 108 148 199 250 312 378 456
#     4  11  26  45  73 106 150 192 248 313 379 450
#
# _framework density 24.151223000000002
#
# number of rings (size 3 to 8) (size 9 to 14) (size 15 to 20)
#    0.000    0.533    5.333    2.400    9.333    1.600 
#    0.000    0.000    0.000    0.000    0.000    0.000 
#    0.000    0.000    0.000    0.000    0.000    0.000 
#
# Total GULP energy -83596.354393 kJ/mol
# GULP energy per Si atom -5573.090293 kJ/mol
# Density = 2.409625 g / cm^3
# Si number density = 24.151223 Si / 1000 Ang^3
#
#
#
# Elastic Constant Matrix: (Units=GPa)
#
#
# Indices 1 2 3 4 5 6 
#
# 1 73.4511 54.8123 26.6358 -6.1620 -4.5931 6.2497
# 2 54.8123 177.1633 39.7808 -14.5135 -30.0311 19.5348
# 3 26.6358 39.7808 46.8178 4.8958 -1.7300 13.5045
# 4 -6.1620 -14.5135 4.8958 42.7884 12.0577 -7.0223
# 5 -4.5931 -30.0311 -1.7300 12.0577 39.1682 0.1386
# 6 6.2497 19.5348 13.5045 -7.0223 0.1386 49.6532
#
#
#
# Elastic Compliance Matrix: (Units=1/GPa)
#
#
# Indices 1 2 3 4 5 6 
#
# 1 0.020177 -0.004746 -0.008514 0.003379 -0.002697 0.002129
# 2 -0.004746 0.009511 -0.004768 0.001058 0.006206 -0.001716
# 3 -0.008514 -0.004768 0.033065 -0.007556 -0.000842 -0.007112
# 4 0.003379 0.001058 -0.007556 0.028137 -0.007806 0.005215
# 5 -0.002697 0.006206 -0.000842 -0.007806 0.032350 -0.003067
# 6 0.002129 -0.001716 -0.007112 0.005215 -0.003067 0.023227
#
#
# Mechanical properties :
#
#
# Convention : Reuss Voigt Hill
#
# Bulk Modulus (GPa) = 37.45609 59.98779 48.72194
# Shear Modulus (GPa) = 26.12041 38.06884 32.09463
#
# Velocity S-wave (km/s) = 3.29224 3.97453 3.64937
# Velocity P-wave (km/s) = 5.47672 6.77900 6.16236
#
# Compressibility (1/GPa) = 0.02669793
#
# Stress axis : x y z
#
# Youngs Moduli (GPa) = 49.56096 105.13899 30.24354
#
# Poissons Ratio (x) = 0.49897 0.25749
# Poissons Ratio (y) = 0.23521 0.14420
# Poissons Ratio (z) = 0.42195 0.50131
#
# Static dielectric constant tensor:
#      x y z
#    x 1.966360 -0.009100 0.093400 
#    y -0.009100 1.911060 0.071810 
#    z 0.093400 0.071810 1.653840 
# 
# From -- ./inp_files/200117.got.cif
#   From: 2010.05.17/outbox.cif.g08.bks.cpg/sg2_101_cif.got.tgz:200117.got - 2010.06.03 11:33:40.
