data_PCOD9046390
_publ_section_title
;
Structure prediction by ZEFSAII (Michael W. Deem and Ramdas Pophale) SiO2 
 PCOD9046390
Probable space group: P -1
;
_chemical_formula_sum "Si O2"
_cell_formula_units_Z 11
_cell_length_a 15.327493
_cell_length_b 6.561666
_cell_length_c 12.165876
_cell_angle_alpha 71.005032
_cell_angle_beta 151.653271
_cell_angle_gamma 121.859715
_cell_volume 463.167261
_symmetry_space_group_name_H-M "P -1"
_symmetry_group_IT_number 2
_symmetry_cell_setting 'triclinic'
loop_
_space_group_symop_operation_xyz
x,y,z
-x,-y,-z
loop_
_atom_site_type_symbol
_atom_site_label
_atom_site_fract_x
_atom_site_fract_y
_atom_site_fract_z
Si Si1 0.565594 0.525547 0.392939
Si Si2 0.640272 0.445882 0.248572
Si Si3 0.261046 0.767852 0.249788
Si Si4 0.185423 0.893134 0.504501
Si Si5 0.000000 0.000000 0.500000
Si Si6 0.110802 0.396127 0.977201
O O1 0.538585 0.405832 0.263337
O O2 0.722530 0.464575 0.642552
O O3 0.674933 0.827305 0.445287
O O4 0.330660 0.396744 0.211758
O O5 0.657785 0.209065 0.276928
O O6 0.874540 0.706062 0.461177
O O7 0.500000 0.500000 0.000000
O O8 0.081577 0.780490 0.118767
O O9 0.500000 0.000000 0.500000
O O10 0.194430 0.682940 0.064931
O O11 0.073715 0.911935 0.486217
O O12 0.008001 0.693352 0.255810
#
# Coordination Sequence:
#
# PCOD9046390 Si02
#       6
#     2   2   2   2   1   2
#     4  11  25  44  70 106 143 187 240 292 355 428
#     4  11  24  45  68 102 145 186 237 300 352 423
#     4  11  25  46  71 110 142 187 242 290 357 430
#     4  11  24  46  69 107 145 186 245 290 357 429
#     4  10  24  42  72 100 138 188 238 288 356 424
#     4  11  24  43  73 100 144 189 228 299 354 417
#
# _framework density 23.749521000000001
#
# number of rings (size 3 to 8) (size 9 to 14) (size 15 to 20)
#    0.000    1.091    1.818    3.273    0.000    8.727 
#    0.000    0.000    0.000    0.000    0.000    0.000 
#    0.000    0.000    0.000    0.000    0.000    0.000 
#
# Total GULP energy -61260.008110 kJ/mol
# GULP energy per Si atom -5569.091646 kJ/mol
# Density = 2.369547 g / cm^3
# Si number density = 23.749521 Si / 1000 Ang^3
#
#
#
# Elastic Constant Matrix: (Units=GPa)
#
#
# Indices 1 2 3 4 5 6 
#
# 1 196.6464 53.3934 59.8873 15.3326 9.6289 -23.1239
# 2 53.3934 113.4172 32.9084 -3.1577 -1.0658 -25.1340
# 3 59.8873 32.9084 106.9248 0.1959 3.6103 -13.7532
# 4 15.3326 -3.1577 0.1959 40.4567 4.3715 0.4607
# 5 9.6289 -1.0658 3.6103 4.3715 38.3545 13.4232
# 6 -23.1239 -25.1340 -13.7532 0.4607 13.4232 24.5575
#
#
#
# Elastic Compliance Matrix: (Units=1/GPa)
#
#
# Indices 1 2 3 4 5 6 
#
# 1 0.007391 -0.001497 -0.002827 -0.002609 -0.003334 0.005717
# 2 -0.001497 0.012814 -0.001290 0.001851 -0.003944 0.013104
# 3 -0.002827 -0.001290 0.011862 0.001070 -0.001841 0.003647
# 4 -0.002609 0.001851 0.001070 0.026130 -0.002737 0.001043
# 5 -0.003334 -0.003944 -0.001841 -0.002737 0.037269 -0.028528
# 6 0.005717 0.013104 0.003647 0.001043 -0.028528 0.077132
#
#
# Mechanical properties :
#
#
# Convention : Reuss Voigt Hill
#
# Bulk Modulus (GPa) = 47.98276 78.81850 63.40063
# Shear Modulus (GPa) = 26.20911 38.72703 32.46807
#
# Velocity S-wave (km/s) = 3.32560 4.04250 3.70145
# Velocity P-wave (km/s) = 5.91554 7.41947 6.70978
#
# Compressibility (1/GPa) = 0.02084082
#
# Stress axis : x y z
#
# Youngs Moduli (GPa) = 135.29269 78.03679 84.30305
#
# Poissons Ratio (x) = 0.11679 0.23828
# Poissons Ratio (y) = 0.20248 0.10878
# Poissons Ratio (z) = 0.38241 0.10070
#
# Static dielectric constant tensor:
#      x y z
#    x 1.893070 -0.004970 -0.036270 
#    y -0.004970 1.938070 0.034190 
#    z -0.036270 0.034190 1.970090 
# 
# From -- ./inp_files/74477.got.cif
#   From: 2010.05.17/outbox.cif.g08.bks.cpg/sg2_38_cif.got.tgz:74477.got - 2010.06.03 11:33:40.
