data_PCOD9046053
_publ_section_title
;
Structure prediction by ZEFSAII (Michael W. Deem and Ramdas Pophale) SiO2 
 PCOD9046053
Probable space group: P -1
;
_chemical_formula_sum "Si O2"
_cell_formula_units_Z 16
_cell_length_a 9.035707
_cell_length_b 8.893017
_cell_length_c 18.375573
_cell_angle_alpha 137.428395
_cell_angle_beta 55.473421
_cell_angle_gamma 96.238478
_cell_volume 685.171732
_symmetry_space_group_name_H-M "P -1"
_symmetry_group_IT_number 2
_symmetry_cell_setting 'triclinic'
loop_
_space_group_symop_operation_xyz
x,y,z
-x,-y,-z
loop_
_atom_site_type_symbol
_atom_site_label
_atom_site_fract_x
_atom_site_fract_y
_atom_site_fract_z
Si Si1 0.355941 0.543310 0.890673
Si Si2 0.357226 0.858372 0.797385
Si Si3 0.233853 0.719735 0.211635
Si Si4 0.730345 0.920114 0.937947
Si Si5 0.126391 0.415547 0.019976
Si Si6 0.699570 0.582503 0.288500
Si Si7 0.193121 0.241494 0.394296
Si Si8 0.104816 0.291333 0.606689
O O1 0.562447 0.422630 0.841999
O O2 0.438988 0.399411 0.736859
O O3 0.238653 0.859306 0.026403
O O4 0.179166 0.505623 0.962832
O O5 0.288682 0.652091 0.751296
O O6 0.604629 0.737464 0.669039
O O7 0.301049 0.008445 0.943352
O O8 0.229081 0.103309 0.866343
O O9 0.245111 0.508338 0.076346
O O10 0.021164 0.819059 0.355867
O O11 0.222381 0.965796 0.261909
O O12 0.922046 0.613004 0.767093
O O13 0.500000 0.000000 0.000000
O O14 0.911212 0.515280 0.161417
O O15 0.693017 0.772451 0.421251
O O16 0.000000 0.500000 0.500000
O O17 0.169986 0.218332 0.479159
#
# Coordination Sequence:
#
# PCOD9046053 Si02
#       8
#     2   2   2   2   2   2   2   2
#     4  11  22  35  69 103 133 166 221 276 327 385
#     4  11  22  41  68  95 135 168 218 271 331 391
#     4  11  23  43  68  97 133 174 221 280 327 385
#     4  11  20  36  67  98 129 167 219 270 334 379
#     4  11  21  40  69 103 132 167 219 281 330 381
#     4  10  24  42  66  97 137 181 211 265 335 399
#     4  12  28  43  69  99 131 173 230 275 330 387
#     4  11  24  46  66  95 137 181 218 266 328 398
#
# _framework density 23.35181
#
# number of rings (size 3 to 8) (size 9 to 14) (size 15 to 20)
#    0.000    1.000    5.000    2.250    7.000    0.500 
#    0.000    0.625    2.750    0.000    0.000    0.000 
#    0.000    0.000    0.000    0.000    0.000    0.000 
#
# Total GULP energy -89302.203574 kJ/mol
# GULP energy per Si atom -5581.387723 kJ/mol
# Density = 2.329866 g / cm^3
# Si number density = 23.351810 Si / 1000 Ang^3
#
#
#
# Elastic Constant Matrix: (Units=GPa)
#
#
# Indices 1 2 3 4 5 6 
#
# 1 42.0518 31.5846 -7.7324 9.5768 11.8980 17.9984
# 2 31.5846 159.3475 12.0015 2.3107 9.5788 15.8533
# 3 -7.7324 12.0015 40.4258 -1.2512 9.2848 10.3023
# 4 9.5768 2.3107 -1.2512 30.9823 0.1539 -2.9768
# 5 11.8980 9.5788 9.2848 0.1539 14.8469 4.4442
# 6 17.9984 15.8533 10.3023 -2.9768 4.4442 35.4593
#
#
#
# Elastic Compliance Matrix: (Units=1/GPa)
#
#
# Indices 1 2 3 4 5 6 
#
# 1 0.097592 -0.012576 0.054897 -0.031508 -0.088716 -0.051389
# 2 -0.012576 0.008398 -0.007737 0.003304 0.008230 0.004122
# 3 0.054897 -0.007737 0.061298 -0.016977 -0.066595 -0.035294
# 4 -0.031508 0.003304 -0.016977 0.042832 0.027422 0.019607
# 5 -0.088716 0.008230 -0.066595 0.027422 0.161710 0.042734
# 6 -0.051389 0.004122 -0.035294 0.019607 0.042734 0.058986
#
#
# Mechanical properties :
#
#
# Convention : Reuss Voigt Hill
#
# Bulk Modulus (GPa) = 4.22912 34.83694 19.53303
# Shear Modulus (GPa) = 11.35158 29.98912 20.67035
#
# Velocity S-wave (km/s) = 2.20719 3.58750 2.97841
# Velocity P-wave (km/s) = 2.88280 5.66665 4.49564
#
# Compressibility (1/GPa) = 0.23645574
#
# Stress axis : x y z
#
# Youngs Moduli (GPa) = 10.24679 119.07202 16.31364
#
# Poissons Ratio (x) = 1.49745 -0.89557
# Poissons Ratio (y) = 0.12886 0.12622
# Poissons Ratio (z) = -0.56252 0.92130
#
# Static dielectric constant tensor:
#      x y z
#    x 2.042460 -0.020090 -0.010140 
#    y -0.020090 1.902890 0.005910 
#    z -0.010140 0.005910 1.904710 
# 
# From -- ./inp_files/557640.got.cif
#   From: 2010.05.17/outbox.cif.g08.bks.cpg/sg2_279_cif.got.tgz:557640.got - 2010.06.03 11:33:40.
