data_PCOD9046844
_publ_section_title
;
Structure prediction by ZEFSAII (Michael W. Deem and Ramdas Pophale) SiO2 
 PCOD9046844
Probable space group: P -1
;
_chemical_formula_sum "Si O2"
_cell_formula_units_Z 16
_cell_length_a 8.786182
_cell_length_b 14.975094
_cell_length_c 9.318057
_cell_angle_alpha 70.670369
_cell_angle_beta 66.939887
_cell_angle_gamma 41.008312
_cell_volume 738.914329
_symmetry_space_group_name_H-M "P -1"
_symmetry_group_IT_number 2
_symmetry_cell_setting 'triclinic'
loop_
_space_group_symop_operation_xyz
x,y,z
-x,-y,-z
loop_
_atom_site_type_symbol
_atom_site_label
_atom_site_fract_x
_atom_site_fract_y
_atom_site_fract_z
Si Si1 0.237552 0.071295 0.521764
Si Si2 0.945207 0.333539 0.688052
Si Si3 0.036534 0.779632 0.724944
Si Si4 0.821037 0.671344 0.860595
Si Si5 0.949504 0.173332 0.980476
Si Si6 0.804976 0.630875 0.211846
Si Si7 0.542352 0.583988 0.514607
Si Si8 0.314020 0.908862 0.814274
O O1 0.060293 0.220308 0.582495
O O2 0.165717 0.095812 0.370522
O O3 0.500000 0.000000 0.500000
O O4 0.220618 0.976678 0.656098
O O5 0.753055 0.480795 0.607147
O O6 0.136914 0.313695 0.720444
O O7 0.837985 0.303189 0.858238
O O8 0.998575 0.817342 0.883632
O O9 0.293514 0.709520 0.616255
O O10 0.014089 0.675237 0.777160
O O11 0.596230 0.791522 0.784024
O O12 0.947055 0.525771 0.832441
O O13 0.735102 0.696557 0.044275
O O14 0.780538 0.152009 0.062731
O O15 0.194136 0.039125 0.887123
O O16 0.623048 0.630685 0.347652
O O17 0.500000 0.500000 0.500000
#
# Coordination Sequence:
#
# PCOD9046844 Si02
#       8
#     2   2   2   2   2   2   2   2
#     4  11  23  41  69  95 133 173 221 274 329 392
#     4  11  24  44  68  97 133 178 222 266 339 393
#     4  12  24  44  68 102 132 176 224 273 335 389
#     4  11  23  42  69  98 135 173 226 268 333 395
#     4  10  25  44  67 100 131 171 227 276 331 392
#     4  11  25  42  67 102 134 178 220 272 333 400
#     4  12  25  41  66  99 144 169 214 283 329 393
#     4  10  24  43  68  95 134 175 216 282 331 393
#
# _framework density 21.653388
#
# number of rings (size 3 to 8) (size 9 to 14) (size 15 to 20)
#    0.000    1.000    5.000    0.375    3.500    4.500 
#    0.000    0.000    0.000    0.000    0.000    0.000 
#    0.000    0.000    0.000    0.000    0.000    0.000 
#
# Total GULP energy -89456.869343 kJ/mol
# GULP energy per Si atom -5591.054334 kJ/mol
# Density = 2.160410 g / cm^3
# Si number density = 21.653388 Si / 1000 Ang^3
#
#
#
# Elastic Constant Matrix: (Units=GPa)
#
#
# Indices 1 2 3 4 5 6 
#
# 1 37.8156 -1.9603 10.5379 -4.7533 -8.3631 4.9214
# 2 -1.9603 27.9996 3.6995 -14.3054 0.5841 -13.3838
# 3 10.5379 3.6995 124.3655 -22.0232 -6.2799 -3.4823
# 4 -4.7533 -14.3054 -22.0232 20.0037 4.2777 3.1090
# 5 -8.3631 0.5841 -6.2799 4.2777 44.4140 -3.3885
# 6 4.9214 -13.3838 -3.4823 3.1090 -3.3885 28.5569
#
#
#
# Elastic Compliance Matrix: (Units=1/GPa)
#
#
# Indices 1 2 3 4 5 6 
#
# 1 0.029510 0.005482 -0.000840 0.009602 0.004200 -0.003166
# 2 0.005482 0.085783 0.010009 0.069212 -0.002859 0.032605
# 3 -0.000840 0.010009 0.011237 0.018725 -0.000188 0.004145
# 4 0.009602 0.069212 0.018725 0.120830 -0.006633 0.019124
# 5 0.004200 -0.002859 -0.000188 -0.006633 0.024070 0.001491
# 6 -0.003166 0.032605 0.004145 0.019124 0.001491 0.049445
#
#
# Mechanical properties :
#
#
# Convention : Reuss Voigt Hill
#
# Bulk Modulus (GPa) = 6.41723 23.85943 15.13833
# Shear Modulus (GPa) = 14.55534 30.45516 22.50525
#
# Velocity S-wave (km/s) = 2.59549 3.75438 3.22738
# Velocity P-wave (km/s) = 3.45719 5.46229 4.57103
#
# Compressibility (1/GPa) = 0.15583041
#
# Stress axis : x y z
#
# Youngs Moduli (GPa) = 33.88682 11.65738 88.99371
#
# Poissons Ratio (x) = -0.06390 0.07474
# Poissons Ratio (y) = -0.18576 -0.89071
# Poissons Ratio (z) = 0.02846 -0.11668
#
# Static dielectric constant tensor:
#      x y z
#    x 1.770580 0.017680 -0.020930 
#    y 0.017680 1.787100 -0.007800 
#    z -0.020930 -0.007800 1.817700 
# 
# From -- ./inp_files/188315.got.cif
#   From: 2010.05.17/outbox.cif.g08.bks.cpg/sg2_95_cif.got.tgz:188315.got - 2010.06.03 11:33:40.
