data_PCOD9046047
_publ_section_title
;
Structure prediction by ZEFSAII (Michael W. Deem and Ramdas Pophale) SiO2 
 PCOD9046047
Probable space group: P -1
;
_chemical_formula_sum "Si O2"
_cell_formula_units_Z 13
_cell_length_a 9.780098
_cell_length_b 15.192901
_cell_length_c 19.261131
_cell_angle_alpha 20.458885
_cell_angle_beta 39.532749
_cell_angle_gamma 40.378401
_cell_volume 626.802544
_symmetry_space_group_name_H-M "P -1"
_symmetry_group_IT_number 2
_symmetry_cell_setting 'triclinic'
loop_
_space_group_symop_operation_xyz
x,y,z
-x,-y,-z
loop_
_atom_site_type_symbol
_atom_site_label
_atom_site_fract_x
_atom_site_fract_y
_atom_site_fract_z
Si Si1 0.548862 0.415612 0.362083
Si Si2 0.500000 0.000000 0.000000
Si Si3 0.871502 0.798002 0.111690
Si Si4 0.302137 0.024215 0.803188
Si Si5 0.955030 0.263050 0.415888
Si Si6 0.654410 0.577613 0.941704
Si Si7 0.842399 0.293951 0.204060
O O1 0.492049 0.715597 0.177637
O O2 0.349858 0.266231 0.562361
O O3 0.734008 0.292103 0.436632
O O4 0.653799 0.355156 0.290208
O O5 0.724976 0.876917 0.043738
O O6 0.737161 0.892211 0.163607
O O7 0.929339 0.490055 0.314411
O O8 0.090309 0.917367 0.939033
O O9 0.508459 0.798201 0.880681
O O10 0.145281 0.315419 0.250535
O O11 0.023895 0.987374 0.626785
O O12 0.500000 0.500000 0.000000
O O13 0.744866 0.340567 0.131068
O O14 0.000000 0.500000 0.000000
#
# Coordination Sequence:
#
# PCOD9046047 Si02
#       7
#     2   1   2   2   2   2   2
#     4  11  23  43  69 103 135 179 231 285 326 415
#     4  10  24  42  66  96 136 176 230 270 344 398
#     4  10  24  46  67  98 135 181 221 287 333 407
#     4  11  23  44  70  94 140 176 225 282 339 390
#     4  11  23  45  70 103 140 176 231 275 341 402
#     4  12  24  44  69 103 141 174 223 291 331 409
#     4  12  24  40  72  99 134 185 225 272 341 398
#
# _framework density 20.740183999999999
#
# number of rings (size 3 to 8) (size 9 to 14) (size 15 to 20)
#    0.000    0.923    4.615    2.308    0.000    4.923 
#    0.000    0.000    0.000    0.000    0.000    0.000 
#    0.000    0.000    0.000    0.000    0.000    0.000 
#
# Total GULP energy -72487.635462 kJ/mol
# GULP energy per Si atom -5575.971959 kJ/mol
# Density = 2.069298 g / cm^3
# Si number density = 20.740184 Si / 1000 Ang^3
#
#
#
# Elastic Constant Matrix: (Units=GPa)
#
#
# Indices 1 2 3 4 5 6 
#
# 1 71.2124 8.3272 42.7978 -8.0680 4.1116 7.7561
# 2 8.3272 97.3904 45.8582 -28.8023 -3.2003 6.6497
# 3 42.7978 45.8582 120.3817 -31.3819 1.5776 0.6522
# 4 -8.0680 -28.8023 -31.3819 46.2746 -8.9260 0.8154
# 5 4.1116 -3.2003 1.5776 -8.9260 28.9876 -7.1917
# 6 7.7561 6.6497 0.6522 0.8154 -7.1917 17.6829
#
#
#
# Elastic Compliance Matrix: (Units=1/GPa)
#
#
# Indices 1 2 3 4 5 6 
#
# 1 0.020185 0.002362 -0.008337 -0.001520 -0.005494 -0.011599
# 2 0.002362 0.014801 -0.004648 0.007011 0.002264 -0.005833
# 3 -0.008337 -0.004648 0.014539 0.006025 0.003195 0.005890
# 4 -0.001520 0.007011 0.006025 0.031834 0.010629 0.000663
# 5 -0.005494 0.002264 0.003195 0.010629 0.043223 0.018530
# 6 -0.011599 -0.005833 0.005890 0.000663 0.018530 0.071121
#
#
# Mechanical properties :
#
#
# Convention : Reuss Voigt Hill
#
# Bulk Modulus (GPa) = 35.36428 53.66121 44.51274
# Shear Modulus (GPa) = 22.08715 31.38909 26.73812
#
# Velocity S-wave (km/s) = 3.26689 3.89452 3.59443
# Velocity P-wave (km/s) = 5.59627 6.79355 6.22376
#
# Compressibility (1/GPa) = 0.02827712
#
# Stress axis : x y z
#
# Youngs Moduli (GPa) = 49.54109 67.56340 68.78249
#
# Poissons Ratio (x) = -0.15956 0.57346
# Poissons Ratio (y) = -0.11700 0.31971
# Poissons Ratio (z) = 0.41304 0.31404
#
# Static dielectric constant tensor:
#      x y z
#    x 1.734480 0.011220 -0.000310 
#    y 0.011220 1.745030 0.002280 
#    z -0.000310 0.002280 1.732070 
# 
# From -- ./inp_files/26143.got.cif
#   From: 2010.05.17/outbox.cif.g08.bks.cpg/sg2_14_cif.got.tgz:26143.got - 2010.06.03 11:33:40.
