data_PCOD9046719
_publ_section_title
;
Structure prediction by ZEFSAII (Michael W. Deem and Ramdas Pophale) SiO2 
 PCOD9046719
Probable space group: P -1
;
_chemical_formula_sum "Si O2"
_cell_formula_units_Z 12
_cell_length_a 11.936814
_cell_length_b 10.433499
_cell_length_c 7.763261
_cell_angle_alpha 42.311321
_cell_angle_beta 51.164204
_cell_angle_gamma 47.155587
_cell_volume 461.841977
_symmetry_space_group_name_H-M "P -1"
_symmetry_group_IT_number 2
_symmetry_cell_setting 'triclinic'
loop_
_space_group_symop_operation_xyz
x,y,z
-x,-y,-z
loop_
_atom_site_type_symbol
_atom_site_label
_atom_site_fract_x
_atom_site_fract_y
_atom_site_fract_z
Si Si1 0.527677 0.507076 0.224452
Si Si2 0.807644 0.515829 0.731325
Si Si3 0.350831 0.216135 0.981479
Si Si4 0.807251 0.161851 0.892125
Si Si5 0.102851 0.275526 0.867176
Si Si6 0.615820 0.052355 0.465773
O O1 0.351202 0.682595 0.204606
O O2 0.538089 0.273530 0.426222
O O3 0.636977 0.529848 0.938236
O O4 0.601966 0.589174 0.227571
O O5 0.887311 0.306815 0.740535
O O6 0.810815 0.685887 0.424935
O O7 0.925951 0.449718 0.844993
O O8 0.314880 0.138379 0.278502
O O9 0.209398 0.276385 0.924107
O O10 0.500000 0.000000 0.000000
O O11 0.747008 0.086317 0.194824
O O12 0.898756 0.953535 0.904772
O O13 0.500000 0.000000 0.500000
#
# Coordination Sequence:
#
# PCOD9046719 Si02
#       6
#     2   2   2   2   2   2
#     4  11  24  40  68  95 124 170 216 262 306 383
#     4  10  24  43  67  90 126 173 216 251 317 379
#     4  12  25  38  61  99 133 161 209 267 320 369
#     4  11  22  39  70  92 124 166 222 256 305 379
#     4  11  24  43  63  95 132 169 202 265 318 377
#     4  11  22  39  63  95 126 165 210 262 317 371
#
# _framework density 25.982913
#
# number of rings (size 3 to 8) (size 9 to 14) (size 15 to 20)
#    0.000    1.000    3.333    3.500    7.000    2.667 
#    0.000    3.333    0.000    0.000    0.000    0.000 
#    0.000    0.000    0.000    0.000    0.000    0.000 
#
# Total GULP energy -67150.004081 kJ/mol
# GULP energy per Si atom -5595.833673 kJ/mol
# Density = 2.592377 g / cm^3
# Si number density = 25.982913 Si / 1000 Ang^3
#
#
#
# Elastic Constant Matrix: (Units=GPa)
#
#
# Indices 1 2 3 4 5 6 
#
# 1 182.6539 39.6614 39.5953 -36.4891 33.2092 2.3214
# 2 39.6614 100.5626 25.1993 -47.2386 2.3859 8.1153
# 3 39.5953 25.1993 113.3564 -38.4530 8.9391 -0.4857
# 4 -36.4891 -47.2386 -38.4530 54.4733 6.8837 -9.7721
# 5 33.2092 2.3859 8.9391 6.8837 51.8344 -13.7195
# 6 2.3214 8.1153 -0.4857 -9.7721 -13.7195 53.5650
#
#
#
# Elastic Compliance Matrix: (Units=1/GPa)
#
#
# Indices 1 2 3 4 5 6 
#
# 1 0.007731 -0.000292 -0.000414 0.005216 -0.005779 -0.000823
# 2 -0.000292 0.017590 0.002213 0.016975 -0.003364 -0.000397
# 3 -0.000414 0.002213 0.012470 0.011025 -0.003189 0.000990
# 4 0.005216 0.016975 0.011025 0.046306 -0.011427 0.002823
# 5 -0.005779 -0.003364 -0.003189 -0.011427 0.026667 0.005477
# 6 -0.000823 -0.000397 0.000990 0.002823 0.005477 0.020691
#
#
# Mechanical properties :
#
#
# Convention : Reuss Voigt Hill
#
# Bulk Modulus (GPa) = 24.50556 67.27610 45.89083
# Shear Modulus (GPa) = 35.20095 51.44902 43.32498
#
# Velocity S-wave (km/s) = 3.68472 4.45467 4.08786
# Velocity P-wave (km/s) = 5.24926 7.23930 6.32306
#
# Compressibility (1/GPa) = 0.04080707
#
# Stress axis : x y z
#
# Youngs Moduli (GPa) = 129.34766 56.85004 80.19152
#
# Poissons Ratio (x) = 0.01657 0.03320
# Poissons Ratio (y) = 0.03771 -0.17749
# Poissons Ratio (z) = 0.05355 -0.12583
#
# Static dielectric constant tensor:
#      x y z
#    x 2.069210 0.076430 0.016020 
#    y 0.076430 2.285510 0.007930 
#    z 0.016020 0.007930 2.037070 
# 
# From -- ./inp_files/261271.got.cif
#   From: 2010.05.17/outbox.cif.g08.bks.cpg/sg2_131_cif.got.tgz:261271.got - 2010.06.03 11:33:40.
