data_PCOD9046877
_publ_section_title
;
Structure prediction by ZEFSAII (Michael W. Deem and Ramdas Pophale) SiO2 
 PCOD9046877
Probable space group: P -1
;
_chemical_formula_sum "Si O2"
_cell_formula_units_Z 14
_cell_length_a 7.283795
_cell_length_b 10.544322
_cell_length_c 17.420138
_cell_angle_alpha 36.067869
_cell_angle_beta 112.584263
_cell_angle_gamma 132.077062
_cell_volume 545.290711
_symmetry_space_group_name_H-M "P -1"
_symmetry_group_IT_number 2
_symmetry_cell_setting 'triclinic'
loop_
_space_group_symop_operation_xyz
x,y,z
-x,-y,-z
loop_
_atom_site_type_symbol
_atom_site_label
_atom_site_fract_x
_atom_site_fract_y
_atom_site_fract_z
Si Si1 0.529596 0.166188 0.847917
Si Si2 0.336849 0.823397 0.456606
Si Si3 0.939395 0.778808 0.947632
Si Si4 0.769201 0.371645 0.642035
Si Si5 0.916605 0.594171 0.810250
Si Si6 0.529351 0.599755 0.836107
Si Si7 0.760407 0.824935 0.488174
O O1 0.605334 0.115180 0.803330
O O2 0.813136 0.472643 0.767105
O O3 0.242731 0.078639 0.841937
O O4 0.500000 0.000000 0.000000
O O5 0.275645 0.738569 0.397670
O O6 0.530888 0.765971 0.530269
O O7 0.086854 0.619894 0.571246
O O8 0.456577 0.149132 0.318393
O O9 0.744760 0.740395 0.871893
O O10 0.985981 0.552325 0.060869
O O11 0.764761 0.669952 0.050321
O O12 0.683251 0.550976 0.566821
O O13 0.656075 0.515857 0.842000
O O14 0.146744 0.935741 0.678482
O O15 0.000000 0.000000 0.500000
#
# Coordination Sequence:
#
# PCOD9046877 Si02
#       7
#     2   2   2   2   2   2   2
#     4  10  24  45  69 100 141 186 226 283 350 411
#     4  11  26  45  72 105 141 178 237 292 344 413
#     4  10  24  43  69 100 142 184 233 285 342 417
#     4  11  25  47  71 104 139 183 233 287 352 408
#     4  11  22  44  68 101 139 182 230 283 349 413
#     4  11  23  42  71 106 133 184 236 285 348 406
#     4  12  24  45  72 102 138 184 228 288 354 412
#
# _framework density 25.674378000000001
#
# number of rings (size 3 to 8) (size 9 to 14) (size 15 to 20)
#    0.000    1.143    4.286    0.857    2.000    8.000 
#    5.143    0.000    0.000    0.000    0.000    0.000 
#    0.000    0.000    0.000    0.000    0.000    0.000 
#
# Total GULP energy -78148.820462 kJ/mol
# GULP energy per Si atom -5582.058604 kJ/mol
# Density = 2.561594 g / cm^3
# Si number density = 25.674378 Si / 1000 Ang^3
#
#
#
# Elastic Constant Matrix: (Units=GPa)
#
#
# Indices 1 2 3 4 5 6 
#
# 1 180.0429 17.0641 41.9254 10.2818 -20.9110 6.8497
# 2 17.0641 48.9659 11.6540 10.4641 -8.6864 -2.0382
# 3 41.9254 11.6540 101.5834 -15.8255 -10.7182 -4.8967
# 4 10.2818 10.4641 -15.8255 23.9553 -9.5497 1.1938
# 5 -20.9110 -8.6864 -10.7182 -9.5497 57.6290 -10.4179
# 6 6.8497 -2.0382 -4.8967 1.1938 -10.4179 29.0092
#
#
#
# Elastic Compliance Matrix: (Units=1/GPa)
#
#
# Indices 1 2 3 4 5 6 
#
# 1 0.006831 -0.000506 -0.003510 -0.004682 0.000645 -0.001817
# 2 -0.000506 0.024761 -0.004529 -0.013350 0.000846 0.001948
# 3 -0.003510 -0.004529 0.014664 0.014523 0.003860 0.003775
# 4 -0.004682 -0.013350 0.014523 0.063021 0.010093 0.003650
# 5 0.000645 0.000846 0.003860 0.010093 0.021528 0.007875
# 6 -0.001817 0.001948 0.003775 0.003650 0.007875 0.038353
#
#
# Mechanical properties :
#
#
# Convention : Reuss Voigt Hill
#
# Bulk Modulus (GPa) = 34.28543 52.43102 43.35823
# Shear Modulus (GPa) = 25.51429 39.44860 32.48145
#
# Velocity S-wave (km/s) = 3.15582 3.92407 3.56073
# Velocity P-wave (km/s) = 5.16352 6.40289 5.81631
#
# Compressibility (1/GPa) = 0.02916691
#
# Stress axis : x y z
#
# Youngs Moduli (GPa) = 146.39151 40.38687 68.19382
#
# Poissons Ratio (x) = 0.02042 0.23937
# Poissons Ratio (y) = 0.07402 0.30882
# Poissons Ratio (z) = 0.51386 0.18289
#
# Static dielectric constant tensor:
#      x y z
#    x 2.059980 -0.052230 -0.170640 
#    y -0.052230 2.209030 0.198740 
#    z -0.170640 0.198740 2.740810 
# 
# From -- ./inp_files/583221.got.cif
#   From: 2010.05.17/outbox.cif.g08.bks.cpg/sg2_292_cif.got.tgz:583221.got - 2010.06.03 11:33:40.
