data_PCOD9046034
_publ_section_title
;
Structure prediction by ZEFSAII (Michael W. Deem and Ramdas Pophale) SiO2 
 PCOD9046034
Probable space group: P -1
;
_chemical_formula_sum "Si O2"
_cell_formula_units_Z 16
_cell_length_a 20.788885
_cell_length_b 9.734617
_cell_length_c 12.886317
_cell_angle_alpha 66.939055
_cell_angle_beta 20.264142
_cell_angle_gamma 66.373143
_cell_volume 826.486915
_symmetry_space_group_name_H-M "P -1"
_symmetry_group_IT_number 2
_symmetry_cell_setting 'triclinic'
loop_
_space_group_symop_operation_xyz
x,y,z
-x,-y,-z
loop_
_atom_site_type_symbol
_atom_site_label
_atom_site_fract_x
_atom_site_fract_y
_atom_site_fract_z
Si Si1 0.083467 0.356024 0.355406
Si Si2 0.681498 0.898155 0.225181
Si Si3 0.770860 0.421317 0.335772
Si Si4 0.537418 0.786779 0.079381
Si Si5 0.322694 0.408530 0.780120
Si Si6 0.542010 0.884521 0.806220
Si Si7 0.830401 0.103350 0.776242
Si Si8 0.832455 0.723852 0.252846
O O1 0.000000 0.500000 0.500000
O O2 0.911866 0.260596 0.620909
O O3 0.248266 0.256345 0.197571
O O4 0.182371 0.412281 0.086679
O O5 0.631452 0.767637 0.261464
O O6 0.761929 0.817903 0.230510
O O7 0.500000 0.000000 0.500000
O O8 0.801569 0.013178 0.952013
O O9 0.584478 0.343782 0.660709
O O10 0.769899 0.516310 0.204027
O O11 0.790101 0.548826 0.356691
O O12 0.943601 0.294598 0.094372
O O13 0.457327 0.940744 0.213164
O O14 0.523241 0.806345 0.970326
O O15 0.500000 0.500000 0.500000
O O16 0.721540 0.806145 0.493624
O O17 0.359033 0.879914 0.010582
O O18 0.000000 0.000000 0.500000
#
# Coordination Sequence:
#
# PCOD9046034 Si02
#       8
#     2   2   2   2   2   2   2   2
#     4  12  28  44  67 101 136 175 222 272 335 390
#     4  11  23  40  69  96 124 169 224 271 319 387
#     4  10  24  42  66  93 131 170 219 271 326 391
#     4  11  25  45  63  99 136 171 217 277 327 387
#     4  11  23  42  65  92 132 170 216 272 325 383
#     4  11  25  43  68  96 134 172 221 271 329 391
#     4  12  24  45  69  97 134 178 222 271 327 398
#     4  10  24  43  65  97 126 173 222 265 329 393
#
# _framework density 19.359047
#
# number of rings (size 3 to 8) (size 9 to 14) (size 15 to 20)
#    0.000    1.000    5.000    0.000    7.000    2.000 
#    0.000    0.000    0.000    0.000    0.000    0.000 
#    0.000    0.000    0.000    0.000    0.000    0.000 
#
# Total GULP energy -89252.366493 kJ/mol
# GULP energy per Si atom -5578.272906 kJ/mol
# Density = 1.931499 g / cm^3
# Si number density = 19.359047 Si / 1000 Ang^3
#
#
#
# Elastic Constant Matrix: (Units=GPa)
#
#
# Indices 1 2 3 4 5 6 
#
# 1 69.6095 30.4747 30.0846 2.5358 13.2770 0.2601
# 2 30.4747 87.4432 55.6425 7.1268 24.4060 13.7954
# 3 30.0846 55.6425 112.3241 6.0381 25.2047 11.2265
# 4 2.5358 7.1268 6.0381 53.5085 2.0959 -0.2890
# 5 13.2770 24.4060 25.2047 2.0959 36.7049 4.1356
# 6 0.2601 13.7954 11.2265 -0.2890 4.1356 35.0079
#
#
#
# Elastic Compliance Matrix: (Units=1/GPa)
#
#
# Indices 1 2 3 4 5 6 
#
# 1 0.017743 -0.004565 -0.002287 0.000123 -0.002118 0.002652
# 2 -0.004565 0.019944 -0.006646 -0.001466 -0.006405 -0.004950
# 3 -0.002287 -0.006646 0.013887 -0.000419 -0.004115 -0.001335
# 4 0.000123 -0.001466 -0.000419 0.018928 0.000040 0.000863
# 5 -0.002118 -0.006405 -0.004115 0.000040 0.035125 -0.000290
# 6 0.002652 -0.004950 -0.001335 0.000863 -0.000290 0.030965
#
#
# Mechanical properties :
#
#
# Convention : Reuss Voigt Hill
#
# Bulk Modulus (GPa) = 40.68974 55.75337 48.22156
# Shear Modulus (GPa) = 29.10657 35.25593 32.18125
#
# Velocity S-wave (km/s) = 3.88172 4.27214 4.08160
# Velocity P-wave (km/s) = 6.41517 7.29363 6.86846
#
# Compressibility (1/GPa) = 0.02457622
#
# Stress axis : x y z
#
# Youngs Moduli (GPa) = 56.36178 50.13952 72.00894
#
# Poissons Ratio (x) = 0.22891 0.16468
# Poissons Ratio (y) = 0.25732 0.47860
# Poissons Ratio (z) = 0.12890 0.33325
#
# Static dielectric constant tensor:
#      x y z
#    x 1.683110 0.002990 -0.025900 
#    y 0.002990 1.710850 0.036410 
#    z -0.025900 0.036410 1.621820 
# 
# From -- ./inp_files/205214.got.cif
#   From: 2010.05.17/outbox.cif.g08.bks.cpg/sg2_103_cif.got.tgz:205214.got - 2010.06.03 11:33:40.
