data_PCOD9046346
_publ_section_title
;
Structure prediction by ZEFSAII (Michael W. Deem and Ramdas Pophale) SiO2 
 PCOD9046346
Probable space group: P -1
;
_chemical_formula_sum "Si O2"
_cell_formula_units_Z 12
_cell_length_a 5.075398
_cell_length_b 11.222571
_cell_length_c 9.276590
_cell_angle_alpha 79.153809
_cell_angle_beta 93.906420
_cell_angle_gamma 86.712392
_cell_volume 516.411375
_symmetry_space_group_name_H-M "P -1"
_symmetry_group_IT_number 2
_symmetry_cell_setting 'triclinic'
loop_
_space_group_symop_operation_xyz
x,y,z
-x,-y,-z
loop_
_atom_site_type_symbol
_atom_site_label
_atom_site_fract_x
_atom_site_fract_y
_atom_site_fract_z
Si Si1 0.790575 0.255949 0.379328
Si Si2 0.749752 0.940182 0.938747
Si Si3 0.394697 0.278586 0.849197
Si Si4 0.685130 0.902885 0.618721
Si Si5 0.877302 0.321455 0.685614
Si Si6 0.098340 0.514011 0.839181
O O1 0.508948 0.205820 0.347953
O O2 0.779213 0.320961 0.519828
O O3 0.857724 0.350891 0.237358
O O4 0.030299 0.150011 0.418082
O O5 0.738396 0.957452 0.764610
O O6 0.714441 0.798788 0.007119
O O7 0.500000 0.000000 0.000000
O O8 0.000000 0.000000 0.000000
O O9 0.682657 0.252837 0.799136
O O10 0.358483 0.420706 0.855441
O O11 0.175922 0.260824 0.720866
O O12 0.500000 0.000000 0.500000
O O13 0.908306 0.453291 0.728540
O O14 0.000000 0.500000 0.000000
#
# Coordination Sequence:
#
# PCOD9046346 Si02
#       6
#     2   2   2   2   2   2
#     4  12  26  47  72 103 146 186 236 290 358 424
#     4  12  27  47  76 102 141 187 242 291 355 421
#     4  10  24  42  71 103 140 180 241 281 360 408
#     4  12  30  47  73 105 144 187 241 295 355 417
#     4  10  24  42  71 100 143 184 231 279 361 413
#     4  10  25  42  74 103 145 181 235 292 352 421
#
# _framework density 23.237290999999999
#
# number of rings (size 3 to 8) (size 9 to 14) (size 15 to 20)
#    1.000    0.000    0.000    5.000   11.667    1.333 
#    0.000    0.000    0.000    0.000    0.000    0.000 
#    0.000    0.000    0.000    0.000    0.000    0.000 
#
# Total GULP energy -67062.179702 kJ/mol
# GULP energy per Si atom -5588.514975 kJ/mol
# Density = 2.318440 g / cm^3
# Si number density = 23.237291 Si / 1000 Ang^3
#
#
#
# Elastic Constant Matrix: (Units=GPa)
#
#
# Indices 1 2 3 4 5 6 
#
# 1 111.7998 3.7555 -18.1448 14.3292 -3.8201 13.9124
# 2 3.7555 50.9068 12.8301 5.4338 1.9943 6.4014
# 3 -18.1448 12.8301 95.4521 18.9746 -2.7312 9.8683
# 4 14.3292 5.4338 18.9746 53.6003 3.3067 0.7084
# 5 -3.8201 1.9943 -2.7312 3.3067 30.2101 1.8081
# 6 13.9124 6.4014 9.8683 0.7084 1.8081 34.1961
#
#
#
# Elastic Compliance Matrix: (Units=1/GPa)
#
#
# Indices 1 2 3 4 5 6 
#
# 1 0.010847 -0.000687 0.003616 -0.004195 0.002525 -0.005375
# 2 -0.000687 0.020830 -0.002498 -0.000919 -0.001419 -0.002805
# 3 0.003616 -0.002498 0.013165 -0.005477 0.002701 -0.004832
# 4 -0.004195 -0.000919 -0.005477 0.021988 -0.003563 0.003192
# 5 0.002525 -0.001419 0.002701 -0.003563 0.034345 -0.003283
# 6 -0.005375 -0.002805 -0.004832 0.003192 -0.003283 0.033457
#
#
# Mechanical properties :
#
#
# Convention : Reuss Voigt Hill
#
# Bulk Modulus (GPa) = 21.87959 28.33782 25.10870
# Shear Modulus (GPa) = 33.55573 40.91581 37.23577
#
# Velocity S-wave (km/s) = 3.80418 4.20072 4.00736
# Velocity P-wave (km/s) = 5.36022 5.97909 5.67809
#
# Compressibility (1/GPa) = 0.04570470
#
# Stress axis : x y z
#
# Youngs Moduli (GPa) = 92.18885 48.00653 75.95760
#
# Poissons Ratio (x) = 0.03298 -0.27467
# Poissons Ratio (y) = 0.06332 0.18977
# Poissons Ratio (z) = -0.33337 0.11994
#
# Static dielectric constant tensor:
#      x y z
#    x 1.835500 -0.014270 0.016300 
#    y -0.014270 1.971590 -0.084760 
#    z 0.016300 -0.084760 1.882140 
# 
# From -- ./inp_files/44281.got.cif
#   From: 2010.05.17/outbox.cif.g08.bks.cpg/sg2_23_cif.got.tgz:44281.got - 2010.06.03 11:33:40.
