data_PCOD9046897
_publ_section_title
;
Structure prediction by ZEFSAII (Michael W. Deem and Ramdas Pophale) SiO2 
 PCOD9046897
Probable space group: P -1
;
_chemical_formula_sum "Si O2"
_cell_formula_units_Z 14
_cell_length_a 10.418559
_cell_length_b 6.424557
_cell_length_c 15.034500
_cell_angle_alpha 58.617941
_cell_angle_beta 130.786462
_cell_angle_gamma 130.908978
_cell_volume 568.187972
_symmetry_space_group_name_H-M "P -1"
_symmetry_group_IT_number 2
_symmetry_cell_setting 'triclinic'
loop_
_space_group_symop_operation_xyz
x,y,z
-x,-y,-z
loop_
_atom_site_type_symbol
_atom_site_label
_atom_site_fract_x
_atom_site_fract_y
_atom_site_fract_z
Si Si1 0.292419 0.056860 0.876922
Si Si2 0.946947 0.184600 0.691236
Si Si3 0.562723 0.655440 0.898298
Si Si4 0.693789 0.303030 0.671087
Si Si5 0.185032 0.773644 0.066336
Si Si6 0.761165 0.188657 0.279829
Si Si7 0.753651 0.867067 0.501377
O O1 0.464021 0.369921 0.859787
O O2 0.096347 0.072698 0.806458
O O3 0.242277 0.854179 0.816532
O O4 0.320983 0.912146 0.009766
O O5 0.774715 0.120297 0.697578
O O6 0.078413 0.513068 0.683203
O O7 0.871145 0.094999 0.577893
O O8 0.436616 0.806967 0.786603
O O9 0.779880 0.920005 0.945078
O O10 0.500000 0.500000 0.000000
O O11 0.756167 0.341815 0.794452
O O12 0.780079 0.606420 0.597171
O O13 0.467797 0.194848 0.576434
O O14 0.000000 0.500000 0.000000
O O15 0.793756 0.960851 0.396764
#
# Coordination Sequence:
#
# PCOD9046897 Si02
#       7
#     2   2   2   2   2   2   2
#     4  10  24  43  69 102 133 173 224 274 336 395
#     4  11  23  42  68  97 134 174 225 275 324 395
#     4   9  21  41  63  97 131 172 219 265 329 394
#     4  11  25  44  64  96 139 177 216 273 336 394
#     4  11  21  42  69  98 136 169 220 274 336 399
#     4  11  22  43  71  97 133 173 221 278 327 394
#     4  11  24  44  65  99 133 177 225 267 333 395
#
# _framework density 24.639731999999999
#
# number of rings (size 3 to 8) (size 9 to 14) (size 15 to 20)
#    0.000    1.429    1.429    3.429    0.000    7.429 
#    5.143    5.714    0.000    0.000    0.000    0.000 
#    0.000    0.000    0.000    0.000    0.000    0.000 
#
# Total GULP energy -78064.762559 kJ/mol
# GULP energy per Si atom -5576.054469 kJ/mol
# Density = 2.458365 g / cm^3
# Si number density = 24.639732 Si / 1000 Ang^3
#
#
#
# Elastic Constant Matrix: (Units=GPa)
#
#
# Indices 1 2 3 4 5 6 
#
# 1 76.0925 12.9174 31.2495 1.5566 24.6478 -16.6872
# 2 12.9174 109.7176 26.8082 7.7389 15.0943 9.0023
# 3 31.2495 26.8082 159.6584 -2.4260 -5.2584 -7.0210
# 4 1.5566 7.7389 -2.4260 52.2738 6.7649 2.4257
# 5 24.6478 15.0943 -5.2584 6.7649 44.8987 1.3422
# 6 -16.6872 9.0023 -7.0210 2.4257 1.3422 30.9799
#
#
#
# Elastic Compliance Matrix: (Units=1/GPa)
#
#
# Indices 1 2 3 4 5 6 
#
# 1 0.021375 -0.000816 -0.003947 0.000368 -0.012317 0.011361
# 2 -0.000816 0.010461 -0.001875 -0.001049 -0.003020 -0.003691
# 3 -0.003947 -0.001875 0.007472 0.000275 0.003633 -0.000067
# 4 0.000368 -0.001049 0.000275 0.019684 -0.002757 -0.000856
# 5 -0.012317 -0.003020 0.003633 -0.002757 0.031072 -0.006064
# 6 0.011361 -0.003691 -0.000067 -0.000856 -0.006064 0.039786
#
#
# Mechanical properties :
#
#
# Convention : Reuss Voigt Hill
#
# Bulk Modulus (GPa) = 38.41342 54.15765 46.28553
# Shear Modulus (GPa) = 32.93794 43.93004 38.43399
#
# Velocity S-wave (km/s) = 3.66017 4.22701 3.95376
# Velocity P-wave (km/s) = 5.78674 6.77134 6.29831
#
# Compressibility (1/GPa) = 0.02603257
#
# Stress axis : x y z
#
# Youngs Moduli (GPa) = 46.78329 95.59610 133.84066
#
# Poissons Ratio (x) = 0.07798 0.52830
# Poissons Ratio (y) = 0.03816 0.25089
# Poissons Ratio (z) = 0.18466 0.17920
#
# Static dielectric constant tensor:
#      x y z
#    x 2.051440 0.069960 0.037920 
#    y 0.069960 2.022940 0.002310 
#    z 0.037920 0.002310 1.948360 
# 
# From -- ./inp_files/94354.got.cif
#   From: 2010.05.17/outbox.cif.g08.bks.cpg/sg2_48_cif.got.tgz:94354.got - 2010.06.03 11:33:40.
