data_PCOD9046335
_publ_section_title
;
Structure prediction by ZEFSAII (Michael W. Deem and Ramdas Pophale) SiO2 
 PCOD9046335
Probable space group: P -1
;
_chemical_formula_sum "Si O2"
_cell_formula_units_Z 16
_cell_length_a 5.580683
_cell_length_b 17.735427
_cell_length_c 9.317241
_cell_angle_alpha 93.505256
_cell_angle_beta 102.274824
_cell_angle_gamma 46.444754
_cell_volume 648.275099
_symmetry_space_group_name_H-M "P -1"
_symmetry_group_IT_number 2
_symmetry_cell_setting 'triclinic'
loop_
_space_group_symop_operation_xyz
x,y,z
-x,-y,-z
loop_
_atom_site_type_symbol
_atom_site_label
_atom_site_fract_x
_atom_site_fract_y
_atom_site_fract_z
Si Si1 0.645036 0.937463 0.364572
Si Si2 0.514314 0.078332 0.931994
Si Si3 0.200444 0.692860 0.115469
Si Si4 0.772273 0.302462 0.183599
Si Si5 0.674196 0.230303 0.443324
Si Si6 0.401130 0.894714 0.759666
Si Si7 0.169700 0.530929 0.122789
Si Si8 0.798549 0.599345 0.383380
O O1 0.385024 0.950382 0.225460
O O2 0.981117 0.820555 0.437612
O O3 0.500000 0.000000 0.500000
O O4 0.722954 0.996781 0.292277
O O5 0.134733 0.190366 0.877181
O O6 0.670589 0.098328 0.077693
O O7 0.500000 0.000000 0.000000
O O8 0.118189 0.623867 0.057972
O O9 0.469176 0.633453 0.269474
O O10 0.336276 0.703815 0.988939
O O11 0.629609 0.289791 0.302177
O O12 0.569785 0.424906 0.179451
O O13 0.183457 0.205107 0.219234
O O14 0.739480 0.134689 0.373861
O O15 0.359401 0.302858 0.521044
O O16 0.021546 0.570627 0.269346
O O17 0.000000 0.500000 0.000000
O O18 0.000000 0.500000 0.500000
#
# Coordination Sequence:
#
# PCOD9046335 Si02
#       8
#     2   2   2   2   2   2   2   2
#     4  11  21  43  69 101 140 179 228 294 350 407
#     4   9  21  42  70  96 133 178 228 275 343 415
#     4  11  25  45  71  97 139 186 230 293 348 407
#     4  11  24  42  71  98 136 179 232 285 342 413
#     4  12  25  44  69 103 143 180 235 285 352 416
#     4  10  24  42  70  97 137 189 228 284 348 415
#     4  12  27  44  70 101 135 184 238 281 349 421
#     4  12  27  43  67 100 143 183 232 288 344 417
#
# _framework density 24.680880999999999
#
# number of rings (size 3 to 8) (size 9 to 14) (size 15 to 20)
#    0.000    1.000    5.000    0.750    5.250    2.500 
#    0.000    0.625    0.000    0.000    0.000    0.000 
#    0.000    0.000    0.000    0.000    0.000    0.000 
#
# Total GULP energy -89289.812652 kJ/mol
# GULP energy per Si atom -5580.613291 kJ/mol
# Density = 2.462471 g / cm^3
# Si number density = 24.680881 Si / 1000 Ang^3
#
#
#
# Elastic Constant Matrix: (Units=GPa)
#
#
# Indices 1 2 3 4 5 6 
#
# 1 39.1385 17.0546 33.9204 -2.2907 0.6536 -3.6282
# 2 17.0546 99.3189 27.9088 -10.9531 -4.5154 -0.5504
# 3 33.9204 27.9088 210.6132 21.3877 -14.7104 -6.2149
# 4 -2.2907 -10.9531 21.3877 58.1878 -10.2942 -0.4463
# 5 0.6536 -4.5154 -14.7104 -10.2942 35.2287 -0.9213
# 6 -3.6282 -0.5504 -6.2149 -0.4463 -0.9213 31.0588
#
#
#
# Elastic Compliance Matrix: (Units=1/GPa)
#
#
# Indices 1 2 3 4 5 6 
#
# 1 0.031940 -0.004000 -0.004904 0.001879 -0.002535 0.002631
# 2 -0.004000 0.011425 -0.001023 0.002701 0.001891 -0.000375
# 3 -0.004904 -0.001023 0.006052 -0.002280 0.001838 0.000642
# 4 0.001879 0.002701 -0.002280 0.019504 0.005065 0.000242
# 5 -0.002535 0.001891 0.001838 0.005065 0.030951 0.001096
# 6 0.002631 -0.000375 0.000642 0.000242 0.001096 0.032662
#
#
# Mechanical properties :
#
#
# Convention : Reuss Voigt Hill
#
# Bulk Modulus (GPa) = 33.82677 56.31537 45.07107
# Shear Modulus (GPa) = 30.81805 42.90752 36.86279
#
# Velocity S-wave (km/s) = 3.53747 4.17405 3.86887
# Velocity P-wave (km/s) = 5.51547 6.78949 6.18537
#
# Compressibility (1/GPa) = 0.02956238
#
# Stress axis : x y z
#
# Youngs Moduli (GPa) = 31.30888 87.53041 165.22659
#
# Poissons Ratio (x) = 0.35012 0.81032
# Poissons Ratio (y) = 0.12523 0.16902
# Poissons Ratio (z) = 0.15355 0.08954
#
# Static dielectric constant tensor:
#      x y z
#    x 2.120350 -0.090900 0.071480 
#    y -0.090900 2.021790 0.007200 
#    z 0.071480 0.007200 2.033460 
# 
# From -- ./inp_files/139078.got.cif
#   From: 2010.05.17/outbox.cif.g08.bks.cpg/sg2_70_cif.got.tgz:139078.got - 2010.06.03 11:33:40.
