data_PCOD9046698
_publ_section_title
;
Structure prediction by ZEFSAII (Michael W. Deem and Ramdas Pophale) SiO2 
 PCOD9046698
Probable space group: P -1
;
_chemical_formula_sum "Si O2"
_cell_formula_units_Z 12
_cell_length_a 6.820649
_cell_length_b 12.506115
_cell_length_c 9.304846
_cell_angle_alpha 125.959387
_cell_angle_beta 128.846251
_cell_angle_gamma 80.816488
_cell_volume 472.139414
_symmetry_space_group_name_H-M "P -1"
_symmetry_group_IT_number 2
_symmetry_cell_setting 'triclinic'
loop_
_space_group_symop_operation_xyz
x,y,z
-x,-y,-z
loop_
_atom_site_type_symbol
_atom_site_label
_atom_site_fract_x
_atom_site_fract_y
_atom_site_fract_z
Si Si1 0.247321 0.114991 0.566069
Si Si2 0.638462 0.503491 0.721458
Si Si3 0.207133 0.674600 0.056803
Si Si4 0.717768 0.352146 0.253720
Si Si5 0.307537 0.061822 0.871103
Si Si6 0.019060 0.367136 0.698170
O O1 0.299097 0.040511 0.676580
O O2 0.131100 0.239669 0.658187
O O3 0.529378 0.196140 0.684663
O O4 0.002855 0.006354 0.281847
O O5 0.500000 0.500000 0.500000
O O6 0.404842 0.523943 0.724307
O O7 0.754438 0.373166 0.669505
O O8 0.912911 0.637666 0.958330
O O9 0.181176 0.688006 0.881771
O O10 0.229594 0.518198 0.956819
O O11 0.920318 0.373050 0.494039
O O12 0.460498 0.224809 0.083994
O O13 0.500000 0.000000 0.000000
#
# Coordination Sequence:
#
# PCOD9046698 Si02
#       6
#     2   2   2   2   2   2
#     4  10  19  34  56  82 111 143 185 230 272 318
#     4   8  18  30  52  84 113 140 178 224 276 330
#     4   9  19  31  55  82 114 141 175 230 279 322
#     4  10  17  34  56  82 108 147 189 211 275 337
#     4  10  20  34  55  82 107 149 192 220 264 334
#     4   9  17  31  55  80 113 139 172 234 274 320
#
# _framework density 25.416224
#
# number of rings (size 3 to 8) (size 9 to 14) (size 15 to 20)
#    1.000    1.667    1.667    1.000    0.000    0.000 
#    0.000    4.167    0.000    4.000    0.000    0.000 
#    0.000    0.000    0.000    0.000    0.000    0.000 
#
# Total GULP energy -66871.583540 kJ/mol
# GULP energy per Si atom -5572.631962 kJ/mol
# Density = 2.535838 g / cm^3
# Si number density = 25.416224 Si / 1000 Ang^3
#
#
#
# Elastic Constant Matrix: (Units=GPa)
#
#
# Indices 1 2 3 4 5 6 
#
# 1 105.3239 27.7945 26.0873 5.7684 27.4477 10.8016
# 2 27.7945 93.0295 31.6077 -25.8917 19.9644 1.1889
# 3 26.0873 31.6077 169.0017 -2.4385 47.4573 19.4369
# 4 5.7684 -25.8917 -2.4385 61.7059 15.1075 15.4345
# 5 27.4477 19.9644 47.4573 15.1075 37.3760 13.6037
# 6 10.8016 1.1889 19.4369 15.4345 13.6037 27.1123
#
#
#
# Elastic Compliance Matrix: (Units=1/GPa)
#
#
# Indices 1 2 3 4 5 6 
#
# 1 0.012218 -0.001815 0.001280 0.000816 -0.009435 -0.001436
# 2 -0.001815 0.016628 0.000963 0.010379 -0.012922 -0.000121
# 3 0.001280 0.000963 0.010362 0.005307 -0.015601 -0.003174
# 4 0.000816 0.010379 0.005307 0.028326 -0.020546 -0.010402
# 5 -0.009435 -0.012922 -0.015601 -0.020546 0.071935 -0.008887
# 6 -0.001436 -0.000121 -0.003174 -0.010402 -0.008887 0.050118
#
#
# Mechanical properties :
#
#
# Convention : Reuss Voigt Hill
#
# Bulk Modulus (GPa) = 24.96050 59.81492 42.38771
# Shear Modulus (GPa) = 24.74200 44.02987 34.38593
#
# Velocity S-wave (km/s) = 3.12344 4.16667 3.68219
# Velocity P-wave (km/s) = 4.78015 6.83618 5.89844
#
# Compressibility (1/GPa) = 0.04006330
#
# Stress axis : x y z
#
# Youngs Moduli (GPa) = 81.84715 60.14058 96.50586
#
# Poissons Ratio (x) = 0.10915 -0.12352
# Poissons Ratio (y) = 0.14854 -0.09291
# Poissons Ratio (z) = -0.10476 -0.05790
#
# Static dielectric constant tensor:
#      x y z
#    x 2.027010 0.099950 -0.060140 
#    y 0.099950 2.103620 -0.036240 
#    z -0.060140 -0.036240 2.067620 
# 
# From -- ./inp_files/330985.got.cif
#   From: 2010.05.17/outbox.cif.g08.bks.cpg/sg2_166_cif.got.tgz:330985.got - 2010.06.03 11:33:40.
