data_PCOD9046355
_publ_section_title
;
Structure prediction by ZEFSAII (Michael W. Deem and Ramdas Pophale) SiO2 
 PCOD9046355
Probable space group: P -1
;
_chemical_formula_sum "Si O2"
_cell_formula_units_Z 14
_cell_length_a 9.511517
_cell_length_b 9.867642
_cell_length_c 6.464522
_cell_angle_alpha 101.566108
_cell_angle_beta 85.086849
_cell_angle_gamma 100.430583
_cell_volume 583.825455
_symmetry_space_group_name_H-M "P -1"
_symmetry_group_IT_number 2
_symmetry_cell_setting 'triclinic'
loop_
_space_group_symop_operation_xyz
x,y,z
-x,-y,-z
loop_
_atom_site_type_symbol
_atom_site_label
_atom_site_fract_x
_atom_site_fract_y
_atom_site_fract_z
Si Si1 0.581649 0.200827 0.703417
Si Si2 0.068422 0.178173 0.634057
Si Si3 0.516571 0.509339 0.740646
Si Si4 0.187931 0.829902 0.008862
Si Si5 0.990106 0.631848 0.683504
Si Si6 0.721183 0.003909 0.336239
Si Si7 0.742232 0.607944 0.019849
O O1 0.574151 0.363547 0.731578
O O2 0.422045 0.112130 0.688709
O O3 0.669981 0.138193 0.490767
O O4 0.665976 0.179298 0.895083
O O5 0.045885 0.249979 0.438281
O O6 0.150014 0.045320 0.566942
O O7 0.185489 0.280435 0.789890
O O8 0.931875 0.162250 0.799020
O O9 0.500000 0.500000 0.500000
O O10 0.627197 0.635796 0.866032
O O11 0.362497 0.501540 0.861535
O O12 0.124436 0.700973 0.826037
O O13 0.217703 0.960996 0.889596
O O14 0.869585 0.575923 0.851453
O O15 0.000000 0.500000 0.500000
#
# Coordination Sequence:
#
# PCOD9046355 Si02
#       7
#     2   2   2   2   2   2   2
#     4  11  26  46  73 107 144 187 236 299 356 430
#     4  11  24  48  71 107 143 189 239 293 358 427
#     4  11  24  46  73 106 143 186 238 297 364 425
#     4  11  26  45  73 104 142 192 239 294 361 422
#     4  11  27  46  74 106 147 188 239 300 355 430
#     4  11  25  48  71 104 144 190 242 293 354 424
#     4  10  24  42  71 102 140 187 232 291 355 423
#
# _framework density 23.979769999999998
#
# number of rings (size 3 to 8) (size 9 to 14) (size 15 to 20)
#    0.000    1.143    1.429    2.571    6.000    8.000 
#    5.143    0.000    0.000    0.000    0.000    0.000 
#    0.000    0.000    0.000    0.000    0.000    0.000 
#
# Total GULP energy -78267.076816 kJ/mol
# GULP energy per Si atom -5590.505487 kJ/mol
# Density = 2.392519 g / cm^3
# Si number density = 23.979770 Si / 1000 Ang^3
#
#
#
# Elastic Constant Matrix: (Units=GPa)
#
#
# Indices 1 2 3 4 5 6 
#
# 1 113.5302 28.1641 38.1121 -11.4210 4.4426 -10.6815
# 2 28.1641 57.4240 19.7882 7.1759 4.4519 -21.5121
# 3 38.1121 19.7882 140.7812 10.1337 21.4490 -6.6160
# 4 -11.4210 7.1759 10.1337 36.4025 -6.0339 5.7569
# 5 4.4426 4.4519 21.4490 -6.0339 45.0900 -1.8342
# 6 -10.6815 -21.5121 -6.6160 5.7569 -1.8342 30.2921
#
#
#
# Elastic Compliance Matrix: (Units=1/GPa)
#
#
# Indices 1 2 3 4 5 6 
#
# 1 0.011858 -0.006545 -0.003135 0.006535 0.001751 -0.002287
# 2 -0.006545 0.030380 -0.000190 -0.011852 -0.002984 0.021297
# 3 -0.003135 -0.000190 0.009045 -0.004418 -0.004514 0.001302
# 4 0.006535 -0.011852 -0.004418 0.036385 0.006945 -0.013572
# 5 0.001751 -0.002984 -0.004514 0.006945 0.025284 -0.002277
# 6 -0.002287 0.021297 0.001302 -0.013572 -0.002277 0.050056
#
#
# Mechanical properties :
#
#
# Convention : Reuss Voigt Hill
#
# Bulk Modulus (GPa) = 31.70069 53.76268 42.73168
# Shear Modulus (GPa) = 25.87167 37.40166 31.63666
#
# Velocity S-wave (km/s) = 3.28822 3.95361 3.63617
# Velocity P-wave (km/s) = 5.25975 6.58104 5.95714
#
# Compressibility (1/GPa) = 0.03154506
#
# Stress axis : x y z
#
# Youngs Moduli (GPa) = 84.33194 32.91589 110.55307
#
# Poissons Ratio (x) = 0.21542 0.34656
# Poissons Ratio (y) = 0.55193 0.02099
# Poissons Ratio (z) = 0.26437 0.00625
#
# Static dielectric constant tensor:
#      x y z
#    x 1.940340 0.006780 0.028260 
#    y 0.006780 1.981610 0.035840 
#    z 0.028260 0.035840 1.912840 
# 
# From -- ./inp_files/28195.got.cif
#   From: 2010.05.17/outbox.cif.g08.bks.cpg/sg2_15_cif.got.tgz:28195.got - 2010.06.03 11:33:40.
