data_PCOD9046274
_publ_section_title
;
Structure prediction by ZEFSAII (Michael W. Deem and Ramdas Pophale) SiO2 
 PCOD9046274
Probable space group: P -1
;
_chemical_formula_sum "Si O2"
_cell_formula_units_Z 14
_cell_length_a 5.021141
_cell_length_b 9.327092
_cell_length_c 18.793571
_cell_angle_alpha 140.348316
_cell_angle_beta 90.601181
_cell_angle_gamma 90.178133
_cell_volume 561.524670
_symmetry_space_group_name_H-M "P -1"
_symmetry_group_IT_number 2
_symmetry_cell_setting 'triclinic'
loop_
_space_group_symop_operation_xyz
x,y,z
-x,-y,-z
loop_
_atom_site_type_symbol
_atom_site_label
_atom_site_fract_x
_atom_site_fract_y
_atom_site_fract_z
Si Si1 0.157646 0.965939 0.384871
Si Si2 0.099368 0.516158 0.816297
Si Si3 0.648675 0.970813 0.165183
Si Si4 0.160264 0.701673 0.040426
Si Si5 0.600849 0.670185 0.791608
Si Si6 0.751033 0.258511 0.560989
Si Si7 0.499310 0.231705 0.399804
O O1 0.325960 0.839498 0.399395
O O2 0.971770 0.749216 0.280634
O O3 0.231143 0.084634 0.355525
O O4 0.043020 0.170768 0.510267
O O5 0.328813 0.555436 0.774501
O O6 0.833027 0.648041 0.842137
O O7 0.204104 0.619169 0.928977
O O8 0.943460 0.900011 0.118522
O O9 0.440563 0.766789 0.102374
O O10 0.494535 0.092769 0.146800
O O11 0.648196 0.134188 0.295535
O O12 0.000000 0.500000 0.000000
O O13 0.717340 0.523399 0.670684
O O14 0.608197 0.177331 0.458299
O O15 0.500000 0.500000 0.500000
#
# Coordination Sequence:
#
# PCOD9046274 Si02
#       7
#     2   2   2   2   2   2   2
#     4  10  25  42  71 103 139 195 232 296 350 426
#     4  11  26  46  76 101 143 183 245 294 351 423
#     4  12  28  47  75 102 148 184 237 297 359 418
#     4  12  28  50  72 105 140 189 242 298 349 424
#     4  11  25  46  72 111 137 186 237 293 361 427
#     4  10  24  42  70 100 146 178 242 283 353 430
#     4  12  26  43  70 104 146 190 228 293 360 430
#
# _framework density 24.932117999999999
#
# number of rings (size 3 to 8) (size 9 to 14) (size 15 to 20)
#    0.000    0.857    1.429    3.429   14.000    5.143 
#    0.000    0.000    0.000    0.000    0.000    0.000 
#    0.000    0.000    0.000    0.000    0.000    0.000 
#
# Total GULP energy -78193.370037 kJ/mol
# GULP energy per Si atom -5585.240717 kJ/mol
# Density = 2.487537 g / cm^3
# Si number density = 24.932118 Si / 1000 Ang^3
#
#
#
# Elastic Constant Matrix: (Units=GPa)
#
#
# Indices 1 2 3 4 5 6 
#
# 1 84.8461 15.7604 9.2713 8.9273 -4.9504 0.8595
# 2 15.7604 80.2347 11.2790 16.8572 -10.2375 7.1226
# 3 9.2713 11.2790 128.7677 -7.0356 -0.5822 2.3281
# 4 8.9273 16.8572 -7.0356 30.5200 -7.9297 2.8409
# 5 -4.9504 -10.2375 -0.5822 -7.9297 35.8142 -0.4798
# 6 0.8595 7.1226 2.3281 2.8409 -0.4798 34.9842
#
#
#
# Elastic Compliance Matrix: (Units=1/GPa)
#
#
# Indices 1 2 3 4 5 6 
#
# 1 0.012528 -0.001694 -0.000911 -0.002810 0.000615 0.000334
# 2 -0.001694 0.015066 -0.001547 -0.007348 0.002390 -0.002293
# 3 -0.000911 -0.001547 0.008146 0.003105 0.000246 -0.000454
# 4 -0.002810 -0.007348 0.003105 0.040204 0.006439 -0.001818
# 5 0.000615 0.002390 0.000246 0.006439 0.030111 -0.000628
# 6 0.000334 -0.002293 -0.000454 -0.001818 -0.000628 0.029212
#
#
# Mechanical properties :
#
#
# Convention : Reuss Voigt Hill
#
# Bulk Modulus (GPa) = 36.44591 40.71890 38.58241
# Shear Modulus (GPa) = 32.74059 37.43288 35.08673
#
# Velocity S-wave (km/s) = 3.62773 3.87898 3.75546
# Velocity P-wave (km/s) = 5.67424 6.03568 5.85775
#
# Compressibility (1/GPa) = 0.02743792
#
# Stress axis : x y z
#
# Youngs Moduli (GPa) = 79.81905 66.37494 122.76086
#
# Poissons Ratio (x) = 0.11242 0.11177
# Poissons Ratio (y) = 0.13519 0.18990
# Poissons Ratio (z) = 0.07268 0.10268
#
# Static dielectric constant tensor:
#      x y z
#    x 2.623020 0.082080 0.112420 
#    y 0.082080 2.049080 0.047880 
#    z 0.112420 0.047880 1.958510 
# 
# From -- ./inp_files/525529.got.cif
#   From: 2010.05.17/outbox.cif.g08.bks.cpg/sg2_263_cif.got.tgz:525529.got - 2010.06.03 11:33:40.
