data_PCOD9046460
_publ_section_title
;
Structure prediction by ZEFSAII (Michael W. Deem and Ramdas Pophale) SiO2 
 PCOD9046460
Probable space group: P -1
;
_chemical_formula_sum "Si O2"
_cell_formula_units_Z 15
_cell_length_a 23.394412
_cell_length_b 5.291740
_cell_length_c 4.949111
_cell_angle_alpha 85.363872
_cell_angle_beta 88.914120
_cell_angle_gamma 116.007667
_cell_volume 547.828058
_symmetry_space_group_name_H-M "P -1"
_symmetry_group_IT_number 2
_symmetry_cell_setting 'triclinic'
loop_
_space_group_symop_operation_xyz
x,y,z
-x,-y,-z
loop_
_atom_site_type_symbol
_atom_site_label
_atom_site_fract_x
_atom_site_fract_y
_atom_site_fract_z
Si Si1 0.597352 0.094999 0.434338
Si Si2 0.224672 0.096621 0.415727
Si Si3 0.000000 0.000000 0.500000
Si Si4 0.557794 0.532169 0.178892
Si Si5 0.944840 0.205713 0.960460
Si Si6 0.813613 0.233117 0.053041
Si Si7 0.882720 0.742108 0.393329
Si Si8 0.658052 0.422246 0.919553
O O1 0.551667 0.239878 0.335152
O O2 0.616686 0.178399 0.732077
O O3 0.571253 0.772278 0.378887
O O4 0.658404 0.272454 0.215406
O O5 0.235610 0.001805 0.718883
O O6 0.164311 0.163375 0.455183
O O7 0.278379 0.369957 0.249986
O O8 0.213035 0.833375 0.240596
O O9 0.928741 0.652368 0.567461
O O10 0.040705 0.882571 0.317989
O O11 0.500000 0.500000 0.000000
O O12 0.619275 0.601590 0.979694
O O13 0.875247 0.173800 0.029478
O O14 0.947006 0.989596 0.215121
O O15 0.000000 0.500000 0.000000
O O16 0.840576 0.529970 0.180297
#
# Coordination Sequence:
#
# PCOD9046460 Si02
#       8
#     2   2   1   2   2   2   2   2
#     4  10  24  42  73 104 145 190 237 291 350 412
#     4  11  25  46  65  96 128 172 223 274 334 403
#     4  12  22  40  64  86 122 162 208 264 338 402
#     4  10  24  44  72 110 148 190 238 292 351 415
#     4  11  24  39  60  89 123 159 210 265 334 402
#     4  11  25  41  68  92 127 167 213 277 330 402
#     4  11  26  39  63  94 124 166 217 269 342 404
#     4  10  25  43  70 100 141 186 241 286 353 412
#
# _framework density 27.380852000000001
#
# number of rings (size 3 to 8) (size 9 to 14) (size 15 to 20)
#    0.800    0.533    2.667    1.600    3.733    3.733 
#    0.000    0.000    0.000    0.000    0.000    0.000 
#    0.000    0.000    0.000    0.000    0.000    0.000 
#
# Total GULP energy -83872.032814 kJ/mol
# GULP energy per Si atom -5591.468854 kJ/mol
# Density = 2.731853 g / cm^3
# Si number density = 27.380852 Si / 1000 Ang^3
#
#
#
# Elastic Constant Matrix: (Units=GPa)
#
#
# Indices 1 2 3 4 5 6 
#
# 1 85.3398 23.2916 28.9203 3.6790 -24.3889 0.4918
# 2 23.2916 123.6121 40.7166 23.6331 -19.2420 -7.8357
# 3 28.9203 40.7166 169.3288 29.7595 -13.9755 -1.9021
# 4 3.6790 23.6331 29.7595 60.2441 8.3213 -0.9629
# 5 -24.3889 -19.2420 -13.9755 8.3213 40.3499 -1.9993
# 6 0.4918 -7.8357 -1.9021 -0.9629 -1.9993 27.5585
#
#
#
# Elastic Compliance Matrix: (Units=1/GPa)
#
#
# Indices 1 2 3 4 5 6 
#
# 1 0.014854 -0.000838 -0.001479 -0.000990 0.008269 -0.000040
# 2 -0.000838 0.010403 -0.001189 -0.004089 0.005041 0.003114
# 3 -0.001479 -0.001189 0.007149 -0.003204 0.001685 0.000192
# 4 -0.000990 -0.004089 -0.003204 0.020937 -0.008037 -0.001218
# 5 0.008269 0.005041 0.001685 -0.008037 0.034606 0.003632
# 6 -0.000040 0.003114 0.000192 -0.001218 0.003632 0.037407
#
#
# Mechanical properties :
#
#
# Convention : Reuss Voigt Hill
#
# Bulk Modulus (GPa) = 39.37978 62.68196 51.03087
# Shear Modulus (GPa) = 35.50349 44.65397 40.07873
#
# Velocity S-wave (km/s) = 3.60481 4.04276 3.83005
# Velocity P-wave (km/s) = 5.63380 6.68836 6.18360
#
# Compressibility (1/GPa) = 0.02539374
#
# Stress axis : x y z
#
# Youngs Moduli (GPa) = 67.32279 96.12626 139.88738
#
# Poissons Ratio (x) = 0.08051 0.20696
# Poissons Ratio (y) = 0.05639 0.16630
# Poissons Ratio (z) = 0.09960 0.11427
#
# Static dielectric constant tensor:
#      x y z
#    x 2.195920 0.092660 0.108790 
#    y 0.092660 2.576550 -0.093360 
#    z 0.108790 -0.093360 2.203290 
# 
# From -- ./inp_files/9974.got.cif
#   From: 2010.05.17/outbox.cif.g08.bks.cpg/sg2_5_cif.got.tgz:9974.got - 2010.06.03 11:33:40.
