data_PCOD9046080
_publ_section_title
;
Structure prediction by ZEFSAII (Michael W. Deem and Ramdas Pophale) SiO2 
 PCOD9046080
Probable space group: P -1
;
_chemical_formula_sum "Si O2"
_cell_formula_units_Z 14
_cell_length_a 8.020446
_cell_length_b 19.705138
_cell_length_c 9.519768
_cell_angle_alpha 126.404753
_cell_angle_beta 126.917293
_cell_angle_gamma 29.314054
_cell_volume 579.506531
_symmetry_space_group_name_H-M "P -1"
_symmetry_group_IT_number 2
_symmetry_cell_setting 'triclinic'
loop_
_space_group_symop_operation_xyz
x,y,z
-x,-y,-z
loop_
_atom_site_type_symbol
_atom_site_label
_atom_site_fract_x
_atom_site_fract_y
_atom_site_fract_z
Si Si1 0.106090 0.320063 0.574226
Si Si2 0.301421 0.951583 0.002742
Si Si3 0.638377 0.590700 0.508827
Si Si4 0.469296 0.483377 0.121507
Si Si5 0.688704 0.128888 0.394794
Si Si6 0.724954 0.691205 0.047420
Si Si7 0.896176 0.235021 0.219923
O O1 0.364569 0.230685 0.463003
O O2 0.305373 0.276141 0.763905
O O3 0.814718 0.485887 0.603458
O O4 0.938763 0.280907 0.432545
O O5 0.281068 0.939565 0.812267
O O6 0.654952 0.798213 0.052876
O O7 0.000000 0.000000 0.000000
O O8 0.231280 0.070655 0.153082
O O9 0.454848 0.573155 0.313944
O O10 0.383049 0.754651 0.569987
O O11 0.000000 0.500000 0.500000
O O12 0.797578 0.326157 0.151350
O O13 0.124535 0.539430 0.036155
O O14 0.500000 0.500000 0.000000
O O15 0.000000 0.000000 0.500000
O O16 0.433731 0.720639 0.886016
#
# Coordination Sequence:
#
# PCOD9046080 Si02
#       7
#     2   2   2   2   2   2   2
#     4  10  24  45  69 100 134 185 230 276 346 406
#     4  10  24  42  67 102 138 182 225 274 346 405
#     4   9  23  43  66  98 135 173 228 281 336 407
#     4  11  26  41  69 104 133 179 230 281 349 401
#     4  11  23  41  70 100 140 181 227 284 340 405
#     4  11  25  45  71 101 140 181 228 284 343 404
#     4  10  24  46  68  99 144 178 229 283 336 409
#
# _framework density 24.158484999999999
#
# number of rings (size 3 to 8) (size 9 to 14) (size 15 to 20)
#    0.000    1.714    0.000    2.143   12.000    9.143 
#    0.000    0.000    0.000    0.000    0.000    0.000 
#    0.000    0.000    0.000    0.000    0.000    0.000 
#
# Total GULP energy -78208.209222 kJ/mol
# GULP energy per Si atom -5586.300659 kJ/mol
# Density = 2.410350 g / cm^3
# Si number density = 24.158485 Si / 1000 Ang^3
#
#
#
# Elastic Constant Matrix: (Units=GPa)
#
#
# Indices 1 2 3 4 5 6 
#
# 1 74.4772 12.7806 48.9570 0.1514 -4.6728 1.4048
# 2 12.7806 153.5738 42.4808 2.6374 0.1203 29.2132
# 3 48.9570 42.4808 155.9471 -1.5819 -13.0145 15.9665
# 4 0.1514 2.6374 -1.5819 40.1285 2.8382 6.0515
# 5 -4.6728 0.1203 -13.0145 2.8382 50.1938 1.5629
# 6 1.4048 29.2132 15.9665 6.0515 1.5629 38.7459
#
#
#
# Elastic Compliance Matrix: (Units=1/GPa)
#
#
# Indices 1 2 3 4 5 6 
#
# 1 0.017040 -0.000260 -0.005468 -0.000561 0.000141 0.001914
# 2 -0.000260 0.007988 -0.001564 0.000249 -0.000295 -0.005396
# 3 -0.005468 -0.001564 0.008975 0.000724 0.001859 -0.002509
# 4 -0.000561 0.000249 0.000724 0.025686 -0.001180 -0.004430
# 5 0.000141 -0.000295 0.001859 -0.001180 0.020522 -0.001192
# 6 0.001914 -0.005396 -0.002509 -0.004430 -0.001192 0.031582
#
#
# Mechanical properties :
#
#
# Convention : Reuss Voigt Hill
#
# Bulk Modulus (GPa) = 51.49885 65.82609 58.66247
# Shear Modulus (GPa) = 37.63630 44.46561 41.05095
#
# Velocity S-wave (km/s) = 3.95130 4.29485 4.12665
# Velocity P-wave (km/s) = 6.49464 7.20424 6.85862
#
# Compressibility (1/GPa) = 0.01941791
#
# Stress axis : x y z
#
# Youngs Moduli (GPa) = 58.68513 125.18496 111.42611
#
# Poissons Ratio (x) = 0.03254 0.60933
# Poissons Ratio (y) = 0.01525 0.17428
# Poissons Ratio (z) = 0.32092 0.19580
#
# Static dielectric constant tensor:
#      x y z
#    x 2.063170 0.014370 0.041620 
#    y 0.014370 1.938180 0.036980 
#    z 0.041620 0.036980 1.900710 
# 
# From -- ./inp_files/224131.got.cif
#   From: 2010.05.17/outbox.cif.g08.bks.cpg/sg2_113_cif.got.tgz:224131.got - 2010.06.03 11:33:40.
