data_PCOD9046340
_publ_section_title
;
Structure prediction by ZEFSAII (Michael W. Deem and Ramdas Pophale) SiO2 
 PCOD9046340
Probable space group: P -1
;
_chemical_formula_sum "Si O2"
_cell_formula_units_Z 14
_cell_length_a 14.236713
_cell_length_b 11.039131
_cell_length_c 9.601313
_cell_angle_alpha 57.108985
_cell_angle_beta 150.679370
_cell_angle_gamma 112.077335
_cell_volume 602.743856
_symmetry_space_group_name_H-M "P -1"
_symmetry_group_IT_number 2
_symmetry_cell_setting 'triclinic'
loop_
_space_group_symop_operation_xyz
x,y,z
-x,-y,-z
loop_
_atom_site_type_symbol
_atom_site_label
_atom_site_fract_x
_atom_site_fract_y
_atom_site_fract_z
Si Si1 0.147644 0.606649 0.313260
Si Si2 0.763599 0.547707 0.190751
Si Si3 0.372108 0.941737 0.758761
Si Si4 0.947619 0.061877 0.050927
Si Si5 0.355196 0.646685 0.072189
Si Si6 0.638275 0.897491 0.854380
Si Si7 0.775253 0.542967 0.787455
O O1 0.254293 0.529861 0.635537
O O2 0.186691 0.496226 0.301093
O O3 0.180715 0.769338 0.229692
O O4 0.909367 0.628103 0.994569
O O5 0.000000 0.500000 0.500000
O O6 0.643243 0.484670 0.955223
O O7 0.697622 0.724081 0.003490
O O8 0.508628 0.913620 0.816458
O O9 0.322458 0.792503 0.847698
O O10 0.161959 0.054171 0.396188
O O11 0.500000 0.000000 0.000000
O O12 0.834607 0.961806 0.058362
O O13 0.000000 0.000000 0.000000
O O14 0.548615 0.632191 0.427472
O O15 0.197827 0.615149 0.999733
O O16 0.500000 0.000000 0.500000
#
# Coordination Sequence:
#
# PCOD9046340 Si02
#       7
#     2   2   2   2   2   2   2
#     4  11  24  45  70 103 137 188 240 294 363 437
#     4  12  25  45  77 107 146 189 254 307 356 440
#     4  12  28  48  73 110 155 193 251 310 378 446
#     4  12  26  47  75 105 150 196 243 304 375 439
#     4  11  24  44  71 102 139 190 241 302 363 430
#     4  12  29  48  77 111 152 201 249 304 380 445
#     4  10  24  42  70  98 141 179 241 294 365 429
#
# _framework density 23.227115999999999
#
# number of rings (size 3 to 8) (size 9 to 14) (size 15 to 20)
#    0.000    0.571    2.857    4.286    4.000    4.000 
#    0.000    0.000    0.000    0.000    0.000    0.000 
#    0.000    0.000    0.000    0.000    0.000    0.000 
#
# Total GULP energy -78267.656147 kJ/mol
# GULP energy per Si atom -5590.546868 kJ/mol
# Density = 2.317425 g / cm^3
# Si number density = 23.227116 Si / 1000 Ang^3
#
#
#
# Elastic Constant Matrix: (Units=GPa)
#
#
# Indices 1 2 3 4 5 6 
#
# 1 69.9841 6.1178 28.6973 -11.2487 -14.7760 17.3265
# 2 6.1178 109.6748 46.4277 -22.4701 -2.3789 15.2659
# 3 28.6973 46.4277 120.7339 -0.0131 -9.3990 2.4095
# 4 -11.2487 -22.4701 -0.0131 52.0310 3.8300 -4.2589
# 5 -14.7760 -2.3789 -9.3990 3.8300 41.0276 -0.8792
# 6 17.3265 15.2659 2.4095 -4.2589 -0.8792 34.5726
#
#
#
# Elastic Compliance Matrix: (Units=1/GPa)
#
#
# Indices 1 2 3 4 5 6 
#
# 1 0.021152 0.004019 -0.005898 0.004963 0.005796 -0.011205
# 2 0.004019 0.013697 -0.006075 0.006211 0.000123 -0.006871
# 3 -0.005898 -0.006075 0.011987 -0.003589 0.000699 0.004378
# 4 0.004963 0.006211 -0.003589 0.022858 -0.000855 -0.002186
# 5 0.005796 0.000123 0.000699 -0.000855 0.026656 -0.002435
# 6 -0.011205 -0.006871 0.004378 -0.002186 -0.002435 0.036938
#
#
# Mechanical properties :
#
#
# Convention : Reuss Voigt Hill
#
# Bulk Modulus (GPa) = 32.33268 51.43093 41.88181
# Shear Modulus (GPa) = 31.34713 40.13622 35.74168
#
# Velocity S-wave (km/s) = 3.67766 4.16142 3.92700
# Velocity P-wave (km/s) = 5.65545 6.72908 6.21549
#
# Compressibility (1/GPa) = 0.03092846
#
# Stress axis : x y z
#
# Youngs Moduli (GPa) = 47.27759 73.00940 83.42211
#
# Poissons Ratio (x) = -0.29342 0.49199
# Poissons Ratio (y) = -0.19001 0.50679
# Poissons Ratio (z) = 0.27883 0.44353
#
# Static dielectric constant tensor:
#      x y z
#    x 1.981850 0.096110 0.074930 
#    y 0.096110 1.933470 0.035050 
#    z 0.074930 0.035050 1.896710 
# 
# From -- ./inp_files/306643.got.cif
#   From: 2010.05.17/outbox.cif.g08.bks.cpg/sg2_154_cif.got.tgz:306643.got - 2010.06.03 11:33:40.
