data_PCOD9046291
_publ_section_title
;
Structure prediction by ZEFSAII (Michael W. Deem and Ramdas Pophale) SiO2 
 PCOD9046291
Probable space group: P -1
;
_chemical_formula_sum "Si O2"
_cell_formula_units_Z 13
_cell_length_a 13.398250
_cell_length_b 11.836259
_cell_length_c 5.124300
_cell_angle_alpha 102.493856
_cell_angle_beta 81.094600
_cell_angle_gamma 46.818437
_cell_volume 523.579181
_symmetry_space_group_name_H-M "P -1"
_symmetry_group_IT_number 2
_symmetry_cell_setting 'triclinic'
loop_
_space_group_symop_operation_xyz
x,y,z
-x,-y,-z
loop_
_atom_site_type_symbol
_atom_site_label
_atom_site_fract_x
_atom_site_fract_y
_atom_site_fract_z
Si Si1 0.955719 0.159859 0.722001
Si Si2 0.500000 0.000000 0.500000
Si Si3 0.886006 0.896047 0.858843
Si Si4 0.645520 0.686125 0.431072
Si Si5 0.562968 0.130354 0.978367
Si Si6 0.015476 0.563362 0.775111
Si Si7 0.604473 0.521851 0.017356
O O1 0.777172 0.334457 0.868331
O O2 0.031216 0.181102 0.491853
O O3 0.000000 0.000000 0.500000
O O4 0.024891 0.108307 0.958223
O O5 0.349690 0.212863 0.729517
O O6 0.595358 0.016146 0.672387
O O7 0.888530 0.768233 0.918111
O O8 0.713059 0.073367 0.961911
O O9 0.817803 0.520273 0.352113
O O10 0.509359 0.871305 0.737417
O O11 0.576916 0.622360 0.337555
O O12 0.433539 0.339690 0.095163
O O13 0.000000 0.500000 0.500000
O O14 0.000000 0.500000 0.000000
O O15 0.500000 0.500000 0.000000
#
# Coordination Sequence:
#
# PCOD9046291 Si02
#       7
#     2   1   2   2   2   2   2
#     4  12  27  50  78 109 153 197 257 317 381 454
#     4  10  24  42  70 102 146 186 250 298 372 436
#     4  12  27  49  74 113 151 197 254 316 382 456
#     4  11  25  45  71 106 146 193 248 307 371 452
#     4  11  26  45  77 106 152 197 253 312 384 454
#     4  12  27  45  74 107 150 199 248 308 382 445
#     4  11  26  48  75 107 148 200 253 312 382 455
#
# _framework density 24.829104000000001
#
# number of rings (size 3 to 8) (size 9 to 14) (size 15 to 20)
#    0.000    0.615    1.538    4.615   12.923    0.615 
#    0.000    0.000    0.000    0.000    0.000    0.000 
#    0.000    0.000    0.000    0.000    0.000    0.000 
#
# Total GULP energy -72376.401046 kJ/mol
# GULP energy per Si atom -5567.415465 kJ/mol
# Density = 2.477259 g / cm^3
# Si number density = 24.829104 Si / 1000 Ang^3
#
#
#
# Elastic Constant Matrix: (Units=GPa)
#
#
# Indices 1 2 3 4 5 6 
#
# 1 140.3523 26.1064 50.6394 6.3468 20.6592 -10.9800
# 2 26.1064 75.5818 23.9162 20.4387 15.0542 -8.4398
# 3 50.6394 23.9162 106.9087 -5.9708 16.6104 -11.9344
# 4 6.3468 20.4387 -5.9708 51.6955 2.6776 4.8817
# 5 20.6592 15.0542 16.6104 2.6776 50.7742 9.5311
# 6 -10.9800 -8.4398 -11.9344 4.8817 9.5311 55.4993
#
#
#
# Elastic Compliance Matrix: (Units=1/GPa)
#
#
# Indices 1 2 3 4 5 6 
#
# 1 0.009147 -0.001073 -0.003626 -0.001123 -0.002418 0.001381
# 2 -0.001073 0.017636 -0.002853 -0.007261 -0.004076 0.003195
# 3 -0.003626 -0.002853 0.012399 0.002965 -0.002198 0.001632
# 4 -0.001123 -0.007261 0.002965 0.022916 0.000970 -0.002871
# 5 -0.002418 -0.004076 -0.002198 0.000970 0.023628 -0.005714
# 6 0.001381 0.003195 0.001632 -0.002871 -0.005714 0.020362
#
#
# Mechanical properties :
#
#
# Convention : Reuss Voigt Hill
#
# Bulk Modulus (GPa) = 41.52950 58.24076 49.88513
# Shear Modulus (GPa) = 38.69475 46.40585 42.55030
#
# Velocity S-wave (km/s) = 3.95199 4.32790 4.14421
# Velocity P-wave (km/s) = 6.13081 6.96289 6.56005
#
# Compressibility (1/GPa) = 0.02407927
#
# Stress axis : x y z
#
# Youngs Moduli (GPa) = 109.32148 56.70186 80.65484
#
# Poissons Ratio (x) = 0.06084 0.29243
# Poissons Ratio (y) = 0.11729 0.23008
# Poissons Ratio (z) = 0.39637 0.16175
#
# Static dielectric constant tensor:
#      x y z
#    x 2.056160 -0.177280 0.091710 
#    y -0.177280 1.662990 0.265700 
#    z 0.091710 0.265700 1.659010 
# 
# From -- ./inp_files/24253.got.cif
#   From: 2010.05.17/outbox.cif.g08.bks.cpg/sg2_13_cif.got.tgz:24253.got - 2010.06.03 11:33:40.
