data_PCOD9046105
_publ_section_title
;
Structure prediction by ZEFSAII (Michael W. Deem and Ramdas Pophale) SiO2 
 PCOD9046105
Probable space group: P -1
;
_chemical_formula_sum "Si O2"
_cell_formula_units_Z 16
_cell_length_a 8.880676
_cell_length_b 11.853928
_cell_length_c 12.007275
_cell_angle_alpha 95.653004
_cell_angle_beta 143.084914
_cell_angle_gamma 81.853134
_cell_volume 751.312563
_symmetry_space_group_name_H-M "P -1"
_symmetry_group_IT_number 2
_symmetry_cell_setting 'triclinic'
loop_
_space_group_symop_operation_xyz
x,y,z
-x,-y,-z
loop_
_atom_site_type_symbol
_atom_site_label
_atom_site_fract_x
_atom_site_fract_y
_atom_site_fract_z
Si Si1 0.473797 0.251536 0.066785
Si Si2 0.787275 0.917552 0.948474
Si Si3 0.023462 0.436990 0.833253
Si Si4 0.949237 0.775529 0.595781
Si Si5 0.190202 0.469407 0.506573
Si Si6 0.494493 0.830012 0.174491
Si Si7 0.217514 0.043891 0.298364
Si Si8 0.257481 0.620419 0.123933
O O1 0.347834 0.170631 0.069143
O O2 0.762661 0.256328 0.270865
O O3 0.295996 0.368930 0.967581
O O4 0.482515 0.199326 0.943749
O O5 0.791733 0.888500 0.817658
O O6 0.631786 0.042480 0.873068
O O7 0.055234 0.939326 0.163138
O O8 0.877690 0.451355 0.631967
O O9 0.874010 0.372920 0.832393
O O10 0.075755 0.558111 0.929069
O O11 0.850650 0.658940 0.567917
O O12 0.768875 0.816412 0.391220
O O13 0.914752 0.874178 0.677551
O O14 0.479584 0.460946 0.714645
O O15 0.000000 0.500000 0.500000
O O16 0.334221 0.738048 0.130683
O O17 0.500000 0.000000 0.500000
#
# Coordination Sequence:
#
# PCOD9046105 Si02
#       8
#     2   2   2   2   2   2   2   2
#     4  12  26  41  63  99 133 173 219 268 328 392
#     4  11  26  42  68  94 133 170 218 272 327 385
#     4  11  24  41  66  96 130 173 219 270 325 391
#     4  11  24  41  69  96 129 175 218 269 331 389
#     4  11  23  43  68  98 135 171 215 272 329 392
#     4  11  23  44  66  93 131 171 217 270 331 387
#     4  11  24  44  67  95 127 171 222 268 325 388
#     4  10  24  42  67  94 128 170 221 272 327 386
#
# _framework density 21.296064999999999
#
# number of rings (size 3 to 8) (size 9 to 14) (size 15 to 20)
#    0.000    1.000    2.500    3.750    3.500    4.000 
#    0.000    2.500    0.000    0.000    0.000    0.000 
#    0.000    0.000    0.000    0.000    0.000    0.000 
#
# Total GULP energy -89523.454662 kJ/mol
# GULP energy per Si atom -5595.215916 kJ/mol
# Density = 2.124759 g / cm^3
# Si number density = 21.296065 Si / 1000 Ang^3
#
#
#
# Elastic Constant Matrix: (Units=GPa)
#
#
# Indices 1 2 3 4 5 6 
#
# 1 54.8948 -23.4324 14.7680 -6.2516 -3.1749 -0.0382
# 2 -23.4324 30.1448 -5.8302 -13.2643 -3.1870 -2.7350
# 3 14.7680 -5.8302 102.7715 -14.7642 3.0071 7.6341
# 4 -6.2516 -13.2643 -14.7642 28.7204 -5.3008 8.6255
# 5 -3.1749 -3.1870 3.0071 -5.3008 31.1496 -10.7479
# 6 -0.0382 -2.7350 7.6341 8.6255 -10.7479 33.6656
#
#
#
# Elastic Compliance Matrix: (Units=1/GPa)
#
#
# Indices 1 2 3 4 5 6 
#
# 1 0.048217 0.057979 0.001897 0.041707 0.017497 -0.000765
# 2 0.057979 0.116778 0.008767 0.077324 0.029156 -0.002938
# 3 0.001897 0.008767 0.012085 0.012248 0.000254 -0.005083
# 4 0.041707 0.077324 0.012248 0.094058 0.022360 -0.013409
# 5 0.017497 0.029156 0.000254 0.022360 0.044365 0.010766
# 6 -0.000765 -0.002938 -0.005083 -0.013409 0.010766 0.037489
#
#
# Mechanical properties :
#
#
# Convention : Reuss Voigt Hill
#
# Bulk Modulus (GPa) = 3.18101 17.64687 10.41394
# Shear Modulus (GPa) = 15.60095 32.19416 23.89756
#
# Velocity S-wave (km/s) = 2.70955 3.89233 3.35350
# Velocity P-wave (km/s) = 3.35944 5.33898 4.46041
#
# Compressibility (1/GPa) = 0.31436572
#
# Stress axis : x y z
#
# Youngs Moduli (GPa) = 20.73978 8.56326 82.74942
#
# Poissons Ratio (x) = -0.49649 -0.15698
# Poissons Ratio (y) = -1.20248 -0.72545
# Poissons Ratio (z) = -0.03935 -0.07507
#
# Static dielectric constant tensor:
#      x y z
#    x 1.753920 -0.024600 0.011880 
#    y -0.024600 1.758210 -0.003400 
#    z 0.011880 -0.003400 1.772240 
# 
# From -- ./inp_files/390548.got.cif
#   From: 2010.05.17/outbox.cif.g08.bks.cpg/sg2_196_cif.got.tgz:390548.got - 2010.06.03 11:33:40.
