data_PCOD9046234
_publ_section_title
;
Structure prediction by ZEFSAII (Michael W. Deem and Ramdas Pophale) SiO2 
 PCOD9046234
Probable space group: P -1
;
_chemical_formula_sum "Si O2"
_cell_formula_units_Z 16
_cell_length_a 12.118831
_cell_length_b 12.613656
_cell_length_c 5.067714
_cell_angle_alpha 95.223467
_cell_angle_beta 58.746151
_cell_angle_gamma 83.400920
_cell_volume 647.419086
_symmetry_space_group_name_H-M "P -1"
_symmetry_group_IT_number 2
_symmetry_cell_setting 'triclinic'
loop_
_space_group_symop_operation_xyz
x,y,z
-x,-y,-z
loop_
_atom_site_type_symbol
_atom_site_label
_atom_site_fract_x
_atom_site_fract_y
_atom_site_fract_z
Si Si1 0.050739 0.722241 0.677112
Si Si2 0.060673 0.579212 0.137746
Si Si3 0.308575 0.398475 0.914923
Si Si4 0.363204 0.976341 0.943470
Si Si5 0.337275 0.780142 0.255141
Si Si6 0.073964 0.037015 0.162332
Si Si7 0.564569 0.823828 0.314346
Si Si8 0.461470 0.409839 0.223429
O O1 0.012594 0.638946 0.486892
O O2 0.195238 0.750527 0.450708
O O3 0.948573 0.833511 0.794154
O O4 0.065574 0.675470 0.944607
O O5 0.188606 0.496413 0.058820
O O6 0.000000 0.500000 0.000000
O O7 0.317671 0.274033 0.779389
O O8 0.406884 0.436312 0.587168
O O9 0.344423 0.382079 0.176141
O O10 0.495991 0.905341 0.641291
O O11 0.389365 0.098312 0.945483
O O12 0.329409 0.904765 0.211117
O O13 0.228459 0.986490 0.947649
O O14 0.442604 0.769051 0.358878
O O15 0.417828 0.691109 0.936700
O O16 0.000000 0.000000 0.500000
O O17 0.000000 0.000000 0.000000
O O18 0.500000 0.500000 0.000000
#
# Coordination Sequence:
#
# PCOD9046234 Si02
#       8
#     2   2   2   2   2   2   2   2
#     4  12  27  47  76 107 143 195 242 303 363 429
#     4  12  28  50  72 103 145 190 250 299 363 432
#     4  11  23  43  64  99 131 182 228 287 352 425
#     4  11  23  44  68 103 146 190 242 298 368 439
#     4  11  22  41  68 101 144 180 236 297 362 437
#     4  12  26  48  75 111 148 193 247 303 361 434
#     4  10  24  42  69 104 145 188 236 301 373 433
#     4  11  22  38  65  98 133 171 226 284 357 418
#
# _framework density 24.713514
#
# number of rings (size 3 to 8) (size 9 to 14) (size 15 to 20)
#    0.000    0.750    2.500    4.875    3.500    1.000 
#    2.250    0.000    0.000    0.000    0.000    0.000 
#    0.000    0.000    0.000    0.000    0.000    0.000 
#
# Total GULP energy -89292.061781 kJ/mol
# GULP energy per Si atom -5580.753861 kJ/mol
# Density = 2.465727 g / cm^3
# Si number density = 24.713514 Si / 1000 Ang^3
#
#
#
# Elastic Constant Matrix: (Units=GPa)
#
#
# Indices 1 2 3 4 5 6 
#
# 1 65.1777 1.2803 16.7244 -14.6688 19.7182 -6.8985
# 2 1.2803 142.3876 31.7199 -1.8119 2.8821 -26.7525
# 3 16.7244 31.7199 76.2515 -7.1696 26.1356 -11.3603
# 4 -14.6688 -1.8119 -7.1696 37.4311 -0.2429 -4.5098
# 5 19.7182 2.8821 26.1356 -0.2429 27.1023 -1.8596
# 6 -6.8985 -26.7525 -11.3603 -4.5098 -1.8596 46.4941
#
#
#
# Elastic Compliance Matrix: (Units=1/GPa)
#
#
# Indices 1 2 3 4 5 6 
#
# 1 0.023218 0.000526 0.002999 0.010137 -0.019428 0.004687
# 2 0.000526 0.008659 -0.004042 0.000379 0.002888 0.004225
# 3 0.002999 -0.004042 0.023438 0.005727 -0.024067 0.003439
# 4 0.010137 0.000379 0.005727 0.032420 -0.012252 0.005776
# 5 -0.019428 0.002888 -0.024067 -0.012252 0.073456 -0.005352
# 6 0.004687 0.004225 0.003439 0.005776 -0.005352 0.025821
#
#
# Mechanical properties :
#
#
# Convention : Reuss Voigt Hill
#
# Bulk Modulus (GPa) = 18.42278 42.58510 30.50394
# Shear Modulus (GPa) = 24.25537 37.81165 31.03351
#
# Velocity S-wave (km/s) = 3.13623 3.91576 3.54747
# Velocity P-wave (km/s) = 4.53710 6.14111 5.39900
#
# Compressibility (1/GPa) = 0.05428063
#
# Stress axis : x y z
#
# Youngs Moduli (GPa) = 43.07058 115.48669 42.66550
#
# Poissons Ratio (x) = -0.06073 -0.12796
# Poissons Ratio (y) = -0.02265 0.17246
# Poissons Ratio (z) = -0.12918 0.46682
#
# Static dielectric constant tensor:
#      x y z
#    x 2.105840 0.097970 0.038880 
#    y 0.097970 2.050830 0.031840 
#    z 0.038880 0.031840 2.019650 
# 
# From -- ./inp_files/70263.got.cif
#   From: 2010.05.17/outbox.cif.g08.bks.cpg/sg2_36_cif.got.tgz:70263.got - 2010.06.03 11:33:40.
