data_PCOD9046450
_publ_section_title
;
Structure prediction by ZEFSAII (Michael W. Deem and Ramdas Pophale) SiO2 
 PCOD9046450
Probable space group: P -1
;
_chemical_formula_sum "Si O2"
_cell_formula_units_Z 14
_cell_length_a 17.256083
_cell_length_b 9.108997
_cell_length_c 5.411105
_cell_angle_alpha 126.763749
_cell_angle_beta 72.075284
_cell_angle_gamma 125.188108
_cell_volume 555.973286
_symmetry_space_group_name_H-M "P -1"
_symmetry_group_IT_number 2
_symmetry_cell_setting 'triclinic'
loop_
_space_group_symop_operation_xyz
x,y,z
-x,-y,-z
loop_
_atom_site_type_symbol
_atom_site_label
_atom_site_fract_x
_atom_site_fract_y
_atom_site_fract_z
Si Si1 0.122096 0.969791 0.570347
Si Si2 0.276424 0.831153 0.286750
Si Si3 0.585023 0.590274 0.703370
Si Si4 0.856742 0.479189 0.531382
Si Si5 0.230972 0.397983 0.650369
Si Si6 0.538101 0.842867 0.357145
Si Si7 0.031944 0.740087 0.941082
O O1 0.200708 0.902470 0.382656
O O2 0.076145 0.888740 0.802819
O O3 0.175369 0.222719 0.737945
O O4 0.049794 0.860992 0.302526
O O5 0.242911 0.717937 0.475153
O O6 0.381004 0.036034 0.394359
O O7 0.269781 0.641059 0.938664
O O8 0.500000 0.500000 0.500000
O O9 0.683235 0.633999 0.543491
O O10 0.549262 0.389989 0.723535
O O11 0.590140 0.790414 0.036443
O O12 0.836994 0.633855 0.544947
O O13 0.914620 0.393898 0.234490
O O14 0.923913 0.579567 0.806479
O O15 0.500000 0.000000 0.500000
#
# Coordination Sequence:
#
# PCOD9046450 Si02
#       7
#     2   2   2   2   2   2   2
#     4  11  26  44  74 102 150 194 247 300 369 420
#     4  11  25  44  68 104 143 190 238 303 362 435
#     4  11  26  45  71 105 142 181 236 295 360 441
#     4  10  24  42  72  99 146 188 252 291 366 426
#     4  12  26  42  70 106 142 188 247 297 363 437
#     4  11  25  46  74 102 140 186 233 293 367 437
#     4  10  24  47  71 104 146 200 242 310 358 430
#
# _framework density 25.181066000000001
#
# number of rings (size 3 to 8) (size 9 to 14) (size 15 to 20)
#    0.000    1.143    1.429    2.571    8.000    9.714 
#    0.000    0.000    0.000    0.000    0.000    0.000 
#    0.000    0.000    0.000    0.000    0.000    0.000 
#
# Total GULP energy -78474.271454 kJ/mol
# GULP energy per Si atom -5605.305104 kJ/mol
# Density = 2.512375 g / cm^3
# Si number density = 25.181066 Si / 1000 Ang^3
#
#
#
# Elastic Constant Matrix: (Units=GPa)
#
#
# Indices 1 2 3 4 5 6 
#
# 1 107.2007 33.2866 38.0983 -1.0031 -15.8203 -15.1881
# 2 33.2866 108.0212 22.7779 4.3818 -2.1436 -8.5023
# 3 38.0983 22.7779 125.7970 16.6312 -10.3178 -13.0878
# 4 -1.0031 4.3818 16.6312 30.9291 -3.1716 1.2827
# 5 -15.8203 -2.1436 -10.3178 -3.1716 50.2521 3.6865
# 6 -15.1881 -8.5023 -13.0878 1.2827 3.6865 39.1226
#
#
#
# Elastic Compliance Matrix: (Units=1/GPa)
#
#
# Indices 1 2 3 4 5 6 
#
# 1 0.012157 -0.002954 -0.002958 0.002604 0.003059 0.002714
# 2 -0.002954 0.010447 -0.000793 -0.001272 -0.000799 0.000975
# 3 -0.002958 -0.000793 0.009969 -0.005373 0.000586 0.002135
# 4 0.002604 -0.001272 -0.005373 0.035802 0.002101 -0.002434
# 5 0.003059 -0.000799 0.000586 0.002101 0.021144 -0.000851
# 6 0.002714 0.000975 0.002135 -0.002434 -0.000851 0.027701
#
#
# Mechanical properties :
#
#
# Convention : Reuss Voigt Hill
#
# Bulk Modulus (GPa) = 52.18063 58.81607 55.49835
# Shear Modulus (GPa) = 36.49146 40.51784 38.50465
#
# Velocity S-wave (km/s) = 3.81092 4.01566 3.91463
# Velocity P-wave (km/s) = 6.33492 6.70139 6.52073
#
# Compressibility (1/GPa) = 0.01916420
#
# Stress axis : x y z
#
# Youngs Moduli (GPa) = 82.25621 95.71784 100.30804
#
# Poissons Ratio (x) = 0.28273 0.29671
# Poissons Ratio (y) = 0.24296 0.07955
# Poissons Ratio (z) = 0.24332 0.07591
#
# Static dielectric constant tensor:
#      x y z
#    x 1.948590 -0.025800 0.030500 
#    y -0.025800 2.034610 -0.023300 
#    z 0.030500 -0.023300 2.027350 
# 
# From -- ./inp_files/107782.got.cif
#   From: 2010.05.17/outbox.cif.g08.bks.cpg/sg2_54_cif.got.tgz:107782.got - 2010.06.03 11:33:40.
