data_PCOD9046115
_publ_section_title
;
Structure prediction by ZEFSAII (Michael W. Deem and Ramdas Pophale) SiO2 
 PCOD9046115
Probable space group: P -1
;
_chemical_formula_sum "Si O2"
_cell_formula_units_Z 16
_cell_length_a 6.507989
_cell_length_b 16.470839
_cell_length_c 14.288843
_cell_angle_alpha 31.336728
_cell_angle_beta 120.658919
_cell_angle_gamma 113.765082
_cell_volume 683.399128
_symmetry_space_group_name_H-M "P -1"
_symmetry_group_IT_number 2
_symmetry_cell_setting 'triclinic'
loop_
_space_group_symop_operation_xyz
x,y,z
-x,-y,-z
loop_
_atom_site_type_symbol
_atom_site_label
_atom_site_fract_x
_atom_site_fract_y
_atom_site_fract_z
Si Si1 0.545770 0.953907 0.784897
Si Si2 0.604433 0.667790 0.853146
Si Si3 0.776593 0.074334 0.529218
Si Si4 0.259914 0.221981 0.559566
Si Si5 0.661196 0.528692 0.815604
Si Si6 0.205320 0.365345 0.798474
Si Si7 0.259515 0.417154 0.539232
Si Si8 0.055175 0.778085 0.834268
O O1 0.302641 0.859031 0.831526
O O2 0.633047 0.017664 0.642232
O O3 0.476675 0.103260 0.688621
O O4 0.752275 0.819807 0.990851
O O5 0.395618 0.800954 0.689074
O O6 0.663624 0.664521 0.759216
O O7 0.854502 0.696115 0.933737
O O8 0.500000 0.500000 0.000000
O O9 0.009191 0.154237 0.540840
O O10 0.876719 0.933474 0.623171
O O11 0.270979 0.387488 0.346164
O O12 0.265694 0.261457 0.631127
O O13 0.407005 0.457417 0.809059
O O14 0.837605 0.381124 0.032871
O O15 0.238136 0.382588 0.677566
O O16 0.953771 0.459794 0.665342
O O17 0.500000 0.500000 0.500000
#
# Coordination Sequence:
#
# PCOD9046115 Si02
#       8
#     2   2   2   2   2   2   2   2
#     4  10  24  44  65  94 135 176 214 266 328 389
#     4  12  25  42  67  98 131 174 224 274 323 380
#     4  11  24  44  65  94 133 178 216 267 331 387
#     4  11  23  42  69  96 130 171 220 265 327 387
#     4  11  22  45  66  95 133 170 219 270 323 388
#     4  10  24  42  67  98 131 173 212 266 326 390
#     4  11  23  41  70 102 130 163 219 269 323 388
#     4  10  25  41  64  95 131 173 219 270 322 377
#
# _framework density 23.412379999999999
#
# number of rings (size 3 to 8) (size 9 to 14) (size 15 to 20)
#    0.000    1.250    2.500    2.250    5.250    2.000 
#    0.000    1.250    0.000    0.000    0.000    0.000 
#    0.000    0.000    0.000    0.000    0.000    0.000 
#
# Total GULP energy -89238.061122 kJ/mol
# GULP energy per Si atom -5577.378820 kJ/mol
# Density = 2.335909 g / cm^3
# Si number density = 23.412380 Si / 1000 Ang^3
#
#
#
# Elastic Constant Matrix: (Units=GPa)
#
#
# Indices 1 2 3 4 5 6 
#
# 1 122.7332 53.8343 61.3624 -11.6262 20.9012 0.8013
# 2 53.8343 98.6148 22.4079 -14.6337 14.8577 -13.0946
# 3 61.3624 22.4079 125.7342 -19.1323 23.1389 -5.7317
# 4 -11.6262 -14.6337 -19.1323 32.5938 -6.7307 4.6637
# 5 20.9012 14.8577 23.1389 -6.7307 49.8818 -15.3504
# 6 0.8013 -13.0946 -5.7317 4.6637 -15.3504 48.5105
#
#
#
# Elastic Compliance Matrix: (Units=1/GPa)
#
#
# Indices 1 2 3 4 5 6 
#
# 1 0.014275 -0.006770 -0.005640 -0.001301 -0.002577 -0.003420
# 2 -0.006770 0.014704 0.001641 0.004509 -0.000569 0.003661
# 3 -0.005640 0.001641 0.011689 0.004945 -0.002700 0.000588
# 4 -0.001301 0.004509 0.004945 0.035590 0.001350 -0.001171
# 5 -0.002577 -0.000569 -0.002700 0.001350 0.024993 0.007349
# 6 -0.003420 0.003661 0.000588 -0.001171 0.007349 0.024166
#
#
# Mechanical properties :
#
#
# Convention : Reuss Voigt Hill
#
# Bulk Modulus (GPa) = 52.27032 69.14349 60.70691
# Shear Modulus (GPa) = 32.60890 40.16240 36.38565
#
# Velocity S-wave (km/s) = 3.73608 4.14627 3.94651
# Velocity P-wave (km/s) = 6.40199 7.24701 6.83756
#
# Compressibility (1/GPa) = 0.01913132
#
# Stress axis : x y z
#
# Youngs Moduli (GPa) = 70.05279 68.00663 85.54821
#
# Poissons Ratio (x) = 0.46042 0.48247
# Poissons Ratio (y) = 0.47427 -0.14041
# Poissons Ratio (z) = 0.39508 -0.11162
#
# Static dielectric constant tensor:
#      x y z
#    x 1.960850 -0.016650 -0.042800 
#    y -0.016650 1.896540 0.005110 
#    z -0.042800 0.005110 1.897720 
# 
# From -- ./inp_files/317691.got.cif
#   From: 2010.05.17/outbox.cif.g08.bks.cpg/sg2_159_cif.got.tgz:317691.got - 2010.06.03 11:33:40.
