data_PCOD9046430
_publ_section_title
;
Structure prediction by ZEFSAII (Michael W. Deem and Ramdas Pophale) SiO2 
 PCOD9046430
Probable space group: P -1
;
_chemical_formula_sum "Si O2"
_cell_formula_units_Z 14
_cell_length_a 8.530295
_cell_length_b 8.829837
_cell_length_c 19.762492
_cell_angle_alpha 42.638044
_cell_angle_beta 133.562889
_cell_angle_gamma 112.299439
_cell_volume 705.527507
_symmetry_space_group_name_H-M "P -1"
_symmetry_group_IT_number 2
_symmetry_cell_setting 'triclinic'
loop_
_space_group_symop_operation_xyz
x,y,z
-x,-y,-z
loop_
_atom_site_type_symbol
_atom_site_label
_atom_site_fract_x
_atom_site_fract_y
_atom_site_fract_z
Si Si1 0.083718 0.142798 0.694106
Si Si2 0.290360 0.390608 0.051933
Si Si3 0.214630 0.664193 0.806433
Si Si4 0.058264 0.159507 0.153305
Si Si5 0.101634 0.219089 0.446336
Si Si6 0.790284 0.431049 0.399348
Si Si7 0.511853 0.899222 0.612298
O O1 0.264214 0.293520 0.700075
O O2 0.877607 0.300824 0.538111
O O3 0.160900 0.905183 0.752810
O O4 0.016129 0.067213 0.772351
O O5 0.552860 0.346373 0.158849
O O6 0.185481 0.186898 0.113245
O O7 0.255250 0.457679 0.940665
O O8 0.154672 0.620499 0.975569
O O9 0.017748 0.664891 0.695544
O O10 0.239696 0.177757 0.259167
O O11 0.005857 0.373225 0.431724
O O12 0.361651 0.104831 0.546923
O O13 0.000000 0.000000 0.500000
O O14 0.603448 0.314003 0.354089
O O15 0.500000 0.000000 0.500000
#
# Coordination Sequence:
#
# PCOD9046430 Si02
#       7
#     2   2   2   2   2   2   2
#     4  10  19  34  52  77 112 138 166 218 260 324
#     4   9  19  31  54  76  98 140 187 217 244 297
#     4  10  17  34  56  78 103 136 183 218 249 308
#     4  10  19  33  52  79 107 135 177 220 257 301
#     4  10  18  31  53  80 104 138 169 215 259 320
#     4  10  20  33  51  80 111 139 167 203 281 318
#     4  11  18  32  54  81 108 136 167 224 263 310
#
# _framework density 19.843309000000001
#
# number of rings (size 3 to 8) (size 9 to 14) (size 15 to 20)
#    0.000    2.000    4.286    2.571    0.000    0.000 
#    0.000    2.143    0.000   32.571    0.000    0.000 
#    0.000    0.000    0.000    0.000    0.000    0.000 
#
# Total GULP energy -78027.738015 kJ/mol
# GULP energy per Si atom -5573.409858 kJ/mol
# Density = 1.979814 g / cm^3
# Si number density = 19.843309 Si / 1000 Ang^3
#
#
#
# Elastic Constant Matrix: (Units=GPa)
#
#
# Indices 1 2 3 4 5 6 
#
# 1 92.4323 8.1960 25.5656 -11.6565 -8.3300 8.2182
# 2 8.1960 46.3844 17.1522 -5.4799 -1.9131 7.7357
# 3 25.5656 17.1522 71.6871 -3.7965 -14.5639 12.1208
# 4 -11.6565 -5.4799 -3.7965 15.2199 6.3895 -5.6057
# 5 -8.3300 -1.9131 -14.5639 6.3895 43.2388 0.1523
# 6 8.2182 7.7357 12.1208 -5.6057 0.1523 25.6306
#
#
#
# Elastic Compliance Matrix: (Units=1/GPa)
#
#
# Indices 1 2 3 4 5 6 
#
# 1 0.013125 0.000383 -0.004288 0.009112 -0.000244 -0.000302
# 2 0.000383 0.024885 -0.005477 0.007359 -0.001745 -0.003424
# 3 -0.004288 -0.005477 0.018968 -0.005798 0.006203 -0.007247
# 4 0.009112 0.007359 -0.005798 0.085139 -0.012510 0.016295
# 5 -0.000244 -0.001745 0.006203 -0.012510 0.026959 -0.005224
# 6 -0.000302 -0.003424 -0.007247 0.016295 -0.005224 0.047168
#
#
# Mechanical properties :
#
#
# Convention : Reuss Voigt Hill
#
# Bulk Modulus (GPa) = 26.16869 34.70348 30.43609
# Shear Modulus (GPa) = 20.18208 27.45719 23.81963
#
# Velocity S-wave (km/s) = 3.19262 3.72385 3.46842
# Velocity P-wave (km/s) = 5.17752 6.00134 5.60459
#
# Compressibility (1/GPa) = 0.03821360
#
# Stress axis : x y z
#
# Youngs Moduli (GPa) = 76.19208 40.18512 52.72149
#
# Poissons Ratio (x) = -0.01541 0.22609
# Poissons Ratio (y) = -0.02921 0.28874
# Poissons Ratio (z) = 0.32675 0.22008
#
# Static dielectric constant tensor:
#      x y z
#    x 1.771140 -0.022470 -0.029660 
#    y -0.022470 1.714760 -0.009080 
#    z -0.029660 -0.009080 1.725730 
# 
# From -- ./inp_files/172673.got.cif
#   From: 2010.05.17/outbox.cif.g08.bks.cpg/sg2_87_cif.got.tgz:172673.got - 2010.06.03 11:33:40.
