data_PCOD9046692
_publ_section_title
;
Structure prediction by ZEFSAII (Michael W. Deem and Ramdas Pophale) SiO2 
 PCOD9046692
Probable space group: P -1
;
_chemical_formula_sum "Si O2"
_cell_formula_units_Z 16
_cell_length_a 11.212793
_cell_length_b 16.827740
_cell_length_c 8.630155
_cell_angle_alpha 53.074606
_cell_angle_beta 73.287767
_cell_angle_gamma 33.883558
_cell_volume 639.097077
_symmetry_space_group_name_H-M "P -1"
_symmetry_group_IT_number 2
_symmetry_cell_setting 'triclinic'
loop_
_space_group_symop_operation_xyz
x,y,z
-x,-y,-z
loop_
_atom_site_type_symbol
_atom_site_label
_atom_site_fract_x
_atom_site_fract_y
_atom_site_fract_z
Si Si1 0.560585 0.349378 0.091481
Si Si2 0.762525 0.043808 0.563686
Si Si3 0.652842 0.983530 0.393403
Si Si4 0.807774 0.651138 0.033740
Si Si5 0.940822 0.327336 0.978936
Si Si6 0.495675 0.219152 0.754381
Si Si7 0.935723 0.812482 0.215505
Si Si8 0.675912 0.297058 0.748106
O O1 0.744853 0.164526 0.352248
O O2 0.500000 0.500000 0.000000
O O3 0.625133 0.309531 0.933448
O O4 0.297356 0.479731 0.063543
O O5 0.761683 0.974070 0.497590
O O6 0.526548 0.193912 0.587261
O O7 0.976713 0.843418 0.815835
O O8 0.452515 0.184529 0.143033
O O9 0.500000 0.000000 0.500000
O O10 0.859564 0.808190 0.403378
O O11 0.859197 0.728728 0.981102
O O12 0.757228 0.625133 0.243413
O O13 0.000000 0.500000 0.000000
O O14 0.898289 0.355017 0.777079
O O15 0.621398 0.236071 0.741565
O O16 0.684327 0.004907 0.993546
O O17 0.061530 0.829171 0.203361
O O18 0.500000 0.500000 0.500000
#
# Coordination Sequence:
#
# PCOD9046692 Si02
#       8
#     2   2   2   2   2   2   2   2
#     4  12  25  47  69 104 145 180 238 291 350 421
#     4  11  25  45  69 104 139 182 237 286 356 413
#     4  11  23  42  68 101 139 180 232 288 345 421
#     4  11  23  44  70 102 141 181 232 294 352 420
#     4  11  24  45  73 103 139 187 231 290 355 415
#     4  10  24  43  70  99 139 183 233 286 353 419
#     4  10  24  43  67 101 135 182 231 282 346 416
#     4  12  25  45  69  98 142 184 231 289 350 415
#
# _framework density 25.035319999999999
#
# number of rings (size 3 to 8) (size 9 to 14) (size 15 to 20)
#    0.000    1.000    2.500    4.125    3.500    3.000 
#    0.000    1.250    0.000    0.000    0.000    0.000 
#    0.000    0.000    0.000    0.000    0.000    0.000 
#
# Total GULP energy -89369.576478 kJ/mol
# GULP energy per Si atom -5585.598530 kJ/mol
# Density = 2.497834 g / cm^3
# Si number density = 25.035320 Si / 1000 Ang^3
#
#
#
# Elastic Constant Matrix: (Units=GPa)
#
#
# Indices 1 2 3 4 5 6 
#
# 1 53.9799 3.5592 8.3134 8.7808 -12.7590 3.8172
# 2 3.5592 124.0544 60.9783 28.2323 -3.4288 -7.7868
# 3 8.3134 60.9783 121.0478 21.9672 -8.2898 0.2462
# 4 8.7808 28.2323 21.9672 55.1766 2.4800 -3.0902
# 5 -12.7590 -3.4288 -8.2898 2.4800 32.3944 2.1859
# 6 3.8172 -7.7868 0.2462 -3.0902 2.1859 38.6944
#
#
#
# Elastic Compliance Matrix: (Units=1/GPa)
#
#
# Indices 1 2 3 4 5 6 
#
# 1 0.021537 0.000592 -0.000410 -0.004128 0.008948 -0.002838
# 2 0.000592 0.011596 -0.005162 -0.003875 0.000303 0.001981
# 3 -0.000410 -0.005162 0.011430 -0.002032 0.002465 -0.001373
# 4 -0.004128 -0.003875 -0.002032 0.021859 -0.004340 0.001631
# 5 0.008948 0.000303 0.002465 -0.004340 0.035605 -0.003195
# 6 -0.002838 0.001981 -0.001373 0.001631 -0.003195 0.026842
#
#
# Mechanical properties :
#
#
# Convention : Reuss Voigt Hill
#
# Bulk Modulus (GPa) = 28.89885 49.42042 39.15963
# Shear Modulus (GPa) = 33.25301 40.33515 36.79408
#
# Velocity S-wave (km/s) = 3.64846 4.01824 3.83781
# Velocity P-wave (km/s) = 5.41449 6.42740 5.94256
#
# Compressibility (1/GPa) = 0.03460345
#
# Stress axis : x y z
#
# Youngs Moduli (GPa) = 46.43231 86.23559 87.48724
#
# Poissons Ratio (x) = -0.05107 0.03584
# Poissons Ratio (y) = -0.02750 0.45164
# Poissons Ratio (z) = 0.01902 0.44518
#
# Static dielectric constant tensor:
#      x y z
#    x 1.949940 -0.050560 -0.033250 
#    y -0.050560 2.086750 0.173510 
#    z -0.033250 0.173510 2.490900 
# 
# From -- ./inp_files/278985.got.cif
#   From: 2010.05.17/outbox.cif.g08.bks.cpg/sg2_140_cif.got.tgz:278985.got - 2010.06.03 11:33:40.
