data_PCOD9046022
_publ_section_title
;
Structure prediction by ZEFSAII (Michael W. Deem and Ramdas Pophale) SiO2 
 PCOD9046022
Probable space group: P -1
;
_chemical_formula_sum "Si O2"
_cell_formula_units_Z 15
_cell_length_a 15.495479
_cell_length_b 6.738196
_cell_length_c 24.499346
_cell_angle_alpha 51.976416
_cell_angle_beta 19.709608
_cell_angle_gamma 52.614852
_cell_volume 676.006971
_symmetry_space_group_name_H-M "P -1"
_symmetry_group_IT_number 2
_symmetry_cell_setting 'triclinic'
loop_
_space_group_symop_operation_xyz
x,y,z
-x,-y,-z
loop_
_atom_site_type_symbol
_atom_site_label
_atom_site_fract_x
_atom_site_fract_y
_atom_site_fract_z
Si Si1 0.457188 0.645343 0.836611
Si Si2 0.962330 0.349695 0.333329
Si Si3 0.259752 0.882053 0.395304
Si Si4 0.615418 0.071295 0.861313
Si Si5 0.705178 0.476686 0.163321
Si Si6 0.341628 0.980670 0.654010
Si Si7 0.225741 0.805104 0.063925
Si Si8 0.500000 0.500000 0.500000
O O1 0.606108 0.369925 0.806722
O O2 0.296429 0.617209 0.882225
O O3 0.631147 0.872612 0.685186
O O4 0.298799 0.717111 0.973970
O O5 0.829835 0.319564 0.474722
O O6 0.753927 0.439180 0.397363
O O7 0.166783 0.556736 0.175130
O O8 0.103463 0.074681 0.283313
O O9 0.501181 0.727580 0.246632
O O10 0.000000 0.000000 0.500000
O O11 0.500000 0.000000 0.000000
O O12 0.443907 0.945964 0.939246
O O13 0.611686 0.274520 0.296114
O O14 0.000000 0.500000 0.000000
O O15 0.500000 0.000000 0.500000
O O16 0.419486 0.209769 0.605544
O O17 0.041544 0.016262 0.810066
#
# Coordination Sequence:
#
# PCOD9046022 Si02
#       8
#     2   2   2   2   2   2   2   1
#     4  12  26  47  72 107 149 191 241 301 368 436
#     4  11  24  46  72 104 145 185 236 304 358 431
#     4  12  28  48  72 105 152 189 245 304 370 435
#     4  12  26  44  75 107 140 190 244 298 365 437
#     4  12  27  48  76 108 147 199 245 297 366 443
#     4  11  25  44  73 103 145 187 239 299 353 431
#     4  11  25  46  71 106 144 187 245 301 358 432
#     4  10  24  42  66 106 138 178 232 286 362 410
#
# _framework density 22.189121
#
# number of rings (size 3 to 8) (size 9 to 14) (size 15 to 20)
#    0.000    0.533    1.333    6.800    3.733    9.600 
#    0.000    0.000    0.000    0.000    0.000    0.000 
#    0.000    0.000    0.000    0.000    0.000    0.000 
#
# Total GULP energy -83654.157638 kJ/mol
# GULP energy per Si atom -5576.943843 kJ/mol
# Density = 2.213862 g / cm^3
# Si number density = 22.189121 Si / 1000 Ang^3
#
#
#
# Elastic Constant Matrix: (Units=GPa)
#
#
# Indices 1 2 3 4 5 6 
#
# 1 107.9067 67.8301 53.6301 1.6301 4.2959 1.6771
# 2 67.8301 128.5575 47.9977 -3.9139 -3.7480 -25.7209
# 3 53.6301 47.9977 87.6698 4.5514 4.2358 -5.8939
# 4 1.6301 -3.9139 4.5514 49.3154 -6.1973 2.9292
# 5 4.2959 -3.7480 4.2358 -6.1973 47.2066 -5.3669
# 6 1.6771 -25.7209 -5.8939 2.9292 -5.3669 34.4573
#
#
#
# Elastic Compliance Matrix: (Units=1/GPa)
#
#
# Indices 1 2 3 4 5 6 
#
# 1 0.018862 -0.009403 -0.006858 -0.000548 -0.003003 -0.009531
# 2 -0.009403 0.016469 -0.002685 0.001618 0.004070 0.012788
# 3 -0.006858 -0.002685 0.017310 -0.001814 -0.001238 0.001252
# 4 -0.000548 0.001618 -0.001814 0.020998 0.003054 -0.000385
# 5 -0.003003 0.004070 -0.001238 0.003054 0.023008 0.006297
# 6 -0.009531 0.012788 0.001252 -0.000385 0.006297 0.040259
#
#
# Mechanical properties :
#
#
# Convention : Reuss Voigt Hill
#
# Bulk Modulus (GPa) = 67.80194 73.67219 70.73707
# Shear Modulus (GPa) = 27.82193 36.50762 32.16478
#
# Velocity S-wave (km/s) = 3.54482 4.06062 3.81146
# Velocity P-wave (km/s) = 6.88310 7.43363 7.16366
#
# Compressibility (1/GPa) = 0.01474884
#
# Stress axis : x y z
#
# Youngs Moduli (GPa) = 53.01572 60.72047 57.77057
#
# Poissons Ratio (x) = 0.57095 0.39618
# Poissons Ratio (y) = 0.49851 0.15513
# Poissons Ratio (z) = 0.36357 0.16305
#
# Static dielectric constant tensor:
#      x y z
#    x 1.801900 0.016030 0.055780 
#    y 0.016030 1.825900 0.007460 
#    z 0.055780 0.007460 1.867440 
# 
# From -- ./inp_files/611225.got.cif
#   From: 2010.05.17/outbox.cif.g08.bks.cpg/sg2_306_cif.got.tgz:611225.got - 2010.06.03 11:33:40.
