data_PCOD9046779
_publ_section_title
;
Structure prediction by ZEFSAII (Michael W. Deem and Ramdas Pophale) SiO2 
 PCOD9046779
Probable space group: P -1
;
_chemical_formula_sum "Si O2"
_cell_formula_units_Z 13
_cell_length_a 8.790214
_cell_length_b 5.299431
_cell_length_c 12.885933
_cell_angle_alpha 91.486284
_cell_angle_beta 71.305561
_cell_angle_gamma 70.745928
_cell_volume 530.946504
_symmetry_space_group_name_H-M "P -1"
_symmetry_group_IT_number 2
_symmetry_cell_setting 'triclinic'
loop_
_space_group_symop_operation_xyz
x,y,z
-x,-y,-z
loop_
_atom_site_type_symbol
_atom_site_label
_atom_site_fract_x
_atom_site_fract_y
_atom_site_fract_z
Si Si1 0.057645 0.493038 0.606787
Si Si2 0.500687 0.424842 0.669655
Si Si3 0.734253 0.496355 0.803795
Si Si4 0.903777 0.237203 0.947446
Si Si5 0.260867 0.289915 0.870337
Si Si6 0.720046 0.131735 0.422246
Si Si7 0.500000 0.000000 0.000000
O O1 0.138819 0.723122 0.606715
O O2 0.000000 0.500000 0.500000
O O3 0.893316 0.544660 0.715518
O O4 0.191593 0.189973 0.596386
O O5 0.621605 0.443684 0.736870
O O6 0.370752 0.299562 0.747209
O O7 0.607349 0.238212 0.551578
O O8 0.400616 0.721133 0.646259
O O9 0.804657 0.235279 0.862902
O O10 0.632367 0.742922 0.903195
O O11 0.067496 0.319960 0.882303
O O12 0.766890 0.440710 0.055059
O O13 0.000000 0.000000 0.000000
O O14 0.363234 0.065060 0.928877
#
# Coordination Sequence:
#
# PCOD9046779 Si02
#       7
#     2   2   2   2   2   2   1
#     4  12  26  51  80 116 155 211 256 320 387 477
#     4  11  26  46  76 112 154 202 255 333 384 461
#     4  11  26  45  77 110 152 202 255 323 386 461
#     4  10  24  45  68 100 140 196 248 303 376 464
#     4  10  24  43  68 100 143 190 248 310 379 448
#     4  11  28  50  78 118 158 203 265 314 398 463
#     4  10  26  44  72 110 148 194 260 318 382 458
#
# _framework density 24.484575
#
# number of rings (size 3 to 8) (size 9 to 14) (size 15 to 20)
#    0.000    1.231    1.538    1.385    8.615    4.923 
#    0.000    0.000    0.000    0.000    0.000    0.000 
#    0.000    0.000    0.000    0.000    0.000    0.000 
#
# Total GULP energy -72545.029349 kJ/mol
# GULP energy per Si atom -5580.386873 kJ/mol
# Density = 2.442885 g / cm^3
# Si number density = 24.484575 Si / 1000 Ang^3
#
#
#
# Elastic Constant Matrix: (Units=GPa)
#
#
# Indices 1 2 3 4 5 6 
#
# 1 85.8780 38.1447 66.3389 -11.6265 32.8262 -15.1868
# 2 38.1447 83.7571 58.4850 -5.6605 9.3883 -26.4931
# 3 66.3389 58.4850 135.6324 -12.9123 15.9319 -17.0912
# 4 -11.6265 -5.6605 -12.9123 27.6740 -25.9225 0.1616
# 5 32.8262 9.3883 15.9319 -25.9225 50.0939 -21.0887
# 6 -15.1868 -26.4931 -17.0912 0.1616 -21.0887 39.1473
#
#
#
# Elastic Compliance Matrix: (Units=1/GPa)
#
#
# Indices 1 2 3 4 5 6 
#
# 1 0.036163 -0.012335 -0.013659 -0.038221 -0.047687 -0.025813
# 2 -0.012335 0.026934 -0.003032 0.026054 0.029149 0.027714
# 3 -0.013659 -0.003032 0.016073 0.016683 0.016645 0.008565
# 4 -0.038221 0.026054 0.016683 0.148954 0.124061 0.076305
# 5 -0.047687 0.029149 0.016645 0.124061 0.139694 0.083236
# 6 -0.025813 0.027714 0.008565 0.076305 0.083236 0.082549
#
#
# Mechanical properties :
#
#
# Convention : Reuss Voigt Hill
#
# Bulk Modulus (GPa) = 47.35172 70.13387 58.74279
# Shear Modulus (GPa) = 9.70011 32.86963 21.28487
#
# Velocity S-wave (km/s) = 1.99257 3.66794 2.95162
# Velocity P-wave (km/s) = 4.96741 6.82969 5.97159
#
# Compressibility (1/GPa) = 0.02111856
#
# Stress axis : x y z
#
# Youngs Moduli (GPa) = 27.65254 37.12840 62.21514
#
# Poissons Ratio (x) = 0.45796 0.84979
# Poissons Ratio (y) = 0.34108 0.18865
# Poissons Ratio (z) = 0.37770 0.11258
#
# Static dielectric constant tensor:
#      x y z
#    x 2.078670 -0.015490 0.002820 
#    y -0.015490 2.031330 -0.074900 
#    z 0.002820 -0.074900 1.924030 
# 
# From -- ./inp_files/26376.got.cif
#   From: 2010.05.17/outbox.cif.g08.bks.cpg/sg2_14_cif.got.tgz:26376.got - 2010.06.03 11:33:40.
