data_PCOD9046367
_publ_section_title
;
Structure prediction by ZEFSAII (Michael W. Deem and Ramdas Pophale) SiO2 
 PCOD9046367
Probable space group: P -1
;
_chemical_formula_sum "Si O2"
_cell_formula_units_Z 16
_cell_length_a 17.543521
_cell_length_b 20.983545
_cell_length_c 12.022915
_cell_angle_alpha 36.018193
_cell_angle_beta 20.540326
_cell_angle_gamma 26.219752
_cell_volume 672.021944
_symmetry_space_group_name_H-M "P -1"
_symmetry_group_IT_number 2
_symmetry_cell_setting 'triclinic'
loop_
_space_group_symop_operation_xyz
x,y,z
-x,-y,-z
loop_
_atom_site_type_symbol
_atom_site_label
_atom_site_fract_x
_atom_site_fract_y
_atom_site_fract_z
Si Si1 0.736391 0.602063 0.988144
Si Si2 0.366849 0.108339 0.886220
Si Si3 0.123929 0.909698 0.843084
Si Si4 0.406927 0.464072 0.938974
Si Si5 0.613884 0.583901 0.725320
Si Si6 0.686956 0.115108 0.703900
Si Si7 0.997004 0.192499 0.041916
Si Si8 0.101366 0.584684 0.779248
O O1 0.076999 0.503473 0.633140
O O2 0.587576 0.617885 0.056025
O O3 0.578510 0.759104 0.032044
O O4 0.699335 0.515872 0.246096
O O5 0.687185 0.055322 0.515946
O O6 0.222344 0.142457 0.908244
O O7 0.153419 0.256045 0.043706
O O8 0.374289 0.986770 0.099439
O O9 0.372664 0.739228 0.778452
O O10 0.913653 0.912545 0.040165
O O11 0.000000 0.000000 0.000000
O O12 0.154972 0.642476 0.018970
O O13 0.718114 0.420902 0.558667
O O14 0.359253 0.407464 0.192035
O O15 0.500000 0.500000 0.000000
O O16 0.743487 0.196552 0.429628
O O17 0.000000 0.000000 0.500000
O O18 0.000000 0.500000 0.000000
#
# Coordination Sequence:
#
# PCOD9046367 Si02
#       8
#     2   2   2   2   2   2   2   2
#     4  12  24  43  73 104 136 191 242 289 360 423
#     4  11  25  46  69 103 145 183 238 298 360 425
#     4  12  28  47  69 102 143 191 239 291 363 431
#     4  12  22  41  75 101 139 184 239 298 348 418
#     4  12  26  45  66 101 143 180 244 294 346 426
#     4  10  24  42  71 108 142 177 238 297 356 430
#     4  11  22  46  71 101 142 185 234 300 355 425
#     4  12  23  42  72 104 136 186 237 299 354 418
#
# _framework density 23.808745999999999
#
# number of rings (size 3 to 8) (size 9 to 14) (size 15 to 20)
#    0.000    0.500    5.000    3.750    1.750    4.000 
#    0.000    0.000    0.000    0.000    0.000    0.000 
#    0.000    0.000    0.000    0.000    0.000    0.000 
#
# Total GULP energy -89453.306686 kJ/mol
# GULP energy per Si atom -5590.831668 kJ/mol
# Density = 2.375456 g / cm^3
# Si number density = 23.808746 Si / 1000 Ang^3
#
#
#
# Elastic Constant Matrix: (Units=GPa)
#
#
# Indices 1 2 3 4 5 6 
#
# 1 122.0725 15.1859 17.3418 1.3706 3.2573 19.5408
# 2 15.1859 101.0786 28.9384 -3.4290 3.1191 22.5519
# 3 17.3418 28.9384 82.9920 -1.0645 1.4862 9.2762
# 4 1.3706 -3.4290 -1.0645 40.3243 4.9015 5.4332
# 5 3.2573 3.1191 1.4862 4.9015 40.4844 -7.2830
# 6 19.5408 22.5519 9.2762 5.4332 -7.2830 48.1463
#
#
#
# Elastic Compliance Matrix: (Units=1/GPa)
#
#
# Indices 1 2 3 4 5 6 
#
# 1 0.009011 -0.000098 -0.001421 0.000293 -0.001344 -0.003574
# 2 -0.000098 0.012305 -0.003587 0.001953 -0.002046 -0.005563
# 3 -0.001421 -0.003587 0.013651 0.000187 -0.000210 -0.000426
# 4 0.000293 0.001953 0.000187 0.026094 -0.004176 -0.004646
# 5 -0.001344 -0.002046 -0.000210 -0.004176 0.026565 0.006034
# 6 -0.003574 -0.005563 -0.000426 -0.004646 0.006034 0.026345
#
#
# Mechanical properties :
#
#
# Convention : Reuss Voigt Hill
#
# Bulk Modulus (GPa) = 40.39718 47.67504 44.03611
# Shear Modulus (GPa) = 37.75442 42.10280 39.92861
#
# Velocity S-wave (km/s) = 3.98645 4.20977 4.09963
# Velocity P-wave (km/s) = 6.18007 6.61038 6.39884
#
# Compressibility (1/GPa) = 0.02475420
#
# Stress axis : x y z
#
# Youngs Moduli (GPa) = 110.98062 81.26473 73.25588
#
# Poissons Ratio (x) = 0.00797 0.10412
# Poissons Ratio (y) = 0.01089 0.26275
# Poissons Ratio (z) = 0.15775 0.29148
#
# Static dielectric constant tensor:
#      x y z
#    x 2.189390 -0.022230 0.059500 
#    y -0.022230 1.836200 -0.038200 
#    z 0.059500 -0.038200 1.978310 
# 
# From -- ./inp_files/392888.got.cif
#   From: 2010.05.17/outbox.cif.g08.bks.cpg/sg2_197_cif.got.tgz:392888.got - 2010.06.03 11:33:40.
