data_PCOD9046586
_publ_section_title
;
Structure prediction by ZEFSAII (Michael W. Deem and Ramdas Pophale) SiO2 
 PCOD9046586
Probable space group: P -1
;
_chemical_formula_sum "Si O2"
_cell_formula_units_Z 12
_cell_length_a 10.354707
_cell_length_b 12.061761
_cell_length_c 8.478267
_cell_angle_alpha 57.652320
_cell_angle_beta 66.007757
_cell_angle_gamma 33.795833
_cell_volume 495.963415
_symmetry_space_group_name_H-M "P -1"
_symmetry_group_IT_number 2
_symmetry_cell_setting 'triclinic'
loop_
_space_group_symop_operation_xyz
x,y,z
-x,-y,-z
loop_
_atom_site_type_symbol
_atom_site_label
_atom_site_fract_x
_atom_site_fract_y
_atom_site_fract_z
Si Si1 0.285119 0.551672 0.904084
Si Si2 0.111390 0.942433 0.814769
Si Si3 0.824499 0.489536 0.308873
Si Si4 0.653310 0.177904 0.773736
Si Si5 0.256589 0.130992 0.588147
Si Si6 0.861160 0.746636 0.090817
O O1 0.131270 0.647721 0.746748
O O2 0.525085 0.319277 0.892927
O O3 0.279126 0.701480 0.860121
O O4 0.137629 0.572997 0.082820
O O5 0.879728 0.099796 0.700286
O O6 0.232050 0.992078 0.705468
O O7 0.000000 0.000000 0.000000
O O8 0.560151 0.653953 0.371338
O O9 0.808115 0.645815 0.117116
O O10 0.032264 0.341906 0.439324
O O11 0.738059 0.966014 0.913106
O O12 0.228314 0.198811 0.728941
O O13 0.500000 0.000000 0.500000
#
# Coordination Sequence:
#
# PCOD9046586 Si02
#       6
#     2   2   2   2   2   2
#     4   9  22  42  75 103 128 189 238 281 336 411
#     4  11  22  48  71 101 137 184 243 276 339 429
#     4  10  24  43  65 112 141 174 234 290 354 403
#     4   9  22  42  75 101 128 191 233 287 331 409
#     4  12  28  45  68 106 147 184 221 297 355 400
#     4  11  21  45  72  99 147 186 232 274 348 424
#
# _framework density 24.195333000000002
#
# number of rings (size 3 to 8) (size 9 to 14) (size 15 to 20)
#    1.000    0.667    3.333    1.500    2.333    4.667 
#    6.000    0.000    0.000    0.000    0.000    0.000 
#    0.000    0.000    0.000    0.000    0.000    0.000 
#
# Total GULP energy -67021.504472 kJ/mol
# GULP energy per Si atom -5585.125373 kJ/mol
# Density = 2.414026 g / cm^3
# Si number density = 24.195333 Si / 1000 Ang^3
#
#
#
# Elastic Constant Matrix: (Units=GPa)
#
#
# Indices 1 2 3 4 5 6 
#
# 1 117.4646 41.7291 39.7122 -14.6643 -24.9283 -6.7594
# 2 41.7291 107.8451 34.1861 -13.7054 -1.0720 -19.0907
# 3 39.7122 34.1861 59.2617 1.7566 -6.7194 -7.4740
# 4 -14.6643 -13.7054 1.7566 26.7670 -4.5048 -5.6447
# 5 -24.9283 -1.0720 -6.7194 -4.5048 43.1318 -9.5618
# 6 -6.7594 -19.0907 -7.4740 -5.6447 -9.5618 62.3136
#
#
#
# Elastic Compliance Matrix: (Units=1/GPa)
#
#
# Indices 1 2 3 4 5 6 
#
# 1 0.015159 -0.001399 -0.008307 0.010193 0.009058 0.002533
# 2 -0.001399 0.013540 -0.006586 0.007446 0.000145 0.003903
# 3 -0.008307 -0.006586 0.026164 -0.010228 -0.002188 -0.001043
# 4 0.010193 0.007446 -0.010228 0.051217 0.011738 0.008601
# 5 0.009058 0.000145 -0.002188 0.011738 0.030760 0.006548
# 6 0.002533 0.003903 -0.001043 0.008601 0.006548 0.019177
#
#
# Mechanical properties :
#
#
# Convention : Reuss Voigt Hill
#
# Bulk Modulus (GPa) = 44.88300 57.31404 51.09852
# Shear Modulus (GPa) = 25.50680 37.70541 31.60611
#
# Velocity S-wave (km/s) = 3.25037 3.95191 3.61818
# Velocity P-wave (km/s) = 5.71639 6.67555 6.21450
#
# Compressibility (1/GPa) = 0.02228015
#
# Stress axis : x y z
#
# Youngs Moduli (GPa) = 65.96719 73.85503 38.22110
#
# Poissons Ratio (x) = 0.10329 0.31751
# Poissons Ratio (y) = 0.09226 0.25171
# Poissons Ratio (z) = 0.54800 0.48638
#
# Static dielectric constant tensor:
#      x y z
#    x 1.971450 -0.035080 0.042530 
#    y -0.035080 1.945980 -0.034280 
#    z 0.042530 -0.034280 2.002600 
# 
# From -- ./inp_files/431019.got.cif
#   From: 2010.05.17/outbox.cif.g08.bks.cpg/sg2_216_cif.got.tgz:431019.got - 2010.06.03 11:33:40.
