data_PCOD9046383
_publ_section_title
;
Structure prediction by ZEFSAII (Michael W. Deem and Ramdas Pophale) SiO2 
 PCOD9046383
Probable space group: P -1
;
_chemical_formula_sum "Si O2"
_cell_formula_units_Z 16
_cell_length_a 11.113528
_cell_length_b 7.402940
_cell_length_c 15.079535
_cell_angle_alpha 87.724887
_cell_angle_beta 106.540596
_cell_angle_gamma 141.437567
_cell_volume 705.782852
_symmetry_space_group_name_H-M "P -1"
_symmetry_group_IT_number 2
_symmetry_cell_setting 'triclinic'
loop_
_space_group_symop_operation_xyz
x,y,z
-x,-y,-z
loop_
_atom_site_type_symbol
_atom_site_label
_atom_site_fract_x
_atom_site_fract_y
_atom_site_fract_z
Si Si1 0.572738 0.154090 0.416774
Si Si2 0.595043 0.269005 0.915756
Si Si3 0.316017 0.172838 0.417950
Si Si4 0.715493 0.099778 0.286859
Si Si5 0.928333 0.701468 0.233211
Si Si6 0.506039 0.267727 0.085403
Si Si7 0.960627 0.166558 0.473345
Si Si8 0.961505 0.157812 0.954349
O O1 0.431839 0.170056 0.376211
O O2 0.569790 0.023404 0.333863
O O3 0.814892 0.486315 0.471509
O O4 0.500000 0.000000 0.500000
O O5 0.455757 0.185375 0.809154
O O6 0.497081 0.955350 0.908277
O O7 0.556277 0.352779 0.990560
O O8 0.845631 0.522064 0.959185
O O9 0.500000 0.500000 0.500000
O O10 0.197342 0.948302 0.481324
O O11 0.115828 0.013614 0.322387
O O12 0.865448 0.433145 0.269546
O O13 0.861734 0.118360 0.362075
O O14 0.705503 0.550248 0.182662
O O15 0.999303 0.766933 0.143985
O O16 0.276764 0.066534 0.068647
O O17 0.000000 0.000000 0.500000
O O18 0.000000 0.000000 0.000000
#
# Coordination Sequence:
#
# PCOD9046383 Si02
#       8
#     2   2   2   2   2   2   2   2
#     4  12  24  43  72  95 138 192 234 295 348 416
#     4   9  21  41  67 101 128 175 231 288 342 412
#     4  12  25  44  67 104 141 181 241 290 358 416
#     4  11  23  45  70 102 137 184 244 286 350 423
#     4  10  24  42  71  98 135 189 234 287 346 424
#     4   9  20  45  69  93 136 175 225 292 349 410
#     4  12  25  47  67  99 147 183 230 306 354 412
#     4  11  24  44  68 102 143 179 225 290 360 425
#
# _framework density 22.669862999999999
#
# number of rings (size 3 to 8) (size 9 to 14) (size 15 to 20)
#    0.000    1.250    3.750    2.250    3.500    3.000 
#    6.750    0.000    0.000    0.000    0.000    0.000 
#    0.000    0.000    0.000    0.000    0.000    0.000 
#
# Total GULP energy -89267.074070 kJ/mol
# GULP energy per Si atom -5579.192129 kJ/mol
# Density = 2.261826 g / cm^3
# Si number density = 22.669863 Si / 1000 Ang^3
#
#
#
# Elastic Constant Matrix: (Units=GPa)
#
#
# Indices 1 2 3 4 5 6 
#
# 1 92.6932 28.2628 40.3503 -1.1153 14.5575 22.4417
# 2 28.2628 124.0830 57.3761 15.3699 2.1703 29.3994
# 3 40.3503 57.3761 172.4209 30.5920 22.3097 9.2801
# 4 -1.1153 15.3699 30.5920 51.2151 3.9183 7.7080
# 5 14.5575 2.1703 22.3097 3.9183 16.9937 9.1316
# 6 22.4417 29.3994 9.2801 7.7080 9.1316 39.6447
#
#
#
# Elastic Compliance Matrix: (Units=1/GPa)
#
#
# Indices 1 2 3 4 5 6 
#
# 1 0.014813 -0.001068 -0.002548 0.003606 -0.006736 -0.006146
# 2 -0.001068 0.012841 -0.004880 -0.000272 0.011293 -0.010324
# 3 -0.002548 -0.004880 0.010178 -0.004665 -0.013018 0.006585
# 4 0.003606 -0.000272 -0.004665 0.023239 0.000619 -0.005408
# 5 -0.006736 0.011293 -0.013018 0.000619 0.092441 -0.022927
# 6 -0.006146 -0.010324 0.006585 -0.005408 -0.022927 0.041150
#
#
# Mechanical properties :
#
#
# Convention : Reuss Voigt Hill
#
# Bulk Modulus (GPa) = 47.98957 71.24173 59.61565
# Shear Modulus (GPa) = 22.87261 39.11787 30.99524
#
# Velocity S-wave (km/s) = 3.17983 4.15847 3.70164
# Velocity P-wave (km/s) = 5.89038 7.38588 6.68011
#
# Compressibility (1/GPa) = 0.02083786
#
# Stress axis : x y z
#
# Youngs Moduli (GPa) = 67.51046 77.87302 98.25105
#
# Poissons Ratio (x) = 0.08318 0.25038
# Poissons Ratio (y) = 0.07211 0.47951
# Poissons Ratio (z) = 0.17204 0.38006
#
# Static dielectric constant tensor:
#      x y z
#    x 1.931460 -0.077680 0.031170 
#    y -0.077680 1.906970 -0.025810 
#    z 0.031170 -0.025810 1.921870 
# 
# From -- ./inp_files/515532.got.cif
#   From: 2010.05.17/outbox.cif.g08.bks.cpg/sg2_258_cif.got.tgz:515532.got - 2010.06.03 11:33:40.
