data_PCOD9046179
_publ_section_title
;
Structure prediction by ZEFSAII (Michael W. Deem and Ramdas Pophale) SiO2 
 PCOD9046179
Probable space group: P -1
;
_chemical_formula_sum "Si O2"
_cell_formula_units_Z 15
_cell_length_a 15.169042
_cell_length_b 10.926009
_cell_length_c 12.231620
_cell_angle_alpha 123.581196
_cell_angle_beta 135.950083
_cell_angle_gamma 26.467105
_cell_volume 600.938289
_symmetry_space_group_name_H-M "P -1"
_symmetry_group_IT_number 2
_symmetry_cell_setting 'triclinic'
loop_
_space_group_symop_operation_xyz
x,y,z
-x,-y,-z
loop_
_atom_site_type_symbol
_atom_site_label
_atom_site_fract_x
_atom_site_fract_y
_atom_site_fract_z
Si Si1 0.128798 0.572546 0.307846
Si Si2 0.649207 0.156956 0.483388
Si Si3 0.269161 0.804987 0.836316
Si Si4 0.230231 0.204793 0.326598
Si Si5 0.401404 0.524811 0.244460
Si Si6 0.000000 0.500000 0.500000
Si Si7 0.105802 0.030159 0.034467
Si Si8 0.852422 0.406422 0.406726
O O1 0.386007 0.352006 0.370735
O O2 0.112736 0.413140 0.224061
O O3 0.164787 0.576995 0.470899
O O4 0.914401 0.887756 0.224210
O O5 0.623487 0.254346 0.389005
O O6 0.686733 0.241025 0.652592
O O7 0.866091 0.820569 0.497396
O O8 0.489762 0.573690 0.829390
O O9 0.157852 0.751533 0.711967
O O10 0.283998 0.822497 0.987456
O O11 0.049238 0.409941 0.368212
O O12 0.500000 0.000000 0.500000
O O13 0.235307 0.028132 0.217314
O O14 0.164276 0.654319 0.097438
O O15 0.266754 0.351438 0.653579
O O16 0.000000 0.000000 0.000000
#
# Coordination Sequence:
#
# PCOD9046179 Si02
#       8
#     2   2   2   2   2   1   2   2
#     4  11  22  38  70 103 134 176 229 278 332 407
#     4  11  19  37  68 102 137 174 220 274 338 400
#     4  12  22  41  68 103 137 174 227 285 339 405
#     4  11  27  48  70  98 135 184 229 276 348 407
#     4  11  23  38  67 102 137 173 221 279 339 394
#     4  10  24  42  68  94 136 176 228 282 326 414
#     4  12  28  46  68  98 139 180 228 284 341 409
#     4  11  20  36  65 104 136 178 229 272 334 401
#
# _framework density 24.960965000000002
#
# number of rings (size 3 to 8) (size 9 to 14) (size 15 to 20)
#    0.000    0.800    5.333    2.800    1.867    2.133 
#    0.000    0.667    0.000    0.000    0.000    0.000 
#    0.000    0.000    0.000    0.000    0.000    0.000 
#
# Total GULP energy -83576.900141 kJ/mol
# GULP energy per Si atom -5571.793343 kJ/mol
# Density = 2.490415 g / cm^3
# Si number density = 24.960965 Si / 1000 Ang^3
#
#
#
# Elastic Constant Matrix: (Units=GPa)
#
#
# Indices 1 2 3 4 5 6 
#
# 1 167.0260 56.1001 57.3285 15.6005 -11.3033 -9.4749
# 2 56.1001 133.2433 41.8479 17.4155 -8.7078 -25.9117
# 3 57.3285 41.8479 104.7354 14.4926 -0.2355 -1.9872
# 4 15.6005 17.4155 14.4926 37.1900 -1.2951 -5.3661
# 5 -11.3033 -8.7078 -0.2355 -1.2951 37.0389 7.3955
# 6 -9.4749 -25.9117 -1.9872 -5.3661 7.3955 64.8454
#
#
#
# Elastic Compliance Matrix: (Units=1/GPa)
#
#
# Indices 1 2 3 4 5 6 
#
# 1 0.008093 -0.002073 -0.003457 -0.001018 0.001936 -0.000057
# 2 -0.002073 0.010216 -0.002549 -0.002397 0.000992 0.003390
# 3 -0.003457 -0.002549 0.012787 -0.002559 -0.001427 -0.001181
# 4 -0.001018 -0.002397 -0.002559 0.029616 -0.000110 0.001278
# 5 0.001936 0.000992 -0.001427 -0.000110 0.028330 -0.002604
# 6 -0.000057 0.003390 -0.001181 0.001278 -0.002604 0.017134
#
#
# Mechanical properties :
#
#
# Convention : Reuss Voigt Hill
#
# Bulk Modulus (GPa) = 66.94594 79.50639 73.22616
# Shear Modulus (GPa) = 39.27301 44.46341 41.86821
#
# Velocity S-wave (km/s) = 3.97089 4.22514 4.09999
# Velocity P-wave (km/s) = 6.92115 7.46484 7.19813
#
# Compressibility (1/GPa) = 0.01493743
#
# Stress axis : x y z
#
# Youngs Moduli (GPa) = 123.56500 97.88792 78.20292
#
# Poissons Ratio (x) = 0.20293 0.27038
# Poissons Ratio (y) = 0.25616 0.19932
# Poissons Ratio (z) = 0.42721 0.24950
#
# Static dielectric constant tensor:
#      x y z
#    x 2.138580 0.120810 0.076170 
#    y 0.120810 2.189970 0.000250 
#    z 0.076170 0.000250 2.045780 
# 
# From -- ./inp_files/451838.got.cif
#   From: 2010.05.17/outbox.cif.g08.bks.cpg/sg2_226_cif.got.tgz:451838.got - 2010.06.03 11:33:40.
