data_PCOD9046814
_publ_section_title
;
Structure prediction by ZEFSAII (Michael W. Deem and Ramdas Pophale) SiO2 
 PCOD9046814
Probable space group: P -1
;
_chemical_formula_sum "Si O2"
_cell_formula_units_Z 12
_cell_length_a 12.046432
_cell_length_b 11.980512
_cell_length_c 4.991241
_cell_angle_alpha 61.781665
_cell_angle_beta 74.282693
_cell_angle_gamma 53.311185
_cell_volume 508.921347
_symmetry_space_group_name_H-M "P -1"
_symmetry_group_IT_number 2
_symmetry_cell_setting 'triclinic'
loop_
_space_group_symop_operation_xyz
x,y,z
-x,-y,-z
loop_
_atom_site_type_symbol
_atom_site_label
_atom_site_fract_x
_atom_site_fract_y
_atom_site_fract_z
Si Si1 0.912870 0.678636 0.816744
Si Si2 0.511363 0.133463 0.715601
Si Si3 0.950659 0.864641 0.212676
Si Si4 0.194585 0.926245 0.438753
Si Si5 0.649882 0.690507 0.905611
Si Si6 0.833830 0.332157 0.074271
O O1 0.759955 0.722531 0.927591
O O2 0.900976 0.753098 0.451154
O O3 0.000000 0.500000 0.000000
O O4 0.016644 0.709806 0.867473
O O5 0.665856 0.079659 0.593303
O O6 0.417529 0.208518 0.429190
O O7 0.462021 0.257608 0.845615
O O8 0.500000 0.000000 0.000000
O O9 0.137965 0.013446 0.097059
O O10 0.111997 0.745418 0.165799
O O11 0.914817 0.971626 0.372667
O O12 0.218833 0.761751 0.638288
O O13 0.729489 0.513070 0.968655
#
# Coordination Sequence:
#
# PCOD9046814 Si02
#       6
#     2   2   2   2   2   2
#     4  10  24  43  68 104 136 179 224 291 347 405
#     4  12  26  49  70 100 139 189 234 282 338 419
#     4  12  24  45  70 105 141 181 228 292 346 413
#     4  12  27  44  73 102 143 187 232 281 348 413
#     4  11  27  45  73 100 140 182 234 285 346 408
#     4  11  27  44  73 107 140 180 232 291 355 406
#
# _framework density 23.579284000000001
#
# number of rings (size 3 to 8) (size 9 to 14) (size 15 to 20)
#    0.000    0.667    1.667    4.500    9.333    2.667 
#    0.000    0.000    0.000    0.000    0.000    0.000 
#    0.000    0.000    0.000    0.000    0.000    0.000 
#
# Total GULP energy -66994.273505 kJ/mol
# GULP energy per Si atom -5582.856125 kJ/mol
# Density = 2.352562 g / cm^3
# Si number density = 23.579284 Si / 1000 Ang^3
#
#
#
# Elastic Constant Matrix: (Units=GPa)
#
#
# Indices 1 2 3 4 5 6 
#
# 1 85.5362 26.3601 31.3825 -18.9788 -7.5658 7.5743
# 2 26.3601 118.2771 30.2871 -9.4409 0.9532 2.2789
# 3 31.3825 30.2871 89.9967 -12.5362 7.2319 9.7040
# 4 -18.9788 -9.4409 -12.5362 44.0374 12.1321 -7.0109
# 5 -7.5658 0.9532 7.2319 12.1321 50.6156 -3.0678
# 6 7.5743 2.2789 9.7040 -7.0109 -3.0678 25.1405
#
#
#
# Elastic Compliance Matrix: (Units=1/GPa)
#
#
# Indices 1 2 3 4 5 6 
#
# 1 0.014961 -0.001973 -0.003957 0.004191 0.001748 -0.001419
# 2 -0.001973 0.009578 -0.002514 0.000687 -0.000229 0.000860
# 3 -0.003957 -0.002514 0.014325 0.002129 -0.003339 -0.003923
# 4 0.004191 0.000687 0.002129 0.027702 -0.006037 0.004842
# 5 0.001748 -0.000229 -0.003339 -0.006037 0.022055 0.001791
# 6 -0.001419 0.000860 -0.003923 0.004842 0.001791 0.043209
#
#
# Mechanical properties :
#
#
# Convention : Reuss Voigt Hill
#
# Bulk Modulus (GPa) = 45.50295 52.20770 48.85532
# Shear Modulus (GPa) = 32.04238 37.67740 34.85989
#
# Velocity S-wave (km/s) = 3.69035 4.00171 3.84918
# Velocity P-wave (km/s) = 6.12356 6.59856 6.36549
#
# Compressibility (1/GPa) = 0.02197660
#
# Stress axis : x y z
#
# Youngs Moduli (GPa) = 66.84106 104.40154 69.80731
#
# Poissons Ratio (x) = 0.20602 0.27619
# Poissons Ratio (y) = 0.13190 0.17550
# Poissons Ratio (z) = 0.26446 0.26246
#
# Static dielectric constant tensor:
#      x y z
#    x 2.006010 0.086960 0.083550 
#    y 0.086960 1.963150 0.083050 
#    z 0.083550 0.083050 1.996430 
# 
# From -- ./inp_files/65385.got.cif
#   From: 2010.05.17/outbox.cif.g08.bks.cpg/sg2_33_cif.got.tgz:65385.got - 2010.06.03 11:33:40.
