data_PCOD9046625
_publ_section_title
;
Structure prediction by ZEFSAII (Michael W. Deem and Ramdas Pophale) SiO2 
 PCOD9046625
Probable space group: P -1
;
_chemical_formula_sum "Si O2"
_cell_formula_units_Z 16
_cell_length_a 12.046915
_cell_length_b 14.036471
_cell_length_c 11.642431
_cell_angle_alpha 95.028292
_cell_angle_beta 96.343025
_cell_angle_gamma 20.295078
_cell_volume 677.941067
_symmetry_space_group_name_H-M "P -1"
_symmetry_group_IT_number 2
_symmetry_cell_setting 'triclinic'
loop_
_space_group_symop_operation_xyz
x,y,z
-x,-y,-z
loop_
_atom_site_type_symbol
_atom_site_label
_atom_site_fract_x
_atom_site_fract_y
_atom_site_fract_z
Si Si1 0.508525 0.595692 0.219515
Si Si2 0.149381 0.503579 0.762783
Si Si3 0.500071 0.041804 0.187797
Si Si4 0.182370 0.773275 0.422811
Si Si5 0.330322 0.291743 0.528649
Si Si6 0.008098 0.891249 0.926963
Si Si7 0.509517 0.147343 0.977068
Si Si8 0.058830 0.245886 0.596992
O O1 0.822386 0.408357 0.262239
O O2 0.316130 0.699323 0.307963
O O3 0.651393 0.409144 0.121208
O O4 0.253407 0.878340 0.176945
O O5 0.366864 0.278690 0.667604
O O6 0.254132 0.412200 0.899522
O O7 0.806709 0.728101 0.742536
O O8 0.505775 0.940044 0.103522
O O9 0.812284 0.809430 0.276618
O O10 0.444360 0.172354 0.103929
O O11 0.500000 0.500000 0.500000
O O12 0.003918 0.815668 0.395510
O O13 0.000000 0.000000 0.500000
O O14 0.000000 0.500000 0.500000
O O15 0.244713 0.457285 0.464144
O O16 0.642289 0.991940 0.481609
O O17 0.845155 0.935828 0.984546
O O18 0.000000 0.000000 0.000000
#
# Coordination Sequence:
#
# PCOD9046625 Si02
#       8
#     2   2   2   2   2   2   2   2
#     4  11  24  43  70  97 133 185 229 288 345 411
#     4  11  22  41  69  98 138 180 237 283 356 427
#     4  11  23  43  69  98 147 175 239 286 365 422
#     4  12  26  49  71 104 147 188 239 291 361 430
#     4  12  25  43  71 105 145 177 234 293 358 428
#     4  11  24  44  68  99 135 181 241 286 345 410
#     4  10  24  43  66 102 137 191 227 295 354 424
#     4  12  27  45  71 110 139 191 232 298 361 430
#
# _framework density 23.600871999999999
#
# number of rings (size 3 to 8) (size 9 to 14) (size 15 to 20)
#    0.000    0.750    2.500    4.875    3.500    1.000 
#    0.000    0.000    0.000    0.000    0.000    0.000 
#    0.000    0.000    0.000    0.000    0.000    0.000 
#
# Total GULP energy -89411.260058 kJ/mol
# GULP energy per Si atom -5588.203754 kJ/mol
# Density = 2.354716 g / cm^3
# Si number density = 23.600872 Si / 1000 Ang^3
#
#
#
# Elastic Constant Matrix: (Units=GPa)
#
#
# Indices 1 2 3 4 5 6 
#
# 1 145.4589 20.1048 40.3968 19.9931 -11.1674 -15.4746
# 2 20.1048 95.8469 21.7850 14.1971 -2.9294 7.6067
# 3 40.3968 21.7850 88.5604 11.6827 -0.1873 -10.0142
# 4 19.9931 14.1971 11.6827 37.1236 -0.5697 -1.0554
# 5 -11.1674 -2.9294 -0.1873 -0.5697 40.3659 5.0687
# 6 -15.4746 7.6067 -10.0142 -1.0554 5.0687 35.6703
#
#
#
# Elastic Compliance Matrix: (Units=1/GPa)
#
#
# Indices 1 2 3 4 5 6 
#
# 1 0.008726 -0.000805 -0.003030 -0.003330 0.001952 0.002731
# 2 -0.000805 0.012042 -0.002577 -0.003455 0.001080 -0.003897
# 3 -0.003030 -0.002577 0.013899 -0.001684 -0.001397 0.003286
# 4 -0.003330 -0.003455 -0.001684 0.030566 -0.000727 -0.000173
# 5 0.001952 0.001080 -0.001397 -0.000727 0.025810 -0.003465
# 6 0.002731 -0.003897 0.003286 -0.000173 -0.003465 0.031460
#
#
# Mechanical properties :
#
#
# Convention : Reuss Voigt Hill
#
# Bulk Modulus (GPa) = 45.78582 54.93771 50.36176
# Shear Modulus (GPa) = 35.06129 39.13727 37.09928
#
# Velocity S-wave (km/s) = 3.85852 4.07664 3.96908
# Velocity P-wave (km/s) = 6.26842 6.74440 6.51076
#
# Compressibility (1/GPa) = 0.02184082
#
# Stress axis : x y z
#
# Youngs Moduli (GPa) = 114.60509 83.04258 71.94953
#
# Poissons Ratio (x) = 0.06689 0.21800
# Poissons Ratio (y) = 0.09231 0.18545
# Poissons Ratio (z) = 0.34724 0.21404
#
# Static dielectric constant tensor:
#      x y z
#    x 2.012010 -0.043520 0.067160 
#    y -0.043520 1.940180 -0.057260 
#    z 0.067160 -0.057260 1.916350 
# 
# From -- ./inp_files/123591.got.cif
#   From: 2010.05.17/outbox.cif.g08.bks.cpg/sg2_62_cif.got.tgz:123591.got - 2010.06.03 11:33:40.
