data_PCOD9046950
_publ_section_title
;
Structure prediction by ZEFSAII (Michael W. Deem and Ramdas Pophale) SiO2 
 PCOD9046950
Probable space group: P -1
;
_chemical_formula_sum "Si O2"
_cell_formula_units_Z 16
_cell_length_a 11.660387
_cell_length_b 6.999372
_cell_length_c 26.411310
_cell_angle_alpha 121.324607
_cell_angle_beta 154.048726
_cell_angle_gamma 49.777741
_cell_volume 708.239373
_symmetry_space_group_name_H-M "P -1"
_symmetry_group_IT_number 2
_symmetry_cell_setting 'triclinic'
loop_
_space_group_symop_operation_xyz
x,y,z
-x,-y,-z
loop_
_atom_site_type_symbol
_atom_site_label
_atom_site_fract_x
_atom_site_fract_y
_atom_site_fract_z
Si Si1 0.753335 0.983110 0.560399
Si Si2 0.045587 0.810934 0.187941
Si Si3 0.636677 0.526392 0.261373
Si Si4 0.174838 0.395092 0.106873
Si Si5 0.329264 0.255861 0.598370
Si Si6 0.956272 0.702955 0.244002
Si Si7 0.619670 0.177168 0.900593
Si Si8 0.845174 0.290718 0.102992
O O1 0.686109 0.960045 0.471442
O O2 0.035495 0.707964 0.648033
O O3 0.500000 0.000000 0.500000
O O4 0.822584 0.215940 0.629317
O O5 0.013591 0.592870 0.114940
O O6 0.401715 0.717747 0.318993
O O7 0.888540 0.861699 0.186648
O O8 0.915404 0.060655 0.136775
O O9 0.478219 0.404210 0.216130
O O10 0.607771 0.758075 0.318141
O O11 0.478154 0.633949 0.159854
O O12 0.244028 0.110777 0.102775
O O13 0.000000 0.500000 0.000000
O O14 0.000000 0.500000 0.500000
O O15 0.678864 0.770136 0.179633
O O16 0.041512 0.422844 0.217252
O O17 0.841615 0.197174 0.032153
O O18 0.500000 0.500000 0.000000
#
# Coordination Sequence:
#
# PCOD9046950 Si02
#       8
#     2   2   2   2   2   2   2   2
#     4  11  21  43  75  96 128 183 228 284 344 394
#     4  11  23  43  68  97 137 175 224 278 333 402
#     4  10  24  43  69  97 142 173 222 289 332 406
#     4  11  23  42  69  98 133 187 224 267 341 403
#     4   9  21  43  71  91 127 176 220 280 343 382
#     4  11  25  41  69  97 136 174 228 272 335 406
#     4  11  24  44  67 103 138 178 225 272 340 408
#     4  10  25  40  62 101 142 172 216 270 333 405
#
# _framework density 22.591234
#
# number of rings (size 3 to 8) (size 9 to 14) (size 15 to 20)
#    0.000    1.500    3.750    0.000    5.250    4.500 
#    0.000    3.125    0.000    0.000    0.000    0.000 
#    0.000    0.000    0.000    0.000    0.000    0.000 
#
# Total GULP energy -89328.762216 kJ/mol
# GULP energy per Si atom -5583.047638 kJ/mol
# Density = 2.253981 g / cm^3
# Si number density = 22.591234 Si / 1000 Ang^3
#
#
#
# Elastic Constant Matrix: (Units=GPa)
#
#
# Indices 1 2 3 4 5 6 
#
# 1 127.7405 32.9229 24.8700 9.5603 -5.0078 -3.5203
# 2 32.9229 127.3457 40.9619 34.5061 -13.2749 0.2530
# 3 24.8700 40.9619 61.2524 27.1435 -8.7626 -8.7742
# 4 9.5603 34.5061 27.1435 53.2236 -10.1969 -8.7922
# 5 -5.0078 -13.2749 -8.7626 -10.1969 43.6365 3.2712
# 6 -3.5203 0.2530 -8.7742 -8.7922 3.2712 27.2124
#
#
#
# Elastic Compliance Matrix: (Units=1/GPa)
#
#
# Indices 1 2 3 4 5 6 
#
# 1 0.008739 -0.001618 -0.002827 0.001040 0.000145 0.000553
# 2 -0.001618 0.011384 -0.005158 -0.004803 0.001397 -0.003698
# 3 -0.002827 -0.005158 0.025363 -0.008054 0.000932 0.005146
# 4 0.001040 -0.004803 -0.008054 0.027400 0.002988 0.006076
# 5 0.000145 0.001397 0.000932 0.002988 0.024368 -0.001658
# 6 0.000553 -0.003698 0.005146 0.006076 -0.001658 0.040675
#
#
# Mechanical properties :
#
#
# Convention : Reuss Voigt Hill
#
# Bulk Modulus (GPa) = 38.05157 57.09424 47.57290
# Shear Modulus (GPa) = 30.13968 39.32006 34.72987
#
# Velocity S-wave (km/s) = 3.65654 4.17646 3.92512
# Velocity P-wave (km/s) = 5.89127 6.97027 6.45336
#
# Compressibility (1/GPa) = 0.02628012
#
# Stress axis : x y z
#
# Youngs Moduli (GPa) = 114.43187 87.84038 39.42784
#
# Poissons Ratio (x) = 0.14209 0.11148
# Poissons Ratio (y) = 0.18511 0.20336
# Poissons Ratio (z) = 0.32355 0.45307
#
# Static dielectric constant tensor:
#      x y z
#    x 1.929190 -0.036210 -0.018380 
#    y -0.036210 1.846310 0.055440 
#    z -0.018380 0.055440 1.946970 
# 
# From -- ./inp_files/617935.got.cif
#   From: 2010.05.17/outbox.cif.g08.bks.cpg/sg2_309_cif.got.tgz:617935.got - 2010.06.03 11:33:40.
