data_PCOD9046385
_publ_section_title
;
Structure prediction by ZEFSAII (Michael W. Deem and Ramdas Pophale) SiO2 
 PCOD9046385
Probable space group: P -1
;
_chemical_formula_sum "Si O2"
_cell_formula_units_Z 12
_cell_length_a 15.088676
_cell_length_b 14.577310
_cell_length_c 11.323667
_cell_angle_alpha 151.887339
_cell_angle_beta 150.608149
_cell_angle_gamma 29.399405
_cell_volume 516.041918
_symmetry_space_group_name_H-M "P -1"
_symmetry_group_IT_number 2
_symmetry_cell_setting 'triclinic'
loop_
_space_group_symop_operation_xyz
x,y,z
-x,-y,-z
loop_
_atom_site_type_symbol
_atom_site_label
_atom_site_fract_x
_atom_site_fract_y
_atom_site_fract_z
Si Si1 0.063132 0.377987 0.260844
Si Si2 0.157011 0.834770 0.084535
Si Si3 0.356364 0.364521 0.990881
Si Si4 0.540323 0.747706 0.281673
Si Si5 0.313790 0.069159 0.998062
Si Si6 0.663369 0.178115 0.476309
O O1 0.259171 0.371787 0.542635
O O2 0.876346 0.595364 0.243637
O O3 0.957114 0.298225 0.147284
O O4 0.148939 0.204963 0.057378
O O5 0.360218 0.739419 0.135968
O O6 0.222270 0.908807 0.365994
O O7 0.000000 0.000000 0.000000
O O8 0.436881 0.345937 0.929389
O O9 0.511505 0.150756 0.993199
O O10 0.345292 0.585748 0.284203
O O11 0.500000 0.000000 0.500000
O O12 0.237368 0.989488 0.704969
O O13 0.436376 0.202990 0.253149
#
# Coordination Sequence:
#
# PCOD9046385 Si02
#       6
#     2   2   2   2   2   2
#     4  11  24  41  70 101 134 186 224 281 345 405
#     4  11  21  38  66 101 129 177 227 266 343 401
#     4  11  24  42  69 102 133 183 229 278 344 408
#     4  12  21  43  67  96 148 178 218 294 340 393
#     4  11  22  49  69  95 147 174 226 293 332 403
#     4  10  24  42  71  99 136 184 224 283 343 401
#
# _framework density 23.253924999999999
#
# number of rings (size 3 to 8) (size 9 to 14) (size 15 to 20)
#    0.000    1.000    5.000    1.000    0.000    5.333 
#    3.000    8.333    0.000    0.000    0.000    0.000 
#    0.000    0.000    0.000    0.000    0.000    0.000 
#
# Total GULP energy -67130.123738 kJ/mol
# GULP energy per Si atom -5594.176978 kJ/mol
# Density = 2.320100 g / cm^3
# Si number density = 23.253925 Si / 1000 Ang^3
#
#
#
# Elastic Constant Matrix: (Units=GPa)
#
#
# Indices 1 2 3 4 5 6 
#
# 1 125.1987 52.9954 41.1331 -15.1949 -10.3292 -34.7064
# 2 52.9954 107.4361 21.1582 -21.7358 -2.1089 -9.7838
# 3 41.1331 21.1582 99.9105 -15.9163 -2.6868 -17.6065
# 4 -15.1949 -21.7358 -15.9163 34.7032 7.3789 5.4938
# 5 -10.3292 -2.1089 -2.6868 7.3789 52.0686 -5.2423
# 6 -34.7064 -9.7838 -17.6065 5.4938 -5.2423 29.7407
#
#
#
# Elastic Compliance Matrix: (Units=1/GPa)
#
#
# Indices 1 2 3 4 5 6 
#
# 1 0.016247 -0.006231 -0.002587 -0.001593 0.004725 0.016505
# 2 -0.006231 0.013300 -0.000031 0.006755 -0.002113 -0.004535
# 3 -0.002587 -0.000031 0.012331 0.003963 -0.000085 0.003523
# 4 -0.001593 0.006755 0.003963 0.036104 -0.005450 -0.004921
# 5 0.004725 -0.002113 -0.000085 -0.005450 0.021793 0.009616
# 6 0.016505 -0.004535 0.003523 -0.004921 0.009616 0.056082
#
#
# Mechanical properties :
#
#
# Convention : Reuss Voigt Hill
#
# Bulk Modulus (GPa) = 41.35987 62.56874 51.96431
# Shear Modulus (GPa) = 27.53066 37.78639 32.65853
#
# Velocity S-wave (km/s) = 3.44454 4.03544 3.75164
# Velocity P-wave (km/s) = 5.80040 6.97697 6.41571
#
# Compressibility (1/GPa) = 0.02417803
#
# Stress axis : x y z
#
# Youngs Moduli (GPa) = 61.55109 75.18961 81.09838
#
# Poissons Ratio (x) = 0.46851 0.20983
# Poissons Ratio (y) = 0.38353 0.00252
# Poissons Ratio (z) = 0.15926 0.00234
#
# Static dielectric constant tensor:
#      x y z
#    x 1.836120 0.019500 -0.008410 
#    y 0.019500 1.967520 0.054460 
#    z -0.008410 0.054460 1.944810 
# 
# From -- ./inp_files/378266.got.cif
#   From: 2010.05.17/outbox.cif.g08.bks.cpg/sg2_190_cif.got.tgz:378266.got - 2010.06.03 11:33:40.
