data_PCOD9046368
_publ_section_title
;
Structure prediction by ZEFSAII (Michael W. Deem and Ramdas Pophale) SiO2 
 PCOD9046368
Probable space group: P -1
;
_chemical_formula_sum "Si O2"
_cell_formula_units_Z 16
_cell_length_a 15.744898
_cell_length_b 18.630163
_cell_length_c 11.892178
_cell_angle_alpha 28.426882
_cell_angle_beta 45.383733
_cell_angle_gamma 26.352001
_cell_volume 673.783877
_symmetry_space_group_name_H-M "P -1"
_symmetry_group_IT_number 2
_symmetry_cell_setting 'triclinic'
loop_
_space_group_symop_operation_xyz
x,y,z
-x,-y,-z
loop_
_atom_site_type_symbol
_atom_site_label
_atom_site_fract_x
_atom_site_fract_y
_atom_site_fract_z
Si Si1 0.572427 0.274061 0.998548
Si Si2 0.228063 0.625650 0.538138
Si Si3 0.485821 0.132736 0.475463
Si Si4 0.947945 0.264390 0.692103
Si Si5 0.879943 0.517846 0.997987
Si Si6 0.016209 0.548898 0.261968
Si Si7 0.669624 0.138177 0.849795
Si Si8 0.456824 0.433943 0.235536
O O1 0.529255 0.188965 0.246488
O O2 0.544222 0.260363 0.915903
O O3 0.465934 0.540822 0.768773
O O4 0.821492 0.038188 0.090959
O O5 0.107956 0.708490 0.422379
O O6 0.470243 0.332343 0.686700
O O7 0.230125 0.799517 0.329753
O O8 0.134652 0.624019 0.727779
O O9 0.244798 0.332960 0.405196
O O10 0.534196 0.191891 0.455234
O O11 0.654253 0.827196 0.754169
O O12 0.783001 0.357906 0.799501
O O13 0.957564 0.433524 0.473512
O O14 0.978648 0.405532 0.936629
O O15 0.000000 0.500000 0.000000
O O16 0.842869 0.831791 0.093890
O O17 0.500000 0.500000 0.000000
#
# Coordination Sequence:
#
# PCOD9046368 Si02
#       8
#     2   2   2   2   2   2   2   2
#     4  11  22  46  74 103 146 188 243 307 363 426
#     4  11  26  48  73 100 148 202 231 298 371 443
#     4  11  25  45  72 112 145 189 245 308 363 420
#     4  12  24  44  74 108 143 192 246 297 370 435
#     4  12  25  50  70 104 153 196 237 297 366 439
#     4  12  27  45  74 112 142 192 247 310 357 427
#     4  11  27  47  73 105 144 192 249 300 365 432
#     4  10  24  42  71 108 143 184 239 305 369 421
#
# _framework density 23.746489
#
# number of rings (size 3 to 8) (size 9 to 14) (size 15 to 20)
#    0.000    0.750    3.750    2.250    5.250    3.000 
#    2.250    0.000    0.000    0.000    0.000    0.000 
#    0.000    0.000    0.000    0.000    0.000    0.000 
#
# Total GULP energy -89489.585947 kJ/mol
# GULP energy per Si atom -5593.099122 kJ/mol
# Density = 2.369244 g / cm^3
# Si number density = 23.746489 Si / 1000 Ang^3
#
#
#
# Elastic Constant Matrix: (Units=GPa)
#
#
# Indices 1 2 3 4 5 6 
#
# 1 100.6887 23.6015 35.0882 9.1652 -9.7856 10.9914
# 2 23.6015 82.2540 26.1567 32.4838 -16.5832 13.9928
# 3 35.0882 26.1567 78.1157 23.9379 -23.4695 5.0123
# 4 9.1652 32.4838 23.9379 46.0032 -1.8258 -8.4071
# 5 -9.7856 -16.5832 -23.4695 -1.8258 55.0688 -2.0119
# 6 10.9914 13.9928 5.0123 -8.4071 -2.0119 35.7722
#
#
#
# Elastic Compliance Matrix: (Units=1/GPa)
#
#
# Indices 1 2 3 4 5 6 
#
# 1 0.012321 -0.002331 -0.005387 0.001636 -0.000819 -0.001781
# 2 -0.002331 0.023106 0.001756 -0.018830 0.006206 -0.012645
# 3 -0.005387 0.001756 0.020776 -0.011429 0.007894 -0.004185
# 4 0.001636 -0.018830 -0.011429 0.043671 -0.008135 0.018270
# 5 -0.000819 0.006206 0.007894 -0.008135 0.022834 -0.003910
# 6 -0.001781 -0.012645 -0.004185 0.018270 -0.003910 0.038108
#
#
# Mechanical properties :
#
#
# Convention : Reuss Voigt Hill
#
# Bulk Modulus (GPa) = 22.58379 47.86123 35.22251
# Shear Modulus (GPa) = 26.66662 39.11633 32.89147
#
# Velocity S-wave (km/s) = 3.35471 4.06303 3.72574
# Velocity P-wave (km/s) = 4.95343 6.49691 5.77695
#
# Compressibility (1/GPa) = 0.04427954
#
# Stress axis : x y z
#
# Youngs Moduli (GPa) = 81.16151 43.27815 48.13253
#
# Poissons Ratio (x) = 0.10086 0.25931
# Poissons Ratio (y) = 0.18916 -0.08452
# Poissons Ratio (z) = 0.43724 -0.07600
#
# Static dielectric constant tensor:
#      x y z
#    x 2.038180 0.033490 -0.006880 
#    y 0.033490 1.912000 0.033110 
#    z -0.006880 0.033110 1.910490 
# 
# From -- ./inp_files/456901.got.cif
#   From: 2010.05.17/outbox.cif.g08.bks.cpg/sg2_229_cif.got.tgz:456901.got - 2010.06.03 11:33:40.
