data_PCOD9046284
_publ_section_title
;
Structure prediction by ZEFSAII (Michael W. Deem and Ramdas Pophale) SiO2 
 PCOD9046284
Probable space group: P -1
;
_chemical_formula_sum "Si O2"
_cell_formula_units_Z 16
_cell_length_a 5.991724
_cell_length_b 11.564591
_cell_length_c 11.482496
_cell_angle_alpha 79.167948
_cell_angle_beta 120.566652
_cell_angle_gamma 88.642675
_cell_volume 666.148700
_symmetry_space_group_name_H-M "P -1"
_symmetry_group_IT_number 2
_symmetry_cell_setting 'triclinic'
loop_
_space_group_symop_operation_xyz
x,y,z
-x,-y,-z
loop_
_atom_site_type_symbol
_atom_site_label
_atom_site_fract_x
_atom_site_fract_y
_atom_site_fract_z
Si Si1 0.425494 0.307478 0.759850
Si Si2 0.463629 0.106637 0.139652
Si Si3 0.817509 0.448420 0.872744
Si Si4 0.483263 0.314999 0.520986
Si Si5 0.571757 0.067862 0.620625
Si Si6 0.388228 0.677986 0.705509
Si Si7 0.836387 0.906845 0.164020
Si Si8 0.006869 0.504914 0.682011
O O1 0.647684 0.349704 0.893882
O O2 0.585947 0.315999 0.680298
O O3 0.320793 0.188758 0.794441
O O4 0.173470 0.409259 0.661768
O O5 0.521847 0.223865 0.202566
O O6 0.448309 0.013504 0.257537
O O7 0.698276 0.040467 0.133711
O O8 0.214532 0.117425 0.982791
O O9 0.605049 0.563531 0.773049
O O10 0.001839 0.430358 0.812365
O O11 0.000000 0.500000 0.000000
O O12 0.369093 0.190185 0.533192
O O13 0.644702 0.290476 0.447805
O O14 0.283158 0.435821 0.436797
O O15 0.867899 0.100476 0.707834
O O16 0.500000 0.000000 0.500000
O O17 0.147969 0.621704 0.706114
#
# Coordination Sequence:
#
# PCOD9046284 Si02
#       8
#     2   2   2   2   2   2   2   2
#     4  11  25  44  70 102 140 183 230 286 349 421
#     4  11  25  48  69 103 143 185 235 289 347 417
#     4  10  25  44  67 102 138 183 234 284 345 416
#     4  11  24  43  66 104 137 179 232 287 352 405
#     4  12  26  46  71 103 140 183 235 290 348 414
#     4  10  24  42  70 102 138 186 230 287 351 412
#     4  11  28  45  72 105 140 186 233 286 355 417
#     4  10  25  42  68 102 140 185 222 290 348 417
#
# _framework density 24.018661999999999
#
# number of rings (size 3 to 8) (size 9 to 14) (size 15 to 20)
#    0.000    1.250    2.500    0.750    8.750    6.000 
#    2.250    0.000    0.000    0.000    0.000    0.000 
#    0.000    0.000    0.000    0.000    0.000    0.000 
#
# Total GULP energy -89089.610791 kJ/mol
# GULP energy per Si atom -5568.100674 kJ/mol
# Density = 2.396399 g / cm^3
# Si number density = 24.018662 Si / 1000 Ang^3
#
#
#
# Elastic Constant Matrix: (Units=GPa)
#
#
# Indices 1 2 3 4 5 6 
#
# 1 70.3348 36.6423 42.5922 24.9483 -7.0350 9.8505
# 2 36.6423 87.6535 23.1001 19.7215 -5.4028 10.4092
# 3 42.5922 23.1001 110.8714 17.8160 -8.8864 10.3657
# 4 24.9483 19.7215 17.8160 36.7377 -2.5116 3.2077
# 5 -7.0350 -5.4028 -8.8864 -2.5116 35.6700 -0.5066
# 6 9.8505 10.4092 10.3657 3.2077 -0.5066 38.4559
#
#
#
# Elastic Compliance Matrix: (Units=1/GPa)
#
#
# Indices 1 2 3 4 5 6 
#
# 1 0.025659 -0.006258 -0.006505 -0.010600 0.001714 -0.002219
# 2 -0.006258 0.015135 0.000113 -0.003682 0.000796 -0.002206
# 3 -0.006505 0.000113 0.011954 -0.001202 0.001607 -0.001465
# 4 -0.010600 -0.003682 -0.001202 0.036871 -0.000338 0.000956
# 5 0.001714 0.000796 0.001607 -0.000338 0.028860 -0.000679
# 6 -0.002219 -0.002206 -0.001465 0.000956 -0.000679 0.027475
#
#
# Mechanical properties :
#
#
# Convention : Reuss Voigt Hill
#
# Bulk Modulus (GPa) = 36.43486 52.61431 44.52458
# Shear Modulus (GPa) = 27.71537 33.27441 30.49489
#
# Velocity S-wave (km/s) = 3.40061 3.72608 3.56706
# Velocity P-wave (km/s) = 5.53364 6.36118 5.96179
#
# Compressibility (1/GPa) = 0.02744624
#
# Stress axis : x y z
#
# Youngs Moduli (GPa) = 38.97205 66.07406 83.65429
#
# Poissons Ratio (x) = 0.41350 0.54419
# Poissons Ratio (y) = 0.24389 -0.00942
# Poissons Ratio (z) = 0.25352 -0.00744
#
# Static dielectric constant tensor:
#      x y z
#    x 1.762660 -0.121930 -0.581270 
#    y -0.121930 2.101580 0.043350 
#    z -0.581270 0.043350 1.259810 
# 
# From -- ./inp_files/124212.got.cif
#   From: 2010.05.17/outbox.cif.g08.bks.cpg/sg2_63_cif.got.tgz:124212.got - 2010.06.03 11:33:40.
