data_PCOD9046862
_publ_section_title
;
Structure prediction by ZEFSAII (Michael W. Deem and Ramdas Pophale) SiO2 
 PCOD9046862
Probable space group: P -1
;
_chemical_formula_sum "Si O2"
_cell_formula_units_Z 16
_cell_length_a 19.287219
_cell_length_b 9.649283
_cell_length_c 9.028066
_cell_angle_alpha 109.747271
_cell_angle_beta 141.976998
_cell_angle_gamma 50.839762
_cell_volume 756.365961
_symmetry_space_group_name_H-M "P -1"
_symmetry_group_IT_number 2
_symmetry_cell_setting 'triclinic'
loop_
_space_group_symop_operation_xyz
x,y,z
-x,-y,-z
loop_
_atom_site_type_symbol
_atom_site_label
_atom_site_fract_x
_atom_site_fract_y
_atom_site_fract_z
Si Si1 0.257109 0.657563 0.121811
Si Si2 0.042700 0.069421 0.458655
Si Si3 0.493866 0.860415 0.242516
Si Si4 0.410163 0.611112 0.084600
Si Si5 0.035147 0.389707 0.672907
Si Si6 0.750421 0.519797 0.399469
Si Si7 0.327924 0.276538 0.199289
Si Si8 0.251686 0.718326 0.471193
O O1 0.366339 0.655744 0.198943
O O2 0.323620 0.440095 0.176819
O O3 0.229944 0.747394 0.270116
O O4 0.103779 0.778510 0.824495
O O5 0.092816 0.180809 0.652865
O O6 0.157728 0.906089 0.479234
O O7 0.000000 0.000000 0.500000
O O8 0.404889 0.780335 0.072245
O O9 0.614995 0.738165 0.276799
O O10 0.583278 0.790881 0.523017
O O11 0.402988 0.084610 0.161231
O O12 0.574154 0.420705 0.266638
O O13 0.305473 0.574231 0.824679
O O14 0.000000 0.500000 0.500000
O O15 0.886511 0.486479 0.545358
O O16 0.159803 0.369763 0.965745
O O17 0.790872 0.408140 0.582920
#
# Coordination Sequence:
#
# PCOD9046862 Si02
#       8
#     2   2   2   2   2   2   2   2
#     4  12  23  46  66 100 138 171 224 286 331 392
#     4  12  25  44  68  98 131 179 230 276 334 396
#     4  10  24  43  68  99 131 177 226 267 337 404
#     4  11  22  41  72  97 133 174 222 284 331 384
#     4  12  25  44  66  92 139 180 218 274 336 393
#     4  11  22  43  69 100 130 176 224 277 329 393
#     4  11  24  43  64  96 139 175 215 270 338 397
#     4  11  23  40  69 101 130 173 227 280 333 386
#
# _framework density 21.153782
#
# number of rings (size 3 to 8) (size 9 to 14) (size 15 to 20)
#    0.000    0.750    6.250    2.250    5.250    0.500 
#    2.250    1.250    0.000    0.000    0.000    0.000 
#    0.000    0.000    0.000    0.000    0.000    0.000 
#
# Total GULP energy -89449.296102 kJ/mol
# GULP energy per Si atom -5590.581006 kJ/mol
# Density = 2.110563 g / cm^3
# Si number density = 21.153782 Si / 1000 Ang^3
#
#
#
# Elastic Constant Matrix: (Units=GPa)
#
#
# Indices 1 2 3 4 5 6 
#
# 1 139.3157 35.9089 19.7850 -5.6829 13.8092 -26.9121
# 2 35.9089 108.6482 11.4860 -5.3787 9.1653 -24.0040
# 3 19.7850 11.4860 85.2939 -6.8510 3.5222 1.9157
# 4 -5.6829 -5.3787 -6.8510 31.2190 -2.2775 0.4236
# 5 13.8092 9.1653 3.5222 -2.2775 36.2922 -1.0266
# 6 -26.9121 -24.0040 1.9157 0.4236 -1.0266 32.7904
#
#
#
# Elastic Compliance Matrix: (Units=1/GPa)
#
#
# Indices 1 2 3 4 5 6 
#
# 1 0.009398 -0.001080 -0.002009 0.000781 -0.002863 0.006940
# 2 -0.001080 0.011620 -0.001297 0.001264 -0.002103 0.007614
# 3 -0.002009 -0.001297 0.012623 0.002220 -0.000089 -0.003368
# 4 0.000781 0.001264 0.002220 0.032957 0.001266 0.001050
# 5 -0.002863 -0.002103 -0.000089 0.001266 0.029178 -0.002987
# 6 0.006940 0.007614 -0.003368 0.001050 -0.002987 0.041856
#
#
# Mechanical properties :
#
#
# Convention : Reuss Voigt Hill
#
# Bulk Modulus (GPa) = 40.21286 51.95750 46.08518
# Shear Modulus (GPa) = 32.32185 37.79884 35.06034
#
# Velocity S-wave (km/s) = 3.91314 4.23171 4.07554
# Velocity P-wave (km/s) = 6.28235 6.96359 6.63172
#
# Compressibility (1/GPa) = 0.02486767
#
# Stress axis : x y z
#
# Youngs Moduli (GPa) = 106.40549 86.05697 79.22328
#
# Poissons Ratio (x) = 0.09296 0.15920
# Poissons Ratio (y) = 0.11494 0.10274
# Poissons Ratio (z) = 0.21382 0.11161
#
# Static dielectric constant tensor:
#      x y z
#    x 1.792180 0.016360 0.002350 
#    y 0.016360 1.821490 0.030530 
#    z 0.002350 0.030530 1.828600 
# 
# From -- ./inp_files/329226.got.cif
#   From: 2010.05.17/outbox.cif.g08.bks.cpg/sg2_165_cif.got.tgz:329226.got - 2010.06.03 11:33:40.
