data_PCOD9046041
_publ_section_title
;
Structure prediction by ZEFSAII (Michael W. Deem and Ramdas Pophale) SiO2 
 PCOD9046041
Probable space group: P -1
;
_chemical_formula_sum "Si O2"
_cell_formula_units_Z 12
_cell_length_a 12.214996
_cell_length_b 6.739048
_cell_length_c 8.532181
_cell_angle_alpha 108.817346
_cell_angle_beta 129.811056
_cell_angle_gamma 83.168766
_cell_volume 506.961575
_symmetry_space_group_name_H-M "P -1"
_symmetry_group_IT_number 2
_symmetry_cell_setting 'triclinic'
loop_
_space_group_symop_operation_xyz
x,y,z
-x,-y,-z
loop_
_atom_site_type_symbol
_atom_site_label
_atom_site_fract_x
_atom_site_fract_y
_atom_site_fract_z
Si Si1 0.859234 0.048766 0.056079
Si Si2 0.253065 0.276317 0.370375
Si Si3 0.409048 0.260445 0.210333
Si Si4 0.145669 0.106572 0.534241
Si Si5 0.284541 0.708603 0.645354
Si Si6 0.759051 0.475569 0.102038
O O1 0.838832 0.288888 0.054385
O O2 0.996136 0.059035 0.294538
O O3 0.859990 0.880180 0.872532
O O4 0.709127 0.944093 0.970515
O O5 0.392228 0.301283 0.391604
O O6 0.264140 0.172650 0.523394
O O7 0.212108 0.506924 0.428571
O O8 0.562503 0.225371 0.278267
O O9 0.351572 0.444914 0.101705
O O10 0.145432 0.309741 0.697863
O O11 0.189153 0.896789 0.596554
O O12 0.303961 0.623690 0.817159
#
# Coordination Sequence:
#
# PCOD9046041 Si02
#       6
#     2   2   2   2   2   2
#     4  10  24  42  66  95 124 168 210 257 314 370
#     4   9  24  42  66  93 124 170 208 257 314 368
#     4  10  24  42  66  95 124 168 210 257 314 370
#     4  11  24  43  66  94 128 164 211 260 313 371
#     4  11  24  43  66  94 128 164 211 260 313 371
#     4  11  24  42  64  93 130 166 210 257 310 376
#
# _framework density 23.670432999999999
#
# number of rings (size 3 to 8) (size 9 to 14) (size 15 to 20)
#    1.000    0.667    0.000    3.000    2.333   12.000 
#    0.000    0.000    0.000    0.000    0.000    0.000 
#    0.000    0.000    0.000    0.000    0.000    0.000 
#
# Total GULP energy -67013.972498 kJ/mol
# GULP energy per Si atom -5584.497708 kJ/mol
# Density = 2.361656 g / cm^3
# Si number density = 23.670433 Si / 1000 Ang^3
#
#
#
# Elastic Constant Matrix: (Units=GPa)
#
#
# Indices 1 2 3 4 5 6 
#
# 1 83.8951 52.7884 24.5050 6.4659 -3.9855 10.0633
# 2 52.7884 139.4010 54.6171 11.6029 -1.5918 -7.6732
# 3 24.5050 54.6171 104.0742 21.6912 -7.2488 -10.3435
# 4 6.4659 11.6029 21.6912 32.5080 -9.9813 -0.3384
# 5 -3.9855 -1.5918 -7.2488 -9.9813 29.5635 0.9413
# 6 10.0633 -7.6732 -10.3435 -0.3384 0.9413 29.3403
#
#
#
# Elastic Compliance Matrix: (Units=1/GPa)
#
#
# Indices 1 2 3 4 5 6 
#
# 1 0.017513 -0.006524 -0.001456 0.000356 0.002037 -0.008288
# 2 -0.006524 0.011493 -0.004119 -0.000495 -0.001560 0.003835
# 3 -0.001456 -0.004119 0.014132 -0.007510 0.000374 0.004306
# 4 0.000356 -0.000495 -0.007510 0.039403 0.011573 -0.002816
# 5 0.002037 -0.001560 0.000374 0.011573 0.038081 -0.002063
# 6 -0.008288 0.003835 0.004306 -0.002816 -0.002063 0.039480
#
#
# Mechanical properties :
#
#
# Convention : Reuss Voigt Hill
#
# Bulk Modulus (GPa) = 52.79901 65.68792 59.24347
# Shear Modulus (GPa) = 26.23106 31.31302 28.77204
#
# Velocity S-wave (km/s) = 3.33254 3.64108 3.49022
# Velocity P-wave (km/s) = 6.09607 6.74447 6.42845
#
# Compressibility (1/GPa) = 0.01893975
#
# Stress axis : x y z
#
# Youngs Moduli (GPa) = 57.09903 87.01281 70.75933
#
# Poissons Ratio (x) = 0.56768 0.10301
# Poissons Ratio (y) = 0.37252 0.29149
# Poissons Ratio (z) = 0.08312 0.35844
#
# Static dielectric constant tensor:
#      x y z
#    x 1.967010 0.056190 -0.053380 
#    y 0.056190 1.857300 0.045890 
#    z -0.053380 0.045890 1.912690 
# 
# From -- ./inp_files/88568.got.cif
#   From: 2010.05.17/outbox.cif.g08.bks.cpg/sg2_45_cif.got.tgz:88568.got - 2010.06.03 11:33:40.
