data_PCOD9046631
_publ_section_title
;
Structure prediction by ZEFSAII (Michael W. Deem and Ramdas Pophale) SiO2 
 PCOD9046631
Probable space group: P -1
;
_chemical_formula_sum "Si O2"
_cell_formula_units_Z 16
_cell_length_a 8.810789
_cell_length_b 14.230638
_cell_length_c 14.924370
_cell_angle_alpha 149.719204
_cell_angle_beta 65.795751
_cell_angle_gamma 95.630876
_cell_volume 715.046677
_symmetry_space_group_name_H-M "P -1"
_symmetry_group_IT_number 2
_symmetry_cell_setting 'triclinic'
loop_
_space_group_symop_operation_xyz
x,y,z
-x,-y,-z
loop_
_atom_site_type_symbol
_atom_site_label
_atom_site_fract_x
_atom_site_fract_y
_atom_site_fract_z
Si Si1 0.345839 0.353485 0.578353
Si Si2 0.889087 0.412623 0.011228
Si Si3 0.749309 0.831468 0.908127
Si Si4 0.054519 0.929025 0.636177
Si Si5 0.481241 0.521728 0.128558
Si Si6 0.840322 0.545421 0.484233
Si Si7 0.380839 0.940150 0.192282
Si Si8 0.768917 0.200342 0.319988
O O1 0.153016 0.523108 0.821247
O O2 0.294392 0.384363 0.511808
O O3 0.542566 0.355608 0.541408
O O4 0.402433 0.107693 0.387395
O O5 0.662415 0.539674 0.133422
O O6 0.000000 0.500000 0.000000
O O7 0.008496 0.144267 0.766728
O O8 0.787103 0.753268 0.731201
O O9 0.927233 0.600251 0.720286
O O10 0.534870 0.883794 0.028653
O O11 0.769172 0.029338 0.106229
O O12 0.258376 0.715496 0.372099
O O13 0.092834 0.931006 0.735587
O O14 0.849976 0.939226 0.681014
O O15 0.500000 0.500000 0.000000
O O16 0.542070 0.287496 0.963433
O O17 0.817706 0.365816 0.397488
#
# Coordination Sequence:
#
# PCOD9046631 Si02
#       8
#     2   2   2   2   2   2   2   2
#     4  11  25  46  69 106 144 190 237 297 363 424
#     4  11  27  46  73 107 142 182 240 294 362 439
#     4  10  24  43  66 104 140 190 245 286 360 422
#     4  11  25  47  74 102 145 195 229 302 366 421
#     4  11  26  46  73 103 138 186 241 299 365 429
#     4  11  24  42  73 103 148 189 246 300 357 425
#     4  10  26  44  72 103 146 182 244 293 354 437
#     4  11  23  46  70 102 150 188 246 293 357 431
#
# _framework density 22.376159000000001
#
# number of rings (size 3 to 8) (size 9 to 14) (size 15 to 20)
#    0.000    1.250    1.250    2.250   10.500    5.500 
#    4.500    0.000    0.000    0.000    0.000    0.000 
#    0.000    0.000    0.000    0.000    0.000    0.000 
#
# Total GULP energy -89403.772794 kJ/mol
# GULP energy per Si atom -5587.735800 kJ/mol
# Density = 2.232523 g / cm^3
# Si number density = 22.376159 Si / 1000 Ang^3
#
#
#
# Elastic Constant Matrix: (Units=GPa)
#
#
# Indices 1 2 3 4 5 6 
#
# 1 110.6348 63.8440 47.5202 -4.2601 -20.7415 11.2747
# 2 63.8440 92.4392 48.5961 -3.9216 -4.5764 7.2399
# 3 47.5202 48.5961 126.4602 -5.7422 -20.1528 4.3740
# 4 -4.2601 -3.9216 -5.7422 23.5537 -7.1548 3.8634
# 5 -20.7415 -4.5764 -20.1528 -7.1548 44.2927 -3.0356
# 6 11.2747 7.2399 4.3740 3.8634 -3.0356 36.9502
#
#
#
# Elastic Compliance Matrix: (Units=1/GPa)
#
#
# Indices 1 2 3 4 5 6 
#
# 1 0.017452 -0.010780 -0.001033 0.003709 0.006989 -0.002904
# 2 -0.010780 0.020452 -0.004692 -0.001221 -0.005299 -0.000470
# 3 -0.001033 -0.004692 0.010958 0.003077 0.004513 -0.000013
# 4 0.003709 -0.001221 0.003077 0.047702 0.010346 -0.005394
# 5 0.006989 -0.005299 0.004513 0.010346 0.029005 -0.000327
# 6 -0.002904 -0.000470 -0.000013 -0.005394 -0.000327 0.028581
#
#
# Mechanical properties :
#
#
# Convention : Reuss Voigt Hill
#
# Bulk Modulus (GPa) = 63.07962 72.16166 67.62064
# Shear Modulus (GPa) = 25.98155 32.26425 29.12290
#
# Velocity S-wave (km/s) = 3.41123 3.80136 3.61156
# Velocity P-wave (km/s) = 6.61567 7.18237 6.90484
#
# Compressibility (1/GPa) = 0.01585298
#
# Stress axis : x y z
#
# Youngs Moduli (GPa) = 57.29985 48.89386 91.25365
#
# Poissons Ratio (x) = 0.52705 0.09427
# Poissons Ratio (y) = 0.61767 0.42820
# Poissons Ratio (z) = 0.05919 0.22943
#
# Static dielectric constant tensor:
#      x y z
#    x 1.931390 -0.049220 0.027340 
#    y -0.049220 1.838700 -0.026960 
#    z 0.027340 -0.026960 1.925390 
# 
# From -- ./inp_files/505742.got.cif
#   From: 2010.05.17/outbox.cif.g08.bks.cpg/sg2_253_cif.got.tgz:505742.got - 2010.06.03 11:33:40.
