data_PCOD9046400
_publ_section_title
;
Structure prediction by ZEFSAII (Michael W. Deem and Ramdas Pophale) SiO2 
 PCOD9046400
Probable space group: P -1
;
_chemical_formula_sum "Si O2"
_cell_formula_units_Z 15
_cell_length_a 6.177840
_cell_length_b 17.601652
_cell_length_c 6.356726
_cell_angle_alpha 97.492863
_cell_angle_beta 80.828887
_cell_angle_gamma 91.638408
_cell_volume 676.546980
_symmetry_space_group_name_H-M "P -1"
_symmetry_group_IT_number 2
_symmetry_cell_setting 'triclinic'
loop_
_space_group_symop_operation_xyz
x,y,z
-x,-y,-z
loop_
_atom_site_type_symbol
_atom_site_label
_atom_site_fract_x
_atom_site_fract_y
_atom_site_fract_z
Si Si1 0.809155 0.726146 0.888500
Si Si2 0.517185 0.597029 0.746739
Si Si3 0.143928 0.847497 0.676474
Si Si4 0.000000 0.000000 0.500000
Si Si5 0.319855 0.940306 0.083176
Si Si6 0.205191 0.546751 0.399519
Si Si7 0.153310 0.662455 0.107994
Si Si8 0.562155 0.202201 0.738127
O O1 0.666289 0.673358 0.735829
O O2 0.955414 0.788451 0.763025
O O3 0.656016 0.760895 0.112805
O O4 0.968076 0.668732 0.966286
O O5 0.368608 0.582913 0.559914
O O6 0.651261 0.520833 0.749574
O O7 0.355195 0.616137 0.966773
O O8 0.054985 0.910793 0.548670
O O9 0.354717 0.805762 0.518705
O O10 0.230081 0.892331 0.883633
O O11 0.128042 0.981163 0.254610
O O12 0.440925 0.883051 0.202231
O O13 0.500000 0.000000 0.000000
O O14 0.101837 0.615037 0.305624
O O15 0.000000 0.500000 0.500000
O O16 0.239700 0.747579 0.174882
#
# Coordination Sequence:
#
# PCOD9046400 Si02
#       8
#     2   2   2   1   2   2   2   2
#     4  11  24  47  74 100 146 188 234 300 352 414
#     4  10  25  45  68 102 138 185 236 289 352 420
#     4  11  24  46  70 101 144 182 235 287 352 419
#     4  10  24  42  72 102 132 190 232 280 350 416
#     4  11  23  44  68 102 142 180 230 290 347 416
#     4  11  25  44  71 102 141 186 233 291 358 420
#     4  11  24  46  68 102 141 184 236 290 355 422
#     4  10  25  43  66 107 135 185 236 286 351 425
#
# _framework density 22.171408
#
# number of rings (size 3 to 8) (size 9 to 14) (size 15 to 20)
#    0.000    1.333    1.333    2.400    3.733    9.600 
#    2.400    0.000    0.000    0.000    0.000    0.000 
#    0.000    0.000    0.000    0.000    0.000    0.000 
#
# Total GULP energy -83515.308361 kJ/mol
# GULP energy per Si atom -5567.687224 kJ/mol
# Density = 2.212095 g / cm^3
# Si number density = 22.171408 Si / 1000 Ang^3
#
#
#
# Elastic Constant Matrix: (Units=GPa)
#
#
# Indices 1 2 3 4 5 6 
#
# 1 81.6505 53.2098 44.3459 -8.3646 -8.6860 26.1696
# 2 53.2098 115.7866 43.4185 -17.5195 -3.9755 22.9305
# 3 44.3459 43.4185 111.3610 10.2704 -29.0387 25.5291
# 4 -8.3646 -17.5195 10.2704 47.8381 -7.5816 -2.0903
# 5 -8.6860 -3.9755 -29.0387 -7.5816 26.7516 1.5821
# 6 26.1696 22.9305 25.5291 -2.0903 1.5821 42.7288
#
#
#
# Elastic Compliance Matrix: (Units=1/GPa)
#
#
# Indices 1 2 3 4 5 6 
#
# 1 0.021473 -0.006552 -0.003709 0.002313 0.003066 -0.007419
# 2 -0.006552 0.013730 -0.003676 0.004184 -0.002841 -0.000849
# 3 -0.003709 -0.003676 0.018684 -0.003492 0.017999 -0.007756
# 4 0.002313 0.004184 -0.003492 0.024279 0.004495 -0.000554
# 5 0.003066 -0.002841 0.017999 0.004495 0.059541 -0.013092
# 6 -0.007419 -0.000849 -0.007756 -0.000554 -0.013092 0.033494
#
#
# Mechanical properties :
#
#
# Convention : Reuss Voigt Hill
#
# Bulk Modulus (GPa) = 38.44476 65.63848 52.04162
# Shear Modulus (GPa) = 24.06786 34.65196 29.35991
#
# Velocity S-wave (km/s) = 3.29832 3.95766 3.64294
# Velocity P-wave (km/s) = 5.64647 7.11009 6.42013
#
# Compressibility (1/GPa) = 0.02601135
#
# Stress axis : x y z
#
# Youngs Moduli (GPa) = 46.57015 72.83359 53.52274
#
# Poissons Ratio (x) = 0.47724 0.19852
# Poissons Ratio (y) = 0.30515 0.19675
# Poissons Ratio (z) = 0.17273 0.26774
#
# Static dielectric constant tensor:
#      x y z
#    x 1.830770 -0.014480 0.006680 
#    y -0.014480 1.814650 0.006060 
#    z 0.006680 0.006060 1.874360 
# 
# From -- ./inp_files/7943.got.cif
#   From: 2010.05.17/outbox.cif.g08.bks.cpg/sg2_4_cif.got.tgz:7943.got - 2010.06.03 11:33:40.
