data_PCOD9046553
_publ_section_title
;
Structure prediction by ZEFSAII (Michael W. Deem and Ramdas Pophale) SiO2 
 PCOD9046553
Probable space group: P -1
;
_chemical_formula_sum "Si O2"
_cell_formula_units_Z 16
_cell_length_a 7.993339
_cell_length_b 18.236219
_cell_length_c 11.520882
_cell_angle_alpha 135.409196
_cell_angle_beta 112.242782
_cell_angle_gamma 102.847191
_cell_volume 713.003291
_symmetry_space_group_name_H-M "P -1"
_symmetry_group_IT_number 2
_symmetry_cell_setting 'triclinic'
loop_
_space_group_symop_operation_xyz
x,y,z
-x,-y,-z
loop_
_atom_site_type_symbol
_atom_site_label
_atom_site_fract_x
_atom_site_fract_y
_atom_site_fract_z
Si Si1 0.253806 0.506521 0.855807
Si Si2 0.231223 0.403614 0.973624
Si Si3 0.623982 0.054998 0.466807
Si Si4 0.814189 0.229642 0.251827
Si Si5 0.808789 0.012628 0.865487
Si Si6 0.368473 0.166907 0.158313
Si Si7 0.681321 0.510074 0.645504
Si Si8 0.244066 0.712455 0.935950
O O1 0.193751 0.474179 0.941686
O O2 0.262531 0.619675 0.917045
O O3 0.019908 0.338297 0.535400
O O4 0.551824 0.584775 0.005474
O O5 0.940427 0.221475 0.719349
O O6 0.357746 0.494457 0.232540
O O7 0.500000 0.000000 0.500000
O O8 0.443494 0.063316 0.364561
O O9 0.530231 0.901267 0.219822
O O10 0.871156 0.143121 0.108126
O O11 0.501741 0.119564 0.088980
O O12 0.854546 0.331331 0.272810
O O13 0.075013 0.085849 0.948453
O O14 0.698981 0.879400 0.776588
O O15 0.601407 0.356659 0.421042
O O16 0.500000 0.500000 0.500000
O O17 0.000549 0.672880 0.887027
#
# Coordination Sequence:
#
# PCOD9046553 Si02
#       8
#     2   2   2   2   2   2   2   2
#     4  11  24  44  66 103 134 180 228 280 346 409
#     4  11  26  43  70  92 140 182 222 283 348 404
#     4  11  23  43  64  95 137 182 217 282 336 406
#     4  11  22  43  71 100 139 173 232 289 331 408
#     4  10  24  43  64 103 138 175 232 275 343 418
#     4  11  23  40  71  99 130 183 221 285 351 393
#     4  12  24  42  69  99 126 175 233 284 336 405
#     4  11  24  41  67 100 132 174 230 277 339 402
#
# _framework density 22.440287999999999
#
# number of rings (size 3 to 8) (size 9 to 14) (size 15 to 20)
#    0.000    1.000    2.500    4.500    1.750    3.000 
#    0.000    5.000    0.000    0.000    0.000    0.000 
#    0.000    0.000    0.000    0.000    0.000    0.000 
#
# Total GULP energy -89317.383095 kJ/mol
# GULP energy per Si atom -5582.336443 kJ/mol
# Density = 2.238921 g / cm^3
# Si number density = 22.440288 Si / 1000 Ang^3
#
#
#
# Elastic Constant Matrix: (Units=GPa)
#
#
# Indices 1 2 3 4 5 6 
#
# 1 93.3968 21.7230 37.0909 3.8542 31.0071 4.3422
# 2 21.7230 132.2525 34.9183 -21.7969 3.2564 2.3904
# 3 37.0909 34.9183 72.5080 -9.5512 16.4489 -3.4797
# 4 3.8542 -21.7969 -9.5512 39.6606 4.5136 -0.0861
# 5 31.0071 3.2564 16.4489 4.5136 28.0182 -1.0955
# 6 4.3422 2.3904 -3.4797 -0.0861 -1.0955 40.4270
#
#
#
# Elastic Compliance Matrix: (Units=1/GPa)
#
#
# Indices 1 2 3 4 5 6 
#
# 1 0.019418 -0.001573 -0.005543 -0.002063 -0.017836 -0.002957
# 2 -0.001573 0.009451 -0.003701 0.004214 0.002112 -0.000642
# 3 -0.005543 -0.003701 0.020427 0.004111 -0.005996 0.002419
# 4 -0.002063 0.004214 0.004111 0.029328 -0.005335 0.000244
# 5 -0.017836 0.002112 -0.005996 -0.005335 0.059677 0.002881
# 6 -0.002957 -0.000642 0.002419 0.000244 0.002881 0.025378
#
#
# Mechanical properties :
#
#
# Convention : Reuss Voigt Hill
#
# Bulk Modulus (GPa) = 36.15184 53.95795 45.05490
# Shear Modulus (GPa) = 25.70214 35.24951 30.47582
#
# Velocity S-wave (km/s) = 3.38798 3.96765 3.68922
# Velocity P-wave (km/s) = 5.60801 6.71468 6.18614
#
# Compressibility (1/GPa) = 0.02766111
#
# Stress axis : x y z
#
# Youngs Moduli (GPa) = 51.49747 105.80736 48.95381
#
# Poissons Ratio (x) = 0.16648 0.27135
# Poissons Ratio (y) = 0.08103 0.18120
# Poissons Ratio (z) = 0.28545 0.39164
#
# Static dielectric constant tensor:
#      x y z
#    x 1.902200 -0.013250 -0.040820 
#    y -0.013250 1.895840 -0.009750 
#    z -0.040820 -0.009750 1.881920 
# 
# From -- ./inp_files/402254.got.cif
#   From: 2010.05.17/outbox.cif.g08.bks.cpg/sg2_202_cif.got.tgz:402254.got - 2010.06.03 11:33:40.
