data_PCOD9046468
_publ_section_title
;
Structure prediction by ZEFSAII (Michael W. Deem and Ramdas Pophale) SiO2 
 PCOD9046468
Probable space group: P -1
;
_chemical_formula_sum "Si O2"
_cell_formula_units_Z 16
_cell_length_a 20.895692
_cell_length_b 17.780159
_cell_length_c 5.137213
_cell_angle_alpha 104.416466
_cell_angle_beta 74.497229
_cell_angle_gamma 160.135766
_cell_volume 624.923252
_symmetry_space_group_name_H-M "P -1"
_symmetry_group_IT_number 2
_symmetry_cell_setting 'triclinic'
loop_
_space_group_symop_operation_xyz
x,y,z
-x,-y,-z
loop_
_atom_site_type_symbol
_atom_site_label
_atom_site_fract_x
_atom_site_fract_y
_atom_site_fract_z
Si Si1 0.681448 0.230298 0.717336
Si Si2 0.173813 0.299631 0.992655
Si Si3 0.302134 0.207424 0.579885
Si Si4 0.060113 0.286539 0.476958
Si Si5 0.367796 0.974102 0.100644
Si Si6 0.811815 0.829322 0.802470
Si Si7 0.935223 0.533869 0.205823
Si Si8 0.546970 0.333096 0.360330
O O1 0.601258 0.058576 0.743298
O O2 0.801400 0.354832 0.429513
O O3 0.822038 0.410385 0.952438
O O4 0.507892 0.101434 0.823755
O O5 0.083757 0.284283 0.150666
O O6 0.183699 0.255529 0.195732
O O7 0.378267 0.542552 0.873464
O O8 0.032519 0.097832 0.783277
O O9 0.262210 0.209055 0.889926
O O10 0.438512 0.285354 0.568109
O O11 0.317720 0.287411 0.398093
O O12 0.119445 0.959970 0.456788
O O13 0.025223 0.336839 0.618115
O O14 0.261556 0.486053 0.555313
O O15 0.141480 0.723287 0.090395
O O16 0.425882 0.123784 0.255287
#
# Coordination Sequence:
#
# PCOD9046468 Si02
#       8
#     2   2   2   2   2   2   2   2
#     4  11  27  48  74 108 148 185 244 294 356 423
#     4  10  24  42  73  96 142 179 234 283 359 406
#     4  11  25  44  69  98 138 177 234 280 355 414
#     4  11  24  44  67 101 139 182 228 291 349 418
#     4  11  25  47  74 110 143 193 239 295 356 433
#     4  10  24  46  70 100 134 186 226 290 344 425
#     4  12  25  49  75 104 146 195 236 296 357 424
#     4  12  24  45  67 104 135 186 226 296 347 419
#
# _framework density 25.603141999999998
#
# number of rings (size 3 to 8) (size 9 to 14) (size 15 to 20)
#    0.000    1.000    3.750    1.500    3.500    5.500 
#    4.500    0.000    0.000    0.000    0.000    0.000 
#    0.000    0.000    0.000    0.000    0.000    0.000 
#
# Total GULP energy -89545.830428 kJ/mol
# GULP energy per Si atom -5596.614402 kJ/mol
# Density = 2.554487 g / cm^3
# Si number density = 25.603142 Si / 1000 Ang^3
#
#
#
# Elastic Constant Matrix: (Units=GPa)
#
#
# Indices 1 2 3 4 5 6 
#
# 1 100.1082 38.1108 35.0510 -7.1749 -29.0828 11.0712
# 2 38.1108 119.4799 40.3065 7.6949 3.1613 20.6808
# 3 35.0510 40.3065 112.6108 -3.2592 -5.9550 6.3753
# 4 -7.1749 7.6949 -3.2592 39.0145 4.7594 -9.1721
# 5 -29.0828 3.1613 -5.9550 4.7594 43.0931 -0.3450
# 6 11.0712 20.6808 6.3753 -9.1721 -0.3450 53.7224
#
#
#
# Elastic Compliance Matrix: (Units=1/GPa)
#
#
# Indices 1 2 3 4 5 6 
#
# 1 0.015896 -0.004427 -0.002703 0.002103 0.010440 -0.000825
# 2 -0.004427 0.011811 -0.002941 -0.003850 -0.003867 -0.003968
# 3 -0.002703 -0.002941 0.010760 0.001154 -0.000244 0.000608
# 4 0.002103 -0.003850 0.001154 0.028375 -0.001226 0.005748
# 5 0.010440 -0.003867 -0.000244 -0.001226 0.030632 -0.000646
# 6 -0.000825 -0.003968 0.000608 0.005748 -0.000646 0.021217
#
#
# Mechanical properties :
#
#
# Convention : Reuss Voigt Hill
#
# Bulk Modulus (GPa) = 54.57262 62.12619 58.34941
# Shear Modulus (GPa) = 34.49641 41.74801 38.12221
#
# Velocity S-wave (km/s) = 3.67461 4.04243 3.86290
# Velocity P-wave (km/s) = 6.27413 6.79014 6.53723
#
# Compressibility (1/GPa) = 0.01832421
#
# Stress axis : x y z
#
# Youngs Moduli (GPa) = 62.90775 84.66728 92.93450
#
# Poissons Ratio (x) = 0.37486 0.25125
# Poissons Ratio (y) = 0.27852 0.27329
# Poissons Ratio (z) = 0.17007 0.24898
#
# Static dielectric constant tensor:
#      x y z
#    x 2.002380 0.033410 0.016280 
#    y 0.033410 2.095690 -0.060610 
#    z 0.016280 -0.060610 2.056660 
# 
# From -- ./inp_files/120111.got.cif
#   From: 2010.05.17/outbox.cif.g08.bks.cpg/sg2_61_cif.got.tgz:120111.got - 2010.06.03 11:33:40.
