data_PCOD9046233
_publ_section_title
;
Structure prediction by ZEFSAII (Michael W. Deem and Ramdas Pophale) SiO2 
 PCOD9046233
Probable space group: P -1
;
_chemical_formula_sum "Si O2"
_cell_formula_units_Z 16
_cell_length_a 29.528575
_cell_length_b 13.066395
_cell_length_c 10.135940
_cell_angle_alpha 51.869427
_cell_angle_beta 37.168062
_cell_angle_gamma 24.609323
_cell_volume 890.426383
_symmetry_space_group_name_H-M "P -1"
_symmetry_group_IT_number 2
_symmetry_cell_setting 'triclinic'
loop_
_space_group_symop_operation_xyz
x,y,z
-x,-y,-z
loop_
_atom_site_type_symbol
_atom_site_label
_atom_site_fract_x
_atom_site_fract_y
_atom_site_fract_z
Si Si1 0.143510 0.584990 0.550079
Si Si2 0.165352 0.531206 0.841366
Si Si3 0.194565 0.971048 0.011654
Si Si4 0.186118 0.943001 0.736050
Si Si5 0.282701 0.130879 0.719087
Si Si6 0.387716 0.292930 0.007881
Si Si7 0.511409 0.387558 0.692337
Si Si8 0.343462 0.428152 0.720393
O O1 0.148571 0.623037 0.661265
O O2 0.216279 0.327949 0.601998
O O3 0.253928 0.495581 0.267901
O O4 0.965088 0.846213 0.708212
O O5 0.234173 0.284961 0.839775
O O6 0.276847 0.446159 0.740976
O O7 0.994655 0.773955 0.108686
O O8 0.180428 0.967716 0.889176
O O9 0.361999 0.656026 0.913074
O O10 0.205681 0.107639 0.903473
O O11 0.316464 0.848414 0.462876
O O12 0.256256 0.698132 0.724401
O O13 0.469868 0.835672 0.514523
O O14 0.482825 0.283050 0.802048
O O15 0.315837 0.395563 0.947678
O O16 0.500000 0.000000 0.000000
O O17 0.500000 0.500000 0.500000
#
# Coordination Sequence:
#
# PCOD9046233 Si02
#       8
#     2   2   2   2   2   2   2   2
#     4   9  22  33  52  90 114 143 183 245 286 324
#     4   9  22  35  56  87 115 152 189 235 279 345
#     4  10  17  34  55  85 111 144 193 237 276 334
#     4  10  19  34  59  84 108 148 202 236 268 330
#     4  10  19  33  58  84 112 147 191 231 280 331
#     4  12  22  34  57  90 116 145 186 244 292 323
#     4  10  19  34  57  84 110 147 193 237 275 335
#     4  12  19  37  58  84 116 153 194 227 281 350
#
# _framework density 17.968919
#
# number of rings (size 3 to 8) (size 9 to 14) (size 15 to 20)
#    0.750    1.000    5.000    1.875    0.000    0.500 
#    0.000    0.000    0.000    5.250    0.000    0.000 
#    0.000    0.000    0.000    0.000    0.000    0.000 
#
# Total GULP energy -89090.191773 kJ/mol
# GULP energy per Si atom -5568.136986 kJ/mol
# Density = 1.792802 g / cm^3
# Si number density = 17.968919 Si / 1000 Ang^3
#
#
#
# Elastic Constant Matrix: (Units=GPa)
#
#
# Indices 1 2 3 4 5 6 
#
# 1 1077.0027 68.7420 804.1487 -169.2022 -440.8560 166.8699
# 2 68.7420 78.1959 76.2021 4.9994 -22.4654 32.5374
# 3 804.1487 76.2021 692.8016 -116.3218 -343.9780 116.1558
# 4 -169.2022 4.9994 -116.3218 59.9180 73.8836 -29.3672
# 5 -440.8560 -22.4654 -343.9780 73.8836 202.4325 -67.8839
# 6 166.8699 32.5374 116.1558 -29.3672 -67.8839 48.2345
#
#
#
# Elastic Compliance Matrix: (Units=1/GPa)
#
#
# Indices 1 2 3 4 5 6 
#
# 1 0.014942 0.006211 -0.009794 0.001697 0.010385 -0.016647
# 2 0.006211 0.034176 -0.013672 -0.013908 -0.014339 -0.040265
# 3 -0.009794 -0.013672 0.018812 0.000565 0.015701 0.020247
# 4 0.001697 -0.013908 0.000565 0.038887 -0.004582 0.019376
# 5 0.010385 -0.014339 0.015701 -0.004582 0.060408 0.018159
# 6 -0.016647 -0.040265 0.020247 0.019376 0.018159 0.094081
#
#
# Mechanical properties :
#
#
# Convention : Reuss Voigt Hill
#
# Bulk Modulus (GPa) = 29.92306 416.24287 223.08297
# Shear Modulus (GPa) = 16.28899 122.04416 69.16658
#
# Velocity S-wave (km/s) = 3.01410 8.25027 6.21095
# Velocity P-wave (km/s) = 5.36674 17.96956 13.26097
#
# Compressibility (1/GPa) = 0.03341904
#
# Stress axis : x y z
#
# Youngs Moduli (GPa) = 66.92483 29.26055 53.15813
#
# Poissons Ratio (x) = -0.18174 0.52065
# Poissons Ratio (y) = -0.41567 0.72677
# Poissons Ratio (z) = 0.65549 0.40005
#
# Static dielectric constant tensor:
#      x y z
#    x 1.640870 -0.003300 -0.010130 
#    y -0.003300 1.653940 0.031710 
#    z -0.010130 0.031710 1.651630 
# 
# From -- ./inp_files/477556.got.cif
#   From: 2010.05.17/outbox.cif.g08.bks.cpg/sg2_239_cif.got.tgz:477556.got - 2010.06.03 11:33:40.
