data_PCOD9046600
_publ_section_title
;
Structure prediction by ZEFSAII (Michael W. Deem and Ramdas Pophale) SiO2 
 PCOD9046600
Probable space group: P -1
;
_chemical_formula_sum "Si O2"
_cell_formula_units_Z 16
_cell_length_a 19.983063
_cell_length_b 17.663175
_cell_length_c 8.412773
_cell_angle_alpha 121.677842
_cell_angle_beta 134.694564
_cell_angle_gamma 21.675678
_cell_volume 679.974337
_symmetry_space_group_name_H-M "P -1"
_symmetry_group_IT_number 2
_symmetry_cell_setting 'triclinic'
loop_
_space_group_symop_operation_xyz
x,y,z
-x,-y,-z
loop_
_atom_site_type_symbol
_atom_site_label
_atom_site_fract_x
_atom_site_fract_y
_atom_site_fract_z
Si Si1 0.518507 0.143829 0.898847
Si Si2 0.503186 0.412808 0.024381
Si Si3 0.044890 0.856242 0.940615
Si Si4 0.948995 0.634405 0.466873
Si Si5 0.658299 0.062610 0.410402
Si Si6 0.848629 0.714684 0.048112
Si Si7 0.093778 0.065268 0.843203
Si Si8 0.740825 0.493575 0.542956
O O1 0.564008 0.126591 0.143539
O O2 0.705694 0.033920 0.977597
O O3 0.600354 0.968111 0.829597
O O4 0.236549 0.411497 0.678307
O O5 0.391124 0.433081 0.748085
O O6 0.500000 0.500000 0.000000
O O7 0.774039 0.140267 0.222039
O O8 0.326645 0.585668 0.068813
O O9 0.870081 0.953072 0.636478
O O10 0.965954 0.895718 0.028457
O O11 0.000000 0.000000 0.000000
O O12 0.000000 0.500000 0.500000
O O13 0.806809 0.727642 0.174441
O O14 0.788681 0.862496 0.491062
O O15 0.441774 0.290732 0.411069
O O16 0.034375 0.637063 0.270204
O O17 0.000000 0.500000 0.000000
O O18 0.849169 0.314527 0.622683
#
# Coordination Sequence:
#
# PCOD9046600 Si02
#       8
#     2   2   2   2   2   2   2   2
#     4  10  24  45  67  99 142 184 234 286 350 417
#     4  12  24  47  70  99 147 178 226 298 342 413
#     4  12  24  46  73 107 140 185 236 289 354 415
#     4  11  26  43  71 104 136 185 236 290 355 420
#     4  11  25  44  71 100 145 182 231 297 351 413
#     4  10  24  43  65  95 139 179 231 293 347 412
#     4  11  24  44  70 101 134 187 233 277 353 413
#     4  11  25  45  68 102 138 186 230 287 353 414
#
# _framework density 23.530301999999999
#
# number of rings (size 3 to 8) (size 9 to 14) (size 15 to 20)
#    0.000    1.000    2.500    3.750    7.000    3.000 
#    2.250    1.250    0.000    0.000    0.000    0.000 
#    0.000    0.000    0.000    0.000    0.000    0.000 
#
# Total GULP energy -89445.347454 kJ/mol
# GULP energy per Si atom -5590.334216 kJ/mol
# Density = 2.347675 g / cm^3
# Si number density = 23.530302 Si / 1000 Ang^3
#
#
#
# Elastic Constant Matrix: (Units=GPa)
#
#
# Indices 1 2 3 4 5 6 
#
# 1 138.1255 52.8758 21.5997 -6.1203 -16.6910 10.0617
# 2 52.8758 216.8815 31.6057 -22.2306 -22.0266 10.3836
# 3 21.5997 31.6057 52.4536 -11.0648 -5.7995 10.5447
# 4 -6.1203 -22.2306 -11.0648 39.4000 9.7647 -2.4914
# 5 -16.6910 -22.0266 -5.7995 9.7647 28.6335 -7.0965
# 6 10.0617 10.3836 10.5447 -2.4914 -7.0965 55.4838
#
#
#
# Elastic Compliance Matrix: (Units=1/GPa)
#
#
# Indices 1 2 3 4 5 6 
#
# 1 0.008602 -0.001467 -0.002402 -0.001103 0.003674 -0.000408
# 2 -0.001467 0.005723 -0.002198 0.001764 0.002504 0.000012
# 3 -0.002402 -0.002198 0.022987 0.004859 -0.000941 -0.003424
# 4 -0.001103 0.001764 0.004859 0.029653 -0.008618 -0.000824
# 5 0.003674 0.002504 -0.000941 -0.008618 0.042763 0.004126
# 6 -0.000408 0.000012 -0.003424 -0.000824 0.004126 0.019237
#
#
# Mechanical properties :
#
#
# Convention : Reuss Voigt Hill
#
# Bulk Modulus (GPa) = 39.71789 68.84700 54.28245
# Shear Modulus (GPa) = 33.44642 44.79541 39.12092
#
# Velocity S-wave (km/s) = 3.77426 4.36791 4.08189
# Velocity P-wave (km/s) = 5.99245 7.40004 6.73313
#
# Compressibility (1/GPa) = 0.02517757
#
# Stress axis : x y z
#
# Youngs Moduli (GPa) = 116.25149 174.72154 43.50234
#
# Poissons Ratio (x) = 0.25640 0.10451
# Poissons Ratio (y) = 0.17060 0.09561
# Poissons Ratio (z) = 0.27928 0.38400
#
# Static dielectric constant tensor:
#      x y z
#    x 1.947030 -0.005150 0.046940 
#    y -0.005150 1.937600 -0.021940 
#    z 0.046940 -0.021940 1.930960 
# 
# From -- ./inp_files/348525.got.cif
#   From: 2010.05.17/outbox.cif.g08.bks.cpg/sg2_175_cif.got.tgz:348525.got - 2010.06.03 11:33:40.
