data_PCOD9046305
_publ_section_title
;
Structure prediction by ZEFSAII (Michael W. Deem and Ramdas Pophale) SiO2 
 PCOD9046305
Probable space group: P -1
;
_chemical_formula_sum "Si O2"
_cell_formula_units_Z 14
_cell_length_a 9.080232
_cell_length_b 11.679345
_cell_length_c 8.323040
_cell_angle_alpha 105.265705
_cell_angle_beta 124.183600
_cell_angle_gamma 53.926197
_cell_volume 587.156149
_symmetry_space_group_name_H-M "P -1"
_symmetry_group_IT_number 2
_symmetry_cell_setting 'triclinic'
loop_
_space_group_symop_operation_xyz
x,y,z
-x,-y,-z
loop_
_atom_site_type_symbol
_atom_site_label
_atom_site_fract_x
_atom_site_fract_y
_atom_site_fract_z
Si Si1 0.770639 0.528932 0.328875
Si Si2 0.873935 0.299173 0.545410
Si Si3 0.198488 0.037330 0.466311
Si Si4 0.645666 0.272788 0.677363
Si Si5 0.595595 0.899252 0.871072
Si Si6 0.170566 0.384568 0.936142
Si Si7 0.989912 0.861078 0.936035
O O1 0.774331 0.397168 0.362287
O O2 0.589915 0.659950 0.374504
O O3 0.746283 0.559140 0.133937
O O4 0.000000 0.500000 0.500000
O O5 0.693089 0.340401 0.581683
O O6 0.014466 0.133201 0.518586
O O7 0.044238 0.327272 0.740486
O O8 0.109375 0.139212 0.294444
O O9 0.246280 0.887722 0.379396
O O10 0.427429 0.987246 0.659913
O O11 0.780753 0.266851 0.912595
O O12 0.821620 0.873677 0.963087
O O13 0.640998 0.746386 0.892552
O O14 0.500000 0.000000 0.000000
O O15 0.000000 0.500000 0.000000
O O16 0.000000 0.000000 0.000000
#
# Coordination Sequence:
#
# PCOD9046305 Si02
#       7
#     2   2   2   2   2   2   2
#     4  10  26  45  70 101 139 189 239 288 352 431
#     4  11  23  47  72 105 146 184 239 295 360 425
#     4  11  25  41  77 111 144 185 239 293 362 425
#     4  11  23  48  74 106 146 188 235 302 363 422
#     4  12  24  44  74 104 142 187 242 296 357 423
#     4  11  26  46  70  98 147 188 244 291 352 428
#     4  10  24  42  70 105 149 177 236 291 365 421
#
# _framework density 23.843741999999999
#
# number of rings (size 3 to 8) (size 9 to 14) (size 15 to 20)
#    0.000    1.143    2.857    1.286   10.000    2.286 
#    0.000    1.429    0.000    0.000    0.000    0.000 
#    0.000    0.000    0.000    0.000    0.000    0.000 
#
# Total GULP energy -78187.706951 kJ/mol
# GULP energy per Si atom -5584.836211 kJ/mol
# Density = 2.378947 g / cm^3
# Si number density = 23.843742 Si / 1000 Ang^3
#
#
#
# Elastic Constant Matrix: (Units=GPa)
#
#
# Indices 1 2 3 4 5 6 
#
# 1 137.7723 38.1008 52.3113 -24.9626 -24.9226 -16.4324
# 2 38.1008 125.9156 35.7807 -9.3246 -21.4411 -23.3752
# 3 52.3113 35.7807 87.5993 -8.9658 -6.7728 -8.5761
# 4 -24.9626 -9.3246 -8.9658 24.0360 1.5802 1.7027
# 5 -24.9226 -21.4411 -6.7728 1.5802 27.3114 -5.0646
# 6 -16.4324 -23.3752 -8.5761 1.7027 -5.0646 39.0552
#
#
#
# Elastic Compliance Matrix: (Units=1/GPa)
#
#
# Indices 1 2 3 4 5 6 
#
# 1 0.014903 0.002092 -0.006668 0.012343 0.014240 0.007366
# 2 0.002092 0.012481 -0.004133 0.004052 0.012086 0.008833
# 3 -0.006668 -0.004133 0.016220 -0.001941 -0.005634 -0.002364
# 4 0.012343 0.004052 -0.001941 0.054028 0.012024 0.006396
# 5 0.014240 0.012086 -0.005634 0.012024 0.060587 0.019321
# 6 0.007366 0.008833 -0.002364 0.006396 0.019321 0.035699
#
#
# Mechanical properties :
#
#
# Convention : Reuss Voigt Hill
#
# Bulk Modulus (GPa) = 38.18988 67.07474 52.63231
# Shear Modulus (GPa) = 22.72037 33.08680 27.90359
#
# Velocity S-wave (km/s) = 3.09023 3.72916 3.42463
# Velocity P-wave (km/s) = 5.36509 6.83624 6.14485
#
# Compressibility (1/GPa) = 0.02618495
#
# Stress axis : x y z
#
# Youngs Moduli (GPa) = 67.10155 80.11915 61.65060
#
# Poissons Ratio (x) = -0.16760 0.41111
# Poissons Ratio (y) = -0.14037 0.25482
# Poissons Ratio (z) = 0.44746 0.33116
#
# Static dielectric constant tensor:
#      x y z
#    x 1.879610 0.047820 -0.032450 
#    y 0.047820 1.915890 0.008440 
#    z -0.032450 0.008440 1.961670 
# 
# From -- ./inp_files/188752.got.cif
#   From: 2010.05.17/outbox.cif.g08.bks.cpg/sg2_95_cif.got.tgz:188752.got - 2010.06.03 11:33:40.
