data_PCOD9046416
_publ_section_title
;
Structure prediction by ZEFSAII (Michael W. Deem and Ramdas Pophale) SiO2 
 PCOD9046416
Probable space group: P -1
;
_chemical_formula_sum "Si O2"
_cell_formula_units_Z 13
_cell_length_a 7.927090
_cell_length_b 5.387379
_cell_length_c 17.726935
_cell_angle_alpha 105.847297
_cell_angle_beta 130.902389
_cell_angle_gamma 58.936180
_cell_volume 487.681599
_symmetry_space_group_name_H-M "P -1"
_symmetry_group_IT_number 2
_symmetry_cell_setting 'triclinic'
loop_
_space_group_symop_operation_xyz
x,y,z
-x,-y,-z
loop_
_atom_site_type_symbol
_atom_site_label
_atom_site_fract_x
_atom_site_fract_y
_atom_site_fract_z
Si Si1 0.354214 0.037624 0.127627
Si Si2 0.865901 0.607857 0.773204
Si Si3 0.148344 0.978912 0.657445
Si Si4 0.382024 0.557277 0.886071
Si Si5 0.808889 0.448976 0.492630
Si Si6 0.500000 0.000000 0.000000
Si Si7 0.730626 0.097316 0.656336
O O1 0.326193 0.089310 0.034229
O O2 0.596164 0.059157 0.234276
O O3 0.134386 0.266420 0.133283
O O4 0.418643 0.696937 0.129004
O O5 0.782729 0.357135 0.725702
O O6 0.149793 0.491687 0.817873
O O7 0.713435 0.887552 0.697762
O O8 0.952763 0.301197 0.598700
O O9 0.969310 0.912928 0.656211
O O10 0.227911 0.786479 0.588964
O O11 0.500000 0.500000 0.000000
O O12 0.316351 0.890412 0.891787
O O13 0.540785 0.726592 0.448356
O O14 0.000000 0.500000 0.500000
#
# Coordination Sequence:
#
# PCOD9046416 Si02
#       7
#     2   2   2   2   2   1   2
#     4  11  23  46  73 102 146 192 242 308 361 443
#     4  12  27  45  76 109 143 197 247 296 373 438
#     4  11  24  45  73 102 151 192 248 300 367 432
#     4  10  24  45  70 103 139 186 240 303 364 433
#     4  11  26  44  71 110 146 198 244 304 365 434
#     4  10  24  42  72 104 136 184 244 292 378 420
#     4  12  27  46  73 110 148 194 249 299 363 442
#
# _framework density 26.656735000000001
#
# number of rings (size 3 to 8) (size 9 to 14) (size 15 to 20)
#    0.000    0.923    3.077    2.308    8.615    5.538 
#    0.000    3.846    0.000    0.000    0.000    0.000 
#    0.000    0.000    0.000    0.000    0.000    0.000 
#
# Total GULP energy -72473.102151 kJ/mol
# GULP energy per Si atom -5574.854012 kJ/mol
# Density = 2.659606 g / cm^3
# Si number density = 26.656735 Si / 1000 Ang^3
#
#
#
# Elastic Constant Matrix: (Units=GPa)
#
#
# Indices 1 2 3 4 5 6 
#
# 1 76.3185 19.6028 -0.9611 7.3229 -12.6512 5.8952
# 2 19.6028 120.5570 26.3978 23.1502 -2.4173 -3.3935
# 3 -0.9611 26.3978 80.3482 2.5618 -7.1107 13.6229
# 4 7.3229 23.1502 2.5618 46.6440 -3.8029 -7.4660
# 5 -12.6512 -2.4173 -7.1107 -3.8029 54.4044 5.7947
# 6 5.8952 -3.3935 13.6229 -7.4660 5.7947 40.5897
#
#
#
# Elastic Compliance Matrix: (Units=1/GPa)
#
#
# Indices 1 2 3 4 5 6 
#
# 1 0.014902 -0.002636 0.002104 -0.001453 0.003939 -0.003920
# 2 -0.002636 0.010403 -0.003729 -0.004338 -0.001140 0.001869
# 3 0.002104 -0.003729 0.014986 -0.000036 0.002926 -0.006071
# 4 -0.001453 -0.004338 -0.000036 0.024566 0.000726 0.004275
# 5 0.003939 -0.001140 0.002926 0.000726 0.020147 -0.004392
# 6 -0.003920 0.001869 -0.006071 0.004275 -0.004392 0.028814
#
#
# Mechanical properties :
#
#
# Convention : Reuss Voigt Hill
#
# Bulk Modulus (GPa) = 31.47786 40.81140 36.14463
# Shear Modulus (GPa) = 37.61439 43.80658 40.71049
#
# Velocity S-wave (km/s) = 3.76049 4.05823 3.91220
# Velocity P-wave (km/s) = 5.53979 6.10756 5.83059
#
# Compressibility (1/GPa) = 0.03176836
#
# Stress axis : x y z
#
# Youngs Moduli (GPa) = 67.10585 96.12866 66.73105
#
# Poissons Ratio (x) = 0.25340 -0.14040
# Poissons Ratio (y) = 0.17690 0.24882
# Poissons Ratio (z) = -0.14119 0.35844
#
# Static dielectric constant tensor:
#      x y z
#    x 2.191640 0.122110 -0.065910 
#    y 0.122110 2.182470 -0.038400 
#    z -0.065910 -0.038400 2.136920 
# 
# From -- ./inp_files/584993.got.cif
#   From: 2010.05.17/outbox.cif.g08.bks.cpg/sg2_293_cif.got.tgz:584993.got - 2010.06.03 11:33:40.
