data_PCOD9046320
_publ_section_title
;
Structure prediction by ZEFSAII (Michael W. Deem and Ramdas Pophale) SiO2 
 PCOD9046320
Probable space group: P -1
;
_chemical_formula_sum "Si O2"
_cell_formula_units_Z 16
_cell_length_a 16.410061
_cell_length_b 23.037039
_cell_length_c 12.185257
_cell_angle_alpha 24.181642
_cell_angle_beta 148.000840
_cell_angle_gamma 159.733859
_cell_volume 652.641323
_symmetry_space_group_name_H-M "P -1"
_symmetry_group_IT_number 2
_symmetry_cell_setting 'triclinic'
loop_
_space_group_symop_operation_xyz
x,y,z
-x,-y,-z
loop_
_atom_site_type_symbol
_atom_site_label
_atom_site_fract_x
_atom_site_fract_y
_atom_site_fract_z
Si Si1 0.463626 0.601873 0.196052
Si Si2 0.044243 0.610782 0.974786
Si Si3 0.409362 0.417391 0.866541
Si Si4 0.825382 0.234385 0.846541
Si Si5 0.213432 0.713321 0.526096
Si Si6 0.536625 0.227583 0.672670
Si Si7 0.873479 0.095948 0.761855
Si Si8 0.694994 0.949968 0.580441
O O1 0.500000 0.500000 0.500000
O O2 0.490845 0.556123 0.184239
O O3 0.219040 0.517082 0.074016
O O4 0.677377 0.863433 0.997601
O O5 0.181972 0.856607 0.693667
O O6 0.245023 0.659315 0.188497
O O7 0.000000 0.500000 0.000000
O O8 0.512112 0.641749 0.623810
O O9 0.132347 0.254286 0.827925
O O10 0.411826 0.276184 0.184326
O O11 0.865017 0.252852 0.730122
O O12 0.634769 0.223101 0.681433
O O13 0.062952 0.464043 0.773481
O O14 0.699297 0.011112 0.139165
O O15 0.181030 0.779085 0.485683
O O16 0.484685 0.878369 0.529437
O O17 0.878501 0.060081 0.701175
#
# Coordination Sequence:
#
# PCOD9046320 Si02
#       8
#     2   2   2   2   2   2   2   2
#     4  11  23  37  62 101 136 165 204 261 337 390
#     4  12  24  40  69 101 130 169 216 266 320 385
#     4  11  24  41  63  94 138 170 200 266 342 385
#     4  10  24  42  70  89 125 171 234 263 307 366
#     4  11  22  42  68  96 120 173 224 265 308 388
#     4  11  23  46  68  93 128 173 218 273 312 378
#     4  11  22  39  65  95 131 169 203 263 330 391
#     4  11  23  41  63 101 133 162 206 270 333 391
#
# _framework density 24.515764000000001
#
# number of rings (size 3 to 8) (size 9 to 14) (size 15 to 20)
#    0.000    1.000    2.500    5.625    5.250    0.000 
#    0.000    1.250    0.000    0.000    0.000    0.000 
#    0.000    0.000    0.000    0.000    0.000    0.000 
#
# Total GULP energy -89416.186402 kJ/mol
# GULP energy per Si atom -5588.511650 kJ/mol
# Density = 2.445996 g / cm^3
# Si number density = 24.515764 Si / 1000 Ang^3
#
#
#
# Elastic Constant Matrix: (Units=GPa)
#
#
# Indices 1 2 3 4 5 6 
#
# 1 98.9959 37.1967 38.3373 -2.8055 10.1430 0.0425
# 2 37.1967 81.6038 31.8156 -17.3827 -12.5571 17.3195
# 3 38.3373 31.8156 159.0985 -21.6788 9.8475 -10.8555
# 4 -2.8055 -17.3827 -21.6788 49.2662 0.7148 -5.3205
# 5 10.1430 -12.5571 9.8475 0.7148 39.7568 2.4226
# 6 0.0425 17.3195 -10.8555 -5.3205 2.4226 44.0910
#
#
#
# Elastic Compliance Matrix: (Units=1/GPa)
#
#
# Indices 1 2 3 4 5 6 
#
# 1 0.014182 -0.007774 -0.001632 -0.002280 -0.005792 0.002681
# 2 -0.007774 0.021446 -0.003022 0.004662 0.009979 -0.009147
# 3 -0.001632 -0.003022 0.008096 0.002842 -0.002819 0.003680
# 4 -0.002280 0.004662 0.002842 0.023227 0.000834 0.001628
# 5 -0.005792 0.009979 -0.002819 0.000834 0.030844 -0.006202
# 6 0.002681 -0.009147 0.003680 0.001628 -0.006202 0.027714
#
#
# Mechanical properties :
#
#
# Convention : Reuss Voigt Hill
#
# Bulk Modulus (GPa) = 53.00064 61.59972 57.30018
# Shear Modulus (GPa) = 31.91754 42.11269 37.01512
#
# Velocity S-wave (km/s) = 3.61213 4.14911 3.88989
# Velocity P-wave (km/s) = 6.25000 6.93791 6.60292
#
# Compressibility (1/GPa) = 0.01886770
#
# Stress axis : x y z
#
# Youngs Moduli (GPa) = 70.51085 46.62869 123.52289
#
# Poissons Ratio (x) = 0.36251 0.20159
# Poissons Ratio (y) = 0.54817 0.37327
# Poissons Ratio (z) = 0.11507 0.14090
#
# Static dielectric constant tensor:
#      x y z
#    x 1.987690 -0.076450 -0.073670 
#    y -0.076450 2.001290 0.050730 
#    z -0.073670 0.050730 2.079700 
# 
# From -- ./inp_files/539381.got.cif
#   From: 2010.05.17/outbox.cif.g08.bks.cpg/sg2_270_cif.got.tgz:539381.got - 2010.06.03 11:33:40.
