data_PCOD9046257
_publ_section_title
;
Structure prediction by ZEFSAII (Michael W. Deem and Ramdas Pophale) SiO2 
 PCOD9046257
Probable space group: P -1
;
_chemical_formula_sum "Si O2"
_cell_formula_units_Z 16
_cell_length_a 12.918344
_cell_length_b 5.567686
_cell_length_c 11.627642
_cell_angle_alpha 89.518343
_cell_angle_beta 67.438940
_cell_angle_gamma 119.290953
_cell_volume 653.301448
_symmetry_space_group_name_H-M "P -1"
_symmetry_group_IT_number 2
_symmetry_cell_setting 'triclinic'
loop_
_space_group_symop_operation_xyz
x,y,z
-x,-y,-z
loop_
_atom_site_type_symbol
_atom_site_label
_atom_site_fract_x
_atom_site_fract_y
_atom_site_fract_z
Si Si1 0.767190 0.712538 0.261722
Si Si2 0.867578 0.780906 0.623340
Si Si3 0.634813 0.673864 0.849807
Si Si4 0.931632 0.294881 0.335396
Si Si5 0.991021 0.294342 0.906609
Si Si6 0.688599 0.867211 0.077687
Si Si7 0.296535 0.653372 0.490020
Si Si8 0.526008 0.046144 0.788479
O O1 0.699171 0.451693 0.382764
O O2 0.884454 0.736427 0.134643
O O3 0.849755 0.002205 0.299583
O O4 0.668452 0.714589 0.210194
O O5 0.789636 0.860717 0.743494
O O6 0.764784 0.617881 0.565519
O O7 0.930939 0.637598 0.670096
O O8 0.000000 0.000000 0.500000
O O9 0.592205 0.358442 0.822037
O O10 0.572398 0.846252 0.821511
O O11 0.625176 0.677711 0.991889
O O12 0.818776 0.276354 0.465499
O O13 0.975992 0.553170 0.230198
O O14 0.841943 0.039786 0.980339
O O15 0.000000 0.500000 0.000000
O O16 0.627634 0.063894 0.123539
O O17 0.426828 0.887630 0.365342
#
# Coordination Sequence:
#
# PCOD9046257 Si02
#       8
#     2   2   2   2   2   2   2   2
#     4  11  24  44  66 105 140 182 232 292 357 429
#     4  11  21  38  71  99 134 183 230 293 364 411
#     4  11  27  47  73 106 144 183 245 301 349 423
#     4  11  22  41  64 102 140 176 232 291 358 422
#     4  11  25  40  67 102 143 182 227 294 352 433
#     4  12  26  45  73  99 144 193 235 288 367 424
#     4  10  24  42  69  97 143 179 239 293 346 419
#     4  11  27  51  72 105 140 191 244 300 345 423
#
# _framework density 24.490991999999999
#
# number of rings (size 3 to 8) (size 9 to 14) (size 15 to 20)
#    0.000    1.000    2.500    3.000    8.750    1.500 
#    0.000    0.625    0.000    0.000    0.000    0.000 
#    0.000    0.000    0.000    0.000    0.000    0.000 
#
# Total GULP energy -89337.245963 kJ/mol
# GULP energy per Si atom -5583.577873 kJ/mol
# Density = 2.443525 g / cm^3
# Si number density = 24.490992 Si / 1000 Ang^3
#
#
#
# Elastic Constant Matrix: (Units=GPa)
#
#
# Indices 1 2 3 4 5 6 
#
# 1 104.4050 29.0689 46.9982 -6.6874 8.9068 -29.4346
# 2 29.0689 75.8551 28.0562 -7.1663 7.1210 -4.0897
# 3 46.9982 28.0562 138.5897 0.9224 -17.9181 -10.2636
# 4 -6.6874 -7.1663 0.9224 29.6195 1.2327 2.2529
# 5 8.9068 7.1210 -17.9181 1.2327 35.3044 10.3461
# 6 -29.4346 -4.0897 -10.2636 2.2529 10.3461 36.7236
#
#
#
# Elastic Compliance Matrix: (Units=1/GPa)
#
#
# Indices 1 2 3 4 5 6 
#
# 1 0.019104 -0.002607 -0.006359 0.003140 -0.012487 0.016570
# 2 -0.002607 0.015974 -0.002919 0.003552 -0.004116 -0.000185
# 3 -0.006359 -0.002919 0.010809 -0.002493 0.009183 -0.004835
# 4 0.003140 0.003552 -0.002493 0.035493 -0.004387 0.001274
# 5 -0.012487 -0.004116 0.009183 -0.004387 0.042897 -0.019717
# 6 0.016570 -0.000185 -0.004835 0.001274 -0.019717 0.044617
#
#
# Mechanical properties :
#
#
# Convention : Reuss Voigt Hill
#
# Bulk Modulus (GPa) = 45.21469 58.56627 51.89048
# Shear Modulus (GPa) = 24.99543 34.64459 29.82001
#
# Velocity S-wave (km/s) = 3.19814 3.76518 3.49319
# Velocity P-wave (km/s) = 5.66916 6.54732 6.12400
#
# Compressibility (1/GPa) = 0.02211671
#
# Stress axis : x y z
#
# Youngs Moduli (GPa) = 52.34373 62.60282 92.51788
#
# Poissons Ratio (x) = 0.16320 0.58833
# Poissons Ratio (y) = 0.13645 0.27007
# Poissons Ratio (z) = 0.33286 0.18275
#
# Static dielectric constant tensor:
#      x y z
#    x 2.427980 -0.022700 0.846670 
#    y -0.022700 2.053610 -0.144870 
#    z 0.846670 -0.144870 1.557290 
# 
# From -- ./inp_files/410484.got.cif
#   From: 2010.05.17/outbox.cif.g08.bks.cpg/sg2_206_cif.got.tgz:410484.got - 2010.06.03 11:33:40.
