data_PCOD9046579
_publ_section_title
;
Structure prediction by ZEFSAII (Michael W. Deem and Ramdas Pophale) SiO2 
 PCOD9046579
Probable space group: P -1
;
_chemical_formula_sum "Si O2"
_cell_formula_units_Z 16
_cell_length_a 16.756230
_cell_length_b 11.010601
_cell_length_c 6.533074
_cell_angle_alpha 50.818999
_cell_angle_beta 105.149462
_cell_angle_gamma 128.541546
_cell_volume 713.167023
_symmetry_space_group_name_H-M "P -1"
_symmetry_group_IT_number 2
_symmetry_cell_setting 'triclinic'
loop_
_space_group_symop_operation_xyz
x,y,z
-x,-y,-z
loop_
_atom_site_type_symbol
_atom_site_label
_atom_site_fract_x
_atom_site_fract_y
_atom_site_fract_z
Si Si1 0.324807 0.388736 0.282321
Si Si2 0.976708 0.227445 0.736499
Si Si3 0.232139 0.189158 0.035684
Si Si4 0.805429 0.583159 0.489093
Si Si5 0.928206 0.466444 0.180342
Si Si6 0.365737 0.165702 0.826954
Si Si7 0.729797 0.215346 0.040117
Si Si8 0.537788 0.159817 0.171685
O O1 0.256712 0.213137 0.263053
O O2 0.245035 0.384826 0.386240
O O3 0.393124 0.344097 0.507394
O O4 0.396249 0.603239 0.991324
O O5 0.070446 0.278028 0.599811
O O6 0.025996 0.331832 0.878565
O O7 0.930731 0.330387 0.491997
O O8 0.881747 0.997242 0.915612
O O9 0.240261 0.379015 0.773587
O O10 0.315144 0.183260 0.974522
O O11 0.767741 0.362696 0.717648
O O12 0.813121 0.345450 0.136636
O O13 0.000000 0.500000 0.000000
O O14 0.279428 0.970548 0.846937
O O15 0.447608 0.131143 0.998716
O O16 0.618108 0.146981 0.111661
O O17 0.500000 0.000000 0.500000
#
# Coordination Sequence:
#
# PCOD9046579 Si02
#       8
#     2   2   2   2   2   2   2   2
#     4  10  25  49  70  98 143 184 224 283 353 408
#     4  11  24  39  67 103 136 183 233 273 337 408
#     4  11  25  43  70 101 140 183 228 278 345 412
#     4  10  24  43  65 102 137 183 223 290 329 409
#     4  11  23  41  66 101 139 179 224 282 341 404
#     4  11  25  47  70 101 140 180 233 282 348 411
#     4  11  24  46  71  99 141 180 230 288 345 401
#     4  11  27  45  74 106 130 182 233 290 346 409
#
# _framework density 22.435134999999999
#
# number of rings (size 3 to 8) (size 9 to 14) (size 15 to 20)
#    0.000    1.250    1.250    2.625   10.500    2.000 
#    2.250    0.000    0.000    0.000    0.000    0.000 
#    0.000    0.000    0.000    0.000    0.000    0.000 
#
# Total GULP energy -89343.438284 kJ/mol
# GULP energy per Si atom -5583.964893 kJ/mol
# Density = 2.238407 g / cm^3
# Si number density = 22.435135 Si / 1000 Ang^3
#
#
#
# Elastic Constant Matrix: (Units=GPa)
#
#
# Indices 1 2 3 4 5 6 
#
# 1 81.5014 28.8158 51.7876 5.8899 17.1566 23.1861
# 2 28.8158 126.6168 47.7721 10.4908 7.8167 0.5815
# 3 51.7876 47.7721 110.0373 -0.0282 18.1545 -1.5684
# 4 5.8899 10.4908 -0.0282 11.0183 -1.3443 7.5723
# 5 17.1566 7.8167 18.1545 -1.3443 26.7581 -5.1922
# 6 23.1861 0.5815 -1.5684 7.5723 -5.1922 24.6790
#
#
#
# Elastic Compliance Matrix: (Units=1/GPa)
#
#
# Indices 1 2 3 4 5 6 
#
# 1 0.039581 -0.002861 -0.014190 0.010374 -0.023342 -0.046114
# 2 -0.002861 0.010840 -0.003549 -0.013123 0.001695 0.006590
# 3 -0.014190 -0.003549 0.017306 0.001274 0.001249 0.014387
# 4 0.010374 -0.013123 0.001274 0.132170 -0.007012 -0.051385
# 5 -0.023342 0.001695 0.001249 -0.007012 0.057679 0.036256
# 6 -0.046114 0.006590 0.014387 -0.051385 0.036256 0.107999
#
#
# Mechanical properties :
#
#
# Convention : Reuss Voigt Hill
#
# Bulk Modulus (GPa) = 37.69561 63.87850 50.78706
# Shear Modulus (GPa) = 12.03033 25.14308 18.58671
#
# Velocity S-wave (km/s) = 2.31817 3.35132 2.88143
# Velocity P-wave (km/s) = 4.89936 6.59617 5.81004
#
# Compressibility (1/GPa) = 0.02652829
#
# Stress axis : x y z
#
# Youngs Moduli (GPa) = 25.26494 92.24775 57.78313
#
# Poissons Ratio (x) = 0.26391 0.81992
# Poissons Ratio (y) = 0.07228 0.20507
# Poissons Ratio (z) = 0.35850 0.32738
#
# Static dielectric constant tensor:
#      x y z
#    x 1.824690 0.015890 0.024380 
#    y 0.015890 1.849480 -0.032020 
#    z 0.024380 -0.032020 1.860390 
# 
# From -- ./inp_files/109502.got.cif
#   From: 2010.05.17/outbox.cif.g08.bks.cpg/sg2_55_cif.got.tgz:109502.got - 2010.06.03 11:33:40.
