data_PCOD9046489
_publ_section_title
;
Structure prediction by ZEFSAII (Michael W. Deem and Ramdas Pophale) SiO2 
 PCOD9046489
Probable space group: P -1
;
_chemical_formula_sum "Si O2"
_cell_formula_units_Z 13
_cell_length_a 9.016177
_cell_length_b 8.703509
_cell_length_c 11.587995
_cell_angle_alpha 98.883060
_cell_angle_beta 123.181117
_cell_angle_gamma 44.868917
_cell_volume 493.170913
_symmetry_space_group_name_H-M "P -1"
_symmetry_group_IT_number 2
_symmetry_cell_setting 'triclinic'
loop_
_space_group_symop_operation_xyz
x,y,z
-x,-y,-z
loop_
_atom_site_type_symbol
_atom_site_label
_atom_site_fract_x
_atom_site_fract_y
_atom_site_fract_z
Si Si1 0.500000 0.000000 0.500000
Si Si2 0.964993 0.667069 0.320987
Si Si3 0.043853 0.935745 0.878635
Si Si4 0.347146 0.334545 0.264965
Si Si5 0.441485 0.877185 0.896821
Si Si6 0.463644 0.459377 0.645834
Si Si7 0.869273 0.394612 0.269385
O O1 0.410152 0.147443 0.354214
O O2 0.179691 0.186589 0.419582
O O3 0.060128 0.581325 0.220574
O O4 0.236130 0.507134 0.491512
O O5 0.785118 0.937280 0.277897
O O6 0.799780 0.622210 0.272824
O O7 0.754108 0.181948 0.728610
O O8 0.294176 0.862801 0.921879
O O9 0.109978 0.712961 0.853046
O O10 0.000000 0.000000 0.000000
O O11 0.525109 0.371571 0.373410
O O12 0.332314 0.326700 0.119995
O O13 0.500000 0.000000 0.000000
O O14 0.349549 0.543328 0.736544
#
# Coordination Sequence:
#
# PCOD9046489 Si02
#       7
#     1   2   2   2   2   2   2
#     4  10  24  42  74 110 148 190 232 306 374 430
#     4  11  26  45  75 109 145 191 245 308 365 451
#     4  12  29  48  74 107 148 199 254 305 361 446
#     4  11  24  47  73 109 149 192 243 310 367 433
#     4  12  29  48  73 107 148 203 246 300 374 440
#     4  12  25  47  78 111 146 195 250 304 379 432
#     4  11  25  46  72 110 148 191 243 305 367 432
#
# _framework density 26.360029999999998
#
# number of rings (size 3 to 8) (size 9 to 14) (size 15 to 20)
#    0.000    0.615    3.077    3.692    8.615    4.923 
#    0.000    0.000    0.000    0.000    0.000    0.000 
#    0.000    0.000    0.000    0.000    0.000    0.000 
#
# Total GULP energy -72461.968668 kJ/mol
# GULP energy per Si atom -5573.997590 kJ/mol
# Density = 2.630003 g / cm^3
# Si number density = 26.360030 Si / 1000 Ang^3
#
#
#
# Elastic Constant Matrix: (Units=GPa)
#
#
# Indices 1 2 3 4 5 6 
#
# 1 156.0619 15.9524 25.7192 4.9685 -17.4483 6.1536
# 2 15.9524 57.3126 33.9251 11.1328 -10.9607 -5.3307
# 3 25.7192 33.9251 96.5573 11.8925 0.5664 6.7667
# 4 4.9685 11.1328 11.8925 48.9909 -11.9700 4.4793
# 5 -17.4483 -10.9607 0.5664 -11.9700 36.6926 5.4597
# 6 6.1536 -5.3307 6.7667 4.4793 5.4597 44.2466
#
#
#
# Elastic Compliance Matrix: (Units=1/GPa)
#
#
# Indices 1 2 3 4 5 6 
#
# 1 0.007201 -0.000530 -0.001766 0.000865 0.003776 -0.001349
# 2 -0.000530 0.024573 -0.008503 -0.002384 0.005868 0.003852
# 3 -0.001766 -0.008503 0.014255 -0.002108 -0.003951 -0.002258
# 4 0.000865 -0.002384 -0.002108 0.023639 0.007958 -0.003460
# 5 0.003776 0.005868 -0.003951 0.007958 0.034088 -0.004226
# 6 -0.001349 0.003852 -0.002258 -0.003460 -0.004226 0.024469
#
#
# Mechanical properties :
#
#
# Convention : Reuss Voigt Hill
#
# Bulk Modulus (GPa) = 40.93221 51.23613 46.08417
# Shear Modulus (GPa) = 31.65239 41.60837 36.63038
#
# Velocity S-wave (km/s) = 3.46897 3.97730 3.73180
# Velocity P-wave (km/s) = 5.62200 6.36955 6.00741
#
# Compressibility (1/GPa) = 0.02443064
#
# Stress axis : x y z
#
# Youngs Moduli (GPa) = 138.87498 40.69564 70.14864
#
# Poissons Ratio (x) = 0.02158 0.12387
# Poissons Ratio (y) = 0.07365 0.59647
# Poissons Ratio (z) = 0.24522 0.34603
#
# Static dielectric constant tensor:
#      x y z
#    x 1.716200 0.770150 0.357910 
#    y 0.770150 0.841540 -0.796020 
#    z 0.357910 -0.796020 1.704200 
# 
# From -- ./inp_files/300381.got.cif
#   From: 2010.05.17/outbox.cif.g08.bks.cpg/sg2_151_cif.got.tgz:300381.got - 2010.06.03 11:33:40.
