data_PCOD9046580
_publ_section_title
;
Structure prediction by ZEFSAII (Michael W. Deem and Ramdas Pophale) SiO2 
 PCOD9046580
Probable space group: P -1
;
_chemical_formula_sum "Si O2"
_cell_formula_units_Z 12
_cell_length_a 8.837459
_cell_length_b 10.286137
_cell_length_c 13.252359
_cell_angle_alpha 148.184767
_cell_angle_beta 44.021223
_cell_angle_gamma 123.642789
_cell_volume 435.957670
_symmetry_space_group_name_H-M "P -1"
_symmetry_group_IT_number 2
_symmetry_cell_setting 'triclinic'
loop_
_space_group_symop_operation_xyz
x,y,z
-x,-y,-z
loop_
_atom_site_type_symbol
_atom_site_label
_atom_site_fract_x
_atom_site_fract_y
_atom_site_fract_z
Si Si1 0.152478 0.033923 0.827762
Si Si2 0.198076 0.528976 0.740207
Si Si3 0.875020 0.078134 0.446820
Si Si4 0.795478 0.254207 0.815236
Si Si5 0.303981 0.367347 0.149173
Si Si6 0.329387 0.470444 0.418240
O O1 0.228383 0.038631 0.677238
O O2 0.189089 0.743780 0.646823
O O3 0.264928 0.176502 0.954716
O O4 0.904414 0.183849 0.042872
O O5 0.412217 0.502698 0.689131
O O6 0.989871 0.416037 0.808633
O O7 0.115105 0.919709 0.248580
O O8 0.776660 0.087324 0.613284
O O9 0.851537 0.371015 0.625089
O O10 0.282722 0.401066 0.509360
O O11 0.556700 0.410133 0.044849
O O12 0.282760 0.304265 0.235706
#
# Coordination Sequence:
#
# PCOD9046580 Si02
#       6
#     2   2   2   2   2   2
#     4  11  24  43  72 100 132 178 224 275 335 396
#     4  11  24  48  67  98 137 179 221 277 332 399
#     4  10  24  43  65 102 139 170 220 276 336 393
#     4  11  24  44  69 101 136 175 222 275 339 394
#     4  11  24  45  69 103 133 174 223 280 332 396
#     4  10  26  47  69  95 137 178 226 273 332 397
#
# _framework density 27.525608999999999
#
# number of rings (size 3 to 8) (size 9 to 14) (size 15 to 20)
#    0.000    1.333    1.667    2.000    4.667    4.000 
#    3.000    1.667    0.000    0.000    0.000    0.000 
#    0.000    0.000    0.000    0.000    0.000    0.000 
#
# Total GULP energy -67195.758430 kJ/mol
# GULP energy per Si atom -5599.646536 kJ/mol
# Density = 2.746296 g / cm^3
# Si number density = 27.525609 Si / 1000 Ang^3
#
#
#
# Elastic Constant Matrix: (Units=GPa)
#
#
# Indices 1 2 3 4 5 6 
#
# 1 213.0065 60.6688 69.0971 -7.8494 53.8346 -6.3392
# 2 60.6688 88.3745 39.6380 5.9049 10.2442 10.1830
# 3 69.0971 39.6380 85.8369 -1.5040 22.8338 22.1011
# 4 -7.8494 5.9049 -1.5040 38.4990 0.2454 1.7691
# 5 53.8346 10.2442 22.8338 0.2454 61.7000 -2.9040
# 6 -6.3392 10.1830 22.1011 1.7691 -2.9040 36.1431
#
#
#
# Elastic Compliance Matrix: (Units=1/GPa)
#
#
# Indices 1 2 3 4 5 6 
#
# 1 0.009157 -0.003969 -0.005637 0.002027 -0.004986 0.005672
# 2 -0.003969 0.016228 -0.004397 -0.003382 0.002305 -0.002229
# 3 -0.005637 -0.004397 0.022754 0.001079 -0.003435 -0.013992
# 4 0.002027 -0.003382 0.001079 0.026997 -0.001752 -0.000813
# 5 -0.004986 0.002305 -0.003435 -0.001752 0.021566 0.002395
# 6 0.005672 -0.002229 -0.013992 -0.000813 0.002395 0.038079
#
#
# Mechanical properties :
#
#
# Convention : Reuss Voigt Hill
#
# Bulk Modulus (GPa) = 49.67179 80.66952 65.17066
# Shear Modulus (GPa) = 29.49856 41.78934 35.64395
#
# Velocity S-wave (km/s) = 3.27720 3.90063 3.60243
# Velocity P-wave (km/s) = 5.69253 7.04679 6.40555
#
# Compressibility (1/GPa) = 0.02013215
#
# Stress axis : x y z
#
# Youngs Moduli (GPa) = 109.20076 61.62101 43.94877
#
# Poissons Ratio (x) = 0.24458 0.24775
# Poissons Ratio (y) = 0.43343 0.19326
# Poissons Ratio (z) = 0.61558 0.27097
#
# Static dielectric constant tensor:
#      x y z
#    x 2.102210 -0.018540 0.034560 
#    y -0.018540 2.218200 -0.008550 
#    z 0.034560 -0.008550 2.128090 
# 
# From -- ./inp_files/501054.got.cif
#   From: 2010.05.17/outbox.cif.g08.bks.cpg/sg2_251_cif.got.tgz:501054.got - 2010.06.03 11:33:40.
