data_PCOD9046780
_publ_section_title
;
Structure prediction by ZEFSAII (Michael W. Deem and Ramdas Pophale) SiO2 
 PCOD9046780
Probable space group: P -1
;
_chemical_formula_sum "Si O2"
_cell_formula_units_Z 16
_cell_length_a 8.678118
_cell_length_b 9.208838
_cell_length_c 11.566990
_cell_angle_alpha 98.643488
_cell_angle_beta 98.436784
_cell_angle_gamma 48.567031
_cell_volume 683.770455
_symmetry_space_group_name_H-M "P -1"
_symmetry_group_IT_number 2
_symmetry_cell_setting 'triclinic'
loop_
_space_group_symop_operation_xyz
x,y,z
-x,-y,-z
loop_
_atom_site_type_symbol
_atom_site_label
_atom_site_fract_x
_atom_site_fract_y
_atom_site_fract_z
Si Si1 0.834479 0.808381 0.022784
Si Si2 0.807309 0.077343 0.665840
Si Si3 0.529269 0.726940 0.977223
Si Si4 0.903084 0.853189 0.286507
Si Si5 0.528654 0.534255 0.188707
Si Si6 0.995249 0.291963 0.215887
Si Si7 0.564298 0.098388 0.440144
Si Si8 0.121236 0.482315 0.398695
O O1 0.934241 0.765205 0.153735
O O2 0.667708 0.043712 0.025635
O O3 0.719938 0.722229 0.990779
O O4 0.986220 0.734266 0.922906
O O5 0.634562 0.292766 0.722770
O O6 0.736235 0.075387 0.531083
O O7 0.023733 0.025691 0.693214
O O8 0.837299 0.916050 0.729614
O O9 0.524066 0.601036 0.866363
O O10 0.522694 0.641703 0.086633
O O11 0.042818 0.688426 0.377835
O O12 0.668593 0.982604 0.318772
O O13 0.763436 0.399431 0.241549
O O14 0.052935 0.417430 0.279985
O O15 0.363032 0.318878 0.424800
O O16 0.500000 0.000000 0.500000
O O17 0.000000 0.500000 0.500000
#
# Coordination Sequence:
#
# PCOD9046780 Si02
#       8
#     2   2   2   2   2   2   2   2
#     4  11  26  45  73 108 153 192 241 294 359 438
#     4  12  27  49  73 109 148 188 244 304 362 427
#     4  10  24  43  68 100 150 192 240 285 356 421
#     4  12  29  46  75 112 145 187 244 301 364 434
#     4  11  25  43  71 104 146 194 240 290 355 424
#     4  12  26  45  75 104 151 197 237 294 367 426
#     4  12  26  49  81 101 143 191 244 304 368 425
#     4  12  26  47  77 108 137 188 250 301 359 429
#
# _framework density 23.399666
#
# number of rings (size 3 to 8) (size 9 to 14) (size 15 to 20)
#    0.000    0.500    3.750    2.625   10.500    3.500 
#    0.000    0.000    0.000    0.000    0.000    0.000 
#    0.000    0.000    0.000    0.000    0.000    0.000 
#
# Total GULP energy -89666.713943 kJ/mol
# GULP energy per Si atom -5604.169621 kJ/mol
# Density = 2.334641 g / cm^3
# Si number density = 23.399666 Si / 1000 Ang^3
#
#
#
# Elastic Constant Matrix: (Units=GPa)
#
#
# Indices 1 2 3 4 5 6 
#
# 1 67.1269 16.8050 2.2828 3.3377 9.1322 -2.2638
# 2 16.8050 115.6348 14.1095 -3.5247 -2.5788 0.0612
# 3 2.2828 14.1095 87.3449 4.3284 -3.7181 -11.7409
# 4 3.3377 -3.5247 4.3284 34.8487 -2.7676 2.8580
# 5 9.1322 -2.5788 -3.7181 -2.7676 37.4219 9.5464
# 6 -2.2638 0.0612 -11.7409 2.8580 9.5464 41.1876
#
#
#
# Elastic Compliance Matrix: (Units=1/GPa)
#
#
# Indices 1 2 3 4 5 6 
#
# 1 0.016407 -0.002595 0.000207 -0.002437 -0.004923 0.002275
# 2 -0.002595 0.009302 -0.001594 0.001595 0.001507 -0.001071
# 3 0.000207 -0.001594 0.012292 -0.002010 -0.000022 0.003662
# 4 -0.002437 0.001595 -0.002010 0.029927 0.003644 -0.003631
# 5 -0.004923 0.001507 -0.000022 0.003644 0.030217 -0.007536
# 6 0.002275 -0.001071 0.003662 -0.003631 -0.007536 0.027448
#
#
# Mechanical properties :
#
#
# Convention : Reuss Voigt Hill
#
# Bulk Modulus (GPa) = 33.29019 37.38902 35.33961
# Shear Modulus (GPa) = 34.82633 38.48560 36.65597
#
# Velocity S-wave (km/s) = 3.86207 4.05990 3.96222
# Velocity P-wave (km/s) = 5.84338 6.16362 6.00563
#
# Compressibility (1/GPa) = 0.03003888
#
# Stress axis : x y z
#
# Youngs Moduli (GPa) = 60.94823 107.50046 81.35492
#
# Poissons Ratio (x) = 0.27897 -0.01687
# Poissons Ratio (y) = 0.15816 0.12965
# Poissons Ratio (z) = -0.01264 0.17132
#
# Static dielectric constant tensor:
#      x y z
#    x 1.886370 -0.019230 -0.005570 
#    y -0.019230 1.831140 -0.000210 
#    z -0.005570 -0.000210 1.852890 
# 
# From -- ./inp_files/382674.got.cif
#   From: 2010.05.17/outbox.cif.g08.bks.cpg/sg2_192_cif.got.tgz:382674.got - 2010.06.03 11:33:40.
