data_PCOD9046587
_publ_section_title
;
Structure prediction by ZEFSAII (Michael W. Deem and Ramdas Pophale) SiO2 
 PCOD9046587
Probable space group: P -1
;
_chemical_formula_sum "Si O2"
_cell_formula_units_Z 14
_cell_length_a 9.084036
_cell_length_b 8.504483
_cell_length_c 20.253768
_cell_angle_alpha 41.336042
_cell_angle_beta 140.606426
_cell_angle_gamma 130.029988
_cell_volume 648.437701
_symmetry_space_group_name_H-M "P -1"
_symmetry_group_IT_number 2
_symmetry_cell_setting 'triclinic'
loop_
_space_group_symop_operation_xyz
x,y,z
-x,-y,-z
loop_
_atom_site_type_symbol
_atom_site_label
_atom_site_fract_x
_atom_site_fract_y
_atom_site_fract_z
Si Si1 0.760804 0.435949 0.607374
Si Si2 0.084771 0.261069 0.024799
Si Si3 0.711204 0.170051 0.807308
Si Si4 0.772011 0.777377 0.311150
Si Si5 0.139454 0.722299 0.564755
Si Si6 0.938175 0.201489 0.140037
Si Si7 0.607794 0.974287 0.617493
O O1 0.500000 0.500000 0.500000
O O2 0.807931 0.332873 0.727505
O O3 0.960928 0.646430 0.586339
O O4 0.745570 0.223930 0.614164
O O5 0.890036 0.216070 0.915059
O O6 0.157092 0.547001 0.964354
O O7 0.967643 0.166000 0.083420
O O8 0.288606 0.105864 0.127866
O O9 0.461189 0.226683 0.725654
O O10 0.780861 0.520652 0.361016
O O11 0.990558 0.824354 0.422778
O O12 0.790563 0.985070 0.197061
O O13 0.380076 0.894277 0.609219
O O14 0.205714 0.211390 0.256906
O O15 0.500000 0.000000 0.500000
#
# Coordination Sequence:
#
# PCOD9046587 Si02
#       7
#     2   2   2   2   2   2   2
#     4  12  25  43  66 101 140 165 214 278 329 396
#     4  10  24  43  65  88 132 184 221 272 323 373
#     4  11  23  44  64  94 135 176 216 277 331 377
#     4  11  21  39  68  97 132 168 221 270 326 402
#     4  11  22  40  66 103 133 174 208 261 346 401
#     4  11  22  43  67  97 129 174 231 268 312 403
#     4  12  23  41  71  99 133 174 215 270 331 395
#
# _framework density 21.590357000000001
#
# number of rings (size 3 to 8) (size 9 to 14) (size 15 to 20)
#    0.000    0.857    5.714    1.714    2.000    1.714 
#    2.571    5.714    0.000    0.000    0.000    0.000 
#    0.000    0.000    0.000    0.000    0.000    0.000 
#
# Total GULP energy -78315.228376 kJ/mol
# GULP energy per Si atom -5593.944884 kJ/mol
# Density = 2.154122 g / cm^3
# Si number density = 21.590357 Si / 1000 Ang^3
#
#
#
# Elastic Constant Matrix: (Units=GPa)
#
#
# Indices 1 2 3 4 5 6 
#
# 1 103.7302 15.0233 37.9709 -6.9246 -11.2087 3.7889
# 2 15.0233 27.0232 -1.0108 -0.0361 -12.4341 8.8836
# 3 37.9709 -1.0108 86.0483 -5.4530 -28.1298 -8.2965
# 4 -6.9246 -0.0361 -5.4530 32.1844 -3.6964 1.8876
# 5 -11.2087 -12.4341 -28.1298 -3.6964 54.4064 -1.6282
# 6 3.7889 8.8836 -8.2965 1.8876 -1.6282 34.6325
#
#
#
# Elastic Compliance Matrix: (Units=1/GPa)
#
#
# Indices 1 2 3 4 5 6 
#
# 1 0.013209 -0.008461 -0.006819 0.001435 -0.002674 -0.001112
# 2 -0.008461 0.051741 0.008120 0.001811 0.014109 -0.009836
# 3 -0.006819 0.008120 0.018617 0.002683 0.010363 0.003464
# 4 0.001435 0.001811 0.002683 0.032416 0.004253 -0.001545
# 5 -0.002674 0.014109 0.010363 0.004253 0.026706 0.000180
# 6 -0.001112 -0.009836 0.003464 -0.001545 0.000180 0.032442
#
#
# Mechanical properties :
#
#
# Convention : Reuss Voigt Hill
#
# Bulk Modulus (GPa) = 14.44091 35.64096 25.04094
# Shear Modulus (GPa) = 23.52575 35.23257 29.37916
#
# Velocity S-wave (km/s) = 3.30455 4.04402 3.69284
# Velocity P-wave (km/s) = 4.61120 6.19267 5.45950
#
# Compressibility (1/GPa) = 0.06924770
#
# Stress axis : x y z
#
# Youngs Moduli (GPa) = 75.70374 19.32715 53.71343
#
# Poissons Ratio (x) = 0.16353 0.36625
# Poissons Ratio (y) = 0.64055 -0.43616
# Poissons Ratio (z) = 0.51620 -0.15694
#
# Static dielectric constant tensor:
#      x y z
#    x 1.813250 -0.013950 0.010460 
#    y -0.013950 1.776810 -0.035200 
#    z 0.010460 -0.035200 1.776930 
# 
# From -- ./inp_files/199222.got.cif
#   From: 2010.05.17/outbox.cif.g08.bks.cpg/sg2_100_cif.got.tgz:199222.got - 2010.06.03 11:33:40.
