data_PCOD9046113
_publ_section_title
;
Structure prediction by ZEFSAII (Michael W. Deem and Ramdas Pophale) SiO2 
 PCOD9046113
Probable space group: P -1
;
_chemical_formula_sum "Si O2"
_cell_formula_units_Z 11
_cell_length_a 9.009676
_cell_length_b 8.928510
_cell_length_c 8.485821
_cell_angle_alpha 111.957472
_cell_angle_beta 53.508638
_cell_angle_gamma 102.215423
_cell_volume 508.931985
_symmetry_space_group_name_H-M "P -1"
_symmetry_group_IT_number 2
_symmetry_cell_setting 'triclinic'
loop_
_space_group_symop_operation_xyz
x,y,z
-x,-y,-z
loop_
_atom_site_type_symbol
_atom_site_label
_atom_site_fract_x
_atom_site_fract_y
_atom_site_fract_z
Si Si1 0.574738 0.063119 0.808938
Si Si2 0.296085 0.355800 0.097331
Si Si3 0.000000 0.000000 0.500000
Si Si4 0.429627 0.525173 0.791204
Si Si5 0.575312 0.237343 0.386759
Si Si6 0.959081 0.118248 0.219413
O O1 0.532000 0.921514 0.656763
O O2 0.454797 0.221234 0.905563
O O3 0.791837 0.083334 0.686457
O O4 0.500000 0.000000 0.000000
O O5 0.370307 0.430960 0.243081
O O6 0.106063 0.263039 0.189622
O O7 0.302450 0.486531 0.005693
O O8 0.017609 0.975792 0.670221
O O9 0.449683 0.365444 0.610415
O O10 0.368479 0.670398 0.773805
O O11 0.755038 0.189728 0.352234
O O12 0.000000 0.000000 0.000000
#
# Coordination Sequence:
#
# PCOD9046113 Si02
#       6
#     2   2   1   2   2   2
#     4  12  22  45  72 101 143 182 241 296 335 425
#     4  11  23  45  67 100 144 183 230 291 355 414
#     4  12  26  40  72 108 136 186 228 300 360 388
#     4  10  24  42  67  97 143 190 217 296 361 409
#     4  11  23  44  68 102 137 182 241 284 350 425
#     4  12  25  43  71 109 137 185 243 294 345 423
#
# _framework density 21.613892
#
# number of rings (size 3 to 8) (size 9 to 14) (size 15 to 20)
#    0.000    0.727    5.455    1.091    2.545    2.909 
#    0.000    7.273    0.000    0.000    0.000    0.000 
#    0.000    0.000    0.000    0.000    0.000    0.000 
#
# Total GULP energy -61281.263998 kJ/mol
# GULP energy per Si atom -5571.024000 kJ/mol
# Density = 2.156470 g / cm^3
# Si number density = 21.613892 Si / 1000 Ang^3
#
#
#
# Elastic Constant Matrix: (Units=GPa)
#
#
# Indices 1 2 3 4 5 6 
#
# 1 102.7671 32.4646 6.5166 -13.5589 19.0121 -20.3160
# 2 32.4646 57.5556 11.9912 9.3265 21.6663 -8.1409
# 3 6.5166 11.9912 39.2560 -7.7810 15.7001 -1.3061
# 4 -13.5589 9.3265 -7.7810 33.3182 -8.0866 15.0862
# 5 19.0121 21.6663 15.7001 -8.0866 47.7922 -0.0578
# 6 -20.3160 -8.1409 -1.3061 15.0862 -0.0578 47.9581
#
#
#
# Elastic Compliance Matrix: (Units=1/GPa)
#
#
# Indices 1 2 3 4 5 6 
#
# 1 0.014005 -0.008940 0.002382 0.007560 -0.001019 0.002101
# 2 -0.008940 0.033597 -0.007688 -0.021827 -0.012832 0.008557
# 3 0.002382 -0.007688 0.031849 0.010263 -0.006191 -0.002665
# 4 0.007560 -0.021827 0.010263 0.052100 0.012312 -0.016598
# 5 -0.001019 -0.012832 -0.006191 0.012312 0.031256 -0.006614
# 6 0.002101 0.008557 -0.002665 -0.016598 -0.006614 0.028335
#
#
# Mechanical properties :
#
#
# Convention : Reuss Voigt Hill
#
# Bulk Modulus (GPa) = 19.62410 33.50261 26.56336
# Shear Modulus (GPa) = 21.13096 35.72078 28.42587
#
# Velocity S-wave (km/s) = 3.13014 4.06972 3.63046
# Velocity P-wave (km/s) = 4.70774 6.13333 5.46720
#
# Compressibility (1/GPa) = 0.05095775
#
# Stress axis : x y z
#
# Youngs Moduli (GPa) = 71.40202 29.76489 31.39846
#
# Poissons Ratio (x) = 0.26610 -0.07479
# Poissons Ratio (y) = 0.63834 0.24140
# Poissons Ratio (z) = -0.17007 0.22884
#
# Static dielectric constant tensor:
#      x y z
#    x 1.760940 0.004490 0.024580 
#    y 0.004490 1.807580 -0.017100 
#    z 0.024580 -0.017100 1.790540 
# 
# From -- ./inp_files/144504.got.cif
#   From: 2010.05.17/outbox.cif.g08.bks.cpg/sg2_73_cif.got.tgz:144504.got - 2010.06.03 11:33:40.
