data_PCOD9046881
_publ_section_title
;
Structure prediction by ZEFSAII (Michael W. Deem and Ramdas Pophale) SiO2 
 PCOD9046881
Probable space group: P -1
;
_chemical_formula_sum "Si O2"
_cell_formula_units_Z 16
_cell_length_a 5.741669
_cell_length_b 16.437576
_cell_length_c 13.833021
_cell_angle_alpha 132.959666
_cell_angle_beta 125.313766
_cell_angle_gamma 53.043265
_cell_volume 731.170313
_symmetry_space_group_name_H-M "P -1"
_symmetry_group_IT_number 2
_symmetry_cell_setting 'triclinic'
loop_
_space_group_symop_operation_xyz
x,y,z
-x,-y,-z
loop_
_atom_site_type_symbol
_atom_site_label
_atom_site_fract_x
_atom_site_fract_y
_atom_site_fract_z
Si Si1 0.996946 0.717750 0.584855
Si Si2 0.242049 0.588939 0.346234
Si Si3 0.284443 0.488896 0.854153
Si Si4 0.182672 0.635298 0.761613
Si Si5 0.932486 0.895496 0.954355
Si Si6 0.613037 0.253581 0.629424
Si Si7 0.753948 0.076060 0.222517
Si Si8 0.178625 0.977233 0.421378
O O1 0.173562 0.618326 0.467415
O O2 0.964395 0.663019 0.636982
O O3 0.160578 0.814814 0.713160
O O4 0.664310 0.778519 0.508730
O O5 0.538454 0.474102 0.304265
O O6 0.214603 0.715323 0.394580
O O7 0.981859 0.551746 0.203003
O O8 0.129801 0.590875 0.819599
O O9 0.484522 0.381234 0.749634
O O10 0.500000 0.500000 0.000000
O O11 0.186179 0.766728 0.894625
O O12 0.609342 0.889183 0.836155
O O13 0.879075 0.951274 0.093586
O O14 0.000000 0.000000 0.000000
O O15 0.747527 0.163662 0.675294
O O16 0.931493 0.047746 0.342257
O O17 0.500000 0.000000 0.500000
O O18 0.000000 0.000000 0.500000
#
# Coordination Sequence:
#
# PCOD9046881 Si02
#       8
#     2   2   2   2   2   2   2   2
#     4  11  22  42  70 100 144 168 233 300 365 427
#     4  10  24  43  69 101 133 181 226 304 363 427
#     4  10  25  47  65  95 139 177 233 289 356 439
#     4  11  25  41  71  98 133 181 235 286 361 433
#     4  11  26  47  67 102 140 191 242 298 363 437
#     4  10  24  44  67 103 137 182 233 292 362 431
#     4  11  26  45  70 101 148 190 238 306 363 443
#     4  12  27  46  76 112 147 199 244 301 382 438
#
# _framework density 21.882724
#
# number of rings (size 3 to 8) (size 9 to 14) (size 15 to 20)
#    0.000    1.250    2.500    1.125   10.500    6.500 
#    2.250    0.000    0.000    0.000    0.000    0.000 
#    0.000    0.000    0.000    0.000    0.000    0.000 
#
# Total GULP energy -89086.483807 kJ/mol
# GULP energy per Si atom -5567.905238 kJ/mol
# Density = 2.183292 g / cm^3
# Si number density = 21.882724 Si / 1000 Ang^3
#
#
#
# Elastic Constant Matrix: (Units=GPa)
#
#
# Indices 1 2 3 4 5 6 
#
# 1 82.3486 27.6974 37.8036 -6.9125 13.1498 15.0288
# 2 27.6974 93.5261 40.6697 10.3517 0.5502 25.5898
# 3 37.8036 40.6697 100.4358 -1.9384 17.2730 1.2040
# 4 -6.9125 10.3517 -1.9384 44.5219 -1.3062 -2.4162
# 5 13.1498 0.5502 17.2730 -1.3062 32.9163 7.1801
# 6 15.0288 25.5898 1.2040 -2.4162 7.1801 25.2706
#
#
#
# Elastic Compliance Matrix: (Units=1/GPa)
#
#
# Indices 1 2 3 4 5 6 
#
# 1 0.016967 -0.000243 -0.005855 0.001903 -0.001684 -0.008905
# 2 -0.000243 0.023992 -0.011393 -0.007272 0.011393 -0.027540
# 3 -0.005855 -0.011393 0.018495 0.003178 -0.010874 0.017531
# 4 0.001903 -0.007272 0.003178 0.024998 -0.003371 0.009429
# 5 -0.001684 0.011393 -0.010874 -0.003371 0.041247 -0.022060
# 6 -0.008905 -0.027540 0.017531 0.009429 -0.022060 0.079089
#
#
# Mechanical properties :
#
#
# Convention : Reuss Voigt Hill
#
# Bulk Modulus (GPa) = 40.86367 54.29468 47.57917
# Shear Modulus (GPa) = 20.16727 31.88442 26.02584
#
# Velocity S-wave (km/s) = 3.03909 3.82129 3.45241
# Velocity P-wave (km/s) = 5.57039 6.65846 6.13858
#
# Compressibility (1/GPa) = 0.02447162
#
# Stress axis : x y z
#
# Youngs Moduli (GPa) = 58.93871 41.68138 54.06839
#
# Poissons Ratio (x) = 0.01012 0.31656
# Poissons Ratio (y) = 0.01431 0.61601
# Poissons Ratio (z) = 0.34508 0.47488
#
# Static dielectric constant tensor:
#      x y z
#    x 1.923040 -0.208180 -0.114230 
#    y -0.208180 0.905800 -0.303110 
#    z -0.114230 -0.303110 1.688560 
# 
# From -- ./inp_files/485273.got.cif
#   From: 2010.05.17/outbox.cif.g08.bks.cpg/sg2_243_cif.got.tgz:485273.got - 2010.06.03 11:33:40.
