data_PCOD9046301
_publ_section_title
;
Structure prediction by ZEFSAII (Michael W. Deem and Ramdas Pophale) SiO2 
 PCOD9046301
Probable space group: P -1
;
_chemical_formula_sum "Si O2"
_cell_formula_units_Z 13
_cell_length_a 17.407509
_cell_length_b 10.603881
_cell_length_c 11.555682
_cell_angle_alpha 134.615276
_cell_angle_beta 150.667146
_cell_angle_gamma 29.064329
_cell_volume 491.406881
_symmetry_space_group_name_H-M "P -1"
_symmetry_group_IT_number 2
_symmetry_cell_setting 'triclinic'
loop_
_space_group_symop_operation_xyz
x,y,z
-x,-y,-z
loop_
_atom_site_type_symbol
_atom_site_label
_atom_site_fract_x
_atom_site_fract_y
_atom_site_fract_z
Si Si1 0.061410 0.936830 0.903926
Si Si2 0.671961 0.517365 0.760057
Si Si3 0.715957 0.758883 0.786274
Si Si4 0.470389 0.305189 0.718812
Si Si5 0.015212 0.234207 0.519239
Si Si6 0.000000 0.500000 0.500000
Si Si7 0.479541 0.196161 0.027026
O O1 0.334304 0.725644 0.093252
O O2 0.953208 0.866680 0.638487
O O3 0.000000 0.000000 0.000000
O O4 0.928270 0.227044 0.873071
O O5 0.500000 0.500000 0.500000
O O6 0.618224 0.736488 0.755765
O O7 0.638012 0.572459 0.886396
O O8 0.630013 0.721399 0.538045
O O9 0.609817 0.045514 0.815411
O O10 0.000000 0.500000 0.000000
O O11 0.240682 0.596414 0.658525
O O12 0.013752 0.444196 0.623493
O O13 0.240070 0.991252 0.736618
O O14 0.720151 0.671405 0.243325
O O15 0.500000 0.000000 0.000000
#
# Coordination Sequence:
#
# PCOD9046301 Si02
#       7
#     2   2   2   2   2   1   2
#     4  12  25  48  75 107 151 199 256 317 387 459
#     4  12  24  46  76 108 149 199 255 315 378 454
#     4  11  26  46  73 105 149 199 250 313 381 457
#     4  11  27  46  74 109 149 199 251 314 387 455
#     4  11  25  44  72 107 152 192 250 311 387 456
#     4  10  24  42  70 104 146 198 246 308 368 456
#     4  10  24  42  70 109 146 194 254 308 372 452
#
# _framework density 26.454657000000001
#
# number of rings (size 3 to 8) (size 9 to 14) (size 15 to 20)
#    0.000    0.923    3.077    2.308    8.615    1.231 
#    0.000    0.769    0.000    0.000    0.000    0.000 
#    0.000    0.000    0.000    0.000    0.000    0.000 
#
# Total GULP energy -72465.633447 kJ/mol
# GULP energy per Si atom -5574.279496 kJ/mol
# Density = 2.639445 g / cm^3
# Si number density = 26.454657 Si / 1000 Ang^3
#
#
#
# Elastic Constant Matrix: (Units=GPa)
#
#
# Indices 1 2 3 4 5 6 
#
# 1 133.0159 32.9346 56.5055 -20.7453 13.4736 -2.8839
# 2 32.9346 85.6134 49.1336 -37.1772 2.9944 -16.4307
# 3 56.5055 49.1336 215.2318 -43.9663 3.6718 -23.9778
# 4 -20.7453 -37.1772 -43.9663 51.2542 -3.4201 2.6790
# 5 13.4736 2.9944 3.6718 -3.4201 43.7584 -10.7633
# 6 -2.8839 -16.4307 -23.9778 2.6790 -10.7633 51.2777
#
#
#
# Elastic Compliance Matrix: (Units=1/GPa)
#
#
# Indices 1 2 3 4 5 6 
#
# 1 0.009288 -0.002691 -0.001983 0.000007 -0.002974 -0.001892
# 2 -0.002691 0.019405 -0.000631 0.012281 0.001872 0.005523
# 3 -0.001983 -0.000631 0.006454 0.004208 0.001109 0.002717
# 4 0.000007 0.012281 0.004208 0.031948 0.002470 0.004753
# 5 -0.002974 0.001872 0.001109 0.002470 0.025246 0.006121
# 6 -0.001892 0.005523 0.002717 0.004753 0.006121 0.023472
#
#
# Mechanical properties :
#
#
# Convention : Reuss Voigt Hill
#
# Bulk Modulus (GPa) = 40.75433 79.00095 59.87764
# Shear Modulus (GPa) = 37.14649 48.94388 43.04519
#
# Velocity S-wave (km/s) = 3.75127 4.30595 4.03815
# Velocity P-wave (km/s) = 5.84821 7.39251 6.66524
#
# Compressibility (1/GPa) = 0.02453727
#
# Stress axis : x y z
#
# Youngs Moduli (GPa) = 107.66885 51.53199 154.93896
#
# Poissons Ratio (x) = 0.13868 0.30718
# Poissons Ratio (y) = 0.28974 0.09783
# Poissons Ratio (z) = 0.21346 0.03254
#
# Static dielectric constant tensor:
#      x y z
#    x 2.008360 -0.330950 -0.019660 
#    y -0.330950 1.481370 -0.208210 
#    z -0.019660 -0.208210 2.107930 
# 
# From -- ./inp_files/464843.got.cif
#   From: 2010.05.17/outbox.cif.g08.bks.cpg/sg2_233_cif.got.tgz:464843.got - 2010.06.03 11:33:40.
