data_PCOD9046820
_publ_section_title
;
Structure prediction by ZEFSAII (Michael W. Deem and Ramdas Pophale) SiO2 
 PCOD9046820
Probable space group: P -1
;
_chemical_formula_sum "Si O2"
_cell_formula_units_Z 16
_cell_length_a 9.165286
_cell_length_b 11.814232
_cell_length_c 9.121569
_cell_angle_alpha 70.568129
_cell_angle_beta 61.698189
_cell_angle_gamma 58.223547
_cell_volume 734.715136
_symmetry_space_group_name_H-M "P -1"
_symmetry_group_IT_number 2
_symmetry_cell_setting 'triclinic'
loop_
_space_group_symop_operation_xyz
x,y,z
-x,-y,-z
loop_
_atom_site_type_symbol
_atom_site_label
_atom_site_fract_x
_atom_site_fract_y
_atom_site_fract_z
Si Si1 0.228139 0.812480 0.659553
Si Si2 0.385317 0.992956 0.415657
Si Si3 0.599368 0.565646 0.523034
Si Si4 0.876726 0.770592 0.771058
Si Si5 0.201197 0.877241 0.973314
Si Si6 0.647699 0.918954 0.084808
Si Si7 0.996847 0.513323 0.316933
Si Si8 0.687004 0.408024 0.856287
O O1 0.435509 0.708931 0.570385
O O2 0.223393 0.805306 0.838995
O O3 0.066918 0.786775 0.673877
O O4 0.224960 0.952762 0.557645
O O5 0.274370 0.126437 0.314411
O O6 0.500000 0.000000 0.500000
O O7 0.538203 0.887346 0.278502
O O8 0.500000 0.500000 0.500000
O O9 0.653648 0.477907 0.683582
O O10 0.778211 0.572339 0.366065
O O11 0.916040 0.626339 0.752431
O O12 0.804258 0.805245 0.959687
O O13 0.307745 0.965643 0.916004
O O14 0.264514 0.749850 0.106550
O O15 0.000000 0.000000 0.000000
O O16 0.500000 0.000000 0.000000
O O17 0.123458 0.586624 0.182904
O O18 0.000000 0.500000 0.500000
O O19 0.500000 0.500000 0.000000
#
# Coordination Sequence:
#
# PCOD9046820 Si02
#       8
#     2   2   2   2   2   2   2   2
#     4  12  24  44  71 103 146 188 246 311 360 454
#     4  11  25  41  71 107 141 194 238 300 380 437
#     4  11  24  47  69 103 141 185 247 304 363 437
#     4  11  24  47  71 105 147 188 250 308 370 438
#     4  12  25  46  73 106 149 189 246 305 378 441
#     4  10  24  43  68 104 144 185 237 308 362 443
#     4  10  25  46  73 100 144 191 246 304 366 449
#     4  11  26  46  77 103 142 203 242 300 379 443
#
# _framework density 21.777146999999999
#
# number of rings (size 3 to 8) (size 9 to 14) (size 15 to 20)
#    0.000    1.000    5.000    0.375    7.000    5.000 
#    0.000    1.250    0.000    0.000    0.000    0.000 
#    0.000    0.000    0.000    0.000    0.000    0.000 
#
# Total GULP energy -89155.846556 kJ/mol
# GULP energy per Si atom -5572.240410 kJ/mol
# Density = 2.172758 g / cm^3
# Si number density = 21.777147 Si / 1000 Ang^3
#
#
#
# Elastic Constant Matrix: (Units=GPa)
#
#
# Indices 1 2 3 4 5 6 
#
# 1 111.3234 7.8097 21.8083 2.5721 -5.4951 -7.2740
# 2 7.8097 78.8068 22.5449 16.9578 -0.6110 -16.1592
# 3 21.8083 22.5449 87.4621 2.8637 -5.2233 -7.8657
# 4 2.5721 16.9578 2.8637 17.2478 -3.5121 -3.3983
# 5 -5.4951 -0.6110 -5.2233 -3.5121 36.4180 7.1012
# 6 -7.2740 -16.1592 -7.8657 -3.3983 7.1012 36.0741
#
#
#
# Elastic Compliance Matrix: (Units=1/GPa)
#
#
# Indices 1 2 3 4 5 6 
#
# 1 0.009550 0.000119 -0.002225 -0.000759 0.000804 0.001264
# 2 0.000119 0.018837 -0.003916 -0.017232 -0.003179 0.006610
# 3 -0.002225 -0.003916 0.013064 0.002450 0.001599 0.000561
# 4 -0.000759 -0.017232 0.002450 0.075841 0.007591 -0.001688
# 5 0.000804 -0.003179 0.001599 0.007591 0.029666 -0.006038
# 6 0.001264 0.006610 0.000561 -0.001688 -0.006038 0.032089
#
#
# Mechanical properties :
#
#
# Convention : Reuss Voigt Hill
#
# Bulk Modulus (GPa) = 34.00774 42.43536 38.22155
# Shear Modulus (GPa) = 24.88890 32.97660 28.93275
#
# Velocity S-wave (km/s) = 3.38433 3.89559 3.64893
# Velocity P-wave (km/s) = 5.56074 6.30576 5.94493
#
# Compressibility (1/GPa) = 0.02940507
#
# Stress axis : x y z
#
# Youngs Moduli (GPa) = 104.70902 53.08785 76.54805
#
# Poissons Ratio (x) = -0.00631 0.17035
# Poissons Ratio (y) = -0.01245 0.29978
# Poissons Ratio (z) = 0.23302 0.20791
#
# Static dielectric constant tensor:
#      x y z
#    x 1.904720 0.077110 -0.036730 
#    y 0.077110 1.821860 0.006690 
#    z -0.036730 0.006690 1.831320 
# 
# From -- ./inp_files/185712.got.cif
#   From: 2010.05.17/outbox.cif.g08.bks.cpg/sg2_93_cif.got.tgz:185712.got - 2010.06.03 11:33:40.
