data_PCOD9046683
_publ_section_title
;
Structure prediction by ZEFSAII (Michael W. Deem and Ramdas Pophale) SiO2 
 PCOD9046683
Probable space group: P -1
;
_chemical_formula_sum "Si O2"
_cell_formula_units_Z 16
_cell_length_a 19.675447
_cell_length_b 19.596018
_cell_length_c 6.032419
_cell_angle_alpha 119.806185
_cell_angle_beta 109.026939
_cell_angle_gamma 21.790480
_cell_volume 679.621119
_symmetry_space_group_name_H-M "P -1"
_symmetry_group_IT_number 2
_symmetry_cell_setting 'triclinic'
loop_
_space_group_symop_operation_xyz
x,y,z
-x,-y,-z
loop_
_atom_site_type_symbol
_atom_site_label
_atom_site_fract_x
_atom_site_fract_y
_atom_site_fract_z
Si Si1 0.989867 0.549079 0.314359
Si Si2 0.416844 0.175234 0.214828
Si Si3 0.993257 0.233356 0.039157
Si Si4 0.166088 0.710644 0.680394
Si Si5 0.851053 0.126633 0.738961
Si Si6 0.596629 0.263607 0.485796
Si Si7 0.442551 0.296924 0.743623
Si Si8 0.297714 0.039272 0.179390
O O1 0.780858 0.808800 0.513631
O O2 0.000000 0.500000 0.500000
O O3 0.183098 0.407321 0.287945
O O4 0.000000 0.500000 0.000000
O O5 0.432326 0.217209 0.511538
O O6 0.500000 0.000000 0.000000
O O7 0.539102 0.097469 0.036736
O O8 0.101350 0.206910 0.116400
O O9 0.905579 0.295361 0.283325
O O10 0.787306 0.444501 0.019102
O O11 0.184220 0.983938 0.777867
O O12 0.397235 0.471166 0.453873
O O13 0.182077 0.763163 0.967952
O O14 0.983008 0.926355 0.684071
O O15 0.650243 0.291932 0.699510
O O16 0.000000 0.000000 0.500000
O O17 0.529102 0.268161 0.604721
O O18 0.602378 0.129905 0.840384
#
# Coordination Sequence:
#
# PCOD9046683 Si02
#       8
#     2   2   2   2   2   2   2   2
#     4  12  28  48  75 108 147 190 242 309 373 446
#     4  12  25  45  71 101 141 180 245 291 366 433
#     4  11  23  46  66 100 140 179 236 288 357 427
#     4  10  24  43  66  99 138 177 232 282 343 427
#     4  11  22  43  68 100 136 180 226 284 345 414
#     4  11  23  44  69  96 140 181 231 288 355 417
#     4  11  26  44  68 101 137 184 234 294 356 434
#     4  12  26  44  73 100 140 189 233 303 363 432
#
# _framework density 23.542528000000001
#
# number of rings (size 3 to 8) (size 9 to 14) (size 15 to 20)
#    0.000    0.750    5.000    1.875    1.750    3.500 
#    2.250    0.000    0.000    0.000    0.000    0.000 
#    0.000    0.000    0.000    0.000    0.000    0.000 
#
# Total GULP energy -89290.092369 kJ/mol
# GULP energy per Si atom -5580.630773 kJ/mol
# Density = 2.348894 g / cm^3
# Si number density = 23.542528 Si / 1000 Ang^3
#
#
#
# Elastic Constant Matrix: (Units=GPa)
#
#
# Indices 1 2 3 4 5 6 
#
# 1 85.1421 11.6355 3.8528 -3.7123 -14.4840 -22.5262
# 2 11.6355 82.1252 24.3590 18.0053 -25.3457 -25.9558
# 3 3.8528 24.3590 98.7608 25.5665 7.7446 -13.9774
# 4 -3.7123 18.0053 25.5665 40.8955 -7.3032 1.0857
# 5 -14.4840 -25.3457 7.7446 -7.3032 37.0056 6.2276
# 6 -22.5262 -25.9558 -13.9774 1.0857 6.2276 42.9457
#
#
#
# Elastic Compliance Matrix: (Units=1/GPa)
#
#
# Indices 1 2 3 4 5 6 
#
# 1 0.014753 0.002307 -0.001082 0.001985 0.006666 0.007764
# 2 0.002307 0.021861 -0.003666 -0.004970 0.013750 0.011361
# 3 -0.001082 -0.003666 0.014592 -0.009193 -0.008377 0.003413
# 4 0.001985 -0.004970 -0.009193 0.034030 0.007166 -0.006854
# 5 0.006666 0.013750 -0.008377 0.007166 0.041738 0.002847
# 6 0.007764 0.011361 0.003413 -0.006854 0.002847 0.035095
#
#
# Mechanical properties :
#
#
# Convention : Reuss Voigt Hill
#
# Bulk Modulus (GPa) = 21.58744 38.41364 30.00054
# Shear Modulus (GPa) = 27.41347 39.24807 33.33077
#
# Velocity S-wave (km/s) = 3.41607 4.08746 3.76675
# Velocity P-wave (km/s) = 4.97482 6.21519 5.62927
#
# Compressibility (1/GPa) = 0.04632323
#
# Stress axis : x y z
#
# Youngs Moduli (GPa) = 67.78115 45.74383 68.53280
#
# Poissons Ratio (x) = -0.10551 0.07416
# Poissons Ratio (y) = -0.15634 0.25122
# Poissons Ratio (z) = 0.07335 0.16768
#
# Static dielectric constant tensor:
#      x y z
#    x 1.930650 0.097300 0.086030 
#    y 0.097300 1.917740 -0.026460 
#    z 0.086030 -0.026460 2.008510 
# 
# From -- ./inp_files/120434.got.cif
#   From: 2010.05.17/outbox.cif.g08.bks.cpg/sg2_61_cif.got.tgz:120434.got - 2010.06.03 11:33:40.
