data_PCOD9046910
_publ_section_title
;
Structure prediction by ZEFSAII (Michael W. Deem and Ramdas Pophale) SiO2 
 PCOD9046910
Probable space group: P -1
;
_chemical_formula_sum "Si O2"
_cell_formula_units_Z 16
_cell_length_a 8.582670
_cell_length_b 14.110100
_cell_length_c 9.545675
_cell_angle_alpha 64.948979
_cell_angle_beta 133.798463
_cell_angle_gamma 100.560765
_cell_volume 745.159588
_symmetry_space_group_name_H-M "P -1"
_symmetry_group_IT_number 2
_symmetry_cell_setting 'triclinic'
loop_
_space_group_symop_operation_xyz
x,y,z
-x,-y,-z
loop_
_atom_site_type_symbol
_atom_site_label
_atom_site_fract_x
_atom_site_fract_y
_atom_site_fract_z
Si Si1 0.397883 0.206265 0.530955
Si Si2 0.966366 0.942744 0.658015
Si Si3 0.635275 0.095708 0.515019
Si Si4 0.825721 0.444081 0.844104
Si Si5 0.346333 0.760049 0.063340
Si Si6 0.046552 0.593233 0.366673
Si Si7 0.414197 0.286357 0.051460
Si Si8 0.521235 0.605057 0.711876
O O1 0.207599 0.136990 0.432810
O O2 0.614979 0.144788 0.626294
O O3 0.460326 0.234530 0.708273
O O4 0.354194 0.313204 0.345674
O O5 0.867650 0.036844 0.643166
O O6 0.000000 0.000000 0.500000
O O7 0.193214 0.873804 0.888763
O O8 0.511959 0.184578 0.273515
O O9 0.500000 0.000000 0.500000
O O10 0.810500 0.321150 0.932480
O O11 0.596344 0.498919 0.736907
O O12 0.882824 0.456360 0.710310
O O13 0.000000 0.500000 0.000000
O O14 0.443333 0.724900 0.993293
O O15 0.000000 0.500000 0.500000
O O16 0.261343 0.636473 0.523914
O O17 0.840848 0.688426 0.165541
O O18 0.424529 0.387506 0.095953
#
# Coordination Sequence:
#
# PCOD9046910 Si02
#       8
#     2   2   2   2   2   2   2   2
#     4  10  24  43  69 103 133 180 225 283 338 416
#     4  11  23  46  71 102 135 178 224 284 351 405
#     4   9  21  44  71  93 137 177 222 278 344 410
#     4  12  25  45  70  99 137 188 226 280 342 405
#     4  12  26  43  70 101 140 178 232 286 340 409
#     4  12  27  42  67  99 134 180 234 278 334 404
#     4  11  25  45  64 103 137 178 227 285 338 403
#     4  11  24  46  69  96 143 182 228 276 342 407
#
# _framework density 21.471910999999999
#
# number of rings (size 3 to 8) (size 9 to 14) (size 15 to 20)
#    0.000    1.000    3.750    1.875    7.000    3.000 
#    0.000    0.000    0.000    0.000    0.000    0.000 
#    0.000    0.000    0.000    0.000    0.000    0.000 
#
# Total GULP energy -89273.763166 kJ/mol
# GULP energy per Si atom -5579.610198 kJ/mol
# Density = 2.142304 g / cm^3
# Si number density = 21.471911 Si / 1000 Ang^3
#
#
#
# Elastic Constant Matrix: (Units=GPa)
#
#
# Indices 1 2 3 4 5 6 
#
# 1 103.7277 15.2156 41.2566 -3.6550 -13.2993 -17.2659
# 2 15.2156 47.2666 13.4107 -13.3251 -14.3909 -3.6680
# 3 41.2566 13.4107 69.9179 1.7340 -0.8781 -7.8360
# 4 -3.6550 -13.3251 1.7340 36.3820 -6.0508 4.6320
# 5 -13.2993 -14.3909 -0.8781 -6.0508 48.8288 3.3504
# 6 -17.2659 -3.6680 -7.8360 4.6320 3.3504 49.5656
#
#
#
# Elastic Compliance Matrix: (Units=1/GPa)
#
#
# Indices 1 2 3 4 5 6 
#
# 1 0.013808 -0.000452 -0.007707 0.001768 0.003491 0.003157
# 2 -0.000452 0.029555 -0.005677 0.012830 0.010127 -0.000751
# 3 -0.007707 -0.005677 0.020089 -0.004580 -0.004032 0.000772
# 4 0.001768 0.012830 -0.004580 0.034395 0.008645 -0.002958
# 5 0.003491 0.010127 -0.004032 0.008645 0.025497 -0.001203
# 6 0.003157 -0.000751 0.000772 -0.002958 -0.001203 0.021699
#
#
# Mechanical properties :
#
#
# Convention : Reuss Voigt Hill
#
# Bulk Modulus (GPa) = 27.94986 40.07533 34.01260
# Shear Modulus (GPa) = 27.07967 37.02389 32.05178
#
# Velocity S-wave (km/s) = 3.55514 4.15697 3.86778
# Velocity P-wave (km/s) = 5.46784 6.46104 5.98508
#
# Compressibility (1/GPa) = 0.03577835
#
# Stress axis : x y z
#
# Youngs Moduli (GPa) = 72.42332 33.83577 49.77945
#
# Poissons Ratio (x) = 0.01529 0.38365
# Poissons Ratio (y) = 0.03272 0.28262
# Poissons Ratio (z) = 0.55817 0.19210
#
# Static dielectric constant tensor:
#      x y z
#    x 1.430030 0.261370 0.440190 
#    y 0.261370 1.569350 -0.386700 
#    z 0.440190 -0.386700 1.370110 
# 
# From -- ./inp_files/201096.got.cif
#   From: 2010.05.17/outbox.cif.g08.bks.cpg/sg2_101_cif.got.tgz:201096.got - 2010.06.03 11:33:40.
