data_PCOD9046361
_publ_section_title
;
Structure prediction by ZEFSAII (Michael W. Deem and Ramdas Pophale) SiO2 
 PCOD9046361
Probable space group: P -1
;
_chemical_formula_sum "Si O2"
_cell_formula_units_Z 12
_cell_length_a 13.935134
_cell_length_b 20.082699
_cell_length_c 5.073430
_cell_angle_alpha 101.123633
_cell_angle_beta 105.090649
_cell_angle_gamma 22.278023
_cell_volume 515.210298
_symmetry_space_group_name_H-M "P -1"
_symmetry_group_IT_number 2
_symmetry_cell_setting 'triclinic'
loop_
_space_group_symop_operation_xyz
x,y,z
-x,-y,-z
loop_
_atom_site_type_symbol
_atom_site_label
_atom_site_fract_x
_atom_site_fract_y
_atom_site_fract_z
Si Si1 0.183473 0.999705 0.101994
Si Si2 0.324897 0.122589 0.718320
Si Si3 0.069445 0.529153 0.457837
Si Si4 0.624557 0.618877 0.942673
Si Si5 0.366999 0.640521 0.827549
Si Si6 0.072138 0.146970 0.625321
O O1 0.169069 0.066363 0.919730
O O2 0.881015 0.169519 0.050245
O O3 0.379525 0.817690 0.021302
O O4 0.245981 0.995892 0.421783
O O5 0.099280 0.208592 0.633871
O O6 0.191985 0.278251 0.714445
O O7 0.500000 0.000000 0.500000
O O8 0.500000 0.000000 0.000000
O O9 0.275531 0.409956 0.278363
O O10 0.000000 0.500000 0.500000
O O11 0.164385 0.510410 0.769691
O O12 0.545161 0.590444 0.830640
O O13 0.500000 0.500000 0.000000
O O14 0.216181 0.698122 0.524996
#
# Coordination Sequence:
#
# PCOD9046361 Si02
#       6
#     2   2   2   2   2   2
#     4  10  24  42  72 101 144 183 232 277 366 413
#     4  12  27  47  77 101 143 188 245 294 360 421
#     4  12  30  48  72 106 143 189 248 296 357 420
#     4  12  26  47  74 102 149 188 235 293 363 427
#     4  10  25  43  73 106 147 181 237 294 357 426
#     4  10  24  42  71 104 140 178 240 284 357 414
#
# _framework density 23.291457999999999
#
# number of rings (size 3 to 8) (size 9 to 14) (size 15 to 20)
#    1.000    0.000    0.000    5.000   11.667    1.333 
#    0.000    0.000    0.000    0.000    0.000    0.000 
#    0.000    0.000    0.000    0.000    0.000    0.000 
#
# Total GULP energy -67120.758835 kJ/mol
# GULP energy per Si atom -5593.396570 kJ/mol
# Density = 2.323845 g / cm^3
# Si number density = 23.291458 Si / 1000 Ang^3
#
#
#
# Elastic Constant Matrix: (Units=GPa)
#
#
# Indices 1 2 3 4 5 6 
#
# 1 164.4427 45.3476 47.8212 -1.6227 -11.9538 -2.1899
# 2 45.3476 105.2647 15.6044 -6.4855 -16.4234 6.0537
# 3 47.8212 15.6044 108.9956 -6.4077 -21.0579 -13.3643
# 4 -1.6227 -6.4855 -6.4077 37.1346 -4.8609 -12.8304
# 5 -11.9538 -16.4234 -21.0579 -4.8609 42.1272 -0.5512
# 6 -2.1899 6.0537 -13.3643 -12.8304 -0.5512 33.4871
#
#
#
# Elastic Compliance Matrix: (Units=1/GPa)
#
#
# Indices 1 2 3 4 5 6 
#
# 1 0.007792 -0.003013 -0.003276 -0.001082 -0.000735 -0.000680
# 2 -0.003013 0.011573 0.000421 0.002061 0.004089 -0.001264
# 3 -0.003276 0.000421 0.012989 0.005467 0.006451 0.007095
# 4 -0.001082 0.002061 0.005467 0.034341 0.007388 0.015018
# 5 -0.000735 0.004089 0.006451 0.007388 0.029267 0.005100
# 6 -0.000680 -0.001264 0.007095 0.015018 0.005100 0.038716
#
#
# Mechanical properties :
#
#
# Convention : Reuss Voigt Hill
#
# Bulk Modulus (GPa) = 48.50200 66.24994 57.37597
# Shear Modulus (GPa) = 32.61862 40.54511 36.58187
#
# Velocity S-wave (km/s) = 3.74632 4.17678 3.96740
# Velocity P-wave (km/s) = 6.29146 7.19488 6.75828
#
# Compressibility (1/GPa) = 0.02061771
#
# Stress axis : x y z
#
# Youngs Moduli (GPa) = 128.34243 86.40746 76.98542
#
# Poissons Ratio (x) = 0.26037 0.25222
# Poissons Ratio (y) = 0.38673 -0.03243
# Poissons Ratio (z) = 0.42047 -0.03639
#
# Static dielectric constant tensor:
#      x y z
#    x 1.848050 -0.044290 0.032600 
#    y -0.044290 1.937910 0.024920 
#    z 0.032600 0.024920 1.848010 
# 
# From -- ./inp_files/80737.got.cif
#   From: 2010.05.17/outbox.cif.g08.bks.cpg/sg2_41_cif.got.tgz:80737.got - 2010.06.03 11:33:40.
