data_PCOD9046926
_publ_section_title
;
Structure prediction by ZEFSAII (Michael W. Deem and Ramdas Pophale) SiO2 
 PCOD9046926
Probable space group: P -1
;
_chemical_formula_sum "Si O2"
_cell_formula_units_Z 16
_cell_length_a 9.182822
_cell_length_b 14.527556
_cell_length_c 14.915937
_cell_angle_alpha 29.446931
_cell_angle_beta 115.102921
_cell_angle_gamma 95.473060
_cell_volume 698.088388
_symmetry_space_group_name_H-M "P -1"
_symmetry_group_IT_number 2
_symmetry_cell_setting 'triclinic'
loop_
_space_group_symop_operation_xyz
x,y,z
-x,-y,-z
loop_
_atom_site_type_symbol
_atom_site_label
_atom_site_fract_x
_atom_site_fract_y
_atom_site_fract_z
Si Si1 0.381785 0.416827 0.798608
Si Si2 0.304144 0.600525 0.804975
Si Si3 0.444304 0.114159 0.737061
Si Si4 0.034529 0.442600 0.454438
Si Si5 0.862935 0.964479 0.930179
Si Si6 0.794215 0.611488 0.905061
Si Si7 0.865025 0.932216 0.746897
Si Si8 0.673435 0.549179 0.743088
O O1 0.400380 0.402239 0.921992
O O2 0.512237 0.496652 0.728481
O O3 0.135205 0.593847 0.576273
O O4 0.471405 0.156877 0.009870
O O5 0.195695 0.854115 0.515673
O O6 0.500000 0.500000 0.000000
O O7 0.161205 0.583253 0.846705
O O8 0.264296 0.246511 0.650245
O O9 0.351114 0.263513 0.492908
O O10 0.647125 0.095782 0.814139
O O11 0.000000 0.500000 0.500000
O O12 0.966740 0.686146 0.186989
O O13 0.827811 0.018327 0.768009
O O14 0.000000 0.000000 0.000000
O O15 0.747283 0.831477 0.763898
O O16 0.648983 0.642910 0.759498
O O17 0.000000 0.500000 0.000000
O O18 0.103563 0.704630 0.993752
#
# Coordination Sequence:
#
# PCOD9046926 Si02
#       8
#     2   2   2   2   2   2   2   2
#     4  11  27  46  71 111 152 194 254 309 376 447
#     4  12  26  45  70 109 149 200 254 309 376 446
#     4  11  26  49  76 108 156 194 250 314 379 454
#     4  11  27  49  77 110 149 197 251 319 385 448
#     4  11  26  48  77 114 148 201 252 312 382 447
#     4  10  24  43  69 106 148 194 251 303 380 441
#     4  11  26  47  75 109 158 197 256 320 375 454
#     4  11  24  44  76 111 144 208 250 308 384 450
#
# _framework density 22.919734999999999
#
# number of rings (size 3 to 8) (size 9 to 14) (size 15 to 20)
#    0.000    1.000    2.500    2.250    8.750    6.000 
#    0.000    0.000    0.000    0.000    0.000    0.000 
#    0.000    0.000    0.000    0.000    0.000    0.000 
#
# Total GULP energy -89304.542214 kJ/mol
# GULP energy per Si atom -5581.533888 kJ/mol
# Density = 2.286757 g / cm^3
# Si number density = 22.919735 Si / 1000 Ang^3
#
#
#
# Elastic Constant Matrix: (Units=GPa)
#
#
# Indices 1 2 3 4 5 6 
#
# 1 145.8637 70.7254 55.1832 -10.0115 7.7217 0.0262
# 2 70.7254 129.2481 32.4964 8.8097 3.8692 5.2739
# 3 55.1832 32.4964 112.2272 -12.3405 -0.6573 -0.8467
# 4 -10.0115 8.8097 -12.3405 23.5345 -11.1740 -0.6755
# 5 7.7217 3.8692 -0.6573 -11.1740 58.0193 -1.9062
# 6 0.0262 5.2739 -0.8467 -0.6755 -1.9062 44.9047
#
#
#
# Elastic Compliance Matrix: (Units=1/GPa)
#
#
# Indices 1 2 3 4 5 6 
#
# 1 0.011219 -0.005680 -0.003305 0.005116 -0.000144 0.000669
# 2 -0.005680 0.011969 -0.001647 -0.008653 -0.001781 -0.001639
# 3 -0.003305 -0.001647 0.011719 0.006280 0.001911 0.000592
# 4 0.005116 -0.008653 0.006280 0.056454 0.010920 0.002444
# 5 -0.000144 -0.001781 0.001911 0.010920 0.019539 0.001239
# 6 0.000669 -0.001639 0.000592 0.002444 0.001239 0.022562
#
#
# Mechanical properties :
#
#
# Convention : Reuss Voigt Hill
#
# Bulk Modulus (GPa) = 73.29911 78.23878 75.76894
# Shear Modulus (GPa) = 31.39256 40.55399 35.97327
#
# Velocity S-wave (km/s) = 3.70493 4.21098 3.96603
# Velocity P-wave (km/s) = 7.09593 7.60613 7.35545
#
# Compressibility (1/GPa) = 0.01364273
#
# Stress axis : x y z
#
# Youngs Moduli (GPa) = 89.13754 83.54779 85.33296
#
# Poissons Ratio (x) = 0.47452 0.28202
# Poissons Ratio (y) = 0.50627 0.14057
# Poissons Ratio (z) = 0.29460 0.13763
#
# Static dielectric constant tensor:
#      x y z
#    x 1.899870 0.008520 -0.005450 
#    y 0.008520 1.932200 0.136100 
#    z -0.005450 0.136100 2.016960 
# 
# From -- ./inp_files/505084.got.cif
#   From: 2010.05.17/outbox.cif.g08.bks.cpg/sg2_253_cif.got.tgz:505084.got - 2010.06.03 11:33:40.
