data_PCOD9046110
_publ_section_title
;
Structure prediction by ZEFSAII (Michael W. Deem and Ramdas Pophale) SiO2 
 PCOD9046110
Probable space group: P -1
;
_chemical_formula_sum "Si O2"
_cell_formula_units_Z 16
_cell_length_a 11.994291
_cell_length_b 14.761656
_cell_length_c 12.187629
_cell_angle_alpha 29.579132
_cell_angle_beta 80.847313
_cell_angle_gamma 59.711093
_cell_volume 694.311715
_symmetry_space_group_name_H-M "P -1"
_symmetry_group_IT_number 2
_symmetry_cell_setting 'triclinic'
loop_
_space_group_symop_operation_xyz
x,y,z
-x,-y,-z
loop_
_atom_site_type_symbol
_atom_site_label
_atom_site_fract_x
_atom_site_fract_y
_atom_site_fract_z
Si Si1 0.603567 0.059465 0.441832
Si Si2 0.773846 0.359187 0.570521
Si Si3 0.650690 0.245365 0.544711
Si Si4 0.106123 0.112894 0.307554
Si Si5 0.766740 0.362449 0.048941
Si Si6 0.443786 0.055520 0.077256
Si Si7 0.161040 0.821839 0.018471
Si Si8 0.626540 0.118557 0.131476
O O1 0.766527 0.874511 0.692297
O O2 0.673165 0.023244 0.349050
O O3 0.500000 0.000000 0.500000
O O4 0.437329 0.378265 0.172373
O O5 0.666733 0.318314 0.584585
O O6 0.758489 0.391837 0.669356
O O7 0.721204 0.608267 0.253950
O O8 0.962852 0.072812 0.809336
O O9 0.821482 0.037970 0.663098
O O10 0.592338 0.107314 0.710152
O O11 0.523878 0.545385 0.192021
O O12 0.161792 0.895121 0.619610
O O13 0.899312 0.363348 0.066293
O O14 0.795094 0.301972 0.978614
O O15 0.568859 0.008623 0.191111
O O16 0.500000 0.000000 0.000000
O O17 0.227626 0.949130 0.882770
#
# Coordination Sequence:
#
# PCOD9046110 Si02
#       8
#     2   2   2   2   2   2   2   2
#     4  12  25  42  63 103 140 176 224 284 334 407
#     4  10  24  42  67  97 133 173 225 274 336 401
#     4  11  21  43  68  93 132 174 219 279 336 399
#     4  11  22  41  69  97 128 178 229 270 340 407
#     4  11  23  42  72  96 133 178 228 276 338 407
#     4  11  24  42  66 100 130 174 227 277 335 400
#     4  11  21  43  68  94 132 177 219 277 337 401
#     4  11  23  42  67  94 135 173 222 274 337 404
#
# _framework density 23.044404
#
# number of rings (size 3 to 8) (size 9 to 14) (size 15 to 20)
#    0.000    1.000    3.750    3.375    0.000    3.500 
#    2.250    6.875    0.000    0.000    0.000    0.000 
#    0.000    0.000    0.000    0.000    0.000    0.000 
#
# Total GULP energy -89324.453911 kJ/mol
# GULP energy per Si atom -5582.778369 kJ/mol
# Density = 2.299195 g / cm^3
# Si number density = 23.044404 Si / 1000 Ang^3
#
#
#
# Elastic Constant Matrix: (Units=GPa)
#
#
# Indices 1 2 3 4 5 6 
#
# 1 280.2286 103.1388 70.5431 88.3465 -5.2639 74.1688
# 2 103.1388 157.3314 43.7058 78.3947 1.1168 51.4535
# 3 70.5431 43.7058 45.4892 30.0857 -10.9037 31.7069
# 4 88.3465 78.3947 30.0857 80.2647 -2.4815 33.2743
# 5 -5.2639 1.1168 -10.9037 -2.4815 36.6189 -0.0674
# 6 74.1688 51.4535 31.7069 33.2743 -0.0674 54.9310
#
#
#
# Elastic Compliance Matrix: (Units=1/GPa)
#
#
# Indices 1 2 3 4 5 6 
#
# 1 0.007581 0.000601 -0.006613 -0.004802 -0.001231 -0.004075
# 2 0.000601 0.014342 -0.004600 -0.010970 -0.002473 -0.004948
# 3 -0.006613 -0.004600 0.051887 -0.000408 0.014582 -0.016447
# 4 -0.004802 -0.010970 -0.000408 0.028858 0.001478 -0.000484
# 5 -0.001231 -0.002473 0.014582 0.001478 0.031639 -0.005295
# 6 -0.004075 -0.004948 -0.016447 -0.000484 -0.005295 0.038122
#
#
# Mechanical properties :
#
#
# Convention : Reuss Voigt Hill
#
# Bulk Modulus (GPa) = 19.01638 101.98051 60.49845
# Shear Modulus (GPa) = 23.67616 52.07369 37.87492
#
# Velocity S-wave (km/s) = 3.20881 4.75880 4.05849
# Velocity P-wave (km/s) = 4.69026 8.63394 6.94779
#
# Compressibility (1/GPa) = 0.05258624
#
# Stress axis : x y z
#
# Youngs Moduli (GPa) = 131.90383 69.72570 19.27255
#
# Poissons Ratio (x) = -0.04192 0.12745
# Poissons Ratio (y) = -0.07931 0.08866
# Poissons Ratio (z) = 0.87229 0.32076
#
# Static dielectric constant tensor:
#      x y z
#    x 1.996230 -0.007280 -0.004020 
#    y -0.007280 1.887710 -0.026650 
#    z -0.004020 -0.026650 1.904000 
# 
# From -- ./inp_files/272632.got.cif
#   From: 2010.05.17/outbox.cif.g08.bks.cpg/sg2_137_cif.got.tgz:272632.got - 2010.06.03 11:33:40.
