data_PCOD9046311
_publ_section_title
;
Structure prediction by ZEFSAII (Michael W. Deem and Ramdas Pophale) SiO2 
 PCOD9046311
Probable space group: P -1
;
_chemical_formula_sum "Si O2"
_cell_formula_units_Z 16
_cell_length_a 12.780754
_cell_length_b 8.521488
_cell_length_c 11.718237
_cell_angle_alpha 116.060369
_cell_angle_beta 79.810088
_cell_angle_gamma 53.711211
_cell_volume 736.926202
_symmetry_space_group_name_H-M "P -1"
_symmetry_group_IT_number 2
_symmetry_cell_setting 'triclinic'
loop_
_space_group_symop_operation_xyz
x,y,z
-x,-y,-z
loop_
_atom_site_type_symbol
_atom_site_label
_atom_site_fract_x
_atom_site_fract_y
_atom_site_fract_z
Si Si1 0.371060 0.305124 0.579787
Si Si2 0.005218 0.240627 0.252256
Si Si3 0.485582 0.370585 0.092071
Si Si4 0.737482 0.783841 0.806193
Si Si5 0.387090 0.397484 0.356212
Si Si6 0.206966 0.518464 0.097631
Si Si7 0.275201 0.643594 0.917212
Si Si8 0.936431 0.050401 0.401275
O O1 0.436599 0.289291 0.439436
O O2 0.340562 0.500194 0.737275
O O3 0.180418 0.484095 0.659110
O O4 0.500000 0.000000 0.500000
O O5 0.105586 0.292742 0.268165
O O6 0.988205 0.144243 0.337905
O O7 0.120144 0.971085 0.061979
O O8 0.506380 0.300295 0.200315
O O9 0.300018 0.566429 0.157232
O O10 0.574233 0.441966 0.080904
O O11 0.584197 0.099769 0.919461
O O12 0.712037 0.647559 0.688770
O O13 0.735476 0.717523 0.916340
O O14 0.256714 0.715005 0.489100
O O15 0.236524 0.518905 0.959949
O O16 0.018940 0.777335 0.245632
O O17 0.000000 0.000000 0.500000
#
# Coordination Sequence:
#
# PCOD9046311 Si02
#       8
#     2   2   2   2   2   2   2   2
#     4  11  25  41  59  87 122 163 197 244 292 349
#     4   9  22  42  63  86 118 159 203 240 293 360
#     4  10  20  35  61  87 118 154 195 246 298 348
#     4  10  20  36  63  91 116 151 195 251 306 337
#     4  10  21  38  59  87 129 152 186 249 305 351
#     4  10  19  35  60  91 118 150 199 248 291 350
#     4  10  22  40  62  84 117 164 204 233 291 359
#     4  10  17  34  55  87 119 151 186 235 307 348
#
# _framework density 21.711808999999999
#
# number of rings (size 3 to 8) (size 9 to 14) (size 15 to 20)
#    0.000    2.000    2.500    2.250    3.500    2.500 
#    4.500    0.625    2.750    0.000    0.000    0.000 
#    0.000    0.000    0.000    0.000    0.000    0.000 
#
# Total GULP energy -89168.827365 kJ/mol
# GULP energy per Si atom -5573.051710 kJ/mol
# Density = 2.166239 g / cm^3
# Si number density = 21.711809 Si / 1000 Ang^3
#
#
#
# Elastic Constant Matrix: (Units=GPa)
#
#
# Indices 1 2 3 4 5 6 
#
# 1 40.3351 0.8988 11.0270 10.9369 -4.1026 1.0375
# 2 0.8988 106.2944 27.7288 9.5718 -4.1290 -8.6503
# 3 11.0270 27.7288 86.2222 5.2847 -1.3176 -0.9457
# 4 10.9369 9.5718 5.2847 37.0315 -6.5931 -6.6908
# 5 -4.1026 -4.1290 -1.3176 -6.5931 18.5934 2.8983
# 6 1.0375 -8.6503 -0.9457 -6.6908 2.8983 22.5936
#
#
#
# Elastic Compliance Matrix: (Units=1/GPa)
#
#
# Indices 1 2 3 4 5 6 
#
# 1 0.028466 0.001255 -0.003522 -0.008225 0.004005 -0.003923
# 2 0.001255 0.010777 -0.003458 -0.001857 0.001266 0.003211
# 3 -0.003522 -0.003458 0.013154 -0.000151 -0.000576 -0.000582
# 4 -0.008225 -0.001857 -0.000151 0.032891 0.008122 0.008359
# 5 0.004005 0.001266 -0.000576 0.008122 0.058539 -0.004827
# 6 -0.003923 0.003211 -0.000582 0.008359 -0.004827 0.048740
#
#
# Mechanical properties :
#
#
# Convention : Reuss Voigt Hill
#
# Bulk Modulus (GPa) = 24.42157 34.68456 29.55307
# Shear Modulus (GPa) = 22.97098 28.52352 25.74725
#
# Velocity S-wave (km/s) = 3.25621 3.62848 3.44737
# Velocity P-wave (km/s) = 5.04080 5.79346 5.43019
#
# Compressibility (1/GPa) = 0.04094741
#
# Stress axis : x y z
#
# Youngs Moduli (GPa) = 35.13023 92.78980 76.01963
#
# Poissons Ratio (x) = -0.11645 0.26773
# Poissons Ratio (y) = -0.04409 0.26287
# Poissons Ratio (z) = 0.12372 0.32086
#
# Static dielectric constant tensor:
#      x y z
#    x 1.800480 -0.036560 -0.017830 
#    y -0.036560 1.827570 -0.022340 
#    z -0.017830 -0.022340 1.823620 
# 
# From -- ./inp_files/446201.got.cif
#   From: 2010.05.17/outbox.cif.g08.bks.cpg/sg2_224_cif.got.tgz:446201.got - 2010.06.03 11:33:40.
