data_PCOD9046300
_publ_section_title
;
Structure prediction by ZEFSAII (Michael W. Deem and Ramdas Pophale) SiO2 
 PCOD9046300
Probable space group: P -1
;
_chemical_formula_sum "Si O2"
_cell_formula_units_Z 11
_cell_length_a 8.790600
_cell_length_b 8.206324
_cell_length_c 7.056910
_cell_angle_alpha 103.109862
_cell_angle_beta 85.259823
_cell_angle_gamma 106.382393
_cell_volume 475.582616
_symmetry_space_group_name_H-M "P -1"
_symmetry_group_IT_number 2
_symmetry_cell_setting 'triclinic'
loop_
_space_group_symop_operation_xyz
x,y,z
-x,-y,-z
loop_
_atom_site_type_symbol
_atom_site_label
_atom_site_fract_x
_atom_site_fract_y
_atom_site_fract_z
Si Si1 0.585177 0.499212 0.791322
Si Si2 0.000000 0.000000 0.000000
Si Si3 0.131216 0.591234 0.160717
Si Si4 0.595400 0.759401 0.533642
Si Si5 0.333706 0.951233 0.112708
Si Si6 0.933482 0.815976 0.356164
O O1 0.774452 0.537822 0.802612
O O2 0.545476 0.638669 0.691321
O O3 0.528689 0.314914 0.638272
O O4 0.500000 0.500000 0.000000
O O5 0.940335 0.866966 0.148857
O O6 0.190086 0.010741 0.043042
O O7 0.263809 0.744766 0.086513
O O8 0.044154 0.687957 0.342477
O O9 0.000000 0.500000 0.000000
O O10 0.758518 0.733754 0.427422
O O11 0.632175 0.953365 0.661092
O O12 0.500000 0.000000 0.000000
O O13 0.000000 0.000000 0.500000
#
# Coordination Sequence:
#
# PCOD9046300 Si02
#       6
#     2   1   2   2   2   2
#     4  11  26  46  72 102 151 190 236 319 373 440
#     4  10  24  42  70 104 146 192 226 320 360 416
#     4  11  25  43  71 109 143 191 245 302 376 440
#     4  11  25  45  71 107 140 197 249 294 377 448
#     4  11  25  45  74 109 143 197 259 297 373 454
#     4  11  23  44  69 102 141 187 246 294 368 436
#
# _framework density 23.129527
#
# number of rings (size 3 to 8) (size 9 to 14) (size 15 to 20)
#    0.000    1.091    3.636    2.182   10.182    4.364 
#    0.000    1.818    0.000    0.000    0.000    0.000 
#    0.000    0.000    0.000    0.000    0.000    0.000 
#
# Total GULP energy -61246.253255 kJ/mol
# GULP energy per Si atom -5567.841205 kJ/mol
# Density = 2.307688 g / cm^3
# Si number density = 23.129527 Si / 1000 Ang^3
#
#
#
# Elastic Constant Matrix: (Units=GPa)
#
#
# Indices 1 2 3 4 5 6 
#
# 1 135.6487 10.6811 56.9416 9.5698 -0.0150 13.9872
# 2 10.6811 74.2563 35.9291 11.3866 3.5372 10.5088
# 3 56.9416 35.9291 108.8342 1.7665 2.0318 2.9793
# 4 9.5698 11.3866 1.7665 46.5434 11.9173 -3.8361
# 5 -0.0150 3.5372 2.0318 11.9173 50.7035 -5.1759
# 6 13.9872 10.5088 2.9793 -3.8361 -5.1759 44.1346
#
#
#
# Elastic Compliance Matrix: (Units=1/GPa)
#
#
# Indices 1 2 3 4 5 6 
#
# 1 0.010292 0.002370 -0.006028 -0.002864 0.000382 -0.003623
# 2 0.002370 0.017976 -0.006950 -0.004953 -0.000324 -0.005031
# 3 -0.006028 -0.006950 0.014525 0.002734 -0.000459 0.002769
# 4 -0.002864 -0.004953 0.002734 0.024809 -0.005244 0.003444
# 5 0.000382 -0.000324 -0.000459 -0.005244 0.021202 0.002018
# 6 -0.003623 -0.005031 0.002769 0.003444 0.002018 0.025353
#
#
# Mechanical properties :
#
#
# Convention : Reuss Voigt Hill
#
# Bulk Modulus (GPa) = 46.34883 58.42699 52.38791
# Shear Modulus (GPa) = 35.07173 42.62213 38.84693
#
# Velocity S-wave (km/s) = 3.89822 4.29739 4.10266
# Velocity P-wave (km/s) = 6.35168 7.06676 6.71874
#
# Compressibility (1/GPa) = 0.02157552
#
# Stress axis : x y z
#
# Youngs Moduli (GPa) = 97.16683 55.63086 68.84600
#
# Poissons Ratio (x) = -0.13185 0.41503
# Poissons Ratio (y) = -0.23030 0.47849
# Poissons Ratio (z) = 0.58576 0.38664
#
# Static dielectric constant tensor:
#      x y z
#    x 1.904210 -0.024050 0.017970 
#    y -0.024050 1.931790 0.033340 
#    z 0.017970 0.033340 1.870220 
# 
# From -- ./inp_files/17710.got.cif
#   From: 2010.05.17/outbox.cif.g08.bks.cpg/sg2_9_cif.got.tgz:17710.got - 2010.06.03 11:33:40.
