data_PCOD9046203
_publ_section_title
;
Structure prediction by ZEFSAII (Michael W. Deem and Ramdas Pophale) SiO2 
 PCOD9046203
Probable space group: P -1
;
_chemical_formula_sum "Si O2"
_cell_formula_units_Z 14
_cell_length_a 14.634043
_cell_length_b 6.246071
_cell_length_c 12.873621
_cell_angle_alpha 49.322131
_cell_angle_beta 125.505024
_cell_angle_gamma 133.439012
_cell_volume 628.913759
_symmetry_space_group_name_H-M "P -1"
_symmetry_group_IT_number 2
_symmetry_cell_setting 'triclinic'
loop_
_space_group_symop_operation_xyz
x,y,z
-x,-y,-z
loop_
_atom_site_type_symbol
_atom_site_label
_atom_site_fract_x
_atom_site_fract_y
_atom_site_fract_z
Si Si1 0.766015 0.259563 0.005248
Si Si2 0.651238 0.277590 0.496972
Si Si3 0.600889 0.317255 0.031063
Si Si4 0.982630 0.308947 0.872076
Si Si5 0.601310 0.507285 0.182493
Si Si6 0.088715 0.747036 0.389249
Si Si7 0.218932 0.497771 0.274296
O O1 0.733871 0.408467 0.037767
O O2 0.721631 0.386269 0.837279
O O3 0.917046 0.407717 0.075291
O O4 0.693205 0.872375 0.085818
O O5 0.644299 0.488328 0.331249
O O6 0.768225 0.214217 0.553912
O O7 0.694252 0.442231 0.586260
O O8 0.500000 0.000000 0.500000
O O9 0.544705 0.556441 0.896885
O O10 0.605150 0.273540 0.170625
O O11 0.500000 0.000000 0.000000
O O12 0.989753 0.373561 0.732798
O O13 0.846745 0.279326 0.822336
O O14 0.000000 0.000000 0.000000
O O15 0.000000 0.500000 0.500000
O O16 0.119877 0.111612 0.322337
#
# Coordination Sequence:
#
# PCOD9046203 Si02
#       7
#     2   2   2   2   2   2   2
#     4  11  24  40  74  99 138 178 237 299 357 414
#     4  11  29  46  71 102 149 194 236 288 364 431
#     4   9  22  40  66 100 130 176 236 291 342 411
#     4  11  25  43  70 104 136 183 239 295 364 420
#     4  10  24  42  68  98 140 184 238 290 353 421
#     4  11  28  47  72 104 148 188 239 296 354 435
#     4  11  27  46  68 108 142 185 238 301 357 429
#
# _framework density 22.260601999999999
#
# number of rings (size 3 to 8) (size 9 to 14) (size 15 to 20)
#    0.000    1.429    1.429    0.429   16.000    2.857 
#    0.000    0.000    0.000    0.000    0.000    0.000 
#    0.000    0.000    0.000    0.000    0.000    0.000 
#
# Total GULP energy -78052.569888 kJ/mol
# GULP energy per Si atom -5575.183563 kJ/mol
# Density = 2.220994 g / cm^3
# Si number density = 22.260602 Si / 1000 Ang^3
#
#
#
# Elastic Constant Matrix: (Units=GPa)
#
#
# Indices 1 2 3 4 5 6 
#
# 1 81.7866 20.5650 23.3942 2.4108 -13.8268 4.1122
# 2 20.5650 111.4147 49.8999 9.7272 -14.1787 7.7097
# 3 23.3942 49.8999 139.1524 17.8668 -23.2067 8.1211
# 4 2.4108 9.7272 17.8668 47.7841 -2.8781 -4.5704
# 5 -13.8268 -14.1787 -23.2067 -2.8781 32.9504 4.8016
# 6 4.1122 7.7097 8.1211 -4.5704 4.8016 28.9953
#
#
#
# Elastic Compliance Matrix: (Units=1/GPa)
#
#
# Indices 1 2 3 4 5 6 
#
# 1 0.013757 -0.001376 -0.000882 0.000004 0.004872 -0.002144
# 2 -0.001376 0.011184 -0.003103 -0.001145 0.002310 -0.002473
# 3 -0.000882 -0.003103 0.009940 -0.003017 0.005501 -0.003221
# 4 0.000004 -0.001145 -0.003017 0.022680 -0.001356 0.004948
# 5 0.004872 0.002310 0.005501 -0.001356 0.038519 -0.009438
# 6 -0.002144 -0.002473 -0.003221 0.004948 -0.009438 0.038695
#
#
# Mechanical properties :
#
#
# Convention : Reuss Voigt Hill
#
# Bulk Modulus (GPa) = 41.39269 57.78576 49.58922
# Shear Modulus (GPa) = 32.56282 37.84559 35.20421
#
# Velocity S-wave (km/s) = 3.82881 4.12772 3.98107
# Velocity P-wave (km/s) = 6.17910 6.98087 6.59219
#
# Compressibility (1/GPa) = 0.02415886
#
# Stress axis : x y z
#
# Youngs Moduli (GPa) = 72.69218 89.41240 100.60234
#
# Poissons Ratio (x) = 0.12304 0.08875
# Poissons Ratio (y) = 0.10003 0.31214
# Poissons Ratio (z) = 0.06413 0.27742
#
# Static dielectric constant tensor:
#      x y z
#    x 2.015650 0.035190 -0.003320 
#    y 0.035190 1.865770 0.021440 
#    z -0.003320 0.021440 1.835480 
# 
# From -- ./inp_files/26860.got.cif
#   From: 2010.05.17/outbox.cif.g08.bks.cpg/sg2_14_cif.got.tgz:26860.got - 2010.06.03 11:33:40.
