data_PCOD9046006
_publ_section_title
;
Structure prediction by ZEFSAII (Michael W. Deem and Ramdas Pophale) SiO2 
 PCOD9046006
Probable space group: P -1
;
_chemical_formula_sum "Si O2"
_cell_formula_units_Z 13
_cell_length_a 9.983775
_cell_length_b 5.106349
_cell_length_c 12.682261
_cell_angle_alpha 72.271732
_cell_angle_beta 95.314908
_cell_angle_gamma 65.196236
_cell_volume 540.572089
_symmetry_space_group_name_H-M "P -1"
_symmetry_group_IT_number 2
_symmetry_cell_setting 'triclinic'
loop_
_space_group_symop_operation_xyz
x,y,z
-x,-y,-z
loop_
_atom_site_type_symbol
_atom_site_label
_atom_site_fract_x
_atom_site_fract_y
_atom_site_fract_z
Si Si1 0.701369 0.672580 0.130904
Si Si2 0.517922 0.140675 0.242713
Si Si3 0.500000 0.500000 0.000000
Si Si4 0.200329 0.846800 0.644348
Si Si5 0.973791 0.719318 0.071471
Si Si6 0.860423 0.317503 0.562574
Si Si7 0.787669 0.768811 0.687989
O O1 0.613484 0.639175 0.029441
O O2 0.807976 0.334650 0.229411
O O3 0.801005 0.839820 0.084647
O O4 0.597833 0.869597 0.195496
O O5 0.472038 0.446794 0.130254
O O6 0.647454 0.123439 0.334079
O O7 0.377108 0.130403 0.287601
O O8 0.201182 0.657892 0.563435
O O9 0.043768 0.166279 0.589484
O O10 0.087880 0.508971 0.196940
O O11 0.000000 0.500000 0.000000
O O12 0.000000 0.000000 0.000000
O O13 0.795097 0.620931 0.592057
O O14 0.823727 0.056575 0.645537
#
# Coordination Sequence:
#
# PCOD9046006 Si02
#       7
#     2   2   1   2   2   2   2
#     4  11  24  46  72 105 142 194 241 295 364 438
#     4  11  26  43  71 101 148 185 239 289 368 425
#     4  10  24  42  66 102 138 192 232 294 350 438
#     4  10  25  46  74 102 138 192 239 297 354 432
#     4  12  27  46  74 105 145 190 244 296 357 425
#     4  11  26  48  74 103 144 188 245 292 358 419
#     4  12  27  46  71 108 146 185 237 301 354 426
#
# _framework density 24.048596
#
# number of rings (size 3 to 8) (size 9 to 14) (size 15 to 20)
#    0.000    0.923    1.538    3.231   12.923    2.462 
#    0.000    0.000    0.000    0.000    0.000    0.000 
#    0.000    0.000    0.000    0.000    0.000    0.000 
#
# Total GULP energy -72660.870788 kJ/mol
# GULP energy per Si atom -5589.297753 kJ/mol
# Density = 2.399386 g / cm^3
# Si number density = 24.048596 Si / 1000 Ang^3
#
#
#
# Elastic Constant Matrix: (Units=GPa)
#
#
# Indices 1 2 3 4 5 6 
#
# 1 195.4727 38.9015 55.8606 10.4879 -1.2954 5.0788
# 2 38.9015 77.6391 21.2067 17.3077 -3.3808 7.0244
# 3 55.8606 21.2067 125.1083 4.4689 19.0593 1.1105
# 4 10.4879 17.3077 4.4689 50.9281 10.6264 -16.0404
# 5 -1.2954 -3.3808 19.0593 10.6264 50.2073 3.7128
# 6 5.0788 7.0244 1.1105 -16.0404 3.7128 30.6139
#
#
#
# Elastic Compliance Matrix: (Units=1/GPa)
#
#
# Indices 1 2 3 4 5 6 
#
# 1 0.006383 -0.002078 -0.002654 -0.001028 0.001338 -0.001187
# 2 -0.002078 0.017614 -0.002356 -0.009138 0.004624 -0.008960
# 3 -0.002654 -0.002356 0.010200 0.002171 -0.004730 0.002322
# 4 -0.001028 -0.009138 0.002171 0.030879 -0.009444 0.019513
# 5 0.001338 0.004624 -0.004730 -0.009444 0.024728 -0.009059
# 6 -0.001187 -0.008960 0.002322 0.019513 -0.009059 0.046156
#
#
# Mechanical properties :
#
#
# Convention : Reuss Voigt Hill
#
# Bulk Modulus (GPa) = 49.95089 70.01752 59.98420
# Shear Modulus (GPa) = 31.88572 45.16660 38.52616
#
# Velocity S-wave (km/s) = 3.64522 4.33845 4.00686
# Velocity P-wave (km/s) = 6.20748 7.36712 6.81202
#
# Compressibility (1/GPa) = 0.02001966
#
# Stress axis : x y z
#
# Youngs Moduli (GPa) = 156.67231 56.77245 98.03942
#
# Poissons Ratio (x) = 0.11799 0.26021
# Poissons Ratio (y) = 0.32562 0.23099
# Poissons Ratio (z) = 0.41582 0.13376
#
# Static dielectric constant tensor:
#      x y z
#    x 2.053830 0.059450 0.010360 
#    y 0.059450 2.024670 -0.105620 
#    z 0.010360 -0.105620 1.912800 
# 
# From -- ./inp_files/25226.got.cif
#   From: 2010.05.17/outbox.cif.g08.bks.cpg/sg2_13_cif.got.tgz:25226.got - 2010.06.03 11:33:40.
