data_PCOD9046623
_publ_section_title
;
Structure prediction by ZEFSAII (Michael W. Deem and Ramdas Pophale) SiO2 
 PCOD9046623
Probable space group: P -1
;
_chemical_formula_sum "Si O2"
_cell_formula_units_Z 16
_cell_length_a 15.764502
_cell_length_b 9.230482
_cell_length_c 10.539410
_cell_angle_alpha 40.518220
_cell_angle_beta 53.978655
_cell_angle_gamma 83.151509
_cell_volume 629.818961
_symmetry_space_group_name_H-M "P -1"
_symmetry_group_IT_number 2
_symmetry_cell_setting 'triclinic'
loop_
_space_group_symop_operation_xyz
x,y,z
-x,-y,-z
loop_
_atom_site_type_symbol
_atom_site_label
_atom_site_fract_x
_atom_site_fract_y
_atom_site_fract_z
Si Si1 0.168518 0.914920 0.716138
Si Si2 0.880087 0.650108 0.243788
Si Si3 0.309269 0.808084 0.498543
Si Si4 0.670421 0.631780 0.517843
Si Si5 0.134101 0.198876 0.329342
Si Si6 0.599968 0.033416 0.069883
Si Si7 0.869006 0.473513 0.654650
Si Si8 0.383803 0.308086 0.933171
O O1 0.222455 0.744388 0.742502
O O2 0.283981 0.191107 0.510731
O O3 0.135099 0.993268 0.562593
O O4 0.029392 0.764284 0.010800
O O5 0.792359 0.396717 0.387227
O O6 0.802514 0.785757 0.209196
O O7 0.873957 0.624126 0.419978
O O8 0.441807 0.830825 0.376365
O O9 0.368870 0.126720 0.190097
O O10 0.623131 0.307800 0.796010
O O11 0.539767 0.581039 0.613047
O O12 0.124752 0.390088 0.309153
O O13 0.267073 0.333672 0.037682
O O14 0.000000 0.000000 0.500000
O O15 0.716665 0.179838 0.975092
O O16 0.632941 0.877061 0.048809
O O17 0.000000 0.500000 0.500000
#
# Coordination Sequence:
#
# PCOD9046623 Si02
#       8
#     2   2   2   2   2   2   2   2
#     4  11  23  34  58  87 118 145 180 236 275 335
#     4  11  20  39  57  85 115 146 188 221 285 334
#     4  10  19  32  56  86 113 144 183 233 281 320
#     4  10  18  32  55  85 111 144 182 232 284 315
#     4  11  24  37  55  85 114 147 185 228 281 328
#     4  10  17  34  56  81 113 143 187 230 278 324
#     4  11  23  37  59  81 112 151 185 228 276 333
#     4  10  18  33  57  80 115 140 185 239 272 323
#
# _framework density 25.404125000000001
#
# number of rings (size 3 to 8) (size 9 to 14) (size 15 to 20)
#    0.000    1.500    6.250    2.250    3.500    1.500 
#    0.000    0.000    0.000    3.000    0.000    0.000 
#    0.000    0.000    0.000    0.000    0.000    0.000 
#
# Total GULP energy -89280.858992 kJ/mol
# GULP energy per Si atom -5580.053687 kJ/mol
# Density = 2.534630 g / cm^3
# Si number density = 25.404125 Si / 1000 Ang^3
#
#
#
# Elastic Constant Matrix: (Units=GPa)
#
#
# Indices 1 2 3 4 5 6 
#
# 1 95.3595 76.4767 50.9526 0.7914 -41.0204 -8.8862
# 2 76.4767 227.4112 115.1726 24.4718 -53.8542 10.8344
# 3 50.9526 115.1726 158.9857 23.4660 -54.2778 0.0688
# 4 0.7914 24.4718 23.4660 46.4166 -0.1048 -13.3585
# 5 -41.0204 -53.8542 -54.2778 -0.1048 56.1924 4.8571
# 6 -8.8862 10.8344 0.0688 -13.3585 4.8571 32.4162
#
#
#
# Elastic Compliance Matrix: (Units=1/GPa)
#
#
# Indices 1 2 3 4 5 6 
#
# 1 0.018898 -0.005238 -0.000315 0.004849 0.007810 0.007760
# 2 -0.005238 0.009406 -0.003595 -0.005063 0.002315 -0.007006
# 3 -0.000315 -0.003595 0.012806 -0.005246 0.008893 -0.002407
# 4 0.004849 -0.005063 -0.005246 0.031740 -0.007815 0.017283
# 5 0.007810 0.002315 0.008893 -0.007815 0.034905 -0.007102
# 6 0.007760 -0.007006 -0.002407 0.017283 -0.007102 0.043509
#
#
# Mechanical properties :
#
#
# Convention : Reuss Voigt Hill
#
# Bulk Modulus (GPa) = 43.82981 107.44001 75.63491
# Shear Modulus (GPa) = 28.22233 42.94868 35.58550
#
# Velocity S-wave (km/s) = 3.33668 4.11617 3.74676
# Velocity P-wave (km/s) = 5.66878 8.06069 6.96813
#
# Compressibility (1/GPa) = 0.02281552
#
# Stress axis : x y z
#
# Youngs Moduli (GPa) = 52.91592 106.31364 78.08589
#
# Poissons Ratio (x) = 0.55685 0.02460
# Poissons Ratio (y) = 0.27716 0.28069
# Poissons Ratio (z) = 0.01667 0.38215
#
# Static dielectric constant tensor:
#      x y z
#    x 2.136300 -0.091200 0.092600 
#    y -0.091200 1.969860 0.005890 
#    z 0.092600 0.005890 2.251510 
# 
# From -- ./inp_files/257528.got.cif
#   From: 2010.05.17/outbox.cif.g08.bks.cpg/sg2_129_cif.got.tgz:257528.got - 2010.06.03 11:33:40.
