data_PCOD9046896
_publ_section_title
;
Structure prediction by ZEFSAII (Michael W. Deem and Ramdas Pophale) SiO2 
 PCOD9046896
Probable space group: P -1
;
_chemical_formula_sum "Si O2"
_cell_formula_units_Z 16
_cell_length_a 29.085483
_cell_length_b 9.186677
_cell_length_c 10.104943
_cell_angle_alpha 72.408008
_cell_angle_beta 141.617626
_cell_angle_gamma 138.205566
_cell_volume 817.231224
_symmetry_space_group_name_H-M "P -1"
_symmetry_group_IT_number 2
_symmetry_cell_setting 'triclinic'
loop_
_space_group_symop_operation_xyz
x,y,z
-x,-y,-z
loop_
_atom_site_type_symbol
_atom_site_label
_atom_site_fract_x
_atom_site_fract_y
_atom_site_fract_z
Si Si1 0.374795 0.660130 0.360906
Si Si2 0.404680 0.085054 0.720118
Si Si3 0.370593 0.293102 0.368913
Si Si4 0.071677 0.167876 0.254873
Si Si5 0.086036 0.535406 0.273866
Si Si6 0.041403 0.659379 0.684193
Si Si7 0.937799 0.788067 0.303699
Si Si8 0.380379 0.703395 0.675747
O O1 0.379308 0.488198 0.377051
O O2 0.361105 0.639427 0.494945
O O3 0.500000 0.000000 0.500000
O O4 0.228220 0.470099 0.024007
O O5 0.403278 0.229918 0.579927
O O6 0.251177 0.822265 0.520766
O O7 0.426366 0.964610 0.718964
O O8 0.519313 0.251999 0.049153
O O9 0.500000 0.500000 0.500000
O O10 0.210798 0.971157 0.030748
O O11 0.032597 0.266251 0.198975
O O12 0.239690 0.454851 0.520008
O O13 0.020685 0.958890 0.306510
O O14 0.000000 0.000000 0.000000
O O15 0.052900 0.541126 0.342918
O O16 0.000000 0.500000 0.000000
O O17 0.000000 0.500000 0.500000
O O18 0.975428 0.698773 0.477979
O O19 0.000000 0.000000 0.500000
#
# Coordination Sequence:
#
# PCOD9046896 Si02
#       8
#     2   2   2   2   2   2   2   2
#     4  12  27  45  72 101 142 185 236 292 352 420
#     4  10  24  44  70  97 139 179 232 288 349 419
#     4  12  27  47  68 103 143 185 234 294 351 419
#     4  11  23  41  70  99 134 179 231 286 341 410
#     4  11  23  43  69  98 138 177 228 288 345 408
#     4  12  29  46  72 107 143 189 235 289 357 415
#     4  12  25  47  72 103 142 185 240 290 344 419
#     4  10  24  43  69 102 132 184 231 284 354 415
#
# _framework density 19.578302999999998
#
# number of rings (size 3 to 8) (size 9 to 14) (size 15 to 20)
#    0.000    0.750    5.000    0.750    8.750    1.500 
#    0.000    0.000    0.000    0.000    0.000    0.000 
#    0.000    0.000    0.000    0.000    0.000    0.000 
#
# Total GULP energy -89084.839605 kJ/mol
# GULP energy per Si atom -5567.802475 kJ/mol
# Density = 1.953374 g / cm^3
# Si number density = 19.578303 Si / 1000 Ang^3
#
#
#
# Elastic Constant Matrix: (Units=GPa)
#
#
# Indices 1 2 3 4 5 6 
#
# 1 113.1343 28.8476 45.4457 -1.2567 -12.1369 10.1124
# 2 28.8476 94.4860 59.5466 -19.0789 3.0575 15.7641
# 3 45.4457 59.5466 159.8944 -22.0201 4.0962 2.8043
# 4 -1.2567 -19.0789 -22.0201 37.0837 -0.4603 0.5780
# 5 -12.1369 3.0575 4.0962 -0.4603 37.3118 -5.5537
# 6 10.1124 15.7641 2.8043 0.5780 -5.5537 38.5995
#
#
#
# Elastic Compliance Matrix: (Units=1/GPa)
#
#
# Indices 1 2 3 4 5 6 
#
# 1 0.010946 -0.001955 -0.002762 -0.002208 0.003805 -0.001288
# 2 -0.001955 0.016328 -0.004572 0.005687 -0.002331 -0.006244
# 3 -0.002762 -0.004572 0.009149 0.002945 -0.001238 0.001704
# 4 -0.002208 0.005687 0.002945 0.031588 -0.001512 -0.002649
# 5 0.003805 -0.002331 -0.001238 -0.001512 0.028978 0.004237
# 6 -0.001288 -0.006244 0.001704 -0.002649 0.004237 0.029320
#
#
# Mechanical properties :
#
#
# Convention : Reuss Voigt Hill
#
# Bulk Modulus (GPa) = 56.04186 70.57714 63.30950
# Shear Modulus (GPa) = 33.14844 38.17734 35.66289
#
# Velocity S-wave (km/s) = 4.11922 4.42065 4.27259
# Velocity P-wave (km/s) = 7.16314 7.88563 7.53305
#
# Compressibility (1/GPa) = 0.01784380
#
# Stress axis : x y z
#
# Youngs Moduli (GPa) = 91.35904 61.24488 109.29798
#
# Poissons Ratio (x) = 0.11976 0.30185
# Poissons Ratio (y) = 0.17864 0.49976
# Poissons Ratio (z) = 0.25231 0.28004
#
# Static dielectric constant tensor:
#      x y z
#    x 1.615360 -0.049910 -0.078380 
#    y -0.049910 1.667150 -0.037210 
#    z -0.078380 -0.037210 1.449850 
# 
# From -- ./inp_files/356601.got.cif
#   From: 2010.05.17/outbox.cif.g08.bks.cpg/sg2_179_cif.got.tgz:356601.got - 2010.06.03 11:33:40.
