data_PCOD9046672
_publ_section_title
;
Structure prediction by ZEFSAII (Michael W. Deem and Ramdas Pophale) SiO2 
 PCOD9046672
Probable space group: P -1
;
_chemical_formula_sum "Si O2"
_cell_formula_units_Z 16
_cell_length_a 5.102285
_cell_length_b 29.333166
_cell_length_c 8.514975
_cell_angle_alpha 36.547514
_cell_angle_beta 86.597711
_cell_angle_gamma 68.882387
_cell_volume 644.343542
_symmetry_space_group_name_H-M "P -1"
_symmetry_group_IT_number 2
_symmetry_cell_setting 'triclinic'
loop_
_space_group_symop_operation_xyz
x,y,z
-x,-y,-z
loop_
_atom_site_type_symbol
_atom_site_label
_atom_site_fract_x
_atom_site_fract_y
_atom_site_fract_z
Si Si1 0.930066 0.423437 0.251689
Si Si2 0.395067 0.574176 0.434062
Si Si3 0.722074 0.715534 0.594293
Si Si4 0.193092 0.243169 0.180651
Si Si5 0.079092 0.011356 0.289680
Si Si6 0.298135 0.055114 0.701556
Si Si7 0.480305 0.294509 0.799875
Si Si8 0.900322 0.212920 0.735691
O O1 0.961339 0.377524 0.209091
O O2 0.220382 0.336127 0.561635
O O3 0.672815 0.451358 0.318211
O O4 0.000000 0.500000 0.000000
O O5 0.500000 0.500000 0.500000
O O6 0.605943 0.615648 0.348548
O O7 0.096674 0.665615 0.128109
O O8 0.710145 0.731853 0.732407
O O9 0.402765 0.723474 0.535706
O O10 0.793799 0.788278 0.317138
O O11 0.136382 0.162366 0.434985
O O12 0.457813 0.222371 0.102422
O O13 0.443337 0.966469 0.378015
O O14 0.000000 0.000000 0.500000
O O15 0.930250 0.975269 0.269195
O O16 0.943644 0.116705 0.978843
O O17 0.500000 0.000000 0.000000
O O18 0.797504 0.249319 0.816653
#
# Coordination Sequence:
#
# PCOD9046672 Si02
#       8
#     2   2   2   2   2   2   2   2
#     4  10  24  43  66  98 138 181 237 296 352 426
#     4  11  26  44  70 102 139 186 235 295 357 429
#     4  11  25  44  70 102 133 194 231 290 356 425
#     4  11  27  43  71 100 145 187 237 295 362 426
#     4  12  26  43  74 105 142 188 246 301 360 438
#     4  12  27  48  71 110 149 193 243 305 367 432
#     4  10  24  44  67  97 141 185 235 291 359 424
#     4  11  23  46  69  99 142 183 240 289 357 424
#
# _framework density 24.831472999999999
#
# number of rings (size 3 to 8) (size 9 to 14) (size 15 to 20)
#    0.000    1.000    1.250    3.750    8.750    2.500 
#    0.000    0.000    0.000    0.000    0.000    0.000 
#    0.000    0.000    0.000    0.000    0.000    0.000 
#
# Total GULP energy -89437.804829 kJ/mol
# GULP energy per Si atom -5589.862802 kJ/mol
# Density = 2.477496 g / cm^3
# Si number density = 24.831473 Si / 1000 Ang^3
#
#
#
# Elastic Constant Matrix: (Units=GPa)
#
#
# Indices 1 2 3 4 5 6 
#
# 1 81.3913 3.7569 14.1280 -11.2794 -13.2416 11.6954
# 2 3.7569 83.7013 22.7630 -17.6538 -7.2013 11.2984
# 3 14.1280 22.7630 111.4617 -14.1403 -25.7070 4.8310
# 4 -11.2794 -17.6538 -14.1403 35.4365 -3.6600 -13.2460
# 5 -13.2416 -7.2013 -25.7070 -3.6600 35.4114 -8.6797
# 6 11.6954 11.2984 4.8310 -13.2460 -8.6797 43.2279
#
#
#
# Elastic Compliance Matrix: (Units=1/GPa)
#
#
# Indices 1 2 3 4 5 6 
#
# 1 0.014065 0.001120 0.000005 0.005101 0.005676 -0.001396
# 2 0.001120 0.014089 -0.001557 0.006524 0.002507 -0.001309
# 3 0.000005 -0.001557 0.012246 0.006241 0.009942 0.002945
# 4 0.005101 0.006524 0.006241 0.041611 0.015002 0.011980
# 5 0.005676 0.002507 0.009942 0.015002 0.042026 0.009733
# 6 -0.001396 -0.001309 0.002945 0.011980 0.009733 0.029149
#
#
# Mechanical properties :
#
#
# Convention : Reuss Voigt Hill
#
# Bulk Modulus (GPa) = 25.29285 39.76111 32.52698
# Shear Modulus (GPa) = 29.89957 38.54225 34.22091
#
# Velocity S-wave (km/s) = 3.47378 3.94401 3.71634
# Velocity P-wave (km/s) = 5.12810 6.06527 5.61627
#
# Compressibility (1/GPa) = 0.03953687
#
# Stress axis : x y z
#
# Youngs Moduli (GPa) = 71.10013 70.97908 81.65927
#
# Poissons Ratio (x) = -0.07949 -0.00044
# Poissons Ratio (y) = -0.07963 0.12711
# Poissons Ratio (z) = -0.00038 0.11048
#
# Static dielectric constant tensor:
#      x y z
#    x 1.949840 -0.167060 -0.463340 
#    y -0.167060 1.723580 -0.854230 
#    z -0.463340 -0.854230 -0.227320 
# 
# From -- ./inp_files/47181.got.cif
#   From: 2010.05.17/outbox.cif.g08.bks.cpg/sg2_24_cif.got.tgz:47181.got - 2010.06.03 11:33:40.
