data_PCOD9046017
_publ_section_title
;
Structure prediction by ZEFSAII (Michael W. Deem and Ramdas Pophale) SiO2 
 PCOD9046017
Probable space group: P -1
;
_chemical_formula_sum "Si O2"
_cell_formula_units_Z 12
_cell_length_a 9.166168
_cell_length_b 6.200484
_cell_length_c 15.239654
_cell_angle_alpha 91.035850
_cell_angle_beta 35.677878
_cell_angle_gamma 106.381274
_cell_volume 448.867420
_symmetry_space_group_name_H-M "P -1"
_symmetry_group_IT_number 2
_symmetry_cell_setting 'triclinic'
loop_
_space_group_symop_operation_xyz
x,y,z
-x,-y,-z
loop_
_atom_site_type_symbol
_atom_site_label
_atom_site_fract_x
_atom_site_fract_y
_atom_site_fract_z
Si Si1 0.532704 0.492124 0.802437
Si Si2 0.561591 0.845052 0.309056
Si Si3 0.199647 0.766240 0.233257
Si Si4 0.500000 0.500000 0.500000
Si Si5 0.780384 0.242628 0.966125
Si Si6 0.723927 0.845563 0.546109
Si Si7 0.000000 0.000000 0.000000
O O1 0.372503 0.237993 0.822715
O O2 0.770198 0.454417 0.738296
O O3 0.353154 0.575241 0.952284
O O4 0.637379 0.681296 0.673485
O O5 0.484286 0.653000 0.420841
O O6 0.873695 0.060453 0.158845
O O7 0.321607 0.922238 0.412093
O O8 0.025624 0.872962 0.372202
O O9 0.516715 0.977965 0.076890
O O10 0.052709 0.694533 0.208236
O O11 0.539268 0.723059 0.549520
O O12 0.932538 0.210690 0.975747
#
# Coordination Sequence:
#
# PCOD9046017 Si02
#       7
#     2   2   2   1   2   2   1
#     4  11  22  44  68 103 130 184 237 275 346 416
#     4  11  24  44  69 102 140 181 233 285 350 406
#     4  11  24  45  66 104 138 181 228 289 346 407
#     4  10  24  42  66 104 134 184 226 278 346 416
#     4  11  25  43  69 100 139 183 230 286 348 405
#     4  11  23  44  70  99 140 178 231 289 343 412
#     4  12  22  48  66 100 138 186 224 288 344 408
#
# _framework density 26.73395
#
# number of rings (size 3 to 8) (size 9 to 14) (size 15 to 20)
#    0.000    1.000    3.333    2.500    0.000    6.000 
#    3.000    1.667    0.000    0.000    0.000    0.000 
#    0.000    0.000    0.000    0.000    0.000    0.000 
#
# Total GULP energy -66821.552134 kJ/mol
# GULP energy per Si atom -5568.462678 kJ/mol
# Density = 2.667310 g / cm^3
# Si number density = 26.733950 Si / 1000 Ang^3
#
#
#
# Elastic Constant Matrix: (Units=GPa)
#
#
# Indices 1 2 3 4 5 6 
#
# 1 107.6544 74.8546 26.9429 14.5330 3.7965 -32.1670
# 2 74.8546 100.2789 53.5078 6.4749 18.7341 -51.7520
# 3 26.9429 53.5078 129.3578 19.8242 20.9337 -41.8870
# 4 14.5330 6.4749 19.8242 49.7029 -7.1433 -9.1376
# 5 3.7965 18.7341 20.9337 -7.1433 38.2817 5.9282
# 6 -32.1670 -51.7520 -41.8870 -9.1376 5.9282 60.7418
#
#
#
# Elastic Compliance Matrix: (Units=1/GPa)
#
#
# Indices 1 2 3 4 5 6 
#
# 1 0.023484 -0.024343 0.001515 -0.004595 0.009270 -0.008856
# 2 -0.024343 0.049612 -0.001902 0.003530 -0.024972 0.031035
# 3 0.001515 -0.001902 0.013045 -0.005116 -0.008584 0.008246
# 4 -0.004595 0.003530 -0.005116 0.023914 0.005979 0.000060
# 5 0.009270 -0.024972 -0.008584 0.005979 0.047260 -0.026000
# 6 -0.008856 0.031035 0.008246 0.000060 -0.026000 0.046448
#
#
# Mechanical properties :
#
#
# Convention : Reuss Voigt Hill
#
# Bulk Modulus (GPa) = 27.26264 71.98908 49.62586
# Shear Modulus (GPa) = 18.83591 41.87766 30.35678
#
# Velocity S-wave (km/s) = 2.65725 3.96215 3.37340
# Velocity P-wave (km/s) = 4.43109 6.92228 5.81173
#
# Compressibility (1/GPa) = 0.03668023
#
# Stress axis : x y z
#
# Youngs Moduli (GPa) = 42.58264 20.15628 76.65809
#
# Poissons Ratio (x) = 0.49067 -0.11613
# Poissons Ratio (y) = 1.03660 0.14580
# Poissons Ratio (z) = -0.06451 0.03834
#
# Static dielectric constant tensor:
#      x y z
#    x 2.579830 0.482640 -0.843420 
#    y 0.482640 2.447870 -0.530150 
#    z -0.843420 -0.530150 3.526280 
# 
# From -- ./inp_files/17669.got.cif
#   From: 2010.05.17/outbox.cif.g08.bks.cpg/sg2_9_cif.got.tgz:17669.got - 2010.06.03 11:33:40.
