data_PCOD9046755
_publ_section_title
;
Structure prediction by ZEFSAII (Michael W. Deem and Ramdas Pophale) SiO2 
 PCOD9046755
Probable space group: P -1
;
_chemical_formula_sum "Si O2"
_cell_formula_units_Z 12
_cell_length_a 5.112192
_cell_length_b 15.118477
_cell_length_c 9.208665
_cell_angle_alpha 50.420152
_cell_angle_beta 110.612034
_cell_angle_gamma 87.455988
_cell_volume 476.495598
_symmetry_space_group_name_H-M "P -1"
_symmetry_group_IT_number 2
_symmetry_cell_setting 'triclinic'
loop_
_space_group_symop_operation_xyz
x,y,z
-x,-y,-z
loop_
_atom_site_type_symbol
_atom_site_label
_atom_site_fract_x
_atom_site_fract_y
_atom_site_fract_z
Si Si1 0.783866 0.040047 0.277113
Si Si2 0.321569 0.286155 0.029424
Si Si3 0.790350 0.798133 0.358506
Si Si4 0.574781 0.378613 0.237341
Si Si5 0.890794 0.136318 0.903656
Si Si6 0.622169 0.445005 0.737132
O O1 0.749676 0.923143 0.311264
O O2 0.475531 0.144086 0.162287
O O3 0.903903 0.109280 0.105318
O O4 0.000000 0.000000 0.500000
O O5 0.439356 0.369766 0.857739
O O6 0.964784 0.351920 0.891788
O O7 0.443149 0.293656 0.208686
O O8 0.461019 0.795996 0.277360
O O9 0.068794 0.690397 0.599393
O O10 0.918317 0.802867 0.216143
O O11 0.412243 0.437637 0.291844
O O12 0.500000 0.500000 0.000000
O O13 0.000000 0.000000 0.000000
O O14 0.500000 0.500000 0.500000
#
# Coordination Sequence:
#
# PCOD9046755 Si02
#       6
#     2   2   2   2   2   2
#     4  11  23  45  70 103 138 172 227 280 341 401
#     4  11  25  45  68 102 135 176 223 280 335 403
#     4  11  24  46  71  99 136 183 219 280 338 401
#     4  10  24  47  70  99 138 181 227 273 337 403
#     4  10  24  43  67  98 136 179 223 269 339 402
#     4  11  26  45  72  98 134 178 227 278 332 397
#
# _framework density 25.183864
#
# number of rings (size 3 to 8) (size 9 to 14) (size 15 to 20)
#    0.000    1.333    1.667    3.000    4.667    8.000 
#    0.000    8.333    0.000    0.000    0.000    0.000 
#    0.000    0.000    0.000    0.000    0.000    0.000 
#
# Total GULP energy -67258.045432 kJ/mol
# GULP energy per Si atom -5604.837119 kJ/mol
# Density = 2.512654 g / cm^3
# Si number density = 25.183864 Si / 1000 Ang^3
#
#
#
# Elastic Constant Matrix: (Units=GPa)
#
#
# Indices 1 2 3 4 5 6 
#
# 1 131.4636 49.8743 53.5630 -14.2080 28.4225 -21.0747
# 2 49.8743 170.4210 83.5122 3.4475 5.3672 -37.0737
# 3 53.5630 83.5122 203.6456 2.3756 30.6128 -15.2070
# 4 -14.2080 3.4475 2.3756 58.3445 -7.5436 5.1312
# 5 28.4225 5.3672 30.6128 -7.5436 35.6307 -10.5034
# 6 -21.0747 -37.0737 -15.2070 5.1312 -10.5034 30.2855
#
#
#
# Elastic Compliance Matrix: (Units=1/GPa)
#
#
# Indices 1 2 3 4 5 6 
#
# 1 0.010655 -0.002158 -0.000816 0.001748 -0.006577 0.001786
# 2 -0.002158 0.011031 -0.004053 -0.001215 0.006999 0.012599
# 3 -0.000816 -0.004053 0.007478 -0.000758 -0.006471 -0.003890
# 4 0.001748 -0.001215 -0.000758 0.018239 0.002449 -0.002893
# 5 -0.006577 0.006999 -0.006471 0.002449 0.042809 0.015173
# 6 0.001786 0.012599 -0.003890 -0.002893 0.015173 0.053484
#
#
# Mechanical properties :
#
#
# Convention : Reuss Voigt Hill
#
# Bulk Modulus (GPa) = 66.18178 97.71438 81.94808
# Shear Modulus (GPa) = 30.71515 46.09086 38.40301
#
# Velocity S-wave (km/s) = 3.49612 4.28269 3.90924
# Velocity P-wave (km/s) = 6.52944 7.95864 7.27920
#
# Compressibility (1/GPa) = 0.01510990
#
# Stress axis : x y z
#
# Youngs Moduli (GPa) = 93.85312 90.65767 133.72177
#
# Poissons Ratio (x) = 0.19566 0.10909
# Poissons Ratio (y) = 0.20255 0.54196
# Poissons Ratio (z) = 0.07657 0.36743
#
# Static dielectric constant tensor:
#      x y z
#    x 2.017730 0.085120 -0.014060 
#    y 0.085120 2.087920 0.051070 
#    z -0.014060 0.051070 1.966070 
# 
# From -- ./inp_files/138746.got.cif
#   From: 2010.05.17/outbox.cif.g08.bks.cpg/sg2_70_cif.got.tgz:138746.got - 2010.06.03 11:33:40.
