data_PCOD9046601
_publ_section_title
;
Structure prediction by ZEFSAII (Michael W. Deem and Ramdas Pophale) SiO2 
 PCOD9046601
Probable space group: P -1
;
_chemical_formula_sum "Si O2"
_cell_formula_units_Z 16
_cell_length_a 7.288481
_cell_length_b 17.599344
_cell_length_c 8.824062
_cell_angle_alpha 86.426662
_cell_angle_beta 127.789492
_cell_angle_gamma 56.900039
_cell_volume 599.683943
_symmetry_space_group_name_H-M "P -1"
_symmetry_group_IT_number 2
_symmetry_cell_setting 'triclinic'
loop_
_space_group_symop_operation_xyz
x,y,z
-x,-y,-z
loop_
_atom_site_type_symbol
_atom_site_label
_atom_site_fract_x
_atom_site_fract_y
_atom_site_fract_z
Si Si1 0.158121 0.388575 0.002737
Si Si2 0.143995 0.908198 0.708719
Si Si3 0.953317 0.476896 0.309184
Si Si4 0.034410 0.673164 0.834326
Si Si5 0.606597 0.294326 0.780330
Si Si6 0.168217 0.038577 0.132766
Si Si7 0.824139 0.722887 0.229305
Si Si8 0.922928 0.813873 0.508667
O O1 0.982217 0.373531 0.787406
O O2 0.292952 0.412105 0.933805
O O3 0.196589 0.318989 0.167333
O O4 0.000000 0.500000 0.000000
O O5 0.887472 0.952702 0.713945
O O6 0.208170 0.808741 0.681398
O O7 0.512073 0.842009 0.970619
O O8 0.000000 0.000000 0.500000
O O9 0.849422 0.416284 0.223332
O O10 0.373361 0.372665 0.508608
O O11 0.000000 0.500000 0.500000
O O12 0.859232 0.780605 0.631891
O O13 0.296167 0.654582 0.079779
O O14 0.386315 0.282227 0.761646
O O15 0.958066 0.161926 0.948018
O O16 0.559264 0.944133 0.284662
O O17 0.000000 0.000000 0.000000
O O18 0.020363 0.734821 0.431389
#
# Coordination Sequence:
#
# PCOD9046601 Si02
#       8
#     2   2   2   2   2   2   2   2
#     4  10  24  43  65  96 129 166 213 277 328 374
#     4  11  26  42  64 102 133 172 219 266 317 384
#     4  11  21  43  68  88 127 170 210 268 325 378
#     4  11  23  40  66  98 123 166 216 265 324 377
#     4  11  22  39  67  94 125 169 217 257 313 388
#     4  11  21  42  66  95 134 171 218 257 315 393
#     4  11  22  46  64  94 135 165 222 261 320 395
#     4  12  22  43  70  93 131 185 208 258 330 384
#
# _framework density 26.680719
#
# number of rings (size 3 to 8) (size 9 to 14) (size 15 to 20)
#    0.000    1.000    7.500    0.375    1.750    1.500 
#    2.250    0.000    0.000    0.000    0.000    0.000 
#    0.000    0.000    0.000    0.000    0.000    0.000 
#
# Total GULP energy -89129.282231 kJ/mol
# GULP energy per Si atom -5570.580139 kJ/mol
# Density = 2.661999 g / cm^3
# Si number density = 26.680719 Si / 1000 Ang^3
#
#
#
# Elastic Constant Matrix: (Units=GPa)
#
#
# Indices 1 2 3 4 5 6 
#
# 1 91.6937 27.9697 22.3526 -2.6996 -17.0468 4.0386
# 2 27.9697 123.0697 47.4145 34.0264 -8.3164 22.9608
# 3 22.3526 47.4145 116.2497 -1.1446 -2.7768 18.1510
# 4 -2.6996 34.0264 -1.1446 76.4252 13.9615 -7.2193
# 5 -17.0468 -8.3164 -2.7768 13.9615 29.8341 -4.2843
# 6 4.0386 22.9608 18.1510 -7.2193 -4.2843 36.2179
#
#
#
# Elastic Compliance Matrix: (Units=1/GPa)
#
#
# Indices 1 2 3 4 5 6 
#
# 1 0.013232 -0.002324 -0.001701 0.000395 0.006819 0.001736
# 2 -0.002324 0.014277 -0.004126 -0.008140 0.004963 -0.007759
# 3 -0.001701 -0.004126 0.010974 0.002152 -0.002475 -0.002558
# 4 0.000395 -0.008140 0.002152 0.019189 -0.009861 0.006696
# 5 0.006819 0.004963 -0.002475 -0.009861 0.043252 0.000485
# 6 0.001736 -0.007759 -0.002558 0.006696 0.000485 0.035010
#
#
# Mechanical properties :
#
#
# Convention : Reuss Voigt Hill
#
# Bulk Modulus (GPa) = 45.08453 58.49854 51.79153
# Shear Modulus (GPa) = 31.32240 44.04720 37.68480
#
# Velocity S-wave (km/s) = 3.43004 4.06754 3.76232
# Velocity P-wave (km/s) = 5.71152 6.63572 6.19089
#
# Compressibility (1/GPa) = 0.02218056
#
# Stress axis : x y z
#
# Youngs Moduli (GPa) = 75.57248 70.04290 91.12817
#
# Poissons Ratio (x) = 0.16281 0.15496
# Poissons Ratio (y) = 0.17566 0.37602
# Poissons Ratio (z) = 0.12851 0.28901
#
# Static dielectric constant tensor:
#      x y z
#    x 2.114670 0.011820 -0.107100 
#    y 0.011820 2.070600 0.112250 
#    z -0.107100 0.112250 1.933470 
# 
# From -- ./inp_files/217727.got.cif
#   From: 2010.05.17/outbox.cif.g08.bks.cpg/sg2_109_cif.got.tgz:217727.got - 2010.06.03 11:33:40.
