data_PCOD9046356
_publ_section_title
;
Structure prediction by ZEFSAII (Michael W. Deem and Ramdas Pophale) SiO2 
 PCOD9046356
Probable space group: P -1
;
_chemical_formula_sum "Si O2"
_cell_formula_units_Z 16
_cell_length_a 19.670199
_cell_length_b 9.168942
_cell_length_c 12.068990
_cell_angle_alpha 50.028575
_cell_angle_beta 140.787832
_cell_angle_gamma 150.509458
_cell_volume 673.830494
_symmetry_space_group_name_H-M "P -1"
_symmetry_group_IT_number 2
_symmetry_cell_setting 'triclinic'
loop_
_space_group_symop_operation_xyz
x,y,z
-x,-y,-z
loop_
_atom_site_type_symbol
_atom_site_label
_atom_site_fract_x
_atom_site_fract_y
_atom_site_fract_z
Si Si1 0.108869 0.626780 0.851894
Si Si2 0.630749 0.657136 0.766843
Si Si3 0.124616 0.330933 0.446097
Si Si4 0.731204 0.418254 0.275513
Si Si5 0.577670 0.858417 0.425274
Si Si6 0.940320 0.807230 0.154999
Si Si7 0.215466 0.470897 0.235737
Si Si8 0.453773 0.321806 0.918153
O O1 0.079332 0.413017 0.832454
O O2 0.963519 0.584091 0.695608
O O3 0.270075 0.979221 0.853809
O O4 0.141011 0.560412 0.041514
O O5 0.672548 0.898630 0.630287
O O6 0.506382 0.386549 0.654819
O O7 0.516121 0.532109 0.790947
O O8 0.795348 0.759952 0.956551
O O9 0.271139 0.523375 0.628248
O O10 0.181417 0.396738 0.358928
O O11 0.000000 0.000000 0.500000
O O12 0.895257 0.699663 0.278068
O O13 0.704883 0.160164 0.370583
O O14 0.575740 0.304510 0.074692
O O15 0.412392 0.737059 0.325392
O O16 0.117012 0.158761 0.206202
O O17 0.500000 0.500000 0.000000
#
# Coordination Sequence:
#
# PCOD9046356 Si02
#       8
#     2   2   2   2   2   2   2   2
#     4  12  26  45  73 105 138 186 238 283 350 418
#     4  10  24  42  71 102 142 175 229 287 347 409
#     4  12  28  48  67 101 143 185 232 290 349 416
#     4  11  24  46  69  98 141 179 233 287 349 411
#     4  11  24  43  71 106 135 175 235 294 342 404
#     4  11  24  47  74 101 142 186 231 283 352 419
#     4  12  26  47  71 103 145 185 234 288 349 416
#     4  11  24  43  71 101 142 187 231 281 360 415
#
# _framework density 23.744844000000001
#
# number of rings (size 3 to 8) (size 9 to 14) (size 15 to 20)
#    0.000    0.750    3.750    2.250    7.000    5.000 
#    0.000    0.000    0.000    0.000    0.000    0.000 
#    0.000    0.000    0.000    0.000    0.000    0.000 
#
# Total GULP energy -89451.502726 kJ/mol
# GULP energy per Si atom -5590.718920 kJ/mol
# Density = 2.369080 g / cm^3
# Si number density = 23.744844 Si / 1000 Ang^3
#
#
#
# Elastic Constant Matrix: (Units=GPa)
#
#
# Indices 1 2 3 4 5 6 
#
# 1 80.3748 5.4781 37.3047 -4.8049 -16.7962 10.0736
# 2 5.4781 82.9087 12.9360 -2.6666 9.1827 10.6631
# 3 37.3047 12.9360 108.4551 -19.0428 -7.3782 2.9953
# 4 -4.8049 -2.6666 -19.0428 38.9634 0.5330 -6.4008
# 5 -16.7962 9.1827 -7.3782 0.5330 37.7515 -8.1086
# 6 10.0736 10.6631 2.9953 -6.4008 -8.1086 27.7037
#
#
#
# Elastic Compliance Matrix: (Units=1/GPa)
#
#
# Indices 1 2 3 4 5 6 
#
# 1 0.016554 -0.000404 -0.005394 -0.001349 0.005578 -0.003960
# 2 -0.000404 0.013809 -0.001870 -0.001059 -0.005345 -0.006775
# 3 -0.005394 -0.001870 0.012284 0.005683 0.001012 0.002962
# 4 -0.001349 -0.001059 0.005683 0.029436 0.002000 0.007670
# 5 0.005578 -0.005345 0.001012 0.002000 0.032570 0.009914
# 6 -0.003960 -0.006775 0.002962 0.007670 0.009914 0.044497
#
#
# Mechanical properties :
#
#
# Convention : Reuss Voigt Hill
#
# Bulk Modulus (GPa) = 36.61660 42.57512 39.59586
# Shear Modulus (GPa) = 28.80340 35.28504 32.04422
#
# Velocity S-wave (km/s) = 3.48665 3.85906 3.67757
# Velocity P-wave (km/s) = 5.62701 6.15026 5.89444
#
# Compressibility (1/GPa) = 0.02731002
#
# Stress axis : x y z
#
# Youngs Moduli (GPa) = 60.40852 72.41534 81.40885
#
# Poissons Ratio (x) = 0.02926 0.43911
# Poissons Ratio (y) = 0.02441 0.15227
# Poissons Ratio (z) = 0.32583 0.13545
#
# Static dielectric constant tensor:
#      x y z
#    x 1.917590 -0.061790 0.018280 
#    y -0.061790 1.991600 -0.045080 
#    z 0.018280 -0.045080 1.935210 
# 
# From -- ./inp_files/282604.got.cif
#   From: 2010.05.17/outbox.cif.g08.bks.cpg/sg2_142_cif.got.tgz:282604.got - 2010.06.03 11:33:40.
