data_PCOD9046019
_publ_section_title
;
Structure prediction by ZEFSAII (Michael W. Deem and Ramdas Pophale) SiO2 
 PCOD9046019
Probable space group: P -1
;
_chemical_formula_sum "Si O2"
_cell_formula_units_Z 12
_cell_length_a 19.215275
_cell_length_b 9.382287
_cell_length_c 5.263427
_cell_angle_alpha 83.906676
_cell_angle_beta 89.046885
_cell_angle_gamma 32.512251
_cell_volume 502.400172
_symmetry_space_group_name_H-M "P -1"
_symmetry_group_IT_number 2
_symmetry_cell_setting 'triclinic'
loop_
_space_group_symop_operation_xyz
x,y,z
-x,-y,-z
loop_
_atom_site_type_symbol
_atom_site_label
_atom_site_fract_x
_atom_site_fract_y
_atom_site_fract_z
Si Si1 0.950612 0.950535 0.347157
Si Si2 0.470756 0.424641 0.716900
Si Si3 0.713814 0.045211 0.082448
Si Si4 0.422427 0.184836 0.717175
Si Si5 0.085658 0.104396 0.145886
Si Si6 0.824879 0.582894 0.359324
O O1 0.897819 0.046089 0.046748
O O2 0.080798 0.625249 0.377045
O O3 0.861330 0.028425 0.550665
O O4 0.000000 0.000000 0.500000
O O5 0.500000 0.500000 0.500000
O O6 0.610585 0.145951 0.889184
O O7 0.414536 0.369633 0.655421
O O8 0.369791 0.674671 0.868005
O O9 0.839020 0.890612 0.964560
O O10 0.757973 0.853738 0.325438
O O11 0.282305 0.351549 0.693129
O O12 0.500000 0.000000 0.500000
O O13 0.500000 0.000000 0.000000
O O14 0.933759 0.394930 0.165327
#
# Coordination Sequence:
#
# PCOD9046019 Si02
#       6
#     2   2   2   2   2   2
#     4  10  24  42  66 105 139 183 232 292 354 420
#     4  11  27  44  75 104 146 191 245 297 356 434
#     4  11  24  47  68 108 141 191 236 297 361 426
#     4  12  27  48  74 104 144 191 242 296 357 427
#     4  10  25  42  72 100 141 183 233 291 356 421
#     4  10  25  44  73 102 144 185 239 291 362 421
#
# _framework density 23.885341
#
# number of rings (size 3 to 8) (size 9 to 14) (size 15 to 20)
#    1.000    0.333    1.667    2.000    9.333    2.000 
#    0.000    0.000    0.000    0.000    0.000    0.000 
#    0.000    0.000    0.000    0.000    0.000    0.000 
#
# Total GULP energy -66984.198032 kJ/mol
# GULP energy per Si atom -5582.016503 kJ/mol
# Density = 2.383098 g / cm^3
# Si number density = 23.885341 Si / 1000 Ang^3
#
#
#
# Elastic Constant Matrix: (Units=GPa)
#
#
# Indices 1 2 3 4 5 6 
#
# 1 152.9301 52.5494 6.4000 17.5294 -27.4574 -11.9392
# 2 52.5494 85.6388 31.9595 0.5782 -8.1528 -4.8331
# 3 6.4000 31.9595 84.5753 11.4818 9.6998 -16.9057
# 4 17.5294 0.5782 11.4818 31.9471 3.3917 -6.1844
# 5 -27.4574 -8.1528 9.6998 3.3917 31.3637 1.8075
# 6 -11.9392 -4.8331 -16.9057 -6.1844 1.8075 44.0904
#
#
#
# Elastic Compliance Matrix: (Units=1/GPa)
#
#
# Indices 1 2 3 4 5 6 
#
# 1 0.011189 -0.006737 0.002112 -0.007296 0.008079 0.001747
# 2 -0.006737 0.018658 -0.007815 0.005685 0.000871 -0.002014
# 3 0.002112 -0.007815 0.017104 -0.005506 -0.005206 0.005715
# 4 -0.007296 0.005685 -0.005506 0.038408 -0.007489 0.002231
# 5 0.008079 0.000871 -0.005206 -0.007489 0.041746 -0.002475
# 6 0.001747 -0.002014 0.005715 0.002231 -0.002475 0.025538
#
#
# Mechanical properties :
#
#
# Convention : Reuss Voigt Hill
#
# Bulk Modulus (GPa) = 45.30777 56.10688 50.70733
# Shear Modulus (GPa) = 27.04477 36.96259 32.00368
#
# Velocity S-wave (km/s) = 3.36858 3.93810 3.66442
# Velocity P-wave (km/s) = 5.84293 6.64975 6.25935
#
# Compressibility (1/GPa) = 0.02207127
#
# Stress axis : x y z
#
# Youngs Moduli (GPa) = 89.37688 53.59626 58.46622
#
# Poissons Ratio (x) = 0.36106 -0.12348
# Poissons Ratio (y) = 0.60211 0.45691
# Poissons Ratio (z) = -0.18877 0.41885
#
# Static dielectric constant tensor:
#      x y z
#    x 1.963790 0.039350 -0.010360 
#    y 0.039350 1.934770 -0.042590 
#    z -0.010360 -0.042590 1.935200 
# 
# From -- ./inp_files/41983.got.cif
#   From: 2010.05.17/outbox.cif.g08.bks.cpg/sg2_21_cif.got.tgz:41983.got - 2010.06.03 11:33:40.
