data_PCOD9046210
_publ_section_title
;
Structure prediction by ZEFSAII (Michael W. Deem and Ramdas Pophale) SiO2 
 PCOD9046210
Probable space group: P -1
;
_chemical_formula_sum "Si O2"
_cell_formula_units_Z 15
_cell_length_a 12.197011
_cell_length_b 8.208390
_cell_length_c 15.129825
_cell_angle_alpha 50.838852
_cell_angle_beta 151.404490
_cell_angle_gamma 127.033428
_cell_volume 557.462485
_symmetry_space_group_name_H-M "P -1"
_symmetry_group_IT_number 2
_symmetry_cell_setting 'triclinic'
loop_
_space_group_symop_operation_xyz
x,y,z
-x,-y,-z
loop_
_atom_site_type_symbol
_atom_site_label
_atom_site_fract_x
_atom_site_fract_y
_atom_site_fract_z
Si Si1 0.639221 0.405298 0.455797
Si Si2 0.530084 0.408798 0.173526
Si Si3 0.871359 0.698518 0.803996
Si Si4 0.850719 0.991809 0.983732
Si Si5 0.500000 0.000000 0.000000
Si Si6 0.540298 0.869728 0.274000
Si Si7 0.857504 0.437669 0.229746
Si Si8 0.994465 0.916102 0.642654
O O1 0.610798 0.371623 0.341678
O O2 0.401503 0.299437 0.369658
O O3 0.606399 0.644980 0.372237
O O4 0.909839 0.393268 0.674991
O O5 0.729159 0.459754 0.224462
O O6 0.331590 0.220207 0.065600
O O7 0.354649 0.589765 0.984151
O O8 0.938431 0.728247 0.739570
O O9 0.000000 0.500000 0.000000
O O10 0.983656 0.919759 0.851107
O O11 0.671381 0.164337 0.796557
O O12 0.000000 0.000000 0.000000
O O13 0.229454 0.058796 0.782529
O O14 0.528213 0.035071 0.899467
O O15 0.750741 0.999516 0.431629
O O16 0.948649 0.211790 0.360808
#
# Coordination Sequence:
#
# PCOD9046210 Si02
#       8
#     2   2   2   2   1   2   2   2
#     4  11  23  45  72  96 133 185 236 276 337 416
#     4  11  23  44  66  99 141 175 229 284 349 406
#     4  12  23  46  73 100 137 188 234 283 350 412
#     4  12  25  43  69 101 143 180 226 291 351 408
#     4  12  20  42  70  98 146 168 222 288 352 392
#     4  11  25  44  70 105 130 185 235 286 337 418
#     4  10  24  42  69 100 131 185 227 283 342 409
#     4  11  25  42  72 103 134 183 239 283 339 412
#
# _framework density 26.907641999999999
#
# number of rings (size 3 to 8) (size 9 to 14) (size 15 to 20)
#    0.000    0.800    4.000    3.200    0.000    5.333 
#    2.400    1.333    0.000    0.000    0.000    0.000 
#    0.000    0.000    0.000    0.000    0.000    0.000 
#
# Total GULP energy -83553.853179 kJ/mol
# GULP energy per Si atom -5570.256879 kJ/mol
# Density = 2.684640 g / cm^3
# Si number density = 26.907642 Si / 1000 Ang^3
#
#
#
# Elastic Constant Matrix: (Units=GPa)
#
#
# Indices 1 2 3 4 5 6 
#
# 1 199.0464 13.4673 61.3732 17.7085 34.7704 14.7704
# 2 13.4673 50.1157 4.2808 15.1543 14.0103 11.8227
# 3 61.3732 4.2808 152.2894 46.1766 37.4631 12.5396
# 4 17.7085 15.1543 46.1766 40.3007 14.4921 7.5588
# 5 34.7704 14.0103 37.4631 14.4921 47.7547 9.9634
# 6 14.7704 11.8227 12.5396 7.5588 9.9634 40.8969
#
#
#
# Elastic Compliance Matrix: (Units=1/GPa)
#
#
# Indices 1 2 3 4 5 6 
#
# 1 0.006164 -0.000825 -0.002034 0.001106 -0.002801 -0.000886
# 2 -0.000825 0.026537 0.005414 -0.012495 -0.006571 -0.005123
# 3 -0.002034 0.005414 0.012888 -0.013630 -0.005910 -0.000823
# 4 0.001106 -0.012495 -0.013630 0.044757 0.000163 -0.000920
# 5 -0.002801 -0.006571 -0.005910 0.000163 0.030042 -0.002626
# 6 -0.000886 -0.005123 -0.000823 -0.000920 -0.002626 0.027315
#
#
# Mechanical properties :
#
#
# Convention : Reuss Voigt Hill
#
# Bulk Modulus (GPa) = 19.72467 62.18824 40.95645
# Shear Modulus (GPa) = 31.34916 47.27916 39.31416
#
# Velocity S-wave (km/s) = 3.41701 4.19631 3.82655
# Velocity P-wave (km/s) = 4.78689 6.82940 5.89725
#
# Compressibility (1/GPa) = 0.05069792
#
# Stress axis : x y z
#
# Youngs Moduli (GPa) = 162.24370 37.68317 77.58857
#
# Poissons Ratio (x) = 0.03109 0.15783
# Poissons Ratio (y) = 0.13385 -0.42003
# Poissons Ratio (z) = 0.33003 -0.20400
#
# Static dielectric constant tensor:
#      x y z
#    x 2.105420 -0.027010 -0.042040 
#    y -0.027010 2.437790 0.166790 
#    z -0.042040 0.166790 2.193780 
# 
# From -- ./inp_files/514158.got.cif
#   From: 2010.05.17/outbox.cif.g08.bks.cpg/sg2_258_cif.got.tgz:514158.got - 2010.06.03 11:33:40.
