data_PCOD9046221
_publ_section_title
;
Structure prediction by ZEFSAII (Michael W. Deem and Ramdas Pophale) SiO2 
 PCOD9046221
Probable space group: P -1
;
_chemical_formula_sum "Si O2"
_cell_formula_units_Z 12
_cell_length_a 14.379554
_cell_length_b 6.546105
_cell_length_c 8.514859
_cell_angle_alpha 103.906355
_cell_angle_beta 64.275671
_cell_angle_gamma 60.045545
_cell_volume 507.145538
_symmetry_space_group_name_H-M "P -1"
_symmetry_group_IT_number 2
_symmetry_cell_setting 'triclinic'
loop_
_space_group_symop_operation_xyz
x,y,z
-x,-y,-z
loop_
_atom_site_type_symbol
_atom_site_label
_atom_site_fract_x
_atom_site_fract_y
_atom_site_fract_z
Si Si1 0.888267 0.726130 0.252584
Si Si2 0.765299 0.763870 0.650294
Si Si3 0.224862 0.906430 0.040588
Si Si4 0.065607 0.876143 0.604269
Si Si5 0.530572 0.747846 0.217586
Si Si6 0.629801 0.042272 0.319478
O O1 0.890300 0.661331 0.420754
O O2 0.751269 0.791885 0.302949
O O3 0.882533 0.985234 0.322801
O O4 0.000000 0.500000 0.000000
O O5 0.799647 0.469277 0.579435
O O6 0.784974 0.864488 0.812406
O O7 0.609613 0.051962 0.751873
O O8 0.337636 0.588869 0.982424
O O9 0.069193 0.020656 0.176791
O O10 0.291075 0.889470 0.824124
O O11 0.000000 0.000000 0.500000
O O12 0.578391 0.923205 0.228688
O O13 0.488556 0.734655 0.423877
#
# Coordination Sequence:
#
# PCOD9046221 Si02
#       6
#     2   2   2   2   2   2
#     4  11  24  44  71 101 138 180 230 280 341 407
#     4  11  26  44  69 102 138 179 231 280 340 408
#     4  12  24  42  73  99 139 183 227 280 340 403
#     4  12  27  45  71 100 140 180 229 283 342 400
#     4  10  24  46  68 101 139 179 228 279 343 407
#     4  10  24  42  69 101 140 173 232 280 340 403
#
# _framework density 23.661846000000001
#
# number of rings (size 3 to 8) (size 9 to 14) (size 15 to 20)
#    0.000    1.000    1.667    3.500    4.667   10.000 
#    0.000    0.000    0.000    0.000    0.000    0.000 
#    0.000    0.000    0.000    0.000    0.000    0.000 
#
# Total GULP energy -66965.126696 kJ/mol
# GULP energy per Si atom -5580.427225 kJ/mol
# Density = 2.360799 g / cm^3
# Si number density = 23.661846 Si / 1000 Ang^3
#
#
#
# Elastic Constant Matrix: (Units=GPa)
#
#
# Indices 1 2 3 4 5 6 
#
# 1 84.1868 1.8362 4.1744 4.7155 6.8628 -0.2215
# 2 1.8362 62.5328 18.2619 15.1793 -0.3411 -10.0148
# 3 4.1744 18.2619 74.7707 8.9544 -1.0497 -0.3733
# 4 4.7155 15.1793 8.9544 57.7914 10.3958 -7.0858
# 5 6.8628 -0.3411 -1.0497 10.3958 34.2840 5.0944
# 6 -0.2215 -10.0148 -0.3733 -7.0858 5.0944 15.8727
#
#
#
# Elastic Compliance Matrix: (Units=1/GPa)
#
#
# Indices 1 2 3 4 5 6 
#
# 1 0.012134 0.000044 -0.000676 -0.000354 -0.002463 0.000814
# 2 0.000044 0.019820 -0.004436 -0.003010 -0.000712 0.011286
# 3 -0.000676 -0.004436 0.014719 -0.001826 0.001662 -0.003811
# 4 -0.000354 -0.003010 -0.001826 0.021047 -0.007880 0.009977
# 5 -0.002463 -0.000712 0.001662 -0.007880 0.034320 -0.014977
# 6 0.000814 0.011286 -0.003811 0.009977 -0.014977 0.079305
#
#
# Mechanical properties :
#
#
# Convention : Reuss Voigt Hill
#
# Bulk Modulus (GPa) = 27.37099 30.00392 28.68745
# Shear Modulus (GPa) = 24.55070 34.73748 29.64409
#
# Velocity S-wave (km/s) = 3.22462 3.83571 3.54336
# Velocity P-wave (km/s) = 5.04548 5.68548 5.37502
#
# Compressibility (1/GPa) = 0.03653504
#
# Stress axis : x y z
#
# Youngs Moduli (GPa) = 82.41546 50.45332 67.94146
#
# Poissons Ratio (x) = -0.00222 0.04595
# Poissons Ratio (y) = -0.00363 0.30142
# Poissons Ratio (z) = 0.05573 0.22383
#
# Static dielectric constant tensor:
#      x y z
#    x 1.824790 -0.020720 -0.050940 
#    y -0.020720 1.999640 -0.022410 
#    z -0.050940 -0.022410 1.956860 
# 
# From -- ./inp_files/21908.got.cif
#   From: 2010.05.17/outbox.cif.g08.bks.cpg/sg2_11_cif.got.tgz:21908.got - 2010.06.03 11:33:40.
