data_PCOD9046518
_publ_section_title
;
Structure prediction by ZEFSAII (Michael W. Deem and Ramdas Pophale) SiO2 
 PCOD9046518
Probable space group: P -1
;
_chemical_formula_sum "Si O2"
_cell_formula_units_Z 14
_cell_length_a 13.120726
_cell_length_b 4.817828
_cell_length_c 13.216845
_cell_angle_alpha 89.344879
_cell_angle_beta 39.451895
_cell_angle_gamma 96.915135
_cell_volume 519.760207
_symmetry_space_group_name_H-M "P -1"
_symmetry_group_IT_number 2
_symmetry_cell_setting 'triclinic'
loop_
_space_group_symop_operation_xyz
x,y,z
-x,-y,-z
loop_
_atom_site_type_symbol
_atom_site_label
_atom_site_fract_x
_atom_site_fract_y
_atom_site_fract_z
Si Si1 0.824770 0.910198 0.513333
Si Si2 0.659096 0.194663 0.326172
Si Si3 0.000000 0.000000 0.000000
Si Si4 0.091410 0.390772 0.748908
Si Si5 0.893424 0.622946 0.749847
Si Si6 0.399754 0.088072 0.980775
Si Si7 0.000000 0.500000 0.500000
Si Si8 0.543401 0.357907 0.201035
O O1 0.879848 0.814990 0.362221
O O2 0.631307 0.860602 0.661580
O O3 0.869648 0.700781 0.561398
O O4 0.935033 0.225398 0.445419
O O5 0.261527 0.584457 0.649436
O O6 0.612884 0.360375 0.261272
O O7 0.500000 0.000000 0.500000
O O8 0.806576 0.034438 0.184737
O O9 0.995863 0.762355 0.087526
O O10 0.969581 0.582357 0.799061
O O11 0.865144 0.360278 0.698182
O O12 0.753884 0.792183 0.862851
O O13 0.471888 0.348464 0.844223
O O14 0.351532 0.804387 0.952080
O O15 0.500000 0.000000 0.000000
#
# Coordination Sequence:
#
# PCOD9046518 Si02
#       8
#     2   2   1   2   2   2   1   2
#     4  11  26  46  77 110 150 203 264 325 398 475
#     4  12  29  49  78 118 159 214 273 341 402 489
#     4  12  26  46  76 104 156 208 260 326 406 472
#     4  11  26  47  78 112 157 204 268 328 404 484
#     4  11  25  48  77 113 148 205 263 324 396 478
#     4  12  30  52  78 114 164 205 266 331 405 481
#     4  10  24  42  80 104 148 192 262 316 390 466
#     4  12  30  49  80 117 159 212 262 332 406 480
#
# _framework density 26.935496000000001
#
# number of rings (size 3 to 8) (size 9 to 14) (size 15 to 20)
#    0.000    0.571    0.000    5.571   18.000    1.143 
#    0.000    0.000    0.000    0.000    0.000    0.000 
#    0.000    0.000    0.000    0.000    0.000    0.000 
#
# Total GULP energy -78061.546953 kJ/mol
# GULP energy per Si atom -5575.824782 kJ/mol
# Density = 2.687419 g / cm^3
# Si number density = 26.935496 Si / 1000 Ang^3
#
#
#
# Elastic Constant Matrix: (Units=GPa)
#
#
# Indices 1 2 3 4 5 6 
#
# 1 177.9809 84.8608 51.4854 -18.2110 -2.8657 -26.7894
# 2 84.8608 149.1815 62.9798 -3.4568 2.1838 -25.8394
# 3 51.4854 62.9798 148.9639 -9.1343 -14.2664 -13.9572
# 4 -18.2110 -3.4568 -9.1343 51.5449 -11.7897 2.5474
# 5 -2.8657 2.1838 -14.2664 -11.7897 30.5054 -2.5334
# 6 -26.7894 -25.8394 -13.9572 2.5474 -2.5334 61.7218
#
#
#
# Elastic Compliance Matrix: (Units=1/GPa)
#
#
# Indices 1 2 3 4 5 6 
#
# 1 0.008379 -0.004185 -0.000582 0.002974 0.002107 0.001717
# 2 -0.004185 0.010866 -0.003442 -0.002253 -0.003493 0.001904
# 3 -0.000582 -0.003442 0.009077 0.002383 0.005398 0.000483
# 4 0.002974 -0.002253 0.002383 0.023110 0.010517 0.000364
# 5 0.002107 -0.003493 0.005398 0.010517 0.039974 0.001879
# 6 0.001717 0.001904 0.000483 0.000364 0.001879 0.017915
#
#
# Mechanical properties :
#
#
# Convention : Reuss Voigt Hill
#
# Bulk Modulus (GPa) = 83.99802 97.19761 90.59781
# Shear Modulus (GPa) = 38.54855 47.20775 42.87815
#
# Velocity S-wave (km/s) = 3.78715 4.19097 3.99417
# Velocity P-wave (km/s) = 7.09760 7.71898 7.41480
#
# Compressibility (1/GPa) = 0.01190504
#
# Stress axis : x y z
#
# Youngs Moduli (GPa) = 119.34656 92.03303 110.16333
#
# Poissons Ratio (x) = 0.38519 0.06406
# Poissons Ratio (y) = 0.49951 0.37914
# Poissons Ratio (z) = 0.06940 0.31674
#
# Static dielectric constant tensor:
#      x y z
#    x 2.256180 0.042020 0.097510 
#    y 0.042020 2.203570 -0.041160 
#    z 0.097510 -0.041160 2.249390 
# 
# From -- ./inp_files/525584.got.cif
#   From: 2010.05.17/outbox.cif.g08.bks.cpg/sg2_263_cif.got.tgz:525584.got - 2010.06.03 11:33:40.
