data_PCOD9046074
_publ_section_title
;
Structure prediction by ZEFSAII (Michael W. Deem and Ramdas Pophale) SiO2 
 PCOD9046074
Probable space group: P -1
;
_chemical_formula_sum "Si O2"
_cell_formula_units_Z 14
_cell_length_a 12.515181
_cell_length_b 7.722913
_cell_length_c 11.939024
_cell_angle_alpha 36.640200
_cell_angle_beta 59.796393
_cell_angle_gamma 57.923047
_cell_volume 576.732817
_symmetry_space_group_name_H-M "P -1"
_symmetry_group_IT_number 2
_symmetry_cell_setting 'triclinic'
loop_
_space_group_symop_operation_xyz
x,y,z
-x,-y,-z
loop_
_atom_site_type_symbol
_atom_site_label
_atom_site_fract_x
_atom_site_fract_y
_atom_site_fract_z
Si Si1 0.953068 0.923198 0.944319
Si Si2 0.761699 0.333806 0.111197
Si Si3 0.668114 0.330426 0.635810
Si Si4 0.297857 0.163668 0.307521
Si Si5 0.853410 0.529801 0.577894
Si Si6 0.577017 0.962327 0.298137
Si Si7 0.702854 0.809002 0.072384
O O1 0.088435 0.815189 0.866344
O O2 0.857055 0.234089 0.800072
O O3 0.852677 0.725565 0.077472
O O4 0.000000 0.000000 0.000000
O O5 0.681880 0.107020 0.225671
O O6 0.692764 0.524452 0.152739
O O7 0.760740 0.578420 0.885789
O O8 0.789809 0.464393 0.530642
O O9 0.564937 0.647008 0.521496
O O10 0.686491 0.145816 0.607187
O O11 0.660727 0.090421 0.861095
O O12 0.217190 0.203479 0.443381
O O13 0.438721 0.188084 0.254589
O O14 0.000000 0.500000 0.500000
O O15 0.618869 0.885756 0.187446
#
# Coordination Sequence:
#
# PCOD9046074 Si02
#       7
#     2   2   2   2   2   2   2
#     4  11  19  40  67  94 131 168 215 272 324 382
#     4  11  22  40  69 100 131 177 221 268 327 392
#     4  10  25  44  66  98 137 169 217 277 322 388
#     4  11  25  44  66  97 135 174 220 271 328 389
#     4  11  24  42  65  97 131 166 217 273 331 390
#     4  12  24  43  70  96 133 179 219 270 326 389
#     4  10  24  42  67 102 132 173 221 267 332 393
#
# _framework density 24.274671999999999
#
# number of rings (size 3 to 8) (size 9 to 14) (size 15 to 20)
#    0.000    1.143    2.857    3.000    0.000    6.857 
#    0.000    1.429    0.000    0.000    0.000    0.000 
#    0.000    0.000    0.000    0.000    0.000    0.000 
#
# Total GULP energy -78207.503454 kJ/mol
# GULP energy per Si atom -5586.250247 kJ/mol
# Density = 2.421942 g / cm^3
# Si number density = 24.274672 Si / 1000 Ang^3
#
#
#
# Elastic Constant Matrix: (Units=GPa)
#
#
# Indices 1 2 3 4 5 6 
#
# 1 74.3949 31.1936 19.9482 17.5892 -4.5895 1.8756
# 2 31.1936 85.9854 40.2630 14.3912 -8.4030 14.8701
# 3 19.9482 40.2630 58.2722 6.8762 -0.0359 9.0803
# 4 17.5892 14.3912 6.8762 44.1596 -9.1586 -5.3054
# 5 -4.5895 -8.4030 -0.0359 -9.1586 27.2814 -0.7575
# 6 1.8756 14.8701 9.0803 -5.3054 -0.7575 46.2057
#
#
#
# Elastic Compliance Matrix: (Units=1/GPa)
#
#
# Indices 1 2 3 4 5 6 
#
# 1 0.017051 -0.004391 -0.002313 -0.004956 -0.000134 0.000604
# 2 -0.004391 0.020224 -0.011486 -0.002644 0.004469 -0.004304
# 3 -0.002313 -0.011486 0.026166 -0.000432 -0.004078 -0.001468
# 4 -0.004956 -0.002644 -0.000432 0.027694 0.007772 0.004444
# 5 -0.000134 0.004469 -0.004078 0.007772 0.040638 0.000927
# 6 0.000604 -0.004304 -0.001468 0.004444 0.000927 0.023817
#
#
# Mechanical properties :
#
#
# Convention : Reuss Voigt Hill
#
# Bulk Modulus (GPa) = 36.95073 44.60691 40.77882
# Shear Modulus (GPa) = 24.87690 32.01252 28.44471
#
# Velocity S-wave (km/s) = 3.20474 3.63542 3.42685
# Velocity P-wave (km/s) = 5.38040 6.00312 5.70027
#
# Compressibility (1/GPa) = 0.02706307
#
# Stress axis : x y z
#
# Youngs Moduli (GPa) = 58.64675 49.44513 38.21794
#
# Poissons Ratio (x) = 0.21712 0.08838
# Poissons Ratio (y) = 0.25752 0.43895
# Poissons Ratio (z) = 0.13563 0.56790
#
# Static dielectric constant tensor:
#      x y z
#    x 2.149850 0.131930 -0.235940 
#    y 0.131930 2.031260 -0.259890 
#    z -0.235940 -0.259890 2.404260 
# 
# From -- ./inp_files/442389.got.cif
#   From: 2010.05.17/outbox.cif.g08.bks.cpg/sg2_222_cif.got.tgz:442389.got - 2010.06.03 11:33:40.
