data_PCOD9046097
_publ_section_title
;
Structure prediction by ZEFSAII (Michael W. Deem and Ramdas Pophale) SiO2 
 PCOD9046097
Probable space group: P -1
;
_chemical_formula_sum "Si O2"
_cell_formula_units_Z 16
_cell_length_a 17.847321
_cell_length_b 14.610028
_cell_length_c 26.127015
_cell_angle_alpha 21.807838
_cell_angle_beta 163.439757
_cell_angle_gamma 152.958079
_cell_volume 721.333634
_symmetry_space_group_name_H-M "P -1"
_symmetry_group_IT_number 2
_symmetry_cell_setting 'triclinic'
loop_
_space_group_symop_operation_xyz
x,y,z
-x,-y,-z
loop_
_atom_site_type_symbol
_atom_site_label
_atom_site_fract_x
_atom_site_fract_y
_atom_site_fract_z
Si Si1 0.022729 0.989356 0.081444
Si Si2 0.807861 0.459847 0.208807
Si Si3 0.452112 0.827582 0.259191
Si Si4 0.264119 0.446078 0.261743
Si Si5 0.609064 0.294507 0.057251
Si Si6 0.255768 0.249713 0.253303
Si Si7 0.059159 0.074606 0.398441
Si Si8 0.464002 0.759327 0.665403
O O1 0.960397 0.703227 0.199528
O O2 0.300199 0.090287 0.230110
O O3 0.000000 0.000000 0.000000
O O4 0.800807 0.148800 0.882226
O O5 0.792255 0.406666 0.164909
O O6 0.926328 0.219968 0.438014
O O7 0.500000 0.500000 0.000000
O O8 0.456052 0.580014 0.357260
O O9 0.710837 0.848477 0.451590
O O10 0.457129 0.065827 0.101839
O O11 0.372880 0.385372 0.309120
O O12 0.139976 0.200993 0.332713
O O13 0.028049 0.638160 0.000711
O O14 0.793953 0.186489 0.189779
O O15 0.431727 0.511506 0.805392
O O16 0.428440 0.294257 0.293111
O O17 0.239196 0.959624 0.405954
#
# Coordination Sequence:
#
# PCOD9046097 Si02
#       8
#     2   2   2   2   2   2   2   2
#     4  12  23  37  66  98 129 162 207 258 316 384
#     4  11  22  38  60  97 132 159 198 250 327 381
#     4  11  23  40  64  98 130 157 209 262 318 381
#     4  11  23  43  67  90 123 168 218 252 313 369
#     4  11  22  41  62  92 134 164 198 260 323 374
#     4  10  24  42  67  86 123 171 218 261 294 369
#     4  11  23  40  65  93 131 166 195 261 326 372
#     4  11  23  43  67  90 125 167 216 256 312 361
#
# _framework density 22.181137
#
# number of rings (size 3 to 8) (size 9 to 14) (size 15 to 20)
#    0.000    1.000    6.250    1.875    3.500    2.000 
#    0.000    1.250   11.000    0.000    0.000    0.000 
#    0.000    0.000    0.000    0.000    0.000    0.000 
#
# Total GULP energy -89503.510188 kJ/mol
# GULP energy per Si atom -5593.969387 kJ/mol
# Density = 2.213065 g / cm^3
# Si number density = 22.181137 Si / 1000 Ang^3
#
#
#
# Elastic Constant Matrix: (Units=GPa)
#
#
# Indices 1 2 3 4 5 6 
#
# 1 105.1931 23.8929 14.3215 -10.8556 -15.3804 -15.4910
# 2 23.8929 46.6598 1.7748 -18.9391 -2.1661 -3.1863
# 3 14.3215 1.7748 103.2118 -29.0046 -23.1622 11.6325
# 4 -10.8556 -18.9391 -29.0046 26.2369 7.9975 -0.6814
# 5 -15.3804 -2.1661 -23.1622 7.9975 28.0516 -15.5956
# 6 -15.4910 -3.1863 11.6325 -0.6814 -15.5956 27.7709
#
#
#
# Elastic Compliance Matrix: (Units=1/GPa)
#
#
# Indices 1 2 3 4 5 6 
#
# 1 0.017319 -0.009628 -0.002158 -0.008007 0.020942 0.021023
# 2 -0.009628 0.041348 0.010911 0.040786 -0.010233 -0.009943
# 3 -0.002158 0.010911 0.018797 0.025983 0.005491 -0.004104
# 4 -0.008007 0.040786 0.025983 0.097945 -0.017894 -0.018316
# 5 0.020942 -0.010233 0.005491 -0.017894 0.087665 0.056999
# 6 0.021023 -0.009943 -0.004104 -0.018316 0.056999 0.079875
#
#
# Mechanical properties :
#
#
# Convention : Reuss Voigt Hill
#
# Bulk Modulus (GPa) = 13.20770 37.22702 25.21736
# Shear Modulus (GPa) = 13.51582 30.75026 22.13304
#
# Velocity S-wave (km/s) = 2.47116 3.72738 3.16227
# Velocity P-wave (km/s) = 3.75627 5.94509 4.97261
#
# Compressibility (1/GPa) = 0.07571339
#
# Stress axis : x y z
#
# Youngs Moduli (GPa) = 57.74153 24.18495 53.19987
#
# Poissons Ratio (x) = 0.23286 0.11478
# Poissons Ratio (y) = 0.55596 -0.58046
# Poissons Ratio (z) = 0.12458 -0.26388
#
# Static dielectric constant tensor:
#      x y z
#    x 1.820730 -0.003870 -0.006150 
#    y -0.003870 1.815040 -0.015500 
#    z -0.006150 -0.015500 1.836880 
# 
# From -- ./inp_files/270290.got.cif
#   From: 2010.05.17/outbox.cif.g08.bks.cpg/sg2_136_cif.got.tgz:270290.got - 2010.06.03 11:33:40.
