data_PCOD9046583
_publ_section_title
;
Structure prediction by ZEFSAII (Michael W. Deem and Ramdas Pophale) SiO2 
 PCOD9046583
Probable space group: P -1
;
_chemical_formula_sum "Si O2"
_cell_formula_units_Z 14
_cell_length_a 17.375292
_cell_length_b 8.576209
_cell_length_c 5.122482
_cell_angle_alpha 65.500258
_cell_angle_beta 91.193169
_cell_angle_gamma 63.272050
_cell_volume 599.853051
_symmetry_space_group_name_H-M "P -1"
_symmetry_group_IT_number 2
_symmetry_cell_setting 'triclinic'
loop_
_space_group_symop_operation_xyz
x,y,z
-x,-y,-z
loop_
_atom_site_type_symbol
_atom_site_label
_atom_site_fract_x
_atom_site_fract_y
_atom_site_fract_z
Si Si1 0.742534 0.726367 0.171400
Si Si2 0.638959 0.391743 0.970087
Si Si3 0.747887 0.332073 0.541030
Si Si4 0.076249 0.276990 0.723740
Si Si5 0.925908 0.951072 0.625392
Si Si6 0.398195 0.204003 0.235170
Si Si7 0.432129 0.895533 0.869220
O O1 0.754896 0.528736 0.446469
O O2 0.832282 0.731931 0.179993
O O3 0.656824 0.931993 0.118931
O O4 0.705304 0.707455 0.901979
O O5 0.676148 0.370019 0.281578
O O6 0.576712 0.297638 0.006242
O O7 0.718261 0.280112 0.845323
O O8 0.596030 0.623011 0.731094
O O9 0.839719 0.152782 0.569737
O O10 0.093978 0.149552 0.551008
O O11 0.000000 0.500000 0.500000
O O12 0.045886 0.191631 0.021435
O O13 0.000000 0.000000 0.500000
O O14 0.464821 0.170342 0.020290
O O15 0.424548 0.998534 0.517086
#
# Coordination Sequence:
#
# PCOD9046583 Si02
#       7
#     2   2   2   2   2   2   2
#     4  11  24  43  70  99 146 180 240 294 358 417
#     4  11  24  43  67 101 140 187 238 288 354 415
#     4  11  24  44  68 102 138 186 231 294 351 424
#     4  12  28  47  77 108 141 188 239 291 367 433
#     4  12  26  48  72 106 142 184 235 300 364 429
#     4  10  24  43  65 104 139 190 239 299 350 421
#     4  11  22  42  69  98 141 191 242 292 357 414
#
# _framework density 23.33905
#
# number of rings (size 3 to 8) (size 9 to 14) (size 15 to 20)
#    0.000    0.857    1.429    5.143    6.000    1.143 
#    0.000    2.143    0.000    0.000    0.000    0.000 
#    0.000    0.000    0.000    0.000    0.000    0.000 
#
# Total GULP energy -78225.743651 kJ/mol
# GULP energy per Si atom -5587.553118 kJ/mol
# Density = 2.328593 g / cm^3
# Si number density = 23.339050 Si / 1000 Ang^3
#
#
#
# Elastic Constant Matrix: (Units=GPa)
#
#
# Indices 1 2 3 4 5 6 
#
# 1 120.5696 58.9402 24.1922 -14.6053 -6.7824 -8.0688
# 2 58.9402 135.4941 41.4664 -6.4267 -10.4420 2.5000
# 3 24.1922 41.4664 98.7571 -11.6045 -11.3357 1.5063
# 4 -14.6053 -6.4267 -11.6045 38.8314 -5.0496 -3.1704
# 5 -6.7824 -10.4420 -11.3357 -5.0496 32.2423 -3.0312
# 6 -8.0688 2.5000 1.5063 -3.1704 -3.0312 31.3544
#
#
#
# Elastic Compliance Matrix: (Units=1/GPa)
#
#
# Indices 1 2 3 4 5 6 
#
# 1 0.011471 -0.004660 -0.000230 0.004032 0.001823 0.003919
# 2 -0.004660 0.010455 -0.003233 -0.001022 0.000931 -0.001891
# 3 -0.000230 -0.003233 0.012403 0.003615 0.003863 0.000342
# 4 0.004032 -0.001022 0.003615 0.029442 0.006830 0.004583
# 5 0.001823 0.000931 0.003863 0.006830 0.034527 0.004238
# 6 0.003919 -0.001891 0.000342 0.004583 0.004238 0.033909
#
#
# Mechanical properties :
#
#
# Convention : Reuss Voigt Hill
#
# Bulk Modulus (GPa) = 55.30049 67.11316 61.20682
# Shear Modulus (GPa) = 32.36638 35.83376 34.10007
#
# Velocity S-wave (km/s) = 3.72800 3.92261 3.82655
# Velocity P-wave (km/s) = 6.50204 7.02382 6.76796
#
# Compressibility (1/GPa) = 0.01808302
#
# Stress axis : x y z
#
# Youngs Moduli (GPa) = 87.17295 95.64686 80.62806
#
# Poissons Ratio (x) = 0.44574 0.01856
# Poissons Ratio (y) = 0.40625 0.26064
# Poissons Ratio (z) = 0.02007 0.30919
#
# Static dielectric constant tensor:
#      x y z
#    x 1.851390 -0.030960 0.034210 
#    y -0.030960 1.970130 0.014620 
#    z 0.034210 0.014620 1.914160 
# 
# From -- ./inp_files/32336.got.cif
#   From: 2010.05.17/outbox.cif.g08.bks.cpg/sg2_17_cif.got.tgz:32336.got - 2010.06.03 11:33:40.
