data_PCOD9046611
_publ_section_title
;
Structure prediction by ZEFSAII (Michael W. Deem and Ramdas Pophale) SiO2 
 PCOD9046611
Probable space group: P -1
;
_chemical_formula_sum "Si O2"
_cell_formula_units_Z 14
_cell_length_a 8.041800
_cell_length_b 19.013621
_cell_length_c 6.604087
_cell_angle_alpha 46.879006
_cell_angle_beta 97.926997
_cell_angle_gamma 116.071623
_cell_volume 641.400880
_symmetry_space_group_name_H-M "P -1"
_symmetry_group_IT_number 2
_symmetry_cell_setting 'triclinic'
loop_
_space_group_symop_operation_xyz
x,y,z
-x,-y,-z
loop_
_atom_site_type_symbol
_atom_site_label
_atom_site_fract_x
_atom_site_fract_y
_atom_site_fract_z
Si Si1 0.859519 0.439312 0.910658
Si Si2 0.014853 0.287619 0.085823
Si Si3 0.482259 0.207492 0.361599
Si Si4 0.829865 0.925061 0.772288
Si Si5 0.790850 0.768689 0.411939
Si Si6 0.698244 0.592318 0.431257
Si Si7 0.327520 0.921160 0.486432
O O1 0.819617 0.531680 0.627076
O O2 0.652694 0.332940 0.128718
O O3 0.000000 0.500000 0.000000
O O4 0.967870 0.386860 0.905423
O O5 0.068836 0.252813 0.376777
O O6 0.823113 0.180272 0.203788
O O7 0.187661 0.321963 0.894664
O O8 0.350540 0.159038 0.232177
O O9 0.343193 0.202045 0.528299
O O10 0.589060 0.133361 0.551248
O O11 0.772734 0.005930 0.727705
O O12 0.884229 0.860064 0.074336
O O13 0.000000 0.000000 0.500000
O O14 0.673048 0.655350 0.493295
O O15 0.500000 0.500000 0.500000
O O16 0.500000 0.000000 0.500000
#
# Coordination Sequence:
#
# PCOD9046611 Si02
#       7
#     2   2   2   2   2   2   2
#     4  11  23  46  67  97 138 180 223 277 339 400
#     4  11  24  44  68 100 134 175 232 276 337 412
#     4  10  24  43  65  99 135 174 231 276 336 412
#     4  11  23  44  70  97 135 178 223 285 347 397
#     4  12  24  41  67  99 135 172 233 282 327 412
#     4  12  26  43  69  98 137 186 224 281 341 398
#     4   9  21  44  66  92 134 174 221 280 339 403
#
# _framework density 21.827221999999999
#
# number of rings (size 3 to 8) (size 9 to 14) (size 15 to 20)
#    0.000    1.143    1.429    4.714    2.000    4.000 
#    7.714    4.286    0.000    0.000    0.000    0.000 
#    0.000    0.000    0.000    0.000    0.000    0.000 
#
# Total GULP energy -78207.266777 kJ/mol
# GULP energy per Si atom -5586.233341 kJ/mol
# Density = 2.177754 g / cm^3
# Si number density = 21.827222 Si / 1000 Ang^3
#
#
#
# Elastic Constant Matrix: (Units=GPa)
#
#
# Indices 1 2 3 4 5 6 
#
# 1 96.3905 31.4059 41.3061 2.9465 6.5232 -15.9294
# 2 31.4059 124.2329 39.7141 -15.3122 -6.4390 1.9204
# 3 41.3061 39.7141 97.8737 4.3431 16.4316 -7.3479
# 4 2.9465 -15.3122 4.3431 25.4287 -2.3944 4.3136
# 5 6.5232 -6.4390 16.4316 -2.3944 44.2357 -12.9028
# 6 -15.9294 1.9204 -7.3479 4.3136 -12.9028 53.9153
#
#
#
# Elastic Compliance Matrix: (Units=1/GPa)
#
#
# Indices 1 2 3 4 5 6 
#
# 1 0.013795 -0.002487 -0.004427 -0.002973 0.000210 0.003849
# 2 -0.002487 0.011484 -0.004752 0.008640 0.003813 -0.001570
# 3 -0.004427 -0.004752 0.015265 -0.005513 -0.006025 -0.000059
# 4 -0.002973 0.008640 -0.005513 0.047048 0.004975 -0.004511
# 5 0.000210 0.003813 -0.006025 0.004975 0.027156 0.005206
# 6 0.003849 -0.001570 -0.000059 -0.004511 0.005206 0.021339
#
#
# Mechanical properties :
#
#
# Convention : Reuss Voigt Hill
#
# Bulk Modulus (GPa) = 58.09740 60.37214 59.23477
# Shear Modulus (GPa) = 30.27423 38.45401 34.36412
#
# Velocity S-wave (km/s) = 3.72828 4.20187 3.97214
# Velocity P-wave (km/s) = 6.72370 7.15961 6.94508
#
# Compressibility (1/GPa) = 0.01721247
#
# Stress axis : x y z
#
# Youngs Moduli (GPa) = 72.49169 87.07764 65.50787
#
# Poissons Ratio (x) = 0.21658 0.29000
# Poissons Ratio (y) = 0.18030 0.31127
# Poissons Ratio (z) = 0.32092 0.41376
#
# Static dielectric constant tensor:
#      x y z
#    x 1.860860 0.007090 0.038040 
#    y 0.007090 1.793290 0.002080 
#    z 0.038040 0.002080 1.803700 
# 
# From -- ./inp_files/27736.got.cif
#   From: 2010.05.17/outbox.cif.g08.bks.cpg/sg2_14_cif.got.tgz:27736.got - 2010.06.03 11:33:40.
