data_PCOD9046943
_publ_section_title
;
Structure prediction by ZEFSAII (Michael W. Deem and Ramdas Pophale) SiO2 
 PCOD9046943
Probable space group: P -1
;
_chemical_formula_sum "Si O2"
_cell_formula_units_Z 16
_cell_length_a 18.765850
_cell_length_b 20.670494
_cell_length_c 8.998831
_cell_angle_alpha 39.663677
_cell_angle_beta 144.237668
_cell_angle_gamma 161.229942
_cell_volume 656.396546
_symmetry_space_group_name_H-M "P -1"
_symmetry_group_IT_number 2
_symmetry_cell_setting 'triclinic'
loop_
_space_group_symop_operation_xyz
x,y,z
-x,-y,-z
loop_
_atom_site_type_symbol
_atom_site_label
_atom_site_fract_x
_atom_site_fract_y
_atom_site_fract_z
Si Si1 0.477891 0.656691 0.604882
Si Si2 0.658046 0.125124 0.400599
Si Si3 0.411079 0.038630 0.708167
Si Si4 0.179688 0.409698 0.826128
Si Si5 0.070520 0.096108 0.218006
Si Si6 0.061683 0.310909 0.286576
Si Si7 0.155925 0.541575 0.806410
Si Si8 0.254886 0.263877 0.540276
O O1 0.458542 0.764291 0.381418
O O2 0.371244 0.544570 0.779462
O O3 0.755357 0.822671 0.757395
O O4 0.312100 0.496904 0.472715
O O5 0.665341 0.252611 0.169245
O O6 0.940265 0.298698 0.570418
O O7 0.500000 0.000000 0.500000
O O8 0.559310 0.969475 0.397903
O O9 0.139670 0.852055 0.641452
O O10 0.500000 0.000000 0.000000
O O11 0.265519 0.531948 0.902795
O O12 0.085493 0.227935 0.010175
O O13 0.201527 0.164792 0.474842
O O14 0.806131 0.857105 0.213292
O O15 0.073879 0.225470 0.346379
O O16 0.020928 0.381284 0.991061
O O17 0.000000 0.500000 0.500000
O O18 0.500000 0.500000 0.500000
#
# Coordination Sequence:
#
# PCOD9046943 Si02
#       8
#     2   2   2   2   2   2   2   2
#     4  12  25  46  72 105 145 183 237 293 351 425
#     4  11  25  45  66 102 140 182 238 288 352 421
#     4  12  28  44  72 103 138 187 238 292 356 419
#     4  11  24  45  70 103 146 186 230 296 354 416
#     4  11  24  44  72 106 142 185 235 284 354 424
#     4  12  24  46  71 103 140 186 234 289 356 421
#     4  10  24  43  69  95 137 183 232 286 349 417
#     4  11  23  44  72 105 140 182 235 287 345 423
#
# _framework density 24.375509000000001
#
# number of rings (size 3 to 8) (size 9 to 14) (size 15 to 20)
#    0.000    0.750    5.000    1.875    7.000    2.000 
#    2.250    1.250    0.000    0.000    0.000    0.000 
#    0.000    0.000    0.000    0.000    0.000    0.000 
#
# Total GULP energy -89306.143664 kJ/mol
# GULP energy per Si atom -5581.633979 kJ/mol
# Density = 2.432003 g / cm^3
# Si number density = 24.375509 Si / 1000 Ang^3
#
#
#
# Elastic Constant Matrix: (Units=GPa)
#
#
# Indices 1 2 3 4 5 6 
#
# 1 147.9074 39.0660 20.8588 -20.4364 1.0114 18.1554
# 2 39.0660 101.7339 22.8526 -33.0895 1.2356 17.7364
# 3 20.8588 22.8526 53.6800 -35.6586 6.8680 -3.2852
# 4 -20.4364 -33.0895 -35.6586 49.9774 -6.9764 0.4191
# 5 1.0114 1.2356 6.8680 -6.9764 40.4331 -18.6868
# 6 18.1554 17.7364 -3.2852 0.4191 -18.6868 47.2240
#
#
#
# Elastic Compliance Matrix: (Units=1/GPa)
#
#
# Indices 1 2 3 4 5 6 
#
# 1 0.007985 -0.001964 -0.002063 0.000368 -0.001066 -0.002901
# 2 -0.001964 0.014273 0.000360 0.008761 -0.001333 -0.005186
# 3 -0.002063 0.000360 0.036207 0.025135 -0.000499 0.002756
# 4 0.000368 0.008761 0.025135 0.044267 0.002609 -0.001044
# 5 -0.001066 -0.001333 -0.000499 0.002609 0.031487 0.013312
# 6 -0.002901 -0.005186 0.002756 -0.001044 0.013312 0.029707
#
#
# Mechanical properties :
#
#
# Convention : Reuss Voigt Hill
#
# Bulk Modulus (GPa) = 19.55821 52.09735 35.82778
# Shear Modulus (GPa) = 26.55278 42.22982 34.39130
#
# Velocity S-wave (km/s) = 3.30407 4.16681 3.76026
# Velocity P-wave (km/s) = 4.75363 6.67600 5.79508
#
# Compressibility (1/GPa) = 0.05112941
#
# Stress axis : x y z
#
# Youngs Moduli (GPa) = 125.23468 70.06327 27.61915
#
# Poissons Ratio (x) = 0.13764 0.05698
# Poissons Ratio (y) = 0.24602 -0.00994
# Poissons Ratio (z) = 0.25838 -0.02522
#
# Static dielectric constant tensor:
#      x y z
#    x 1.614470 0.476930 0.360440 
#    y 0.476930 1.328030 -0.520690 
#    z 0.360440 -0.520690 1.529400 
# 
# From -- ./inp_files/338104.got.cif
#   From: 2010.05.17/outbox.cif.g08.bks.cpg/sg2_170_cif.got.tgz:338104.got - 2010.06.03 11:33:40.
