data_PCOD9046865
_publ_section_title
;
Structure prediction by ZEFSAII (Michael W. Deem and Ramdas Pophale) SiO2 
 PCOD9046865
Probable space group: P -1
;
_chemical_formula_sum "Si O2"
_cell_formula_units_Z 14
_cell_length_a 13.005730
_cell_length_b 20.755633
_cell_length_c 11.670374
_cell_angle_alpha 150.246118
_cell_angle_beta 146.662715
_cell_angle_gamma 20.599162
_cell_volume 545.351891
_symmetry_space_group_name_H-M "P -1"
_symmetry_group_IT_number 2
_symmetry_cell_setting 'triclinic'
loop_
_space_group_symop_operation_xyz
x,y,z
-x,-y,-z
loop_
_atom_site_type_symbol
_atom_site_label
_atom_site_fract_x
_atom_site_fract_y
_atom_site_fract_z
Si Si1 0.728699 0.608009 0.773092
Si Si2 0.528957 0.378660 0.065309
Si Si3 0.071168 0.224319 0.753146
Si Si4 0.023923 0.192002 0.096081
Si Si5 0.772829 0.011623 0.264955
Si Si6 0.217072 0.797320 0.730562
Si Si7 0.686049 0.795361 0.428627
O O1 0.543195 0.617558 0.699622
O O2 0.017039 0.392411 0.655815
O O3 0.507733 0.768521 0.713330
O O4 0.815318 0.695442 0.051248
O O5 0.226768 0.596947 0.172910
O O6 0.751966 0.255396 0.190667
O O7 0.686238 0.376712 0.109934
O O8 0.469626 0.261346 0.793677
O O9 0.002066 0.170005 0.498856
O O10 0.292180 0.039678 0.763916
O O11 0.213843 0.198209 0.347361
O O12 0.076968 0.153682 0.951349
O O13 0.131571 0.993315 0.935957
O O14 0.000000 0.000000 0.500000
O O15 0.500000 0.000000 0.500000
#
# Coordination Sequence:
#
# PCOD9046865 Si02
#       7
#     2   2   2   2   2   2   2
#     4  10  24  43  68  99 133 174 221 276 325 389
#     4  11  25  43  64 104 135 177 219 266 338 395
#     4  11  23  43  70  96 133 177 224 273 327 387
#     4  11  24  42  67  95 137 173 219 277 328 390
#     4  11  23  48  67  98 129 175 232 271 326 390
#     4  11  22  42  66 105 133 172 225 269 332 393
#     4  11  24  44  65  97 140 173 214 269 337 400
#
# _framework density 25.671498
#
# number of rings (size 3 to 8) (size 9 to 14) (size 15 to 20)
#    0.000    1.143    4.286    2.143    0.000    6.286 
#    2.571    1.429    0.000    0.000    0.000    0.000 
#    0.000    0.000    0.000    0.000    0.000    0.000 
#
# Total GULP energy -78631.440069 kJ/mol
# GULP energy per Si atom -5616.531434 kJ/mol
# Density = 2.561307 g / cm^3
# Si number density = 25.671498 Si / 1000 Ang^3
#
#
#
# Elastic Constant Matrix: (Units=GPa)
#
#
# Indices 1 2 3 4 5 6 
#
# 1 113.5397 28.8410 61.9481 -16.5274 -9.3641 -2.9641
# 2 28.8410 99.0063 27.0668 -4.3847 -15.2437 -10.7810
# 3 61.9481 27.0668 235.8984 -25.3128 -5.6065 -7.2492
# 4 -16.5274 -4.3847 -25.3128 36.6121 1.0716 -1.7075
# 5 -9.3641 -15.2437 -5.6065 1.0716 41.9022 -1.7742
# 6 -2.9641 -10.7810 -7.2492 -1.7075 -1.7742 40.3800
#
#
#
# Elastic Compliance Matrix: (Units=1/GPa)
#
#
# Indices 1 2 3 4 5 6 
#
# 1 0.011218 -0.002301 -0.002314 0.003150 0.001279 -0.000017
# 2 -0.002301 0.011853 -0.000568 0.000018 0.003851 0.003064
# 3 -0.002314 -0.000568 0.005203 0.002520 -0.000062 0.000716
# 4 0.003150 0.000018 0.002520 0.030563 0.000351 0.001996
# 5 0.001279 0.003851 -0.000062 0.000351 0.025630 0.002252
# 6 -0.000017 0.003064 0.000716 0.001996 0.002252 0.025893
#
#
# Mechanical properties :
#
#
# Convention : Reuss Voigt Hill
#
# Bulk Modulus (GPa) = 55.83928 76.01733 65.92830
# Shear Modulus (GPa) = 39.46463 45.81810 42.64136
#
# Velocity S-wave (km/s) = 3.92509 4.22925 4.08001
# Velocity P-wave (km/s) = 6.50695 7.31605 6.92333
#
# Compressibility (1/GPa) = 0.01790854
#
# Stress axis : x y z
#
# Youngs Moduli (GPa) = 89.14176 84.36479 192.20026
#
# Poissons Ratio (x) = 0.19409 0.44475
# Poissons Ratio (y) = 0.20508 0.10921
# Poissons Ratio (z) = 0.20628 0.04794
#
# Static dielectric constant tensor:
#      x y z
#    x 1.976420 -0.054620 0.004770 
#    y -0.054620 2.089940 0.030900 
#    z 0.004770 0.030900 1.997720 
# 
# From -- ./inp_files/267643.got.cif
#   From: 2010.05.17/outbox.cif.g08.bks.cpg/sg2_134_cif.got.tgz:267643.got - 2010.06.03 11:33:40.
