data_PCOD9046401
_publ_section_title
;
Structure prediction by ZEFSAII (Michael W. Deem and Ramdas Pophale) SiO2 
 PCOD9046401
Probable space group: P -1
;
_chemical_formula_sum "Si O2"
_cell_formula_units_Z 14
_cell_length_a 11.060259
_cell_length_b 14.400484
_cell_length_c 5.545895
_cell_angle_alpha 96.930800
_cell_angle_beta 109.126989
_cell_angle_gamma 45.424467
_cell_volume 586.578123
_symmetry_space_group_name_H-M "P -1"
_symmetry_group_IT_number 2
_symmetry_cell_setting 'triclinic'
loop_
_space_group_symop_operation_xyz
x,y,z
-x,-y,-z
loop_
_atom_site_type_symbol
_atom_site_label
_atom_site_fract_x
_atom_site_fract_y
_atom_site_fract_z
Si Si1 0.916125 0.778674 0.065749
Si Si2 0.110504 0.574379 0.745807
Si Si3 0.712546 0.166625 0.795950
Si Si4 0.234779 0.303507 0.749728
Si Si5 0.404308 0.955540 0.334934
Si Si6 0.935756 0.956719 0.259549
Si Si7 0.447439 0.474854 0.706742
O O1 0.819206 0.736027 0.080665
O O2 0.933841 0.849452 0.305272
O O3 0.083767 0.656769 0.980257
O O4 0.778829 0.907086 0.848891
O O5 0.205866 0.427139 0.829534
O O6 0.235292 0.559273 0.622002
O O7 0.913826 0.647593 0.536275
O O8 0.662755 0.101431 0.577553
O O9 0.895042 0.128075 0.842507
O O10 0.554109 0.322068 0.732859
O O11 0.761605 0.091056 0.057018
O O12 0.434838 0.173688 0.758261
O O13 0.500000 0.000000 0.500000
O O14 0.000000 0.000000 0.500000
O O15 0.500000 0.500000 0.500000
O O16 0.500000 0.500000 0.000000
#
# Coordination Sequence:
#
# PCOD9046401 Si02
#       7
#     2   2   2   2   2   2   2
#     4  11  24  42  74 103 141 189 242 298 365 444
#     4  11  25  47  70 103 146 185 245 302 365 441
#     4  10  24  47  66 103 144 186 247 307 370 439
#     4  11  24  44  71 101 143 191 238 298 369 436
#     4  11  22  45  68 102 144 185 241 297 372 437
#     4  10  24  42  72 102 136 187 244 311 374 432
#     4  12  29  50  76 108 149 200 249 307 373 448
#
# _framework density 23.867239999999999
#
# number of rings (size 3 to 8) (size 9 to 14) (size 15 to 20)
#    0.000    1.143    2.857    1.714    8.000    1.143 
#    2.571    0.000    0.000    0.000    0.000    0.000 
#    0.000    0.000    0.000    0.000    0.000    0.000 
#
# Total GULP energy -78121.387379 kJ/mol
# GULP energy per Si atom -5580.099098 kJ/mol
# Density = 2.381292 g / cm^3
# Si number density = 23.867240 Si / 1000 Ang^3
#
#
#
# Elastic Constant Matrix: (Units=GPa)
#
#
# Indices 1 2 3 4 5 6 
#
# 1 132.5950 60.1422 25.6578 0.1407 -4.0083 9.6824
# 2 60.1422 195.2897 49.4172 8.6901 -4.0588 23.0788
# 3 25.6578 49.4172 52.0473 12.9691 2.4310 13.3005
# 4 0.1407 8.6901 12.9691 24.3730 2.3239 8.8561
# 5 -4.0083 -4.0588 2.4310 2.3239 35.3985 -0.8350
# 6 9.6824 23.0788 13.3005 8.8561 -0.8350 56.4719
#
#
#
# Elastic Compliance Matrix: (Units=1/GPa)
#
#
# Indices 1 2 3 4 5 6 
#
# 1 0.009127 -0.002083 -0.003061 0.002366 0.000841 -0.000351
# 2 -0.002083 0.007404 -0.005923 0.000947 0.000924 -0.001409
# 3 -0.003061 -0.005923 0.030237 -0.012948 -0.002304 -0.002180
# 4 0.002366 0.000947 -0.012948 0.049800 -0.002135 -0.005585
# 5 0.000841 0.000924 -0.002304 -0.002135 0.028768 0.000781
# 6 -0.000351 -0.001409 -0.002180 -0.005585 0.000781 0.019745
#
#
# Mechanical properties :
#
#
# Convention : Reuss Voigt Hill
#
# Bulk Modulus (GPa) = 40.59199 72.26292 56.42746
# Shear Modulus (GPa) = 28.50208 39.56300 34.03254
#
# Velocity S-wave (km/s) = 3.45946 4.07581 3.78022
# Velocity P-wave (km/s) = 5.74469 7.24517 6.53812
#
# Compressibility (1/GPa) = 0.02463540
#
# Stress axis : x y z
#
# Youngs Moduli (GPa) = 109.56138 135.05882 33.07226
#
# Poissons Ratio (x) = 0.28126 0.10124
# Poissons Ratio (y) = 0.22816 0.19587
# Poissons Ratio (z) = 0.33540 0.79990
#
# Static dielectric constant tensor:
#      x y z
#    x 2.064490 -0.017300 0.075260 
#    y -0.017300 1.877010 0.087260 
#    z 0.075260 0.087260 2.113940 
# 
# From -- ./inp_files/70950.got.cif
#   From: 2010.05.17/outbox.cif.g08.bks.cpg/sg2_36_cif.got.tgz:70950.got - 2010.06.03 11:33:40.
