data_PCOD9046808
_publ_section_title
;
Structure prediction by ZEFSAII (Michael W. Deem and Ramdas Pophale) SiO2 
 PCOD9046808
Probable space group: P -1
;
_chemical_formula_sum "Si O2"
_cell_formula_units_Z 14
_cell_length_a 16.709312
_cell_length_b 5.454708
_cell_length_c 13.122213
_cell_angle_alpha 58.613555
_cell_angle_beta 147.598964
_cell_angle_gamma 109.878209
_cell_volume 533.944790
_symmetry_space_group_name_H-M "P -1"
_symmetry_group_IT_number 2
_symmetry_cell_setting 'triclinic'
loop_
_space_group_symop_operation_xyz
x,y,z
-x,-y,-z
loop_
_atom_site_type_symbol
_atom_site_label
_atom_site_fract_x
_atom_site_fract_y
_atom_site_fract_z
Si Si1 0.863940 0.746318 0.754288
Si Si2 0.643383 0.286227 0.141254
Si Si3 0.700116 0.703652 0.784325
Si Si4 0.747478 0.013470 0.971588
Si Si5 0.257883 0.367983 0.564155
Si Si6 0.507162 0.703362 0.746895
Si Si7 0.943966 0.267011 0.597478
O O1 0.740003 0.829415 0.693019
O O2 0.784569 0.625625 0.600259
O O3 0.929671 0.006667 0.718224
O O4 0.000000 0.500000 0.000000
O O5 0.810178 0.289647 0.366311
O O6 0.641539 0.945213 0.227202
O O7 0.500000 0.500000 0.000000
O O8 0.628085 0.413756 0.983009
O O9 0.531639 0.729197 0.646804
O O10 0.775478 0.859462 0.922473
O O11 0.753178 0.351886 0.905863
O O12 0.880397 0.828330 0.225811
O O13 0.575564 0.961543 0.817042
O O14 0.350480 0.622630 0.626245
O O15 0.104814 0.438827 0.451806
#
# Coordination Sequence:
#
# PCOD9046808 Si02
#       7
#     2   2   2   2   2   2   2
#     4  11  23  42  71  98 140 181 235 288 338 415
#     4  11  24  43  71 100 137 183 233 290 343 413
#     4  10  24  43  69 100 142 185 225 284 356 400
#     4  10  24  43  68 103 141 181 227 289 346 414
#     4  11  25  41  71 104 130 187 238 281 349 417
#     4  10  25  43  68  99 144 178 229 291 351 413
#     4  11  24  41  72 103 132 182 243 277 350 416
#
# _framework density 26.219942
#
# number of rings (size 3 to 8) (size 9 to 14) (size 15 to 20)
#    0.857    0.571    2.857    1.286    6.000    2.286 
#    0.000    2.857    0.000    0.000    0.000    0.000 
#    0.000    0.000    0.000    0.000    0.000    0.000 
#
# Total GULP energy -78226.102593 kJ/mol
# GULP energy per Si atom -5587.578757 kJ/mol
# Density = 2.616026 g / cm^3
# Si number density = 26.219942 Si / 1000 Ang^3
#
#
#
# Elastic Constant Matrix: (Units=GPa)
#
#
# Indices 1 2 3 4 5 6 
#
# 1 69.6083 27.6292 5.3189 -11.6612 -10.3242 7.2773
# 2 27.6292 118.7133 44.8840 -18.0786 -0.9978 2.3522
# 3 5.3189 44.8840 102.8933 -14.6157 -6.7624 -3.7299
# 4 -11.6612 -18.0786 -14.6157 52.0242 2.0370 -6.2759
# 5 -10.3242 -0.9978 -6.7624 2.0370 52.1227 -9.4978
# 6 7.2773 2.3522 -3.7299 -6.2759 -9.4978 34.5421
#
#
#
# Elastic Compliance Matrix: (Units=1/GPa)
#
#
# Indices 1 2 3 4 5 6 
#
# 1 0.016905 -0.004013 0.001352 0.002431 0.003011 -0.001873
# 2 -0.004013 0.011364 -0.004606 0.001750 -0.001330 -0.000473
# 3 0.001352 -0.004606 0.012213 0.002335 0.002101 0.002349
# 4 0.002431 0.001750 0.002335 0.021451 0.000653 0.003698
# 5 0.003011 -0.001330 0.002101 0.000653 0.021021 0.005582
# 6 -0.001873 -0.000473 0.002349 0.003698 0.005582 0.031837
#
#
# Mechanical properties :
#
#
# Convention : Reuss Voigt Hill
#
# Bulk Modulus (GPa) = 38.53775 49.65324 44.09549
# Shear Modulus (GPa) = 36.23873 41.96331 39.10102
#
# Velocity S-wave (km/s) = 3.72170 4.00488 3.86589
# Velocity P-wave (km/s) = 5.76176 6.35325 6.06472
#
# Compressibility (1/GPa) = 0.02594858
#
# Stress axis : x y z
#
# Youngs Moduli (GPa) = 59.15317 87.99933 81.88102
#
# Poissons Ratio (x) = 0.35315 -0.11070
# Poissons Ratio (y) = 0.23739 0.37710
# Poissons Ratio (z) = -0.07997 0.40528
#
# Static dielectric constant tensor:
#      x y z
#    x 2.206320 0.005100 0.101340 
#    y 0.005100 2.059840 -0.012920 
#    z 0.101340 -0.012920 2.162820 
# 
# From -- ./inp_files/127083.got.cif
#   From: 2010.05.17/outbox.cif.g08.bks.cpg/sg2_64_cif.got.tgz:127083.got - 2010.06.03 11:33:40.
