data_PCOD9046789
_publ_section_title
;
Structure prediction by ZEFSAII (Michael W. Deem and Ramdas Pophale) SiO2 
 PCOD9046789
Probable space group: P -1
;
_chemical_formula_sum "Si O2"
_cell_formula_units_Z 16
_cell_length_a 9.036830
_cell_length_b 11.522482
_cell_length_c 9.699231
_cell_angle_alpha 102.354290
_cell_angle_beta 138.119155
_cell_angle_gamma 85.211521
_cell_volume 654.145958
_symmetry_space_group_name_H-M "P -1"
_symmetry_group_IT_number 2
_symmetry_cell_setting 'triclinic'
loop_
_space_group_symop_operation_xyz
x,y,z
-x,-y,-z
loop_
_atom_site_type_symbol
_atom_site_label
_atom_site_fract_x
_atom_site_fract_y
_atom_site_fract_z
Si Si1 0.411172 0.441425 0.565122
Si Si2 0.108793 0.875877 0.017228
Si Si3 0.970802 0.447637 0.619752
Si Si4 0.583187 0.628957 0.968851
Si Si5 0.644579 0.202259 0.296963
Si Si6 0.964697 0.869790 0.621797
Si Si7 0.509143 0.742246 0.213886
Si Si8 0.698802 0.078772 0.572571
O O1 0.500000 0.500000 0.500000
O O2 0.147945 0.447734 0.364312
O O3 0.480459 0.530656 0.763869
O O4 0.493260 0.321723 0.653817
O O5 0.358189 0.850525 0.132340
O O6 0.145443 0.837924 0.191388
O O7 0.974143 0.826203 0.776590
O O8 0.000000 0.000000 0.000000
O O9 0.808805 0.323405 0.470993
O O10 0.000000 0.500000 0.500000
O O11 0.186847 0.412937 0.835898
O O12 0.570591 0.755594 0.915903
O O13 0.447476 0.651544 0.021156
O O14 0.587550 0.142622 0.387998
O O15 0.797181 0.129064 0.286120
O O16 0.770581 0.787089 0.387354
O O17 0.867428 0.995713 0.598471
O O18 0.500000 0.000000 0.500000
#
# Coordination Sequence:
#
# PCOD9046789 Si02
#       8
#     2   2   2   2   2   2   2   2
#     4  11  27  43  68 105 146 177 233 294 350 424
#     4  10  24  43  68 101 138 187 231 290 360 414
#     4  11  23  44  71 102 139 178 234 286 348 426
#     4  11  24  44  72 101 139 185 233 291 352 425
#     4  11  24  42  68 103 134 180 236 287 346 420
#     4  11  22  43  70  97 133 180 241 286 342 420
#     4  12  22  43  72 101 138 190 233 289 359 418
#     4  11  24  46  66  97 145 182 229 299 349 414
#
# _framework density 24.459372999999999
#
# number of rings (size 3 to 8) (size 9 to 14) (size 15 to 20)
#    0.000    1.000    5.000    0.750    5.250    1.500 
#    9.000    1.250    0.000    0.000    0.000    0.000 
#    0.000    0.000    0.000    0.000    0.000    0.000 
#
# Total GULP energy -89140.147106 kJ/mol
# GULP energy per Si atom -5571.259194 kJ/mol
# Density = 2.440370 g / cm^3
# Si number density = 24.459373 Si / 1000 Ang^3
#
#
#
# Elastic Constant Matrix: (Units=GPa)
#
#
# Indices 1 2 3 4 5 6 
#
# 1 92.5394 55.2368 38.8612 -29.4140 -6.0382 -3.8543
# 2 55.2368 66.2846 52.9367 -43.0191 -3.7747 -12.2882
# 3 38.8612 52.9367 143.7242 -39.8049 -11.6516 -7.5159
# 4 -29.4140 -43.0191 -39.8049 61.9019 -5.1397 -2.3671
# 5 -6.0382 -3.7747 -11.6516 -5.1397 42.2029 -21.6365
# 6 -3.8543 -12.2882 -7.5159 -2.3671 -21.6365 44.0409
#
#
#
# Elastic Compliance Matrix: (Units=1/GPa)
#
#
# Indices 1 2 3 4 5 6 
#
# 1 0.023369 -0.026289 0.000692 -0.007281 -0.003416 -0.007241
# 2 -0.026289 0.071851 -0.006239 0.036169 0.019912 0.028409
# 3 0.000692 -0.006239 0.010337 0.003043 0.003866 0.002147
# 4 -0.007281 0.036169 0.003043 0.042223 0.019318 0.021734
# 5 -0.003416 0.019912 0.003866 0.019318 0.042737 0.027951
# 6 -0.007241 0.028409 0.002147 0.021734 0.027951 0.045265
#
#
# Mechanical properties :
#
#
# Convention : Reuss Voigt Hill
#
# Bulk Modulus (GPa) = 23.87480 66.29086 45.08283
# Shear Modulus (GPa) = 15.95323 39.99669 27.97496
#
# Velocity S-wave (km/s) = 2.55666 4.04818 3.38558
# Velocity P-wave (km/s) = 4.30087 7.00083 5.80987
#
# Compressibility (1/GPa) = 0.04188518
#
# Stress axis : x y z
#
# Youngs Moduli (GPa) = 42.79244 13.91766 96.73867
#
# Poissons Ratio (x) = 0.36588 -0.06695
# Poissons Ratio (y) = 1.12497 0.60356
# Poissons Ratio (z) = -0.02961 0.08683
#
# Static dielectric constant tensor:
#      x y z
#    x 2.099280 0.080860 -0.004370 
#    y 0.080860 2.107350 0.022380 
#    z -0.004370 0.022380 2.004840 
# 
# From -- ./inp_files/188880.got.cif
#   From: 2010.05.17/outbox.cif.g08.bks.cpg/sg2_95_cif.got.tgz:188880.got - 2010.06.03 11:33:40.
