data_PCOD9046995
_publ_section_title
;
Structure prediction by ZEFSAII (Michael W. Deem and Ramdas Pophale) SiO2 
 PCOD9046995
Probable space group: P -1
;
_chemical_formula_sum "Si O2"
_cell_formula_units_Z 14
_cell_length_a 8.350374
_cell_length_b 20.198303
_cell_length_c 8.335027
_cell_angle_alpha 134.462404
_cell_angle_beta 70.348284
_cell_angle_gamma 138.480400
_cell_volume 610.241174
_symmetry_space_group_name_H-M "P -1"
_symmetry_group_IT_number 2
_symmetry_cell_setting 'triclinic'
loop_
_space_group_symop_operation_xyz
x,y,z
-x,-y,-z
loop_
_atom_site_type_symbol
_atom_site_label
_atom_site_fract_x
_atom_site_fract_y
_atom_site_fract_z
Si Si1 0.162719 0.154850 0.637786
Si Si2 0.753058 0.152313 0.753389
Si Si3 0.736444 0.430453 0.053727
Si Si4 0.665367 0.407644 0.401745
Si Si5 0.116910 0.144846 0.267035
Si Si6 0.832926 0.289573 0.277588
Si Si7 0.929816 0.266270 0.553903
O O1 0.204030 0.160634 0.444667
O O2 0.979081 0.169775 0.742616
O O3 0.453877 0.287153 0.835616
O O4 0.000000 0.000000 0.500000
O O5 0.836556 0.250483 0.739601
O O6 0.500000 0.000000 0.500000
O O7 0.701426 0.180536 0.988969
O O8 0.728169 0.399180 0.188441
O O9 0.789230 0.563911 0.260465
O O10 0.000000 0.500000 0.000000
O O11 0.355111 0.283715 0.316191
O O12 0.747178 0.360737 0.416228
O O13 0.853206 0.574923 0.640869
O O14 0.927538 0.154310 0.356680
O O15 0.000000 0.000000 0.000000
O O16 0.790128 0.239220 0.389104
#
# Coordination Sequence:
#
# PCOD9046995 Si02
#       7
#     2   2   2   2   2   2   2
#     4  11  28  45  71 104 140 193 232 292 370 414
#     4  11  27  45  70 101 143 185 239 295 348 431
#     4  11  25  45  77 105 144 183 242 302 349 430
#     4  10  24  43  70 103 136 183 236 286 359 422
#     4  11  26  44  68  99 147 182 236 296 352 434
#     4  10  24  43  71  97 136 182 233 294 352 412
#     4  10  26  45  69 107 134 188 243 290 360 422
#
# _framework density 22.941746999999999
#
# number of rings (size 3 to 8) (size 9 to 14) (size 15 to 20)
#    0.000    1.429    0.000    1.714   22.000    2.857 
#    0.000    0.000    0.000    0.000    0.000    0.000 
#    0.000    0.000    0.000    0.000    0.000    0.000 
#
# Total GULP energy -78127.812058 kJ/mol
# GULP energy per Si atom -5580.558004 kJ/mol
# Density = 2.288953 g / cm^3
# Si number density = 22.941747 Si / 1000 Ang^3
#
#
#
# Elastic Constant Matrix: (Units=GPa)
#
#
# Indices 1 2 3 4 5 6 
#
# 1 71.4355 39.8936 49.4196 0.5345 11.2073 -17.7718
# 2 39.8936 118.5670 27.2096 -4.8285 10.4110 -19.7640
# 3 49.4196 27.2096 149.0033 -0.0473 16.0672 -9.6458
# 4 0.5345 -4.8285 -0.0473 43.5824 -5.2458 11.1559
# 5 11.2073 10.4110 16.0672 -5.2458 38.0234 -2.9436
# 6 -17.7718 -19.7640 -9.6458 11.1559 -2.9436 45.9629
#
#
#
# Elastic Compliance Matrix: (Units=1/GPa)
#
#
# Indices 1 2 3 4 5 6 
#
# 1 0.022979 -0.005252 -0.005991 -0.002695 -0.002722 0.005849
# 2 -0.005252 0.010707 0.000067 0.000499 -0.001158 0.002392
# 3 -0.005991 0.000067 0.008871 -0.000014 -0.002046 -0.000554
# 4 -0.002695 0.000499 -0.000014 0.025187 0.003619 -0.006712
# 5 -0.002722 -0.001158 -0.002046 0.003619 0.028704 -0.001020
# 6 0.005849 0.002392 -0.000554 -0.006712 -0.001020 0.026494
#
#
# Mechanical properties :
#
#
# Convention : Reuss Voigt Hill
#
# Bulk Modulus (GPa) = 49.49754 63.56128 56.52941
# Shear Modulus (GPa) = 32.88856 40.34595 36.61725
#
# Velocity S-wave (km/s) = 3.79036 4.19815 3.99945
# Velocity P-wave (km/s) = 6.38576 7.15995 6.78391
#
# Compressibility (1/GPa) = 0.02020303
#
# Stress axis : x y z
#
# Youngs Moduli (GPa) = 43.51843 93.39990 112.72961
#
# Poissons Ratio (x) = 0.49058 0.67534
# Poissons Ratio (y) = 0.22858 -0.00752
# Poissons Ratio (z) = 0.26071 -0.00623
#
# Static dielectric constant tensor:
#      x y z
#    x 1.944300 0.062300 0.005090 
#    y 0.062300 1.951430 0.051540 
#    z 0.005090 0.051540 1.950260 
# 
# From -- ./inp_files/224065.got.cif
#   From: 2010.05.17/outbox.cif.g08.bks.cpg/sg2_113_cif.got.tgz:224065.got - 2010.06.03 11:33:40.
