data_PCOD9046563
_publ_section_title
;
Structure prediction by ZEFSAII (Michael W. Deem and Ramdas Pophale) SiO2 
 PCOD9046563
Probable space group: P -1
;
_chemical_formula_sum "Si O2"
_cell_formula_units_Z 16
_cell_length_a 13.574118
_cell_length_b 8.221821
_cell_length_c 11.420903
_cell_angle_alpha 43.182882
_cell_angle_beta 51.589408
_cell_angle_gamma 64.985124
_cell_volume 682.399973
_symmetry_space_group_name_H-M "P -1"
_symmetry_group_IT_number 2
_symmetry_cell_setting 'triclinic'
loop_
_space_group_symop_operation_xyz
x,y,z
-x,-y,-z
loop_
_atom_site_type_symbol
_atom_site_label
_atom_site_fract_x
_atom_site_fract_y
_atom_site_fract_z
Si Si1 0.337966 0.880294 0.497725
Si Si2 0.376771 0.379424 0.092865
Si Si3 0.317058 0.136275 0.622318
Si Si4 0.184435 0.652963 0.242835
Si Si5 0.061874 0.324258 0.706546
Si Si6 0.478085 0.473502 0.715407
Si Si7 0.880937 0.498361 0.174144
Si Si8 0.670227 0.894878 0.104877
O O1 0.422747 0.654657 0.567038
O O2 0.200342 0.752574 0.644156
O O3 0.366415 0.097162 0.274193
O O4 0.356090 0.996908 0.552675
O O5 0.257701 0.483800 0.190946
O O6 0.500000 0.500000 0.000000
O O7 0.395139 0.454429 0.905029
O O8 0.166781 0.132598 0.731742
O O9 0.384119 0.403911 0.425258
O O10 0.351865 0.047007 0.772097
O O11 0.117046 0.508941 0.472148
O O12 0.074668 0.765761 0.188891
O O13 0.278878 0.857837 0.115752
O O14 0.065864 0.450060 0.762658
O O15 0.451352 0.217931 0.811529
O O16 0.780864 0.704884 0.116573
O O17 0.000000 0.500000 0.000000
#
# Coordination Sequence:
#
# PCOD9046563 Si02
#       8
#     2   2   2   2   2   2   2   2
#     4  11  24  42  70  99 137 175 224 281 337 394
#     4  12  25  44  70 103 132 181 230 273 337 401
#     4  11  21  44  66  95 132 175 222 270 334 404
#     4  11  24  44  65  97 132 175 226 273 333 401
#     4  10  24  43  64  94 135 172 219 276 334 398
#     4  11  24  44  67 103 137 173 225 277 337 397
#     4  10  25  42  65  98 133 175 225 275 339 401
#     4  10  25  39  68  96 132 176 220 276 339 394
#
# _framework density 23.446660000000001
#
# number of rings (size 3 to 8) (size 9 to 14) (size 15 to 20)
#    0.000    1.250    2.500    1.500   10.500    1.000 
#    0.000    2.500    0.000    0.000    0.000    0.000 
#    0.000    0.000    0.000    0.000    0.000    0.000 
#
# Total GULP energy -89492.128265 kJ/mol
# GULP energy per Si atom -5593.258017 kJ/mol
# Density = 2.339329 g / cm^3
# Si number density = 23.446660 Si / 1000 Ang^3
#
#
#
# Elastic Constant Matrix: (Units=GPa)
#
#
# Indices 1 2 3 4 5 6 
#
# 1 42.3432 9.6771 -0.4182 -2.1016 -13.1647 -1.5451
# 2 9.6771 76.4322 26.6583 9.7795 -10.6467 2.3272
# 3 -0.4182 26.6583 136.1767 -5.2232 3.2764 -5.6238
# 4 -2.1016 9.7795 -5.2232 49.9445 10.1175 -0.3964
# 5 -13.1647 -10.6467 3.2764 10.1175 30.5066 0.7623
# 6 -1.5451 2.3272 -5.6238 -0.3964 0.7623 32.1108
#
#
#
# Elastic Compliance Matrix: (Units=1/GPa)
#
#
# Indices 1 2 3 4 5 6 
#
# 1 0.027623 -0.001916 0.000206 -0.000750 0.011448 0.001223
# 2 -0.001916 0.016287 -0.003646 -0.005084 0.006988 -0.002140
# 3 0.000206 -0.003646 0.008285 0.002179 -0.002841 0.001819
# 4 -0.000750 -0.005084 0.002179 0.023266 -0.010079 0.001240
# 5 0.011448 0.006988 -0.002841 -0.010079 0.043847 -0.001619
# 6 0.001223 -0.002140 0.001819 0.001240 -0.001619 0.031728
#
#
# Mechanical properties :
#
#
# Convention : Reuss Voigt Hill
#
# Bulk Modulus (GPa) = 24.10588 36.30962 30.20775
# Shear Modulus (GPa) = 28.47800 37.11470 32.79635
#
# Velocity S-wave (km/s) = 3.48887 3.98294 3.74406
# Velocity P-wave (km/s) = 5.15103 6.05569 5.62159
#
# Compressibility (1/GPa) = 0.04148365
#
# Stress axis : x y z
#
# Youngs Moduli (GPa) = 36.20173 61.40008 120.70300
#
# Poissons Ratio (x) = 0.11764 -0.02489
# Poissons Ratio (y) = 0.06936 0.44004
# Poissons Ratio (z) = -0.00746 0.22384
#
# Static dielectric constant tensor:
#      x y z
#    x 1.904880 -0.026740 -0.004210 
#    y -0.026740 1.922550 -0.004840 
#    z -0.004210 -0.004840 1.881490 
# 
# From -- ./inp_files/187660.got.cif
#   From: 2010.05.17/outbox.cif.g08.bks.cpg/sg2_94_cif.got.tgz:187660.got - 2010.06.03 11:33:40.
