data_PCOD9046554
_publ_section_title
;
Structure prediction by ZEFSAII (Michael W. Deem and Ramdas Pophale) SiO2 
 PCOD9046554
Probable space group: P -1
;
_chemical_formula_sum "Si O2"
_cell_formula_units_Z 16
_cell_length_a 26.176267
_cell_length_b 6.639394
_cell_length_c 9.414455
_cell_angle_alpha 127.859905
_cell_angle_beta 141.663216
_cell_angle_gamma 73.629291
_cell_volume 731.737179
_symmetry_space_group_name_H-M "P -1"
_symmetry_group_IT_number 2
_symmetry_cell_setting 'triclinic'
loop_
_space_group_symop_operation_xyz
x,y,z
-x,-y,-z
loop_
_atom_site_type_symbol
_atom_site_label
_atom_site_fract_x
_atom_site_fract_y
_atom_site_fract_z
Si Si1 0.158726 0.005947 0.213851
Si Si2 0.445437 0.545079 0.222253
Si Si3 0.698505 0.360238 0.221609
Si Si4 0.097191 0.116997 0.838216
Si Si5 0.227854 0.067228 0.863872
Si Si6 0.914683 0.331909 0.839987
Si Si7 0.673334 0.098802 0.361030
Si Si8 0.601564 0.397986 0.550978
O O1 0.082632 0.853618 0.100061
O O2 0.236030 0.889089 0.358731
O O3 0.219344 0.339935 0.501158
O O4 0.108921 0.956475 0.933295
O O5 0.543162 0.546914 0.412536
O O6 0.443500 0.690631 0.431333
O O7 0.396571 0.646907 0.040126
O O8 0.380997 0.214431 0.950095
O O9 0.718933 0.128523 0.078940
O O10 0.692454 0.291998 0.346741
O O11 0.171095 0.107575 0.886307
O O12 0.111472 0.424245 0.052458
O O13 0.000000 0.000000 0.500000
O O14 0.159838 0.895662 0.518515
O O15 0.298642 0.369132 0.103184
O O16 0.000000 0.500000 0.000000
O O17 0.613138 0.173374 0.376300
#
# Coordination Sequence:
#
# PCOD9046554 Si02
#       8
#     2   2   2   2   2   2   2   2
#     4  11  23  44  72  98 133 181 223 278 343 403
#     4  10  24  43  64 104 138 180 228 278 338 396
#     4  11  22  44  70  97 138 179 227 274 339 405
#     4  12  27  47  68 105 134 170 235 281 342 412
#     4  12  23  45  70  95 138 181 221 286 336 402
#     4  12  25  50  69  98 138 173 225 288 342 408
#     4  11  22  45  68  97 139 179 228 280 331 406
#     4  11  23  42  69 100 138 179 230 279 337 406
#
# _framework density 21.865773000000001
#
# number of rings (size 3 to 8) (size 9 to 14) (size 15 to 20)
#    0.000    0.750    5.000    2.625    1.750    2.000 
#    2.250    0.000    0.000    0.000    0.000    0.000 
#    0.000    0.000    0.000    0.000    0.000    0.000 
#
# Total GULP energy -89387.018159 kJ/mol
# GULP energy per Si atom -5586.688635 kJ/mol
# Density = 2.181601 g / cm^3
# Si number density = 21.865773 Si / 1000 Ang^3
#
#
#
# Elastic Constant Matrix: (Units=GPa)
#
#
# Indices 1 2 3 4 5 6 
#
# 1 100.6491 41.5211 27.2379 4.1545 -25.3039 -4.4688
# 2 41.5211 92.0551 27.1478 -17.5320 -14.4527 7.0986
# 3 27.2379 27.1478 89.9427 -26.8998 -1.8959 7.9463
# 4 4.1545 -17.5320 -26.8998 29.0837 -1.3614 0.8238
# 5 -25.3039 -14.4527 -1.8959 -1.3614 32.6560 5.3522
# 6 -4.4688 7.0986 7.9463 0.8238 5.3522 28.0847
#
#
#
# Elastic Compliance Matrix: (Units=1/GPa)
#
#
# Indices 1 2 3 4 5 6 
#
# 1 0.018276 -0.007734 -0.007786 -0.014229 0.008740 0.005817
# 2 -0.007734 0.017564 0.001900 0.013828 0.003666 -0.007312
# 3 -0.007786 0.001900 0.019681 0.020582 -0.001959 -0.007518
# 4 -0.014229 0.013828 0.020582 0.064233 0.001212 -0.013698
# 5 0.008740 0.003666 -0.001959 0.001212 0.040043 -0.006648
# 6 0.005817 -0.007312 -0.007518 -0.013698 -0.006648 0.042176
#
#
# Mechanical properties :
#
#
# Convention : Reuss Voigt Hill
#
# Bulk Modulus (GPa) = 35.35905 52.71784 44.03844
# Shear Modulus (GPa) = 20.95206 30.41421 25.68313
#
# Velocity S-wave (km/s) = 3.09886 3.73359 3.43093
# Velocity P-wave (km/s) = 5.38609 6.53822 5.98992
#
# Compressibility (1/GPa) = 0.02828131
#
# Stress axis : x y z
#
# Youngs Moduli (GPa) = 54.71727 56.93447 50.81036
#
# Poissons Ratio (x) = 0.44031 0.39559
# Poissons Ratio (y) = 0.42316 -0.09651
# Poissons Ratio (z) = 0.42601 -0.10815
#
# Static dielectric constant tensor:
#      x y z
#    x 1.793740 -0.006330 0.033760 
#    y -0.006330 1.799460 -0.006090 
#    z 0.033760 -0.006090 1.828600 
# 
# From -- ./inp_files/355957.got.cif
#   From: 2010.05.17/outbox.cif.g08.bks.cpg/sg2_178_cif.got.tgz:355957.got - 2010.06.03 11:33:40.
