data_PCOD9046650
_publ_section_title
;
Structure prediction by ZEFSAII (Michael W. Deem and Ramdas Pophale) SiO2 
 PCOD9046650
Probable space group: P -1
;
_chemical_formula_sum "Si O2"
_cell_formula_units_Z 13
_cell_length_a 8.793127
_cell_length_b 14.527788
_cell_length_c 8.531142
_cell_angle_alpha 89.150471
_cell_angle_beta 33.321618
_cell_angle_gamma 103.123398
_cell_volume 538.739473
_symmetry_space_group_name_H-M "P -1"
_symmetry_group_IT_number 2
_symmetry_cell_setting 'triclinic'
loop_
_space_group_symop_operation_xyz
x,y,z
-x,-y,-z
loop_
_atom_site_type_symbol
_atom_site_label
_atom_site_fract_x
_atom_site_fract_y
_atom_site_fract_z
Si Si1 0.262652 0.042338 0.641419
Si Si2 0.000000 0.000000 0.500000
Si Si3 0.914054 0.448755 0.878139
Si Si4 0.369148 0.269503 0.524465
Si Si5 0.662590 0.318007 0.794946
Si Si6 0.408773 0.414803 0.747292
Si Si7 0.963674 0.796659 0.500913
O O1 0.398653 0.165715 0.530451
O O2 0.136094 0.013336 0.571876
O O3 0.500000 0.000000 0.500000
O O4 0.000000 0.000000 0.000000
O O5 0.863158 0.082696 0.651391
O O6 0.841084 0.402395 0.769365
O O7 0.275941 0.493252 0.594205
O O8 0.690641 0.356587 0.182110
O O9 0.808080 0.538373 0.995189
O O10 0.275023 0.317833 0.750654
O O11 0.119823 0.246471 0.601465
O O12 0.546334 0.372685 0.768803
O O13 0.869978 0.264148 0.558948
O O14 0.363247 0.228495 0.135893
#
# Coordination Sequence:
#
# PCOD9046650 Si02
#       7
#     2   1   2   2   2   2   2
#     4  11  28  48  77 111 147 189 250 303 366 446
#     4  10  26  48  78 104 152 190 244 304 378 420
#     4  11  23  42  63  96 136 181 224 274 349 415
#     4  10  25  44  65 100 134 177 226 289 343 418
#     4  11  23  41  65  95 135 173 230 277 342 412
#     4  12  24  38  68  97 132 179 226 282 337 411
#     4  10  24  43  66  95 132 183 219 285 352 423
#
# _framework density 24.130402
#
# number of rings (size 3 to 8) (size 9 to 14) (size 15 to 20)
#    0.000    1.231    0.000    4.615    4.308   13.538 
#    0.000    0.000    0.000    0.000    0.000    0.000 
#    0.000    0.000    0.000    0.000    0.000    0.000 
#
# Total GULP energy -72537.070512 kJ/mol
# GULP energy per Si atom -5579.774655 kJ/mol
# Density = 2.407548 g / cm^3
# Si number density = 24.130402 Si / 1000 Ang^3
#
#
#
# Elastic Constant Matrix: (Units=GPa)
#
#
# Indices 1 2 3 4 5 6 
#
# 1 127.2041 88.4322 35.8084 13.3160 -5.4992 -6.2108
# 2 88.4322 142.2244 34.9184 23.8186 -6.7597 -19.4454
# 3 35.8084 34.9184 77.6176 17.8040 -18.8693 -6.2336
# 4 13.3160 23.8186 17.8040 33.5767 -11.8428 -1.0127
# 5 -5.4992 -6.7597 -18.8693 -11.8428 28.8675 8.3493
# 6 -6.2108 -19.4454 -6.2336 -1.0127 8.3493 46.6355
#
#
#
# Elastic Compliance Matrix: (Units=1/GPa)
#
#
# Indices 1 2 3 4 5 6 
#
# 1 0.014749 -0.009012 -0.003451 0.002319 0.000034 -0.002211
# 2 -0.009012 0.014711 -0.001235 -0.007318 -0.003602 0.005254
# 3 -0.003451 -0.001235 0.018231 -0.004128 0.009364 -0.000304
# 4 0.002319 -0.007318 -0.004128 0.041155 0.014351 -0.004970
# 5 0.000034 -0.003602 0.009364 0.014351 0.048294 -0.008580
# 6 -0.002211 0.005254 -0.000304 -0.004970 -0.008580 0.024727
#
#
# Mechanical properties :
#
#
# Convention : Reuss Voigt Hill
#
# Bulk Modulus (GPa) = 49.27778 73.92933 61.60356
# Shear Modulus (GPa) = 25.50648 34.34175 29.92411
#
# Velocity S-wave (km/s) = 3.25472 3.77659 3.52533
# Velocity P-wave (km/s) = 5.88133 7.05130 6.49272
#
# Compressibility (1/GPa) = 0.02029312
#
# Stress axis : x y z
#
# Youngs Moduli (GPa) = 67.80093 67.97641 54.85310
#
# Poissons Ratio (x) = 0.61263 0.18931
# Poissons Ratio (y) = 0.61105 0.06775
# Poissons Ratio (z) = 0.23399 0.08396
#
# Static dielectric constant tensor:
#      x y z
#    x 2.174680 -0.105710 -0.513810 
#    y -0.105710 1.958930 0.191500 
#    z -0.513810 0.191500 3.523520 
# 
# From -- ./inp_files/201724.got.cif
#   From: 2010.05.17/outbox.cif.g08.bks.cpg/sg2_101_cif.got.tgz:201724.got - 2010.06.03 11:33:40.
