data_PCOD9046900
_publ_section_title
;
Structure prediction by ZEFSAII (Michael W. Deem and Ramdas Pophale) SiO2 
 PCOD9046900
Probable space group: P -1
;
_chemical_formula_sum "Si O2"
_cell_formula_units_Z 12
_cell_length_a 13.960481
_cell_length_b 9.972547
_cell_length_c 5.119293
_cell_angle_alpha 117.250520
_cell_angle_beta 85.223489
_cell_angle_gamma 58.114663
_cell_volume 485.543870
_symmetry_space_group_name_H-M "P -1"
_symmetry_group_IT_number 2
_symmetry_cell_setting 'triclinic'
loop_
_space_group_symop_operation_xyz
x,y,z
-x,-y,-z
loop_
_atom_site_type_symbol
_atom_site_label
_atom_site_fract_x
_atom_site_fract_y
_atom_site_fract_z
Si Si1 0.910745 0.108005 0.363323
Si Si2 0.230399 0.432532 0.264169
Si Si3 0.521075 0.809250 0.243021
Si Si4 0.251067 0.931473 0.335978
Si Si5 0.421636 0.525276 0.784590
Si Si6 0.862204 0.648876 0.280124
O O1 0.839113 0.339986 0.577524
O O2 0.809026 0.075995 0.393798
O O3 0.000000 0.000000 0.500000
O O4 0.000000 0.000000 0.000000
O O5 0.170858 0.420371 0.525700
O O6 0.379920 0.305457 0.116227
O O7 0.215494 0.331225 0.934765
O O8 0.383946 0.881515 0.281923
O O9 0.582729 0.646582 0.312016
O O10 0.500000 0.000000 0.500000
O O11 0.161883 0.153278 0.456938
O O12 0.288032 0.742363 0.003264
O O13 0.500000 0.500000 0.500000
O O14 0.500000 0.500000 0.000000
O O15 0.000000 0.500000 0.000000
#
# Coordination Sequence:
#
# PCOD9046900 Si02
#       6
#     2   2   2   2   2   2
#     4  12  27  50  77 106 144 193 245 301 361 432
#     4  12  26  48  73 109 146 188 244 304 359 435
#     4  11  24  48  74 110 149 190 240 302 370 433
#     4  11  25  47  75 108 145 194 241 301 367 432
#     4  10  24  43  69 102 139 184 235 289 355 425
#     4  12  27  47  74 105 147 195 246 297 359 430
#
# _framework density 24.714552000000001
#
# number of rings (size 3 to 8) (size 9 to 14) (size 15 to 20)
#    0.000    0.667    3.333    3.500    2.333    7.333 
#    0.000    0.000    0.000    0.000    0.000    0.000 
#    0.000    0.000    0.000    0.000    0.000    0.000 
#
# Total GULP energy -67171.593324 kJ/mol
# GULP energy per Si atom -5597.632777 kJ/mol
# Density = 2.465830 g / cm^3
# Si number density = 24.714552 Si / 1000 Ang^3
#
#
#
# Elastic Constant Matrix: (Units=GPa)
#
#
# Indices 1 2 3 4 5 6 
#
# 1 72.6573 33.7329 44.3625 -12.1173 -27.4790 7.3222
# 2 33.7329 186.9397 110.4570 13.7809 -13.0174 41.7472
# 3 44.3625 110.4570 192.1861 -7.9487 -41.7882 4.9296
# 4 -12.1173 13.7809 -7.9487 77.7126 0.5822 2.3340
# 5 -27.4790 -13.0174 -41.7882 0.5822 56.4539 -7.9365
# 6 7.3222 41.7472 4.9296 2.3340 -7.9365 40.3028
#
#
#
# Elastic Compliance Matrix: (Units=1/GPa)
#
#
# Indices 1 2 3 4 5 6 
#
# 1 0.019142 -0.002770 -0.000961 0.003290 0.008061 0.000906
# 2 -0.002770 0.013622 -0.008335 -0.003244 -0.006260 -0.013632
# 3 -0.000961 -0.008335 0.011710 0.002208 0.007482 0.008722
# 4 0.003290 -0.003244 0.002208 0.014096 0.002651 0.002198
# 5 0.008061 -0.006260 0.007482 0.002651 0.027007 0.009270
# 6 0.000906 -0.013632 0.008722 0.002198 0.009270 0.039400
#
#
# Mechanical properties :
#
#
# Convention : Reuss Voigt Hill
#
# Bulk Modulus (GPa) = 49.16052 92.09863 70.62958
# Shear Modulus (GPa) = 32.07405 52.44257 42.25831
#
# Velocity S-wave (km/s) = 3.60638 4.61144 4.13953
# Velocity P-wave (km/s) = 6.10539 8.10553 7.17550
#
# Compressibility (1/GPa) = 0.02034153
#
# Stress axis : x y z
#
# Youngs Moduli (GPa) = 52.24133 73.41283 85.39628
#
# Poissons Ratio (x) = 0.20333 0.08209
# Poissons Ratio (y) = 0.14469 0.71180
# Poissons Ratio (z) = 0.05022 0.61191
#
# Static dielectric constant tensor:
#      x y z
#    x 2.077820 -0.003560 0.032300 
#    y -0.003560 2.603800 1.367030 
#    z 0.032300 1.367030 4.680850 
# 
# From -- ./inp_files/89958.got.cif
#   From: 2010.05.17/outbox.cif.g08.bks.cpg/sg2_45_cif.got.tgz:89958.got - 2010.06.03 11:33:40.
