data_PCOD9046605
_publ_section_title
;
Structure prediction by ZEFSAII (Michael W. Deem and Ramdas Pophale) SiO2 
 PCOD9046605
Probable space group: P -1
;
_chemical_formula_sum "Si O2"
_cell_formula_units_Z 16
_cell_length_a 9.205076
_cell_length_b 16.680046
_cell_length_c 6.895695
_cell_angle_alpha 74.647230
_cell_angle_beta 91.175573
_cell_angle_gamma 46.072849
_cell_volume 702.840159
_symmetry_space_group_name_H-M "P -1"
_symmetry_group_IT_number 2
_symmetry_cell_setting 'triclinic'
loop_
_space_group_symop_operation_xyz
x,y,z
-x,-y,-z
loop_
_atom_site_type_symbol
_atom_site_label
_atom_site_fract_x
_atom_site_fract_y
_atom_site_fract_z
Si Si1 0.779271 0.031762 0.270804
Si Si2 0.254646 0.386984 0.562073
Si Si3 0.107489 0.827518 0.723007
Si Si4 0.101928 0.280553 0.512596
Si Si5 0.362040 0.473745 0.774143
Si Si6 0.462149 0.428729 0.246607
Si Si7 0.372150 0.113026 0.284153
Si Si8 0.876430 0.866141 0.059606
O O1 0.842041 0.966436 0.107758
O O2 0.912452 0.925593 0.507564
O O3 0.827848 0.107255 0.252169
O O4 0.531346 0.120524 0.235375
O O5 0.266851 0.284165 0.581368
O O6 0.386555 0.370107 0.757603
O O7 0.338940 0.412832 0.380208
O O8 0.000000 0.500000 0.500000
O O9 0.298107 0.702754 0.697763
O O10 0.051494 0.803698 0.936522
O O11 0.175824 0.223127 0.337041
O O12 0.094879 0.213135 0.719574
O O13 0.863018 0.409148 0.396165
O O14 0.521944 0.483539 0.727949
O O15 0.355886 0.475304 0.003843
O O16 0.500000 0.000000 0.500000
O O17 0.316016 0.086739 0.106336
#
# Coordination Sequence:
#
# PCOD9046605 Si02
#       8
#     2   2   2   2   2   2   2   2
#     4  11  24  43  65  98 137 172 225 274 323 392
#     4  10  24  43  65  97 128 170 218 272 321 385
#     4  11  25  43  66  97 134 176 220 275 327 389
#     4  11  25  42  67  98 136 172 218 274 325 392
#     4  10  24  44  68  98 130 173 222 270 323 391
#     4  11  23  44  70  94 133 174 217 269 334 386
#     4  12  23  42  66  96 131 175 217 267 329 391
#     4  12  23  42  67  95 134 177 221 265 335 390
#
# _framework density 22.764778
#
# number of rings (size 3 to 8) (size 9 to 14) (size 15 to 20)
#    0.000    1.000    2.500    3.375    0.000   12.000 
#    0.000    0.000    0.000    0.000    0.000    0.000 
#    0.000    0.000    0.000    0.000    0.000    0.000 
#
# Total GULP energy -89392.221387 kJ/mol
# GULP energy per Si atom -5587.013837 kJ/mol
# Density = 2.271296 g / cm^3
# Si number density = 22.764778 Si / 1000 Ang^3
#
#
#
# Elastic Constant Matrix: (Units=GPa)
#
#
# Indices 1 2 3 4 5 6 
#
# 1 157.4512 13.0280 33.8632 16.3349 -1.7758 22.7233
# 2 13.0280 36.3148 4.0849 9.4862 -4.6266 2.9243
# 3 33.8632 4.0849 86.2143 17.2661 15.8156 -0.4570
# 4 16.3349 9.4862 17.2661 33.8302 -4.5021 5.1482
# 5 -1.7758 -4.6266 15.8156 -4.5021 44.0655 23.9221
# 6 22.7233 2.9243 -0.4570 5.1482 23.9221 39.6891
#
#
#
# Elastic Compliance Matrix: (Units=1/GPa)
#
#
# Indices 1 2 3 4 5 6 
#
# 1 0.008910 -0.001182 -0.005074 0.001082 0.007427 -0.009689
# 2 -0.001182 0.030608 -0.000518 -0.006611 0.004565 -0.003478
# 3 -0.005074 -0.000518 0.018878 -0.011320 -0.015910 0.014218
# 4 0.001082 -0.006611 -0.011320 0.041076 0.015821 -0.015127
# 5 0.007427 0.004565 -0.015910 0.015821 0.051284 -0.037734
# 6 -0.009689 -0.003478 0.014218 -0.015127 -0.037734 0.055869
#
#
# Mechanical properties :
#
#
# Convention : Reuss Voigt Hill
#
# Bulk Modulus (GPa) = 22.29768 42.43696 32.36732
# Shear Modulus (GPa) = 21.26560 38.78392 30.02476
#
# Velocity S-wave (km/s) = 3.05969 4.13204 3.63562
# Velocity P-wave (km/s) = 4.72212 6.43794 5.64559
#
# Compressibility (1/GPa) = 0.04484772
#
# Stress axis : x y z
#
# Youngs Moduli (GPa) = 112.23114 32.67144 52.97280
#
# Poissons Ratio (x) = 0.03861 0.26879
# Poissons Ratio (y) = 0.13264 0.02743
# Poissons Ratio (z) = 0.56948 0.01692
#
# Static dielectric constant tensor:
#      x y z
#    x 1.892030 0.014230 0.008720 
#    y 0.014230 1.930150 0.044810 
#    z 0.008720 0.044810 1.829970 
# 
# From -- ./inp_files/47467.got.cif
#   From: 2010.05.17/outbox.cif.g08.bks.cpg/sg2_24_cif.got.tgz:47467.got - 2010.06.03 11:33:40.
