data_PCOD9046003
_publ_section_title
;
Structure prediction by ZEFSAII (Michael W. Deem and Ramdas Pophale) SiO2 
 PCOD9046003
Probable space group: P -1
;
_chemical_formula_sum "Si O2"
_cell_formula_units_Z 14
_cell_length_a 8.421709
_cell_length_b 13.959878
_cell_length_c 7.321482
_cell_angle_alpha 73.440991
_cell_angle_beta 119.492345
_cell_angle_gamma 68.347392
_cell_volume 568.830105
_symmetry_space_group_name_H-M "P -1"
_symmetry_group_IT_number 2
_symmetry_cell_setting 'triclinic'
loop_
_space_group_symop_operation_xyz
x,y,z
-x,-y,-z
loop_
_atom_site_type_symbol
_atom_site_label
_atom_site_fract_x
_atom_site_fract_y
_atom_site_fract_z
Si Si1 0.183771 0.422582 0.987237
Si Si2 0.260178 0.183546 0.171615
Si Si3 0.161106 0.788151 0.948019
Si Si4 0.138440 0.020199 0.790924
Si Si5 0.588141 0.925526 0.315214
Si Si6 0.313524 0.734518 0.450198
Si Si7 0.233158 0.608124 0.758043
O O1 0.169468 0.314971 0.962663
O O2 0.444080 0.336907 0.266728
O O3 0.132940 0.530928 0.764081
O O4 0.000000 0.500000 0.000000
O O5 0.330230 0.175214 0.426486
O O6 0.070032 0.161203 0.097280
O O7 0.477718 0.063460 0.261534
O O8 0.182999 0.697659 0.854070
O O9 0.145201 0.903472 0.788075
O O10 0.342345 0.722268 0.254206
O O11 0.200513 0.098778 0.664992
O O12 0.887329 0.118684 0.687696
O O13 0.373562 0.946134 0.084164
O O14 0.209151 0.668343 0.516415
O O15 0.500000 0.500000 0.000000
#
# Coordination Sequence:
#
# PCOD9046003 Si02
#       7
#     2   2   2   2   2   2   2
#     4  11  24  45  67  95 135 180 229 284 330 392
#     4  11  23  41  69  98 133 182 219 275 342 398
#     4  12  24  44  71 103 135 179 227 274 344 402
#     4  11  24  42  66 105 137 175 220 279 340 410
#     4  10  24  42  66 101 142 169 218 277 344 406
#     4  11  25  45  71  97 140 176 226 282 336 403
#     4  10  25  45  67  96 135 178 232 277 329 394
#
# _framework density 24.611920999999999
#
# number of rings (size 3 to 8) (size 9 to 14) (size 15 to 20)
#    0.000    1.143    2.857    2.143    8.000    3.429 
#    0.000    0.714    0.000    0.000    0.000    0.000 
#    0.000    0.000    0.000    0.000    0.000    0.000 
#
# Total GULP energy -78136.069946 kJ/mol
# GULP energy per Si atom -5581.147853 kJ/mol
# Density = 2.455590 g / cm^3
# Si number density = 24.611921 Si / 1000 Ang^3
#
#
#
# Elastic Constant Matrix: (Units=GPa)
#
#
# Indices 1 2 3 4 5 6 
#
# 1 91.4611 27.3198 17.4588 -14.9102 3.1617 12.7081
# 2 27.3198 83.9371 37.9490 -26.3622 -7.1914 19.8497
# 3 17.4588 37.9490 72.6626 -5.7056 -5.4982 6.0831
# 4 -14.9102 -26.3622 -5.7056 31.9960 9.7985 -5.6162
# 5 3.1617 -7.1914 -5.4982 9.7985 56.2429 -19.1271
# 6 12.7081 19.8497 6.0831 -5.6162 -19.1271 41.7520
#
#
#
# Elastic Compliance Matrix: (Units=1/GPa)
#
#
# Indices 1 2 3 4 5 6 
#
# 1 0.013180 -0.000993 -0.002150 0.005261 -0.003377 -0.004066
# 2 -0.000993 0.024308 -0.010632 0.017282 -0.004023 -0.009223
# 3 -0.002150 -0.010632 0.019251 -0.006640 0.002943 0.003359
# 4 0.005261 0.017282 -0.006640 0.048485 -0.009445 -0.006655
# 5 -0.003377 -0.004023 0.002943 -0.009445 0.023467 0.011992
# 6 -0.004066 -0.009223 0.003359 -0.006655 0.011992 0.033682
#
#
# Mechanical properties :
#
#
# Convention : Reuss Voigt Hill
#
# Bulk Modulus (GPa) = 34.25943 45.94622 40.10283
# Shear Modulus (GPa) = 25.04334 37.02039 31.03186
#
# Velocity S-wave (km/s) = 3.19333 3.88256 3.55469
# Velocity P-wave (km/s) = 5.24848 6.22960 5.75997
#
# Compressibility (1/GPa) = 0.02918904
#
# Stress axis : x y z
#
# Youngs Moduli (GPa) = 75.87242 41.13855 51.94409
#
# Poissons Ratio (x) = 0.04087 0.11168
# Poissons Ratio (y) = 0.07538 0.55226
# Poissons Ratio (z) = 0.16313 0.43738
#
# Static dielectric constant tensor:
#      x y z
#    x 2.023840 0.016440 0.013770 
#    y 0.016440 2.031860 0.012820 
#    z 0.013770 0.012820 2.070100 
# 
# From -- ./inp_files/206029.got.cif
#   From: 2010.05.17/outbox.cif.g08.bks.cpg/sg2_104_cif.got.tgz:206029.got - 2010.06.03 11:33:40.
