data_PCOD9046973
_publ_section_title
;
Structure prediction by ZEFSAII (Michael W. Deem and Ramdas Pophale) SiO2 
 PCOD9046973
Probable space group: P -1
;
_chemical_formula_sum "Si O2"
_cell_formula_units_Z 14
_cell_length_a 16.963749
_cell_length_b 9.392821
_cell_length_c 5.358027
_cell_angle_alpha 101.854119
_cell_angle_beta 109.987546
_cell_angle_gamma 46.580277
_cell_volume 582.204018
_symmetry_space_group_name_H-M "P -1"
_symmetry_group_IT_number 2
_symmetry_cell_setting 'triclinic'
loop_
_space_group_symop_operation_xyz
x,y,z
-x,-y,-z
loop_
_atom_site_type_symbol
_atom_site_label
_atom_site_fract_x
_atom_site_fract_y
_atom_site_fract_z
Si Si1 0.639010 0.344977 0.600815
Si Si2 0.167047 0.677667 0.141586
Si Si3 0.194119 0.341547 0.239373
Si Si4 0.440685 0.014835 0.190997
Si Si5 0.605266 0.266325 0.028403
Si Si6 0.116094 0.294455 0.636112
Si Si7 0.977497 0.904561 0.646424
O O1 0.500000 0.500000 0.500000
O O2 0.700476 0.429139 0.731425
O O3 0.669824 0.229132 0.337039
O O4 0.675310 0.216612 0.839222
O O5 0.148828 0.561070 0.263844
O O6 0.105701 0.903932 0.199845
O O7 0.096993 0.714722 0.831006
O O8 0.313957 0.212614 0.180176
O O9 0.198514 0.263039 0.491870
O O10 0.131838 0.317638 0.952193
O O11 0.500000 0.000000 0.500000
O O12 0.500000 0.000000 0.000000
O O13 0.438577 0.844255 0.088500
O O14 0.500000 0.500000 0.000000
O O15 0.092543 0.151781 0.538373
O O16 0.000000 0.500000 0.500000
O O17 0.000000 0.000000 0.500000
#
# Coordination Sequence:
#
# PCOD9046973 Si02
#       7
#     2   2   2   2   2   2   2
#     4  10  24  43  72 106 141 188 241 302 362 437
#     4  11  27  45  75 107 147 194 254 304 376 446
#     4  12  29  47  76 112 148 206 248 306 384 451
#     4  12  28  48  72 107 153 195 251 308 366 447
#     4  10  24  43  69  99 141 189 239 293 371 418
#     4  12  26  50  75 107 155 189 249 312 386 443
#     4  11  27  47  75 111 147 193 251 317 372 449
#
# _framework density 24.046552999999999
#
# number of rings (size 3 to 8) (size 9 to 14) (size 15 to 20)
#    0.000    0.857    1.429    3.000   18.000    0.000 
#    0.000    0.000    0.000    0.000    0.000    0.000 
#    0.000    0.000    0.000    0.000    0.000    0.000 
#
# Total GULP energy -78105.469061 kJ/mol
# GULP energy per Si atom -5578.962076 kJ/mol
# Density = 2.399182 g / cm^3
# Si number density = 24.046553 Si / 1000 Ang^3
#
#
#
# Elastic Constant Matrix: (Units=GPa)
#
#
# Indices 1 2 3 4 5 6 
#
# 1 143.1957 32.3525 51.8339 8.0157 -6.6113 28.6783
# 2 32.3525 89.9344 21.3614 16.8166 15.4084 17.8582
# 3 51.8339 21.3614 146.5492 12.1274 -5.9954 12.0271
# 4 8.0157 16.8166 12.1274 24.7593 4.0500 14.5629
# 5 -6.6113 15.4084 -5.9954 4.0500 55.4973 -0.3804
# 6 28.6783 17.8582 12.0271 14.5629 -0.3804 61.0457
#
#
#
# Elastic Compliance Matrix: (Units=1/GPa)
#
#
# Indices 1 2 3 4 5 6 
#
# 1 0.009191 -0.002564 -0.002694 0.001914 0.001352 -0.003485
# 2 -0.002564 0.014467 -0.000655 -0.007356 -0.003864 -0.001168
# 3 -0.002694 -0.000655 0.008125 -0.003188 0.000976 0.000623
# 4 0.001914 -0.007356 -0.003188 0.052994 -0.002015 -0.010774
# 5 0.001352 -0.003864 0.000976 -0.002015 0.019511 0.000905
# 6 -0.003485 -0.001168 0.000623 -0.010774 0.000905 0.020813
#
#
# Mechanical properties :
#
#
# Convention : Reuss Voigt Hill
#
# Bulk Modulus (GPa) = 50.11187 65.64164 57.87676
# Shear Modulus (GPa) = 34.82390 46.53590 40.67990
#
# Velocity S-wave (km/s) = 3.80963 4.40391 4.11751
# Velocity P-wave (km/s) = 6.34317 7.29495 6.83564
#
# Compressibility (1/GPa) = 0.01995535
#
# Stress axis : x y z
#
# Youngs Moduli (GPa) = 108.79862 69.12499 123.08118
#
# Poissons Ratio (x) = 0.17724 0.33161
# Poissons Ratio (y) = 0.27896 0.08066
# Poissons Ratio (z) = 0.29313 0.04530
#
# Static dielectric constant tensor:
#      x y z
#    x 2.061180 -0.132010 -0.001750 
#    y -0.132010 2.007180 -0.102310 
#    z -0.001750 -0.102310 1.913400 
# 
# From -- ./inp_files/107422.got.cif
#   From: 2010.05.17/outbox.cif.g08.bks.cpg/sg2_54_cif.got.tgz:107422.got - 2010.06.03 11:33:40.
