data_PCOD9046925
_publ_section_title
;
Structure prediction by ZEFSAII (Michael W. Deem and Ramdas Pophale) SiO2 
 PCOD9046925
Probable space group: P -1
;
_chemical_formula_sum "Si O2"
_cell_formula_units_Z 16
_cell_length_a 19.238244
_cell_length_b 5.314423
_cell_length_c 8.620585
_cell_angle_alpha 66.426213
_cell_angle_beta 125.521254
_cell_angle_gamma 108.159627
_cell_volume 653.755609
_symmetry_space_group_name_H-M "P -1"
_symmetry_group_IT_number 2
_symmetry_cell_setting 'triclinic'
loop_
_space_group_symop_operation_xyz
x,y,z
-x,-y,-z
loop_
_atom_site_type_symbol
_atom_site_label
_atom_site_fract_x
_atom_site_fract_y
_atom_site_fract_z
Si Si1 0.676033 0.004169 0.409611
Si Si2 0.555125 0.290011 0.529582
Si Si3 0.882094 0.385703 0.124405
Si Si4 0.276822 0.401061 0.816507
Si Si5 0.573330 0.648673 0.165315
Si Si6 0.289653 0.420462 0.194251
Si Si7 0.838951 0.948182 0.433198
Si Si8 0.985049 0.957995 0.174476
O O1 0.583227 0.907333 0.234543
O O2 0.681848 0.855144 0.619242
O O3 0.758746 0.891408 0.459052
O O4 0.697917 0.318319 0.313496
O O5 0.500000 0.500000 0.500000
O O6 0.582221 0.415449 0.365760
O O7 0.644028 0.321071 0.731534
O O8 0.500000 0.000000 0.500000
O O9 0.947288 0.637022 0.211615
O O10 0.840502 0.216823 0.259798
O O11 0.923805 0.169906 0.119484
O O12 0.806693 0.520370 0.903823
O O13 0.352087 0.235501 0.886114
O O14 0.182200 0.290017 0.663353
O O15 0.288908 0.397414 0.014681
O O16 0.500000 0.500000 0.000000
O O17 0.926686 0.975358 0.633316
O O18 0.000000 0.000000 0.000000
#
# Coordination Sequence:
#
# PCOD9046925 Si02
#       8
#     2   2   2   2   2   2   2   2
#     4  10  24  45  70 106 145 194 250 304 374 441
#     4  11  27  46  73 110 147 194 249 309 368 440
#     4  12  26  48  76 110 148 202 246 307 380 441
#     4  11  24  47  75 106 148 201 246 311 379 439
#     4  10  24  43  69 106 146 194 250 309 376 446
#     4  11  25  49  75 109 149 197 253 307 375 453
#     4  11  25  47  72 109 147 192 251 307 367 453
#     4  12  28  49  75 113 151 196 251 310 375 447
#
# _framework density 24.473976
#
# number of rings (size 3 to 8) (size 9 to 14) (size 15 to 20)
#    0.000    1.000    1.250    3.375    7.000    2.500 
#   18.000    0.000    0.000    0.000    0.000    0.000 
#    0.000    0.000    0.000    0.000    0.000    0.000 
#
# Total GULP energy -89304.462484 kJ/mol
# GULP energy per Si atom -5581.528905 kJ/mol
# Density = 2.441827 g / cm^3
# Si number density = 24.473976 Si / 1000 Ang^3
#
#
#
# Elastic Constant Matrix: (Units=GPa)
#
#
# Indices 1 2 3 4 5 6 
#
# 1 89.1317 18.3155 41.2903 12.9136 -28.6596 -6.0060
# 2 18.3155 188.8560 72.0950 28.1399 -20.6581 23.7008
# 3 41.2903 72.0950 170.4534 31.8171 -20.2103 7.9322
# 4 12.9136 28.1399 31.8171 47.9249 17.3050 0.5022
# 5 -28.6596 -20.6581 -20.2103 17.3050 37.6256 8.2948
# 6 -6.0060 23.7008 7.9322 0.5022 8.2948 38.7272
#
#
#
# Elastic Compliance Matrix: (Units=1/GPa)
#
#
# Indices 1 2 3 4 5 6 
#
# 1 0.022199 0.004645 0.000037 -0.019363 0.029597 -0.005496
# 2 0.004645 0.009706 -0.000684 -0.012162 0.015931 -0.008334
# 3 0.000037 -0.000684 0.009105 -0.009024 0.009431 -0.003344
# 4 -0.019363 -0.012162 -0.009024 0.059884 -0.057759 0.017883
# 5 0.029597 0.015931 0.009431 -0.057759 0.095402 -0.026776
# 6 -0.005496 -0.008334 -0.003344 0.017883 -0.026776 0.036258
#
#
# Mechanical properties :
#
#
# Convention : Reuss Voigt Hill
#
# Bulk Modulus (GPa) = 20.40466 79.09365 49.74915
# Shear Modulus (GPa) = 20.75603 45.97155 33.36379
#
# Velocity S-wave (km/s) = 2.91535 4.33874 3.69621
# Velocity P-wave (km/s) = 4.43709 7.58203 6.21188
#
# Compressibility (1/GPa) = 0.04900842
#
# Stress axis : x y z
#
# Youngs Moduli (GPa) = 45.04618 103.02575 109.82880
#
# Poissons Ratio (x) = -0.47859 -0.00407
# Poissons Ratio (y) = -0.20925 0.07508
# Poissons Ratio (z) = -0.00167 0.07043
#
# Static dielectric constant tensor:
#      x y z
#    x 2.169970 -0.112410 0.011180 
#    y -0.112410 2.046440 -0.000050 
#    z 0.011180 -0.000050 1.950540 
# 
# From -- ./inp_files/340197.got.cif
#   From: 2010.05.17/outbox.cif.g08.bks.cpg/sg2_171_cif.got.tgz:340197.got - 2010.06.03 11:33:40.
