data_PCOD9046830
_publ_section_title
;
Structure prediction by ZEFSAII (Michael W. Deem and Ramdas Pophale) SiO2 
 PCOD9046830
Probable space group: P -1
;
_chemical_formula_sum "Si O2"
_cell_formula_units_Z 16
_cell_length_a 17.434759
_cell_length_b 20.405471
_cell_length_c 9.168970
_cell_angle_alpha 134.044326
_cell_angle_beta 122.925736
_cell_angle_gamma 20.790707
_cell_volume 756.461238
_symmetry_space_group_name_H-M "P -1"
_symmetry_group_IT_number 2
_symmetry_cell_setting 'triclinic'
loop_
_space_group_symop_operation_xyz
x,y,z
-x,-y,-z
loop_
_atom_site_type_symbol
_atom_site_label
_atom_site_fract_x
_atom_site_fract_y
_atom_site_fract_z
Si Si1 0.479302 0.703528 0.041581
Si Si2 0.212798 0.918518 0.557833
Si Si3 0.243872 0.269816 0.302659
Si Si4 0.232720 0.695778 0.124732
Si Si5 0.953006 0.148852 0.147023
Si Si6 0.772216 0.759600 0.096234
Si Si7 0.575337 0.534182 0.586350
Si Si8 0.559586 0.137354 0.493421
O O1 0.539154 0.729646 0.252974
O O2 0.522499 0.571224 0.976352
O O3 0.604055 0.571071 0.812560
O O4 0.205429 0.964329 0.119091
O O5 0.206228 0.827785 0.326779
O O6 0.371127 0.757446 0.614967
O O7 0.325951 0.889480 0.526939
O O8 0.957363 0.173574 0.758522
O O9 0.348651 0.276407 0.410954
O O10 0.000000 0.500000 0.500000
O O11 0.487492 0.994486 0.190074
O O12 0.198975 0.272492 0.099030
O O13 0.179901 0.719059 0.940125
O O14 0.806651 0.319167 0.395188
O O15 0.000000 0.000000 0.000000
O O16 0.758637 0.876321 0.318105
O O17 0.000000 0.500000 0.000000
O O18 0.500000 0.500000 0.500000
#
# Coordination Sequence:
#
# PCOD9046830 Si02
#       8
#     2   2   2   2   2   2   2   2
#     4  12  25  43  60 102 135 179 246 283 338 400
#     4  11  22  42  66  97 138 187 245 284 340 403
#     4   9  21  47  77 106 141 180 222 285 374 450
#     4  11  24  41  67  89 138 203 225 285 351 388
#     4  12  23  40  62  88 129 185 241 286 334 402
#     4   9  21  48  77 106 139 182 222 288 379 443
#     4  12  23  42  63  91 137 194 240 282 341 399
#     4  10  24  43  68 107 138 176 236 299 340 427
#
# _framework density 21.151115000000001
#
# number of rings (size 3 to 8) (size 9 to 14) (size 15 to 20)
#    0.750    0.500    3.750    1.500    3.500    3.000 
#    4.500    1.250    0.000    0.000    0.000    0.000 
#    0.000    0.000    0.000    0.000    0.000    0.000 
#
# Total GULP energy -89264.607471 kJ/mol
# GULP energy per Si atom -5579.037967 kJ/mol
# Density = 2.110297 g / cm^3
# Si number density = 21.151115 Si / 1000 Ang^3
#
#
#
# Elastic Constant Matrix: (Units=GPa)
#
#
# Indices 1 2 3 4 5 6 
#
# 1 56.2147 27.1322 42.1184 6.2138 -9.2551 -3.9573
# 2 27.1322 110.5784 45.2245 15.9200 -13.9828 21.1920
# 3 42.1184 45.2245 178.6328 -7.2007 -26.6120 2.9951
# 4 6.2138 15.9200 -7.2007 38.7344 -6.1383 -4.3885
# 5 -9.2551 -13.9828 -26.6120 -6.1383 31.5245 2.5867
# 6 -3.9573 21.1920 2.9951 -4.3885 2.5867 25.6537
#
#
#
# Elastic Compliance Matrix: (Units=1/GPa)
#
#
# Indices 1 2 3 4 5 6 
#
# 1 0.024759 -0.005664 -0.004640 -0.001539 -0.000182 0.008795
# 2 -0.005664 0.015658 -0.002170 -0.007118 0.003304 -0.015106
# 3 -0.004640 -0.002170 0.008199 0.004041 0.005361 0.000270
# 4 -0.001539 -0.007118 0.004041 0.031698 0.005147 0.010075
# 5 -0.000182 0.003304 0.005361 0.005147 0.039191 -0.006454
# 6 0.008795 -0.015106 0.000270 0.010075 -0.006454 0.055159
#
#
# Mechanical properties :
#
#
# Convention : Reuss Voigt Hill
#
# Bulk Modulus (GPa) = 42.25405 63.81956 53.03680
# Shear Modulus (GPa) = 24.09620 34.57923 29.33772
#
# Velocity S-wave (km/s) = 3.37893 4.04773 3.72836
# Velocity P-wave (km/s) = 5.93662 7.21694 6.60786
#
# Compressibility (1/GPa) = 0.02366637
#
# Stress axis : x y z
#
# Youngs Moduli (GPa) = 40.38976 63.86322 121.97279
#
# Poissons Ratio (x) = 0.36174 0.56599
# Poissons Ratio (y) = 0.22878 0.26470
# Poissons Ratio (z) = 0.18742 0.13860
#
# Static dielectric constant tensor:
#      x y z
#    x 1.625690 0.137740 0.103520 
#    y 0.137740 1.675770 -0.072470 
#    z 0.103520 -0.072470 1.757870 
# 
# From -- ./inp_files/337836.got.cif
#   From: 2010.05.17/outbox.cif.g08.bks.cpg/sg2_169_cif.got.tgz:337836.got - 2010.06.03 11:33:40.
