data_PCOD9046962
_publ_section_title
;
Structure prediction by ZEFSAII (Michael W. Deem and Ramdas Pophale) SiO2 
 PCOD9046962
Probable space group: P -1
;
_chemical_formula_sum "Si O2"
_cell_formula_units_Z 16
_cell_length_a 22.903589
_cell_length_b 10.201684
_cell_length_c 6.368245
_cell_angle_alpha 135.394357
_cell_angle_beta 121.172063
_cell_angle_gamma 38.531006
_cell_volume 648.264751
_symmetry_space_group_name_H-M "P -1"
_symmetry_group_IT_number 2
_symmetry_cell_setting 'triclinic'
loop_
_space_group_symop_operation_xyz
x,y,z
-x,-y,-z
loop_
_atom_site_type_symbol
_atom_site_label
_atom_site_fract_x
_atom_site_fract_y
_atom_site_fract_z
Si Si1 0.444159 0.937248 0.216707
Si Si2 0.758645 0.993588 0.136695
Si Si3 0.891603 0.489363 0.538175
Si Si4 0.281030 0.425567 0.719224
Si Si5 0.379927 0.630308 0.034688
Si Si6 0.081974 0.039479 0.619190
Si Si7 0.024774 0.806232 0.012241
Si Si8 0.343443 0.042268 0.749625
O O1 0.500000 0.000000 0.500000
O O2 0.341463 0.179774 0.393390
O O3 0.512877 0.640976 0.071439
O O4 0.428665 0.947073 0.950418
O O5 0.732258 0.911520 0.185858
O O6 0.664159 0.238679 0.124411
O O7 0.823451 0.044688 0.379494
O O8 0.823841 0.769129 0.830146
O O9 0.827084 0.423048 0.352149
O O10 0.988992 0.299344 0.630462
O O11 0.694325 0.708565 0.161943
O O12 0.316283 0.571381 0.927136
O O13 0.080320 0.543441 0.691075
O O14 0.370269 0.827830 0.392329
O O15 0.060018 0.104401 0.899309
O O16 0.083566 0.820214 0.301927
O O17 0.000000 0.000000 0.000000
#
# Coordination Sequence:
#
# PCOD9046962 Si02
#       8
#     2   2   2   2   2   2   2   2
#     4  10  24  49  75 105 144 184 237 293 360 428
#     4  12  27  45  67 110 146 184 240 292 354 422
#     4  11  23  45  67  98 141 188 232 293 344 417
#     4  11  26  47  74 105 144 188 242 293 356 421
#     4  11  27  45  74 106 142 189 234 299 354 428
#     4  10  24  43  69  98 141 192 235 289 356 412
#     4   9  22  41  66 100 133 181 241 293 344 414
#     4  12  25  48  72 106 146 183 241 287 361 423
#
# _framework density 24.681273999999998
#
# number of rings (size 3 to 8) (size 9 to 14) (size 15 to 20)
#    0.000    1.250    2.500    0.750    8.750    8.500 
#    0.000    0.000    0.000    0.000    0.000    0.000 
#    0.000    0.000    0.000    0.000    0.000    0.000 
#
# Total GULP energy -89439.771802 kJ/mol
# GULP energy per Si atom -5589.985738 kJ/mol
# Density = 2.462510 g / cm^3
# Si number density = 24.681274 Si / 1000 Ang^3
#
#
#
# Elastic Constant Matrix: (Units=GPa)
#
#
# Indices 1 2 3 4 5 6 
#
# 1 93.8499 9.0353 14.3193 -12.4550 11.1456 -0.2542
# 2 9.0353 133.5003 9.7804 -18.0781 1.6597 -7.9885
# 3 14.3193 9.7804 80.3845 -0.0655 -3.6514 0.5238
# 4 -12.4550 -18.0781 -0.0655 36.4427 -5.2420 -1.5237
# 5 11.1456 1.6597 -3.6514 -5.2420 41.7180 -3.5089
# 6 -0.2542 -7.9885 0.5238 -1.5237 -3.5089 44.8033
#
#
#
# Elastic Compliance Matrix: (Units=1/GPa)
#
#
# Indices 1 2 3 4 5 6 
#
# 1 0.011823 -0.000122 -0.002220 0.003557 -0.002904 -0.000035
# 2 -0.000122 0.008226 -0.000974 0.004146 0.000279 0.001640
# 3 -0.002220 -0.000974 0.013029 -0.000995 0.001627 -0.000245
# 4 0.003557 0.004146 -0.000995 0.031213 0.002893 0.002059
# 5 -0.002904 0.000279 0.001627 0.002893 0.025418 0.002103
# 6 -0.000035 0.001640 -0.000245 0.002059 0.002103 0.022850
#
#
# Mechanical properties :
#
#
# Convention : Reuss Voigt Hill
#
# Bulk Modulus (GPa) = 37.81223 41.55607 39.68415
# Shear Modulus (GPa) = 39.06082 42.89945 40.98014
#
# Velocity S-wave (km/s) = 3.98252 4.17362 4.07919
# Velocity P-wave (km/s) = 6.04158 6.33239 6.18869
#
# Compressibility (1/GPa) = 0.02644647
#
# Stress axis : x y z
#
# Youngs Moduli (GPa) = 84.58373 121.56062 76.75291
#
# Poissons Ratio (x) = 0.01481 0.17039
# Poissons Ratio (y) = 0.01031 0.07474
# Poissons Ratio (z) = 0.18777 0.11838
#
# Static dielectric constant tensor:
#      x y z
#    x 2.045500 -0.026030 0.028360 
#    y -0.026030 1.991740 -0.018710 
#    z 0.028360 -0.018710 2.015530 
# 
# From -- ./inp_files/126949.got.cif
#   From: 2010.05.17/outbox.cif.g08.bks.cpg/sg2_64_cif.got.tgz:126949.got - 2010.06.03 11:33:40.
