data_PCOD9046847
_publ_section_title
;
Structure prediction by ZEFSAII (Michael W. Deem and Ramdas Pophale) SiO2 
 PCOD9046847
Probable space group: P -1
;
_chemical_formula_sum "Si O2"
_cell_formula_units_Z 16
_cell_length_a 16.996083
_cell_length_b 17.547001
_cell_length_c 13.252072
_cell_angle_alpha 45.750975
_cell_angle_beta 155.236160
_cell_angle_gamma 150.150662
_cell_volume 743.615786
_symmetry_space_group_name_H-M "P -1"
_symmetry_group_IT_number 2
_symmetry_cell_setting 'triclinic'
loop_
_space_group_symop_operation_xyz
x,y,z
-x,-y,-z
loop_
_atom_site_type_symbol
_atom_site_label
_atom_site_fract_x
_atom_site_fract_y
_atom_site_fract_z
Si Si1 0.597909 0.638168 0.123870
Si Si2 0.183514 0.323398 0.244851
Si Si3 0.242173 0.992389 0.606808
Si Si4 0.237658 0.634959 0.842193
Si Si5 0.525266 0.361422 0.241034
Si Si6 0.304497 0.999511 0.901458
Si Si7 0.682631 0.779351 0.672996
Si Si8 0.020807 0.535749 0.106979
O O1 0.511904 0.479402 0.148026
O O2 0.934002 0.793363 0.413363
O O3 0.373621 0.594327 0.981333
O O4 0.582381 0.694527 0.947944
O O5 0.500000 0.500000 0.500000
O O6 0.209197 0.276369 0.210561
O O7 0.983746 0.341325 0.990317
O O8 0.010545 0.165988 0.261342
O O9 0.246575 0.023473 0.701478
O O10 0.256318 0.093878 0.447456
O O11 0.519184 0.034185 0.876867
O O12 0.231518 0.618870 0.970869
O O13 0.885825 0.493147 0.535362
O O14 0.478012 0.835686 0.924799
O O15 0.287015 0.199750 0.189698
O O16 0.324373 0.611717 0.417117
O O17 0.000000 0.500000 0.000000
#
# Coordination Sequence:
#
# PCOD9046847 Si02
#       8
#     2   2   2   2   2   2   2   2
#     4  11  23  43  69  93 126 168 220 265 318 371
#     4  12  25  37  62  92 128 167 214 251 315 392
#     4  11  24  42  64  92 134 172 207 260 321 380
#     4  11  23  41  67  94 130 165 214 262 316 381
#     4  10  24  43  68  96 123 167 219 270 314 369
#     4  11  25  40  63  96 131 169 209 259 318 386
#     4  11  23  41  62  89 127 167 212 259 318 373
#     4  11  22  37  58  91 129 167 202 257 313 376
#
# _framework density 21.516487000000001
#
# number of rings (size 3 to 8) (size 9 to 14) (size 15 to 20)
#    0.000    1.000    3.750    2.625    5.250    1.500 
#    0.000    0.000    0.000    1.500    0.000    0.000 
#    0.000    0.000    0.000    0.000    0.000    0.000 
#
# Total GULP energy -89235.091383 kJ/mol
# GULP energy per Si atom -5577.193211 kJ/mol
# Density = 2.146751 g / cm^3
# Si number density = 21.516487 Si / 1000 Ang^3
#
#
#
# Elastic Constant Matrix: (Units=GPa)
#
#
# Indices 1 2 3 4 5 6 
#
# 1 91.7403 24.4473 37.8385 12.9030 20.3286 22.2537
# 2 24.4473 69.2909 21.4667 1.1830 5.8408 14.6580
# 3 37.8385 21.4667 56.5683 10.6425 0.5012 12.9715
# 4 12.9030 1.1830 10.6425 24.3245 1.7106 -5.7682
# 5 20.3286 5.8408 0.5012 1.7106 34.6194 1.9516
# 6 22.2537 14.6580 12.9715 -5.7682 1.9516 25.9856
#
#
#
# Elastic Compliance Matrix: (Units=1/GPa)
#
#
# Indices 1 2 3 4 5 6 
#
# 1 0.023025 -0.000624 -0.009194 -0.011215 -0.011805 -0.016380
# 2 -0.000624 0.017769 -0.004715 0.000031 -0.002172 -0.006965
# 3 -0.009194 -0.004715 0.028829 -0.009504 0.006611 -0.006463
# 4 -0.011215 0.000031 -0.009504 0.057430 0.002364 0.026902
# 5 -0.011805 -0.002172 0.006611 0.002364 0.035640 0.005883
# 6 -0.016380 -0.006965 -0.006463 0.026902 0.005883 0.065196
#
#
# Mechanical properties :
#
#
# Convention : Reuss Voigt Hill
#
# Bulk Modulus (GPa) = 24.65703 42.78939 33.72321
# Shear Modulus (GPa) = 18.48618 25.90904 22.19761
#
# Velocity S-wave (km/s) = 2.93433 3.47385 3.21542
# Velocity P-wave (km/s) = 4.79217 6.00168 5.43070
#
# Compressibility (1/GPa) = 0.04055639
#
# Stress axis : x y z
#
# Youngs Moduli (GPa) = 43.43077 56.27846 34.68761
#
# Poissons Ratio (x) = 0.03510 0.31893
# Poissons Ratio (y) = 0.02709 0.16355
# Poissons Ratio (z) = 0.39932 0.26536
#
# Static dielectric constant tensor:
#      x y z
#    x 2.446670 0.268630 -0.511750 
#    y 0.268630 1.911920 -0.207910 
#    z -0.511750 -0.207910 2.146830 
# 
# From -- ./inp_files/456959.got.cif
#   From: 2010.05.17/outbox.cif.g08.bks.cpg/sg2_229_cif.got.tgz:456959.got - 2010.06.03 11:33:40.
