data_PCOD9046379
_publ_section_title
;
Structure prediction by ZEFSAII (Michael W. Deem and Ramdas Pophale) SiO2 
 PCOD9046379
Probable space group: P -1
;
_chemical_formula_sum "Si O2"
_cell_formula_units_Z 14
_cell_length_a 9.462232
_cell_length_b 6.420088
_cell_length_c 10.908481
_cell_angle_alpha 98.011341
_cell_angle_beta 91.547415
_cell_angle_gamma 105.851923
_cell_volume 629.775474
_symmetry_space_group_name_H-M "P -1"
_symmetry_group_IT_number 2
_symmetry_cell_setting 'triclinic'
loop_
_space_group_symop_operation_xyz
x,y,z
-x,-y,-z
loop_
_atom_site_type_symbol
_atom_site_label
_atom_site_fract_x
_atom_site_fract_y
_atom_site_fract_z
Si Si1 0.108467 0.984383 0.827452
Si Si2 0.092787 0.740645 0.061824
Si Si3 0.480960 0.618169 0.700103
Si Si4 0.692667 0.798919 0.494592
Si Si5 0.320074 0.631981 0.236501
Si Si6 0.072165 0.370041 0.395185
Si Si7 0.380737 0.005015 0.705193
O O1 0.036923 0.781278 0.718320
O O2 0.270359 0.099526 0.790389
O O3 0.123805 0.891516 0.954728
O O4 0.003192 0.143760 0.844889
O O5 0.233293 0.703726 0.130467
O O6 0.000000 0.500000 0.000000
O O7 0.585545 0.746595 0.603742
O O8 0.374551 0.404830 0.615799
O O9 0.591730 0.552762 0.792560
O O10 0.387550 0.780043 0.748998
O O11 0.850333 0.787072 0.541317
O O12 0.685285 0.010505 0.435092
O O13 0.202399 0.537812 0.333741
O O14 0.454827 0.839824 0.288102
O O15 0.000000 0.500000 0.500000
#
# Coordination Sequence:
#
# PCOD9046379 Si02
#       7
#     2   2   2   2   2   2   2
#     4  11  27  44  71 105 130 178 237 275 337 406
#     4  11  25  50  74  91 135 183 231 286 333 394
#     4   9  19  38  59  94 140 174 220 260 333 406
#     4   9  20  35  57  95 137 183 207 262 333 404
#     4  10  24  42  71  97 132 185 221 277 343 393
#     4  11  23  42  68 105 145 174 223 275 336 417
#     4  11  23  40  66 100 136 171 222 282 336 400
#
# _framework density 22.230145
#
# number of rings (size 3 to 8) (size 9 to 14) (size 15 to 20)
#    0.000    1.714    1.429    2.143    6.000    4.571 
#    0.000    1.429    0.000    0.000    0.000    0.000 
#    0.000    0.000    0.000    0.000    0.000    0.000 
#
# Total GULP energy -78194.437887 kJ/mol
# GULP energy per Si atom -5585.316992 kJ/mol
# Density = 2.217955 g / cm^3
# Si number density = 22.230145 Si / 1000 Ang^3
#
#
#
# Elastic Constant Matrix: (Units=GPa)
#
#
# Indices 1 2 3 4 5 6 
#
# 1 106.3501 36.4488 56.4475 -8.7472 15.3126 -10.5460
# 2 36.4488 77.7831 29.2474 -6.2396 4.6937 -13.8833
# 3 56.4475 29.2474 76.9235 -8.5278 20.4412 -19.5411
# 4 -8.7472 -6.2396 -8.5278 32.8504 -16.5513 8.4408
# 5 15.3126 4.6937 20.4412 -16.5513 37.8911 -17.3947
# 6 -10.5460 -13.8833 -19.5411 8.4408 -17.3947 40.6188
#
#
#
# Elastic Compliance Matrix: (Units=1/GPa)
#
#
# Indices 1 2 3 4 5 6 
#
# 1 0.016558 -0.004040 -0.010954 0.000943 -0.001293 -0.003102
# 2 -0.004040 0.016650 -0.003113 0.002298 0.004329 0.004520
# 3 -0.010954 -0.003113 0.025328 -0.001971 -0.007126 0.005635
# 4 0.000943 0.002298 -0.001971 0.039537 0.017343 -0.000707
# 5 -0.001293 0.004329 -0.007126 0.017343 0.043682 0.012818
# 6 -0.003102 0.004520 0.005635 -0.000707 0.012818 0.033706
#
#
# Mechanical properties :
#
#
# Convention : Reuss Voigt Hill
#
# Bulk Modulus (GPa) = 44.79895 56.14934 50.47415
# Shear Modulus (GPa) = 22.81902 31.53293 27.17598
#
# Velocity S-wave (km/s) = 3.20736 3.77035 3.50020
# Velocity P-wave (km/s) = 5.82343 6.65335 6.25218
#
# Compressibility (1/GPa) = 0.02232195
#
# Stress axis : x y z
#
# Youngs Moduli (GPa) = 60.39470 60.06031 39.48178
#
# Poissons Ratio (x) = 0.24264 0.43248
# Poissons Ratio (y) = 0.24399 0.12291
# Poissons Ratio (z) = 0.66155 0.18697
#
# Static dielectric constant tensor:
#      x y z
#    x 1.836830 -0.039250 0.036860 
#    y -0.039250 1.887810 -0.008860 
#    z 0.036860 -0.008860 1.871520 
# 
# From -- ./inp_files/340366.got.cif
#   From: 2010.05.17/outbox.cif.g08.bks.cpg/sg2_171_cif.got.tgz:340366.got - 2010.06.03 11:33:40.
