data_PCOD9046010
_publ_section_title
;
Structure prediction by ZEFSAII (Michael W. Deem and Ramdas Pophale) SiO2 
 PCOD9046010
Probable space group: P -1
;
_chemical_formula_sum "Si O2"
_cell_formula_units_Z 12
_cell_length_a 15.974635
_cell_length_b 5.208280
_cell_length_c 15.720733
_cell_angle_alpha 58.778595
_cell_angle_beta 154.200486
_cell_angle_gamma 118.437967
_cell_volume 486.654568
_symmetry_space_group_name_H-M "P -1"
_symmetry_group_IT_number 2
_symmetry_cell_setting 'triclinic'
loop_
_space_group_symop_operation_xyz
x,y,z
-x,-y,-z
loop_
_atom_site_type_symbol
_atom_site_label
_atom_site_fract_x
_atom_site_fract_y
_atom_site_fract_z
Si Si1 0.473272 0.214645 0.810401
Si Si2 0.179256 0.501368 0.013831
Si Si3 0.887198 0.134251 0.487827
Si Si4 0.702851 0.723341 0.180770
Si Si5 0.631767 0.774906 0.608423
Si Si6 0.052833 0.902266 0.264084
O O1 0.611122 0.442211 0.847172
O O2 0.430225 0.298096 0.854148
O O3 0.262276 0.142713 0.592990
O O4 0.588908 0.902660 0.974925
O O5 0.212792 0.344342 0.161652
O O6 0.082965 0.818159 0.888652
O O7 0.046702 0.307305 0.861885
O O8 0.784532 0.394869 0.296365
O O9 0.100359 0.080964 0.657749
O O10 0.917410 0.254281 0.591107
O O11 0.500000 0.500000 0.500000
O O12 0.746380 0.957166 0.609680
O O13 0.500000 0.000000 0.500000
#
# Coordination Sequence:
#
# PCOD9046010 Si02
#       6
#     2   2   2   2   2   2
#     4  11  24  42  70 100 143 189 245 292 360 418
#     4  12  27  47  73 106 147 187 237 294 360 427
#     4  11  24  42  70 100 143 189 245 292 360 418
#     4  10  24  42  66 102 142 186 248 298 354 412
#     4  12  26  48  78 108 142 186 240 291 359 431
#     4  12  27  47  73 106 147 187 237 294 360 427
#
# _framework density 24.658145999999999
#
# number of rings (size 3 to 8) (size 9 to 14) (size 15 to 20)
#    0.000    0.667    1.667    5.000    7.000    5.333 
#    0.000    0.000    0.000    0.000    0.000    0.000 
#    0.000    0.000    0.000    0.000    0.000    0.000 
#
# Total GULP energy -67238.863030 kJ/mol
# GULP energy per Si atom -5603.238586 kJ/mol
# Density = 2.460202 g / cm^3
# Si number density = 24.658146 Si / 1000 Ang^3
#
#
#
# Elastic Constant Matrix: (Units=GPa)
#
#
# Indices 1 2 3 4 5 6 
#
# 1 94.3772 36.5335 0.6806 5.1503 21.7044 10.2673
# 2 36.5335 87.9336 36.7506 16.4713 5.6956 -13.3748
# 3 0.6806 36.7506 81.9817 11.1997 9.9951 -9.3764
# 4 5.1503 16.4713 11.1997 55.6236 2.5326 5.1142
# 5 21.7044 5.6956 9.9951 2.5326 54.8851 11.7757
# 6 10.2673 -13.3748 -9.3764 5.1142 11.7757 52.4877
#
#
#
# Elastic Compliance Matrix: (Units=1/GPa)
#
#
# Indices 1 2 3 4 5 6 
#
# 1 0.015253 -0.008204 0.003689 0.000816 -0.005175 -0.003334
# 2 -0.008204 0.019430 -0.007711 -0.003996 0.001704 0.005185
# 3 0.003689 -0.007711 0.016413 -0.001301 -0.003853 0.001237
# 4 0.000816 -0.003996 -0.001301 0.019650 0.000142 -0.003357
# 5 -0.005175 0.001704 -0.003853 0.000142 0.021668 -0.004117
# 6 -0.003334 0.005185 0.001237 -0.003357 -0.004117 0.022497
#
#
# Mechanical properties :
#
#
# Convention : Reuss Voigt Hill
#
# Bulk Modulus (GPa) = 37.53062 45.80243 41.66652
# Shear Modulus (GPa) = 33.72842 45.28781 39.50812
#
# Velocity S-wave (km/s) = 3.70245 4.29024 4.00713
# Velocity P-wave (km/s) = 5.79059 6.56938 6.19224
#
# Compressibility (1/GPa) = 0.02664491
#
# Stress axis : x y z
#
# Youngs Moduli (GPa) = 65.56083 51.46681 60.92846
#
# Poissons Ratio (x) = 0.42222 -0.22476
# Poissons Ratio (y) = 0.53784 0.46980
# Poissons Ratio (z) = -0.24185 0.39685
#
# Static dielectric constant tensor:
#      x y z
#    x 1.918210 -0.008350 -0.013970 
#    y -0.008350 2.000040 -0.002440 
#    z -0.013970 -0.002440 1.977430 
# 
# From -- ./inp_files/6005.got.cif
#   From: 2010.05.17/outbox.cif.g08.bks.cpg/sg2_4_cif.got.tgz:6005.got - 2010.06.03 11:33:40.
