data_PCOD9046596
_publ_section_title
;
Structure prediction by ZEFSAII (Michael W. Deem and Ramdas Pophale) SiO2 
 PCOD9046596
Probable space group: P -1
;
_chemical_formula_sum "Si O2"
_cell_formula_units_Z 16
_cell_length_a 6.470460
_cell_length_b 11.103983
_cell_length_c 11.828175
_cell_angle_alpha 122.626690
_cell_angle_beta 85.487832
_cell_angle_gamma 89.420706
_cell_volume 712.111329
_symmetry_space_group_name_H-M "P -1"
_symmetry_group_IT_number 2
_symmetry_cell_setting 'triclinic'
loop_
_space_group_symop_operation_xyz
x,y,z
-x,-y,-z
loop_
_atom_site_type_symbol
_atom_site_label
_atom_site_fract_x
_atom_site_fract_y
_atom_site_fract_z
Si Si1 0.308318 0.801781 0.620810
Si Si2 0.998435 0.677427 0.938635
Si Si3 0.678034 0.864451 0.174721
Si Si4 0.291855 0.550674 0.257211
Si Si5 0.639978 0.351819 0.921947
Si Si6 0.400194 0.160993 0.575635
Si Si7 0.317421 0.579601 0.686844
Si Si8 0.073718 0.316211 0.510343
O O1 0.421551 0.774988 0.480747
O O2 0.404239 0.691147 0.652434
O O3 0.061872 0.771870 0.615488
O O4 0.345993 0.964633 0.733036
O O5 0.142434 0.665721 0.814790
O O6 0.815769 0.573977 0.870094
O O7 0.157149 0.625837 0.003777
O O8 0.877642 0.818216 0.066689
O O9 0.480963 0.782424 0.096201
O O10 0.686352 0.807285 0.276695
O O11 0.311144 0.673863 0.224996
O O12 0.506826 0.487602 0.269920
O O13 0.115698 0.597766 0.375978
O O14 0.500000 0.500000 0.000000
O O15 0.200435 0.201408 0.525952
O O16 0.500000 0.000000 0.500000
O O17 0.221712 0.448587 0.555245
#
# Coordination Sequence:
#
# PCOD9046596 Si02
#       8
#     2   2   2   2   2   2   2   2
#     4  11  26  45  64  91 137 176 217 268 322 386
#     4  11  23  40  66 102 129 166 217 265 334 385
#     4  11  24  41  65  97 130 173 211 266 333 385
#     4  11  23  41  68 100 131 169 219 276 319 384
#     4  12  21  37  66  97 131 161 211 267 324 387
#     4  10  24  43  65  95 133 168 215 264 327 384
#     4  11  24  43  66  97 130 173 221 269 318 381
#     4  11  23  41  70  96 125 173 223 267 320 380
#
# _framework density 22.468395000000001
#
# number of rings (size 3 to 8) (size 9 to 14) (size 15 to 20)
#    0.000    1.000    2.500    3.750    1.750    8.500 
#    0.000    2.500    0.000    0.000    0.000    0.000 
#    0.000    0.000    0.000    0.000    0.000    0.000 
#
# Total GULP energy -89178.748583 kJ/mol
# GULP energy per Si atom -5573.671786 kJ/mol
# Density = 2.241726 g / cm^3
# Si number density = 22.468395 Si / 1000 Ang^3
#
#
#
# Elastic Constant Matrix: (Units=GPa)
#
#
# Indices 1 2 3 4 5 6 
#
# 1 109.9893 36.0518 42.5679 7.5038 2.9052 2.6440
# 2 36.0518 109.3903 40.3251 -1.9833 4.0107 16.8597
# 3 42.5679 40.3251 78.1976 6.0820 -12.6463 10.6659
# 4 7.5038 -1.9833 6.0820 38.2007 4.7756 0.6307
# 5 2.9052 4.0107 -12.6463 4.7756 45.0218 -1.5174
# 6 2.6440 16.8597 10.6659 0.6307 -1.5174 19.4300
#
#
#
# Elastic Compliance Matrix: (Units=1/GPa)
#
#
# Indices 1 2 3 4 5 6 
#
# 1 0.012315 -0.002250 -0.006269 -0.001336 -0.002092 0.003598
# 2 -0.002250 0.013265 -0.005108 0.002466 -0.003027 -0.008717
# 3 -0.006269 -0.005108 0.020954 -0.003139 0.006891 -0.005577
# 4 -0.001336 0.002466 -0.003139 0.027590 -0.003991 -0.001442
# 5 -0.002092 -0.003027 0.006891 -0.003991 0.025016 0.001212
# 6 0.003598 -0.008717 -0.005577 -0.001442 0.001212 0.061744
#
#
# Mechanical properties :
#
#
# Convention : Reuss Voigt Hill
#
# Bulk Modulus (GPa) = 51.86590 59.49630 55.68110
# Shear Modulus (GPa) = 25.69823 32.43932 29.06878
#
# Velocity S-wave (km/s) = 3.38561 3.80383 3.60079
# Velocity P-wave (km/s) = 6.19816 6.76976 6.49025
#
# Compressibility (1/GPa) = 0.01928049
#
# Stress axis : x y z
#
# Youngs Moduli (GPa) = 81.19942 75.38458 47.72305
#
# Poissons Ratio (x) = 0.16960 0.29918
# Poissons Ratio (y) = 0.18268 0.24379
# Poissons Ratio (z) = 0.50904 0.38509
#
# Static dielectric constant tensor:
#      x y z
#    x 1.872350 0.085050 0.037940 
#    y 0.085050 1.838760 0.007830 
#    z 0.037940 0.007830 1.985540 
# 
# From -- ./inp_files/365257.got.cif
#   From: 2010.05.17/outbox.cif.g08.bks.cpg/sg2_183_cif.got.tgz:365257.got - 2010.06.03 11:33:40.
