data_PCOD9046099
_publ_section_title
;
Structure prediction by ZEFSAII (Michael W. Deem and Ramdas Pophale) SiO2 
 PCOD9046099
Probable space group: P -1
;
_chemical_formula_sum "Si O2"
_cell_formula_units_Z 16
_cell_length_a 6.284249
_cell_length_b 22.260332
_cell_length_c 14.668786
_cell_angle_alpha 159.093766
_cell_angle_beta 82.600802
_cell_angle_gamma 99.098241
_cell_volume 721.980656
_symmetry_space_group_name_H-M "P -1"
_symmetry_group_IT_number 2
_symmetry_cell_setting 'triclinic'
loop_
_space_group_symop_operation_xyz
x,y,z
-x,-y,-z
loop_
_atom_site_type_symbol
_atom_site_label
_atom_site_fract_x
_atom_site_fract_y
_atom_site_fract_z
Si Si1 0.880699 0.900639 0.948277
Si Si2 0.341861 0.417162 0.259897
Si Si3 0.413041 0.700209 0.417184
Si Si4 0.469853 0.770958 0.859690
Si Si5 0.104519 0.695224 0.254740
Si Si6 0.183769 0.050420 0.297415
Si Si7 0.958124 0.408389 0.581725
Si Si8 0.661815 0.424532 0.085469
O O1 0.623956 0.887132 0.947446
O O2 0.940477 0.710033 0.663624
O O3 0.000000 0.000000 0.000000
O O4 0.988570 0.990582 0.157008
O O5 0.384005 0.601699 0.569015
O O6 0.371452 0.284255 0.148591
O O7 0.120023 0.429957 0.236202
O O8 0.518015 0.385925 0.128569
O O9 0.275896 0.727338 0.373198
O O10 0.623763 0.832661 0.596865
O O11 0.251031 0.690677 0.498536
O O12 0.511914 0.520806 0.162458
O O13 0.293419 0.878449 0.066933
O O14 0.921383 0.824283 0.449857
O O15 0.233217 0.709447 0.172505
O O16 0.000000 0.500000 0.000000
O O17 0.133102 0.455633 0.716971
#
# Coordination Sequence:
#
# PCOD9046099 Si02
#       8
#     2   2   2   2   2   2   2   2
#     4  12  24  38  62  98 138 163 206 265 330 392
#     4  10  24  42  67  91 127 175 220 267 312 377
#     4  11  22  39  63  96 132 168 208 261 328 382
#     4  11  24  44  63  94 131 172 219 263 320 379
#     4  12  23  40  64  97 131 171 214 261 323 387
#     4  12  25  39  62  95 132 173 208 261 327 383
#     4  11  21  38  63  99 128 168 211 264 317 382
#     4  11  22  40  66  96 127 167 218 260 319 381
#
# _framework density 22.161261
#
# number of rings (size 3 to 8) (size 9 to 14) (size 15 to 20)
#    0.000    0.750    5.000    3.375    1.750    2.500 
#    0.000    0.625    0.000    3.750    0.000    0.000 
#    0.000    0.000    0.000    0.000    0.000    0.000 
#
# Total GULP energy -89342.860589 kJ/mol
# GULP energy per Si atom -5583.928787 kJ/mol
# Density = 2.211082 g / cm^3
# Si number density = 22.161261 Si / 1000 Ang^3
#
#
#
# Elastic Constant Matrix: (Units=GPa)
#
#
# Indices 1 2 3 4 5 6 
#
# 1 88.3180 18.1148 41.7406 -6.3935 -24.3748 2.3924
# 2 18.1148 64.2961 27.0900 -9.7575 -19.7404 -0.7793
# 3 41.7406 27.0900 96.9448 -19.8920 -40.6179 7.0737
# 4 -6.3935 -9.7575 -19.8920 23.1504 10.4460 -5.1167
# 5 -24.3748 -19.7404 -40.6179 10.4460 50.9473 -10.1481
# 6 2.3924 -0.7793 7.0737 -5.1167 -10.1481 26.1950
#
#
#
# Elastic Compliance Matrix: (Units=1/GPa)
#
#
# Indices 1 2 3 4 5 6 
#
# 1 0.014701 -0.001361 -0.005215 -0.002156 0.002939 0.000742
# 2 -0.001361 0.019061 -0.001997 0.004579 0.005014 0.004067
# 3 -0.005215 -0.001997 0.019448 0.009982 0.010419 0.001151
# 4 -0.002156 0.004579 0.009982 0.055358 -0.001047 0.008045
# 5 0.002939 0.005014 0.010419 -0.001047 0.033455 0.009823
# 6 0.000742 0.004067 0.001151 0.008045 0.009823 0.043295
#
#
# Mechanical properties :
#
#
# Convention : Reuss Voigt Hill
#
# Bulk Modulus (GPa) = 27.72764 47.04997 37.38881
# Shear Modulus (GPa) = 23.31161 30.89941 27.10551
#
# Velocity S-wave (km/s) = 3.24683 3.73808 3.50108
# Velocity P-wave (km/s) = 5.15702 6.31726 5.76640
#
# Compressibility (1/GPa) = 0.03606510
#
# Stress axis : x y z
#
# Youngs Moduli (GPa) = 68.02111 52.46200 51.41897
#
# Poissons Ratio (x) = 0.07139 0.26815
# Poissons Ratio (y) = 0.09256 0.10269
# Poissons Ratio (z) = 0.35473 0.10478
#
# Static dielectric constant tensor:
#      x y z
#    x 1.832960 0.020940 -0.039350 
#    y 0.020940 1.838010 0.020080 
#    z -0.039350 0.020080 1.864310 
# 
# From -- ./inp_files/68552.got.cif
#   From: 2010.05.17/outbox.cif.g08.bks.cpg/sg2_35_cif.got.tgz:68552.got - 2010.06.03 11:33:40.
