data_PCOD9046661
_publ_section_title
;
Structure prediction by ZEFSAII (Michael W. Deem and Ramdas Pophale) SiO2 
 PCOD9046661
Probable space group: P -1
;
_chemical_formula_sum "Si O2"
_cell_formula_units_Z 14
_cell_length_a 7.777703
_cell_length_b 8.241610
_cell_length_c 13.608854
_cell_angle_alpha 105.769994
_cell_angle_beta 102.410119
_cell_angle_gamma 125.687242
_cell_volume 598.997645
_symmetry_space_group_name_H-M "P -1"
_symmetry_group_IT_number 2
_symmetry_cell_setting 'triclinic'
loop_
_space_group_symop_operation_xyz
x,y,z
-x,-y,-z
loop_
_atom_site_type_symbol
_atom_site_label
_atom_site_fract_x
_atom_site_fract_y
_atom_site_fract_z
Si Si1 0.984115 0.264626 0.663652
Si Si2 0.380020 0.414364 0.864696
Si Si3 0.773040 0.489635 0.670657
Si Si4 0.603597 0.895721 0.690525
Si Si5 0.837378 0.819504 0.864922
Si Si6 0.834458 0.633809 0.494397
Si Si7 0.369306 0.079018 0.692042
O O1 0.912951 0.408448 0.647753
O O2 0.146981 0.371124 0.799326
O O3 0.130786 0.266507 0.595547
O O4 0.742308 0.009273 0.622758
O O5 0.584745 0.612485 0.849684
O O6 0.320649 0.184734 0.787046
O O7 0.500000 0.500000 0.000000
O O8 0.914315 0.695751 0.801373
O O9 0.736419 0.586583 0.587439
O O10 0.525661 0.266065 0.654207
O O11 0.777742 0.914661 0.789419
O O12 0.351523 0.635691 0.603053
O O13 0.541171 0.041608 0.743864
O O14 0.000000 0.000000 0.000000
O O15 0.120538 0.830519 0.586995
#
# Coordination Sequence:
#
# PCOD9046661 Si02
#       7
#     2   2   2   2   2   2   2
#     4  11  23  43  67  98 134 173 215 269 329 389
#     4  11  25  46  66  96 132 172 227 277 321 387
#     4  10  24  43  66  97 135 174 214 267 332 389
#     4  11  23  43  67  98 134 173 215 269 329 389
#     4  11  25  46  66  96 132 172 227 277 321 387
#     4  12  23  42  70 100 135 172 219 268 324 398
#     4  10  24  43  66  97 135 174 214 267 332 389
#
# _framework density 23.372381000000001
#
# number of rings (size 3 to 8) (size 9 to 14) (size 15 to 20)
#    0.000    1.143    1.429    4.286    4.000    4.571 
#    0.000    5.714    0.000    0.000    0.000    0.000 
#    0.000    0.000    0.000    0.000    0.000    0.000 
#
# Total GULP energy -78059.991390 kJ/mol
# GULP energy per Si atom -5575.713671 kJ/mol
# Density = 2.331918 g / cm^3
# Si number density = 23.372381 Si / 1000 Ang^3
#
#
#
# Elastic Constant Matrix: (Units=GPa)
#
#
# Indices 1 2 3 4 5 6 
#
# 1 81.1435 36.5274 44.8386 3.1673 3.1219 -15.5136
# 2 36.5274 131.9476 38.9158 5.5416 -2.8269 16.3159
# 3 44.8386 38.9158 158.4003 1.5948 -2.9573 -17.6950
# 4 3.1673 5.5416 1.5948 38.3980 8.2857 3.8584
# 5 3.1219 -2.8269 -2.9573 8.2857 25.1627 -1.2657
# 6 -15.5136 16.3159 -17.6950 3.8584 -1.2657 28.6638
#
#
#
# Elastic Compliance Matrix: (Units=1/GPa)
#
#
# Indices 1 2 3 4 5 6 
#
# 1 0.018873 -0.005962 -0.002554 -0.001317 -0.002269 0.012108
# 2 -0.005962 0.011299 -0.002290 -0.000211 0.001257 -0.010988
# 3 -0.002554 -0.002290 0.008207 -0.000638 0.001493 0.005140
# 4 -0.001317 -0.000211 -0.000638 0.028833 -0.009696 -0.005296
# 5 -0.002269 0.001257 0.001493 -0.009696 0.043643 0.002211
# 6 0.012108 -0.010988 0.005140 -0.005296 0.002211 0.051679
#
#
# Mechanical properties :
#
#
# Convention : Reuss Voigt Hill
#
# Bulk Modulus (GPa) = 59.64197 68.00611 63.82404
# Shear Modulus (GPa) = 26.35251 35.19221 30.77236
#
# Velocity S-wave (km/s) = 3.36148 3.88457 3.63245
# Velocity P-wave (km/s) = 6.37492 7.01996 6.70520
#
# Compressibility (1/GPa) = 0.01676672
#
# Stress axis : x y z
#
# Youngs Moduli (GPa) = 52.98700 88.50180 121.84357
#
# Poissons Ratio (x) = 0.52763 0.31119
# Poissons Ratio (y) = 0.31590 0.27906
# Poissons Ratio (z) = 0.13533 0.20270
#
# Static dielectric constant tensor:
#      x y z
#    x 1.907560 0.000410 -0.008440 
#    y 0.000410 1.909940 -0.032430 
#    z -0.008440 -0.032430 1.876140 
# 
# From -- ./inp_files/493222.got.cif
#   From: 2010.05.17/outbox.cif.g08.bks.cpg/sg2_247_cif.got.tgz:493222.got - 2010.06.03 11:33:40.
