data_PCOD9046473
_publ_section_title
;
Structure prediction by ZEFSAII (Michael W. Deem and Ramdas Pophale) SiO2 
 PCOD9046473
Probable space group: P -1
;
_chemical_formula_sum "Si O2"
_cell_formula_units_Z 11
_cell_length_a 13.532118
_cell_length_b 6.529139
_cell_length_c 7.325526
_cell_angle_alpha 117.653658
_cell_angle_beta 130.482193
_cell_angle_gamma 68.572911
_cell_volume 434.083625
_symmetry_space_group_name_H-M "P -1"
_symmetry_group_IT_number 2
_symmetry_cell_setting 'triclinic'
loop_
_space_group_symop_operation_xyz
x,y,z
-x,-y,-z
loop_
_atom_site_type_symbol
_atom_site_label
_atom_site_fract_x
_atom_site_fract_y
_atom_site_fract_z
Si Si1 0.758021 0.131279 0.515620
Si Si2 0.515015 0.463850 0.221997
Si Si3 0.779313 0.136042 0.966386
Si Si4 0.763305 0.636226 0.187522
Si Si5 0.026112 0.266624 0.817395
Si Si6 0.500000 0.000000 0.500000
O O1 0.630883 0.274129 0.340727
O O2 0.779725 0.200639 0.778904
O O3 0.885707 0.178337 0.576361
O O4 0.742430 0.855988 0.387576
O O5 0.534338 0.715022 0.429987
O O6 0.500000 0.500000 0.000000
O O7 0.377341 0.375962 0.080454
O O8 0.638894 0.043903 0.788246
O O9 0.793011 0.375161 0.188407
O O10 0.892625 0.937536 0.058292
O O11 0.883177 0.683341 0.222463
O O12 0.000000 0.500000 0.000000
#
# Coordination Sequence:
#
# PCOD9046473 Si02
#       6
#     2   2   2   2   2   1
#     4  12  26  46  74 103 146 192 233 295 364 413
#     4  11  26  47  73 108 144 183 245 297 348 428
#     4  11  26  46  71 106 145 185 239 292 351 427
#     4  11  27  46  75 104 143 189 242 291 357 421
#     4  12  26  49  71 107 149 185 239 296 351 432
#     4  10  24  42  74 100 140 188 230 288 360 400
#
# _framework density 25.340741000000001
#
# number of rings (size 3 to 8) (size 9 to 14) (size 15 to 20)
#    0.000    0.727    1.818    3.818    7.636    2.182 
#    0.000    0.000    0.000    0.000    0.000    0.000 
#    0.000    0.000    0.000    0.000    0.000    0.000 
#
# Total GULP energy -61412.996844 kJ/mol
# GULP energy per Si atom -5582.999713 kJ/mol
# Density = 2.528306 g / cm^3
# Si number density = 25.340741 Si / 1000 Ang^3
#
#
#
# Elastic Constant Matrix: (Units=GPa)
#
#
# Indices 1 2 3 4 5 6 
#
# 1 67.1133 20.6925 29.1982 -10.9212 28.5287 -2.5398
# 2 20.6925 183.6888 82.1190 3.9425 15.0429 -38.8096
# 3 29.1982 82.1190 83.8844 9.4865 22.8418 -1.3456
# 4 -10.9212 3.9425 9.4865 76.2439 2.4279 8.2759
# 5 28.5287 15.0429 22.8418 2.4279 48.3141 -6.2202
# 6 -2.5398 -38.8096 -1.3456 8.2759 -6.2202 39.4537
#
#
#
# Elastic Compliance Matrix: (Units=1/GPa)
#
#
# Indices 1 2 3 4 5 6 
#
# 1 0.022757 0.001053 -0.006466 0.004400 -0.010978 -0.000374
# 2 0.001053 0.015797 -0.016733 -0.000443 0.004431 0.015828
# 3 -0.006466 -0.016733 0.032846 -0.002066 -0.008543 -0.016670
# 4 0.004400 -0.000443 -0.002066 0.014512 -0.002688 -0.003691
# 5 -0.010978 0.004431 -0.008543 -0.002688 0.031111 0.008829
# 6 -0.000374 0.015828 -0.016670 -0.003691 0.008829 0.042489
#
#
# Mechanical properties :
#
#
# Convention : Reuss Voigt Hill
#
# Bulk Modulus (GPa) = 36.89247 66.52291 51.70769
# Shear Modulus (GPa) = 23.49178 46.31412 34.90295
#
# Velocity S-wave (km/s) = 3.04803 4.27975 3.71529
# Velocity P-wave (km/s) = 5.19399 7.12250 6.23328
#
# Compressibility (1/GPa) = 0.02710580
#
# Stress axis : x y z
#
# Youngs Moduli (GPa) = 43.94255 63.30399 30.44549
#
# Poissons Ratio (x) = -0.06665 0.19687
# Poissons Ratio (y) = -0.04626 0.50946
# Poissons Ratio (z) = 0.28414 1.05929
#
# Static dielectric constant tensor:
#      x y z
#    x 2.063660 0.007620 -0.012010 
#    y 0.007620 1.999830 0.013190 
#    z -0.012010 0.013190 1.962400 
# 
# From -- ./inp_files/33982.got.cif
#   From: 2010.05.17/outbox.cif.g08.bks.cpg/sg2_17_cif.got.tgz:33982.got - 2010.06.03 11:33:40.
