data_PCOD9046867
_publ_section_title
;
Structure prediction by ZEFSAII (Michael W. Deem and Ramdas Pophale) SiO2 
 PCOD9046867
Probable space group: P -1
;
_chemical_formula_sum "Si O2"
_cell_formula_units_Z 12
_cell_length_a 5.170595
_cell_length_b 21.637732
_cell_length_c 5.397260
_cell_angle_alpha 114.547034
_cell_angle_beta 62.516433
_cell_angle_gamma 93.597253
_cell_volume 481.016580
_symmetry_space_group_name_H-M "P -1"
_symmetry_group_IT_number 2
_symmetry_cell_setting 'triclinic'
loop_
_space_group_symop_operation_xyz
x,y,z
-x,-y,-z
loop_
_atom_site_type_symbol
_atom_site_label
_atom_site_fract_x
_atom_site_fract_y
_atom_site_fract_z
Si Si1 0.070616 0.943435 0.092063
Si Si2 0.390752 0.303626 0.942239
Si Si3 0.647759 0.899361 0.547852
Si Si4 0.236330 0.344128 0.575427
Si Si5 0.850604 0.174077 0.483845
Si Si6 0.623743 0.420513 0.836834
O O1 0.427341 0.929623 0.918656
O O2 0.021926 0.867375 0.885319
O O3 0.830874 0.953360 0.433318
O O4 0.000000 0.000000 0.000000
O O5 0.285495 0.290079 0.239886
O O6 0.179255 0.309540 0.807321
O O7 0.682011 0.250693 0.656091
O O8 0.464018 0.381493 0.053730
O O9 0.421062 0.868885 0.416479
O O10 0.897187 0.840986 0.450262
O O11 0.523664 0.378699 0.575571
O O12 0.967068 0.402139 0.713021
O O13 0.500000 0.500000 0.000000
#
# Coordination Sequence:
#
# PCOD9046867 Si02
#       6
#     2   2   2   2   2   2
#     4  10  24  45  68 100 136 179 229 286 349 416
#     4  10  26  43  68  99 137 182 227 287 346 417
#     4  10  25  41  68  98 134 178 230 285 351 415
#     4  10  25  40  68  95 137 174 230 277 348 408
#     4  10  26  40  68  95 136 178 229 286 346 418
#     4  10  24  43  68  99 135 178 228 282 344 413
#
# _framework density 24.947165999999999
#
# number of rings (size 3 to 8) (size 9 to 14) (size 15 to 20)
#    2.000    0.000    0.000    1.000    9.333    4.000 
#    0.000    0.000    0.000    0.000    0.000    0.000 
#    0.000    0.000    0.000    0.000    0.000    0.000 
#
# Total GULP energy -66848.560724 kJ/mol
# GULP energy per Si atom -5570.713394 kJ/mol
# Density = 2.489039 g / cm^3
# Si number density = 24.947166 Si / 1000 Ang^3
#
#
#
# Elastic Constant Matrix: (Units=GPa)
#
#
# Indices 1 2 3 4 5 6 
#
# 1 126.7138 52.7062 40.3872 6.5712 -23.1262 -33.7302
# 2 52.7062 83.8724 31.3898 15.3762 -9.2813 -9.3009
# 3 40.3872 31.3898 109.2433 -11.1859 -5.0347 -14.0121
# 4 6.5712 15.3762 -11.1859 31.7342 0.3342 -10.8523
# 5 -23.1262 -9.2813 -5.0347 0.3342 38.2415 1.7040
# 6 -33.7302 -9.3009 -14.0121 -10.8523 1.7040 50.6011
#
#
#
# Elastic Compliance Matrix: (Units=1/GPa)
#
#
# Indices 1 2 3 4 5 6 
#
# 1 0.014864 -0.007589 -0.001639 0.002842 0.006530 0.008449
# 2 -0.007589 0.020042 -0.004810 -0.011611 -0.000025 -0.005196
# 3 -0.001639 -0.004810 0.012352 0.008130 -0.000747 0.003213
# 4 0.002842 -0.011611 0.008130 0.043299 -0.000912 0.011329
# 5 0.006530 -0.000025 -0.000747 -0.000912 0.029871 0.002940
# 6 0.008449 -0.005196 0.003213 0.011329 0.002940 0.027660
#
#
# Mechanical properties :
#
#
# Convention : Reuss Voigt Hill
#
# Bulk Modulus (GPa) = 52.13059 63.19953 57.66506
# Shear Modulus (GPa) = 27.38870 37.13843 32.26356
#
# Velocity S-wave (km/s) = 3.31700 3.86253 3.60012
# Velocity P-wave (km/s) = 5.96756 6.72908 6.35973
#
# Compressibility (1/GPa) = 0.01918259
#
# Stress axis : x y z
#
# Youngs Moduli (GPa) = 67.27516 49.89645 80.95851
#
# Poissons Ratio (x) = 0.37866 0.13269
# Poissons Ratio (y) = 0.51054 0.38939
# Poissons Ratio (z) = 0.11027 0.23999
#
# Static dielectric constant tensor:
#      x y z
#    x 1.986290 0.057500 0.031230 
#    y 0.057500 1.984570 -0.039020 
#    z 0.031230 -0.039020 2.087190 
# 
# From -- ./inp_files/9196.got.cif
#   From: 2010.05.17/outbox.cif.g08.bks.cpg/sg2_5_cif.got.tgz:9196.got - 2010.06.03 11:33:40.
