data_PCOD9046564
_publ_section_title
;
Structure prediction by ZEFSAII (Michael W. Deem and Ramdas Pophale) SiO2 
 PCOD9046564
Probable space group: P -1
;
_chemical_formula_sum "Si O2"
_cell_formula_units_Z 16
_cell_length_a 6.036172
_cell_length_b 20.136244
_cell_length_c 7.409500
_cell_angle_alpha 50.865308
_cell_angle_beta 68.691664
_cell_angle_gamma 86.930936
_cell_volume 631.249763
_symmetry_space_group_name_H-M "P -1"
_symmetry_group_IT_number 2
_symmetry_cell_setting 'triclinic'
loop_
_space_group_symop_operation_xyz
x,y,z
-x,-y,-z
loop_
_atom_site_type_symbol
_atom_site_label
_atom_site_fract_x
_atom_site_fract_y
_atom_site_fract_z
Si Si1 0.700923 0.084594 0.118470
Si Si2 0.471532 0.229609 0.414492
Si Si3 0.244332 0.097096 0.413898
Si Si4 0.156133 0.645698 0.688754
Si Si5 0.678121 0.530209 0.151762
Si Si6 0.810539 0.559275 0.466445
Si Si7 0.993465 0.746611 0.266386
Si Si8 0.724493 0.079590 0.730223
O O1 0.422832 0.096885 0.189941
O O2 0.703382 0.987306 0.348319
O O3 0.866485 0.167585 0.034601
O O4 0.839619 0.101392 0.857101
O O5 0.346814 0.190508 0.328325
O O6 0.689756 0.317137 0.241100
O O7 0.598646 0.152802 0.568897
O O8 0.254667 0.239548 0.594884
O O9 0.948625 0.074240 0.542042
O O10 0.232401 0.560046 0.737781
O O11 0.179651 0.721937 0.402467
O O12 0.864181 0.609568 0.862897
O O13 0.697981 0.562739 0.296333
O O14 0.396324 0.496105 0.243162
O O15 0.000000 0.500000 0.500000
O O16 0.919947 0.657873 0.325705
O O17 0.500000 0.000000 0.000000
#
# Coordination Sequence:
#
# PCOD9046564 Si02
#       8
#     2   2   2   2   2   2   2   2
#     4  11  24  45  69  99 141 176 228 281 332 403
#     4  12  23  43  67  96 135 176 228 277 337 402
#     4  11  25  46  66 104 139 180 228 275 341 405
#     4  11  23  42  66  96 126 172 229 273 334 403
#     4  10  24  43  64  95 131 169 224 280 335 407
#     4  11  23  43  66  96 135 175 218 280 346 398
#     4  12  24  43  67  98 131 180 227 278 339 403
#     4  12  23  44  71  97 135 183 221 279 338 401
#
# _framework density 25.346543
#
# number of rings (size 3 to 8) (size 9 to 14) (size 15 to 20)
#    0.000    0.750    6.250    1.125    1.750    2.000 
#    4.500    0.000    0.000    0.000    0.000    0.000 
#    0.000    0.000    0.000    0.000    0.000    0.000 
#
# Total GULP energy -89373.407892 kJ/mol
# GULP energy per Si atom -5585.837993 kJ/mol
# Density = 2.528885 g / cm^3
# Si number density = 25.346543 Si / 1000 Ang^3
#
#
#
# Elastic Constant Matrix: (Units=GPa)
#
#
# Indices 1 2 3 4 5 6 
#
# 1 63.9540 35.3643 19.3303 -0.8158 -33.8376 -6.2651
# 2 35.3643 129.3714 35.6224 -15.6701 -25.5292 0.6434
# 3 19.3303 35.6224 81.7445 -3.8792 -22.8086 0.2719
# 4 -0.8158 -15.6701 -3.8792 40.7157 2.7288 -21.1206
# 5 -33.8376 -25.5292 -22.8086 2.7288 46.3934 -3.4897
# 6 -6.2651 0.6434 0.2719 -21.1206 -3.4897 55.9867
#
#
#
# Elastic Compliance Matrix: (Units=1/GPa)
#
#
# Indices 1 2 3 4 5 6 
#
# 1 0.028171 -0.004110 0.000359 0.000030 0.018790 0.004380
# 2 -0.004110 0.010399 -0.003076 0.004100 0.001050 0.001048
# 3 0.000359 -0.003076 0.015182 0.000075 0.006059 0.000408
# 4 0.000030 0.004100 0.000075 0.032422 0.001331 0.012270
# 5 0.018790 0.001050 0.006059 0.001331 0.039114 0.005001
# 6 0.004380 0.001048 0.000408 0.012270 0.005001 0.023278
#
#
# Mechanical properties :
#
#
# Convention : Reuss Voigt Hill
#
# Bulk Modulus (GPa) = 24.93864 50.63375 37.78620
# Shear Modulus (GPa) = 28.47632 40.93602 34.70617
#
# Velocity S-wave (km/s) = 3.35547 4.02313 3.70437
# Velocity P-wave (km/s) = 4.98725 6.44986 5.76513
#
# Compressibility (1/GPa) = 0.04009842
#
# Stress axis : x y z
#
# Youngs Moduli (GPa) = 35.49695 96.16689 65.86941
#
# Poissons Ratio (x) = 0.39524 -0.02364
# Poissons Ratio (y) = 0.14589 0.20258
# Poissons Ratio (z) = -0.01274 0.29576
#
# Static dielectric constant tensor:
#      x y z
#    x 2.126270 0.176750 -0.013050 
#    y 0.176750 2.140500 0.039580 
#    z -0.013050 0.039580 2.080190 
# 
# From -- ./inp_files/107549.got.cif
#   From: 2010.05.17/outbox.cif.g08.bks.cpg/sg2_54_cif.got.tgz:107549.got - 2010.06.03 11:33:40.
