data_PCOD9046742
_publ_section_title
;
Structure prediction by ZEFSAII (Michael W. Deem and Ramdas Pophale) SiO2 
 PCOD9046742
Probable space group: P -1
;
_chemical_formula_sum "Si O2"
_cell_formula_units_Z 16
_cell_length_a 6.563838
_cell_length_b 21.694741
_cell_length_c 8.927433
_cell_angle_alpha 49.034517
_cell_angle_beta 76.877458
_cell_angle_gamma 54.061898
_cell_volume 750.903202
_symmetry_space_group_name_H-M "P -1"
_symmetry_group_IT_number 2
_symmetry_cell_setting 'triclinic'
loop_
_space_group_symop_operation_xyz
x,y,z
-x,-y,-z
loop_
_atom_site_type_symbol
_atom_site_label
_atom_site_fract_x
_atom_site_fract_y
_atom_site_fract_z
Si Si1 0.935400 0.453202 0.947548
Si Si2 0.741536 0.327030 0.153780
Si Si3 0.264497 0.919574 0.671791
Si Si4 0.735028 0.590205 0.481477
Si Si5 0.450858 0.255890 0.489857
Si Si6 0.751091 0.836980 0.523595
Si Si7 0.973399 0.942076 0.227122
Si Si8 0.489019 0.686117 0.065631
O O1 0.216787 0.369680 0.957289
O O2 0.754827 0.527148 0.723216
O O3 0.000000 0.500000 0.000000
O O4 0.790768 0.403614 0.095567
O O5 0.537840 0.316108 0.288336
O O6 0.018481 0.219007 0.304247
O O7 0.653666 0.346353 0.965459
O O8 0.489576 0.905251 0.553678
O O9 0.209663 0.975909 0.747208
O O10 0.340886 0.807087 0.871953
O O11 0.000000 0.000000 0.500000
O O12 0.692098 0.685826 0.425415
O O13 0.522996 0.645682 0.294515
O O14 0.000000 0.500000 0.500000
O O15 0.273502 0.240541 0.441637
O O16 0.726992 0.146322 0.638810
O O17 0.832409 0.888180 0.311624
O O18 0.000000 0.000000 0.000000
#
# Coordination Sequence:
#
# PCOD9046742 Si02
#       8
#     2   2   2   2   2   2   2   2
#     4  11  23  42  68  99 129 180 232 281 346 413
#     4  11  21  40  71  95 131 179 230 287 345 404
#     4  12  21  43  70 102 138 186 243 286 340 423
#     4  10  24  43  67  96 139 179 221 287 356 420
#     4  11  22  45  67  96 136 176 235 289 341 419
#     4  11  22  43  72 101 137 184 238 290 343 418
#     4  11  25  41  66 102 140 185 228 289 359 416
#     4  11  23  42  62  97 138 172 228 288 345 411
#
# _framework density 21.307673000000001
#
# number of rings (size 3 to 8) (size 9 to 14) (size 15 to 20)
#    0.000    1.000    3.750    3.375    0.000    3.000 
#    0.000   11.250    0.000    0.000    0.000    0.000 
#    0.000    0.000    0.000    0.000    0.000    0.000 
#
# Total GULP energy -89160.609409 kJ/mol
# GULP energy per Si atom -5572.538088 kJ/mol
# Density = 2.125918 g / cm^3
# Si number density = 21.307673 Si / 1000 Ang^3
#
#
#
# Elastic Constant Matrix: (Units=GPa)
#
#
# Indices 1 2 3 4 5 6 
#
# 1 130.2264 45.2358 66.6068 2.4139 0.9607 16.0440
# 2 45.2358 120.9689 28.5041 2.2340 11.2274 3.8825
# 3 66.6068 28.5041 152.1908 0.1973 10.1257 9.7390
# 4 2.4139 2.2340 0.1973 35.0745 -0.4642 6.9216
# 5 0.9607 11.2274 10.1257 -0.4642 33.4906 -7.4606
# 6 16.0440 3.8825 9.7390 6.9216 -7.4606 42.2162
#
#
#
# Elastic Compliance Matrix: (Units=1/GPa)
#
#
# Indices 1 2 3 4 5 6 
#
# 1 0.011328 -0.003277 -0.004263 0.000018 0.001446 -0.002768
# 2 -0.003277 0.009843 -0.000190 -0.000421 -0.003178 -0.000109
# 3 -0.004263 -0.000190 0.008705 0.000400 -0.002641 -0.000903
# 4 0.000018 -0.000421 0.000400 0.029516 -0.000690 -0.005022
# 5 0.001446 -0.003178 -0.002641 -0.000690 0.033078 0.006311
# 6 -0.002768 -0.000109 -0.000903 -0.005022 0.006311 0.026896
#
#
# Mechanical properties :
#
#
# Convention : Reuss Voigt Hill
#
# Bulk Modulus (GPa) = 69.37244 76.00883 72.69063
# Shear Modulus (GPa) = 35.80848 39.69224 37.75036
#
# Velocity S-wave (km/s) = 4.10389 4.32072 4.21370
# Velocity P-wave (km/s) = 7.42186 7.78723 7.60674
#
# Compressibility (1/GPa) = 0.01441495
#
# Stress axis : x y z
#
# Youngs Moduli (GPa) = 88.27979 101.59337 114.87616
#
# Poissons Ratio (x) = 0.33294 0.48971
# Poissons Ratio (y) = 0.28931 0.02186
# Poissons Ratio (z) = 0.37633 0.01934
#
# Static dielectric constant tensor:
#      x y z
#    x 1.781210 -0.008910 0.012250 
#    y -0.008910 1.887670 -0.046220 
#    z 0.012250 -0.046220 1.862500 
# 
# From -- ./inp_files/141130.got.cif
#   From: 2010.05.17/outbox.cif.g08.bks.cpg/sg2_71_cif.got.tgz:141130.got - 2010.06.03 11:33:40.
