data_PCOD9046444
_publ_section_title
;
Structure prediction by ZEFSAII (Michael W. Deem and Ramdas Pophale) SiO2 
 PCOD9046444
Probable space group: P -1
;
_chemical_formula_sum "Si O2"
_cell_formula_units_Z 13
_cell_length_a 8.617026
_cell_length_b 8.935288
_cell_length_c 11.866811
_cell_angle_alpha 111.839509
_cell_angle_beta 131.933736
_cell_angle_gamma 43.594206
_cell_volume 457.388874
_symmetry_space_group_name_H-M "P -1"
_symmetry_group_IT_number 2
_symmetry_cell_setting 'triclinic'
loop_
_space_group_symop_operation_xyz
x,y,z
-x,-y,-z
loop_
_atom_site_type_symbol
_atom_site_label
_atom_site_fract_x
_atom_site_fract_y
_atom_site_fract_z
Si Si1 0.305471 0.261510 0.115406
Si Si2 0.042460 0.505943 0.270968
Si Si3 0.399053 0.594246 0.709594
Si Si4 0.404245 0.849647 0.081022
Si Si5 0.166058 0.802513 0.431051
Si Si6 0.000000 0.500000 0.500000
Si Si7 0.197361 0.894735 0.222736
O O1 0.554922 0.245935 0.186050
O O2 0.266498 0.301456 0.241953
O O3 0.355395 0.049840 0.058927
O O4 0.000000 0.500000 0.000000
O O5 0.714529 0.617344 0.134293
O O6 0.133280 0.429258 0.420876
O O7 0.009194 0.717778 0.298085
O O8 0.405109 0.606509 0.579962
O O9 0.688564 0.346827 0.816824
O O10 0.138072 0.615979 0.619267
O O11 0.407805 0.871904 0.227536
O O12 0.122859 0.901173 0.920878
O O13 0.213570 0.882512 0.363166
O O14 0.000000 0.000000 0.500000
#
# Coordination Sequence:
#
# PCOD9046444 Si02
#       7
#     2   2   2   2   2   1   2
#     4  12  25  44  72 106 141 187 233 292 360 422
#     4  11  24  43  69 103 142 182 235 294 354 415
#     4  11  22  45  71  96 143 184 234 289 352 412
#     4  11  25  45  71 105 142 186 235 294 359 420
#     4  11  24  41  69 103 135 190 236 289 351 423
#     4  10  24  42  72  98 136 190 230 288 348 416
#     4  11  23  46  69 100 146 186 233 297 352 420
#
# _framework density 28.422201000000001
#
# number of rings (size 3 to 8) (size 9 to 14) (size 15 to 20)
#    0.000    0.923    4.615    1.385    2.154    6.154 
#    0.000    6.154    0.000    0.000    0.000    0.000 
#    0.000    0.000    0.000    0.000    0.000    0.000 
#
# Total GULP energy -72390.400371 kJ/mol
# GULP energy per Si atom -5568.492336 kJ/mol
# Density = 2.835751 g / cm^3
# Si number density = 28.422201 Si / 1000 Ang^3
#
#
#
# Elastic Constant Matrix: (Units=GPa)
#
#
# Indices 1 2 3 4 5 6 
#
# 1 180.1143 31.8685 44.3315 10.4525 -20.4658 -1.5759
# 2 31.8685 80.9837 3.4360 3.3262 2.5033 16.4250
# 3 44.3315 3.4360 74.1264 -8.3699 -31.6887 6.8402
# 4 10.4525 3.3262 -8.3699 45.6922 0.6806 0.0184
# 5 -20.4658 2.5033 -31.6887 0.6806 66.9302 -5.0768
# 6 -1.5759 16.4250 6.8402 0.0184 -5.0768 41.5276
#
#
#
# Elastic Compliance Matrix: (Units=1/GPa)
#
#
# Indices 1 2 3 4 5 6 
#
# 1 0.007440 -0.003122 -0.004607 -0.002326 0.000411 0.002327
# 2 -0.003122 0.014870 0.001125 -0.000138 -0.001459 -0.006364
# 3 -0.004607 0.001125 0.020375 0.004587 0.007921 -0.003010
# 4 -0.002326 -0.000138 0.004587 0.023251 0.001180 -0.000655
# 5 0.000411 -0.001459 0.007921 0.001180 0.018982 0.001608
# 6 0.002327 -0.006364 -0.003010 -0.000655 0.001608 0.027378
#
#
# Mechanical properties :
#
#
# Convention : Reuss Voigt Hill
#
# Bulk Modulus (GPa) = 33.92096 54.94405 44.43251
# Shear Modulus (GPa) = 36.94723 47.86924 42.40823
#
# Velocity S-wave (km/s) = 3.60938 4.10838 3.86694
# Velocity P-wave (km/s) = 5.41579 6.47135 5.96696
#
# Compressibility (1/GPa) = 0.02948030
#
# Stress axis : x y z
#
# Youngs Moduli (GPa) = 134.40552 67.24847 49.07911
#
# Poissons Ratio (x) = 0.20992 0.22609
# Poissons Ratio (y) = 0.41955 -0.05523
# Poissons Ratio (z) = 0.61915 -0.07568
#
# Static dielectric constant tensor:
#      x y z
#    x 2.295900 -0.050820 0.014930 
#    y -0.050820 2.339550 -0.057120 
#    z 0.014930 -0.057120 2.567310 
# 
# From -- ./inp_files/174218.got.cif
#   From: 2010.05.17/outbox.cif.g08.bks.cpg/sg2_88_cif.got.tgz:174218.got - 2010.06.03 11:33:40.
