data_PCOD9046677
_publ_section_title
;
Structure prediction by ZEFSAII (Michael W. Deem and Ramdas Pophale) SiO2 
 PCOD9046677
Probable space group: P -1
;
_chemical_formula_sum "Si O2"
_cell_formula_units_Z 14
_cell_length_a 15.739178
_cell_length_b 5.801031
_cell_length_c 15.739281
_cell_angle_alpha 85.035016
_cell_angle_beta 27.481315
_cell_angle_gamma 94.963176
_cell_volume 617.570657
_symmetry_space_group_name_H-M "P -1"
_symmetry_group_IT_number 2
_symmetry_cell_setting 'triclinic'
loop_
_space_group_symop_operation_xyz
x,y,z
-x,-y,-z
loop_
_atom_site_type_symbol
_atom_site_label
_atom_site_fract_x
_atom_site_fract_y
_atom_site_fract_z
Si Si1 0.098353 0.533320 0.503269
Si Si2 0.867968 0.500003 0.867951
Si Si3 0.503276 0.466689 0.098347
Si Si4 0.345788 0.999999 0.345795
Si Si5 0.886863 0.008309 0.295131
Si Si6 0.704872 0.008300 0.113134
Si Si7 0.612633 0.803698 0.387368
O O1 0.307410 0.500014 0.307396
O O2 0.157835 0.816035 0.471317
O O3 0.000000 0.500000 0.500000
O O4 0.957566 0.398340 0.710658
O O5 0.053476 0.697947 0.746182
O O6 0.710671 0.601663 0.957551
O O7 0.746202 0.302049 0.053455
O O8 0.471314 0.183971 0.157841
O O9 0.500000 0.500000 0.000000
O O10 0.263828 0.117933 0.491846
O O11 0.491842 0.882067 0.263834
O O12 0.782514 0.888382 0.304901
O O13 0.102592 0.000021 0.102584
O O14 0.695104 0.888387 0.217484
O O15 0.500000 0.500000 0.500000
O O16 0.500000 0.000000 0.500000
#
# Coordination Sequence:
#
# PCOD9046677 Si02
#       7
#     2   2   2   2   2   2   2
#     4  11  22  41  63  94 137 181 235 292 351 423
#     4  10  24  43  68 100 136 182 244 289 364 418
#     4  11  22  41  63  94 137 181 235 292 351 423
#     4  10  24  43  66  98 140 182 232 301 354 422
#     4  11  24  45  72 102 136 186 238 296 358 442
#     4  11  24  45  72 102 136 186 238 296 358 442
#     4  12  29  49  78 111 151 195 237 304 371 441
#
# _framework density 22.669468999999999
#
# number of rings (size 3 to 8) (size 9 to 14) (size 15 to 20)
#    0.000    1.143    2.857    2.143    4.000    2.857 
#    2.571    0.000    0.000    0.000    0.000    0.000 
#    0.000    0.000    0.000    0.000    0.000    0.000 
#
# Total GULP energy -77948.970091 kJ/mol
# GULP energy per Si atom -5567.783578 kJ/mol
# Density = 2.261787 g / cm^3
# Si number density = 22.669469 Si / 1000 Ang^3
#
#
#
# Elastic Constant Matrix: (Units=GPa)
#
#
# Indices 1 2 3 4 5 6 
#
# 1 184.3746 69.0122 73.5923 -24.4686 15.7530 23.8516
# 2 69.0122 54.8483 38.1049 -11.0947 5.0748 10.2446
# 3 73.5923 38.1049 149.1791 7.6038 0.7903 -4.5756
# 4 -24.4686 -11.0947 7.6038 48.2330 -13.6172 -11.0000
# 5 15.7530 5.0748 0.7903 -13.6172 47.6715 -9.1851
# 6 23.8516 10.2446 -4.5756 -11.0000 -9.1851 25.2664
#
#
#
# Elastic Compliance Matrix: (Units=1/GPa)
#
#
# Indices 1 2 3 4 5 6 
#
# 1 0.012885 -0.011122 -0.003841 0.001146 -0.004512 -0.009491
# 2 -0.011122 0.036256 -0.004015 0.002366 -0.000208 -0.003974
# 3 -0.003841 -0.004015 0.009938 -0.002243 0.002218 0.006884
# 4 0.001146 0.002366 -0.002243 0.028105 0.010023 0.013433
# 5 -0.004512 -0.000208 0.002218 0.010023 0.029110 0.019691
# 6 -0.009491 -0.003974 0.006884 0.013433 0.019691 0.064402
#
#
# Mechanical properties :
#
#
# Convention : Reuss Voigt Hill
#
# Bulk Modulus (GPa) = 47.34556 83.31344 65.32950
# Shear Modulus (GPa) = 22.15378 38.08034 30.11706
#
# Velocity S-wave (km/s) = 3.12949 4.10299 3.64885
# Velocity P-wave (km/s) = 5.82999 7.69917 6.82884
#
# Compressibility (1/GPa) = 0.02112130
#
# Stress axis : x y z
#
# Youngs Moduli (GPa) = 77.60695 27.58136 100.62735
#
# Poissons Ratio (x) = 0.30677 0.38653
# Poissons Ratio (y) = 0.86318 0.40407
# Poissons Ratio (z) = 0.29810 0.11075
#
# Static dielectric constant tensor:
#      x y z
#    x 1.809800 -0.033270 -0.023280 
#    y -0.033270 2.134140 -0.044200 
#    z -0.023280 -0.044200 1.921580 
# 
# From -- ./inp_files/98277.got.cif
#   From: 2010.05.17/outbox.cif.g08.bks.cpg/sg2_50_cif.got.tgz:98277.got - 2010.06.03 11:33:40.
