data_PCOD9046674
_publ_section_title
;
Structure prediction by ZEFSAII (Michael W. Deem and Ramdas Pophale) SiO2 
 PCOD9046674
Probable space group: P -1
;
_chemical_formula_sum "Si O2"
_cell_formula_units_Z 16
_cell_length_a 22.705434
_cell_length_b 9.412040
_cell_length_c 4.747903
_cell_angle_alpha 104.004932
_cell_angle_beta 120.143213
_cell_angle_gamma 39.301784
_cell_volume 535.505772
_symmetry_space_group_name_H-M "P -1"
_symmetry_group_IT_number 2
_symmetry_cell_setting 'triclinic'
loop_
_space_group_symop_operation_xyz
x,y,z
-x,-y,-z
loop_
_atom_site_type_symbol
_atom_site_label
_atom_site_fract_x
_atom_site_fract_y
_atom_site_fract_z
Si Si1 0.450306 0.394616 0.295860
Si Si2 0.103105 0.808506 0.757857
Si Si3 0.602329 0.141964 0.057102
Si Si4 0.108731 0.060844 0.637380
Si Si5 0.071045 0.403806 0.846425
Si Si6 0.381892 0.203245 0.180026
Si Si7 0.805784 0.503403 0.689078
Si Si8 0.243382 0.881744 0.315749
O O1 0.496559 0.359995 0.089423
O O2 0.394289 0.330564 0.096589
O O3 0.359437 0.643972 0.341691
O O4 0.556964 0.215097 0.665467
O O5 0.175601 0.576140 0.625068
O O6 0.980914 0.918688 0.476475
O O7 0.112627 0.744795 0.075000
O O8 0.180477 0.833709 0.934124
O O9 0.705780 0.063839 0.344390
O O10 0.633691 0.920173 0.088793
O O11 0.161771 0.109216 0.993517
O O12 0.021811 0.346496 0.475799
O O13 0.173351 0.937164 0.445425
O O14 0.151073 0.406770 0.093776
O O15 0.000000 0.500000 0.000000
O O16 0.302242 0.343506 0.322694
O O17 0.500000 0.000000 0.500000
#
# Coordination Sequence:
#
# PCOD9046674 Si02
#       8
#     2   2   2   2   2   2   2   2
#     4  11  22  40  62  90 128 177 225 279 333 389
#     4  12  26  47  73 104 139 179 232 292 354 425
#     4  11  23  40  62  90 129 178 225 278 333 392
#     4  12  25  43  68  99 133 173 218 283 347 410
#     4  12  26  48  72 103 140 180 227 287 354 428
#     4  10  24  43  66  98 138 183 234 284 335 408
#     4  12  26  46  75 106 141 189 234 285 355 419
#     4  12  24  41  64  96 131 171 226 280 338 411
#
# _framework density 29.878298000000001
#
# number of rings (size 3 to 8) (size 9 to 14) (size 15 to 20)
#    0.000    0.500    0.000    9.000    0.000    7.000 
#    0.000    0.000    0.000    0.000    0.000    0.000 
#    0.000    0.000    0.000    0.000    0.000    0.000 
#
# Total GULP energy -89629.403394 kJ/mol
# GULP energy per Si atom -5601.837712 kJ/mol
# Density = 2.981029 g / cm^3
# Si number density = 29.878298 Si / 1000 Ang^3
#
#
#
# Elastic Constant Matrix: (Units=GPa)
#
#
# Indices 1 2 3 4 5 6 
#
# 1 248.2986 72.2865 76.0683 23.1567 31.8413 13.6496
# 2 72.2865 143.8095 43.1982 14.6286 13.8397 -0.8815
# 3 76.0683 43.1982 192.1449 1.3175 14.7944 -4.5833
# 4 23.1567 14.6286 1.3175 58.5454 -0.6443 9.0746
# 5 31.8413 13.8397 14.7944 -0.6443 86.2138 12.4072
# 6 13.6496 -0.8815 -4.5833 9.0746 12.4072 76.7394
#
#
#
# Elastic Compliance Matrix: (Units=1/GPa)
#
#
# Indices 1 2 3 4 5 6 
#
# 1 0.005449 -0.001973 -0.001617 -0.001533 -0.001330 -0.000692
# 2 -0.001973 0.008463 -0.001054 -0.001416 -0.000552 0.000642
# 3 -0.001617 -0.001054 0.006120 0.000665 -0.000368 0.000622
# 4 -0.001533 -0.001416 0.000665 0.018357 0.001112 -0.002054
# 5 -0.001330 -0.000552 -0.000368 0.001112 0.012531 -0.001949
# 6 -0.000692 0.000642 0.000622 -0.002054 -0.001949 0.013757
#
#
# Mechanical properties :
#
#
# Convention : Reuss Voigt Hill
#
# Bulk Modulus (GPa) = 93.08042 107.48433 100.28237
# Shear Modulus (GPa) = 64.47704 70.47973 67.47838
#
# Velocity S-wave (km/s) = 4.65046 4.86211 4.75746
# Velocity P-wave (km/s) = 7.74961 8.22024 7.98839
#
# Compressibility (1/GPa) = 0.01074340
#
# Stress axis : x y z
#
# Youngs Moduli (GPa) = 183.52200 118.15751 163.39374
#
# Poissons Ratio (x) = 0.23318 0.26422
# Poissons Ratio (y) = 0.36218 0.17221
# Poissons Ratio (z) = 0.29677 0.12453
#
# Static dielectric constant tensor:
#      x y z
#    x 2.204690 0.216180 0.068030 
#    y 0.216180 2.309870 -0.107080 
#    z 0.068030 -0.107080 2.351020 
# 
# From -- ./inp_files/123817.got.cif
#   From: 2010.05.17/outbox.cif.g08.bks.cpg/sg2_62_cif.got.tgz:123817.got - 2010.06.03 11:33:40.
