data_PCOD9046481
_publ_section_title
;
Structure prediction by ZEFSAII (Michael W. Deem and Ramdas Pophale) SiO2 
 PCOD9046481
Probable space group: P -1
;
_chemical_formula_sum "Si O2"
_cell_formula_units_Z 13
_cell_length_a 6.569905
_cell_length_b 12.376342
_cell_length_c 15.994200
_cell_angle_alpha 46.014844
_cell_angle_beta 37.018542
_cell_angle_gamma 68.679964
_cell_volume 505.722945
_symmetry_space_group_name_H-M "P -1"
_symmetry_group_IT_number 2
_symmetry_cell_setting 'triclinic'
loop_
_space_group_symop_operation_xyz
x,y,z
-x,-y,-z
loop_
_atom_site_type_symbol
_atom_site_label
_atom_site_fract_x
_atom_site_fract_y
_atom_site_fract_z
Si Si1 0.500000 0.500000 0.500000
Si Si2 0.549744 0.585312 0.250118
Si Si3 0.387280 0.267829 0.399514
Si Si4 0.667240 0.960757 0.741675
Si Si5 0.392996 0.631901 0.914590
Si Si6 0.700658 0.171669 0.892978
Si Si7 0.449460 0.751347 0.464426
O O1 0.509471 0.596346 0.355670
O O2 0.199374 0.572226 0.602659
O O3 0.266440 0.398947 0.412947
O O4 0.471353 0.713950 0.151539
O O5 0.968586 0.605587 0.083268
O O6 0.561403 0.353654 0.208658
O O7 0.605491 0.241873 0.422196
O O8 0.064810 0.085940 0.582813
O O9 0.663315 0.817455 0.760150
O O10 0.537893 0.085398 0.669214
O O11 0.396605 0.869698 0.956605
O O12 0.500000 0.500000 0.000000
O O13 0.154500 0.258425 0.686346
O O14 0.500000 0.000000 0.000000
#
# Coordination Sequence:
#
# PCOD9046481 Si02
#       7
#     1   2   2   2   2   2   2
#     4  10  24  42  74 104 144 182 236 290 352 428
#     4  11  26  47  75 106 146 191 242 295 364 427
#     4  11  27  47  73 107 143 192 244 295 356 423
#     4  12  26  47  74 109 146 186 245 295 360 426
#     4  12  28  50  74 101 145 195 245 298 357 426
#     4  12  23  44  72 106 145 188 231 294 365 430
#     4  11  25  43  74 109 147 186 234 291 365 427
#
# _framework density 25.705773000000001
#
# number of rings (size 3 to 8) (size 9 to 14) (size 15 to 20)
#    0.000    0.615    1.538    5.077    6.462    1.846 
#    0.000    0.000    0.000    0.000    0.000    0.000 
#    0.000    0.000    0.000    0.000    0.000    0.000 
#
# Total GULP energy -72605.262903 kJ/mol
# GULP energy per Si atom -5585.020223 kJ/mol
# Density = 2.564727 g / cm^3
# Si number density = 25.705773 Si / 1000 Ang^3
#
#
#
# Elastic Constant Matrix: (Units=GPa)
#
#
# Indices 1 2 3 4 5 6 
#
# 1 180.8412 91.4946 60.5198 11.8434 54.1744 -6.1359
# 2 91.4946 141.7674 31.6933 -26.2261 29.2780 -4.8124
# 3 60.5198 31.6933 85.8832 14.2992 30.1944 -1.9142
# 4 11.8434 -26.2261 14.2992 56.5374 2.5170 11.9078
# 5 54.1744 29.2780 30.1944 2.5170 75.7864 0.4502
# 6 -6.1359 -4.8124 -1.9142 11.9078 0.4502 72.6637
#
#
#
# Elastic Compliance Matrix: (Units=1/GPa)
#
#
# Indices 1 2 3 4 5 6 
#
# 1 0.011745 -0.006777 -0.003453 -0.004808 -0.004250 0.001266
# 2 -0.006777 0.013223 -0.001513 0.008159 0.000074 -0.001074
# 3 -0.003453 -0.001513 0.016542 -0.004168 -0.003404 0.000748
# 4 -0.004808 0.008159 -0.004168 0.024318 0.001162 -0.003968
# 5 -0.004250 0.000074 -0.003404 0.001162 0.017526 -0.000743
# 6 0.001266 -0.001074 0.000748 -0.003968 -0.000743 0.014472
#
#
# Mechanical properties :
#
#
# Convention : Reuss Voigt Hill
#
# Bulk Modulus (GPa) = 55.47407 86.21192 70.84299
# Shear Modulus (GPa) = 39.27117 55.98310 47.62714
#
# Velocity S-wave (km/s) = 3.91284 4.67180 4.30906
# Velocity P-wave (km/s) = 6.48391 7.91907 7.23715
#
# Compressibility (1/GPa) = 0.01802644
#
# Stress axis : x y z
#
# Youngs Moduli (GPa) = 85.14422 75.62382 60.45068
#
# Poissons Ratio (x) = 0.51250 0.20871
# Poissons Ratio (y) = 0.57702 0.09144
# Poissons Ratio (z) = 0.29396 0.11439
#
# Static dielectric constant tensor:
#      x y z
#    x 1.997530 -0.111090 0.013170 
#    y -0.111090 1.923870 0.086280 
#    z 0.013170 0.086280 2.010550 
# 
# From -- ./inp_files/372871.got.cif
#   From: 2010.05.17/outbox.cif.g08.bks.cpg/sg2_187_cif.got.tgz:372871.got - 2010.06.03 11:33:40.
