data_PCOD9046250
_publ_section_title
;
Structure prediction by ZEFSAII (Michael W. Deem and Ramdas Pophale) SiO2 
 PCOD9046250
Probable space group: P -1
;
_chemical_formula_sum "Si O2"
_cell_formula_units_Z 16
_cell_length_a 8.000991
_cell_length_b 19.621563
_cell_length_c 8.952049
_cell_angle_alpha 128.263760
_cell_angle_beta 128.405936
_cell_angle_gamma 60.061336
_cell_volume 849.648548
_symmetry_space_group_name_H-M "P -1"
_symmetry_group_IT_number 2
_symmetry_cell_setting 'triclinic'
loop_
_space_group_symop_operation_xyz
x,y,z
-x,-y,-z
loop_
_atom_site_type_symbol
_atom_site_label
_atom_site_fract_x
_atom_site_fract_y
_atom_site_fract_z
Si Si1 0.484905 0.807071 0.306786
Si Si2 0.501787 0.492301 0.741365
Si Si3 0.550209 0.043683 0.933323
Si Si4 0.814887 0.015193 0.539329
Si Si5 0.681256 0.614883 0.249858
Si Si6 0.311065 0.792464 0.861109
Si Si7 0.799864 0.395961 0.522152
Si Si8 0.137139 0.085395 0.267211
O O1 0.285035 0.881369 0.353685
O O2 0.546133 0.714498 0.300010
O O3 0.688500 0.855279 0.506805
O O4 0.434710 0.786912 0.079950
O O5 0.382413 0.429573 0.692861
O O6 0.701090 0.440906 0.682494
O O7 0.324948 0.545069 0.600900
O O8 0.596536 0.558775 0.993902
O O9 0.370454 0.033067 0.696273
O O10 0.760146 0.983767 0.894796
O O11 0.574011 0.145297 0.097708
O O12 0.500000 0.000000 0.000000
O O13 0.893453 0.969142 0.675229
O O14 0.000000 0.000000 0.500000
O O15 0.939695 0.613388 0.367805
O O16 0.277775 0.698140 0.657417
O O17 0.071160 0.850064 0.822442
#
# Coordination Sequence:
#
# PCOD9046250 Si02
#       8
#     2   2   2   2   2   2   2   2
#     4  11  22  41  62  91 125 164 211 259 309 373
#     4  10  24  42  69  97 126 165 207 263 325 392
#     4  11  23  38  61  91 124 164 215 260 310 372
#     4  11  23  40  61  89 127 170 213 260 311 371
#     4  11  22  44  68  93 131 165 208 262 325 383
#     4  12  22  39  66  89 125 166 210 259 316 366
#     4  11  23  42  68  97 129 163 211 262 323 383
#     4  11  22  41  62  83 125 169 206 258 309 366
#
# _framework density 18.831316000000001
#
# number of rings (size 3 to 8) (size 9 to 14) (size 15 to 20)
#    0.000    1.000    5.000    2.625    1.750    3.000 
#    0.000    0.000    2.750    0.000    0.000    0.000 
#    0.000    0.000    0.000    0.000    0.000    0.000 
#
# Total GULP energy -89344.226980 kJ/mol
# GULP energy per Si atom -5584.014186 kJ/mol
# Density = 1.878845 g / cm^3
# Si number density = 18.831316 Si / 1000 Ang^3
#
#
#
# Elastic Constant Matrix: (Units=GPa)
#
#
# Indices 1 2 3 4 5 6 
#
# 1 73.5364 42.7608 23.1656 11.6067 -4.6262 25.2804
# 2 42.7608 127.3428 39.6606 19.7388 -0.4274 20.8844
# 3 23.1656 39.6606 94.6233 8.7231 8.7433 16.3746
# 4 11.6067 19.7388 8.7231 37.7744 -0.3075 1.9788
# 5 -4.6262 -0.4274 8.7433 -0.3075 27.8214 -7.1069
# 6 25.2804 20.8844 16.3746 1.9788 -7.1069 28.8299
#
#
#
# Elastic Compliance Matrix: (Units=1/GPa)
#
#
# Indices 1 2 3 4 5 6 
#
# 1 0.022235 -0.004077 -0.000587 -0.003729 -0.000318 -0.016033
# 2 -0.004077 0.011128 -0.002815 -0.003772 -0.000358 -0.002716
# 3 -0.000587 -0.002815 0.013732 -0.001220 -0.006177 -0.006684
# 4 -0.003729 -0.003772 -0.001220 0.029621 0.001306 0.004984
# 5 -0.000318 -0.000358 -0.006177 0.001306 0.041463 0.014178
# 6 -0.016033 -0.002716 -0.006684 0.004984 0.014178 0.057662
#
#
# Mechanical properties :
#
#
# Convention : Reuss Voigt Hill
#
# Bulk Modulus (GPa) = 31.11803 56.29737 43.70770
# Shear Modulus (GPa) = 24.81264 31.54616 28.17940
#
# Velocity S-wave (km/s) = 3.63385 4.09736 3.87254
# Velocity P-wave (km/s) = 5.84525 7.23498 6.57693
#
# Compressibility (1/GPa) = 0.03213571
#
# Stress axis : x y z
#
# Youngs Moduli (GPa) = 44.97468 89.86643 72.82365
#
# Poissons Ratio (x) = 0.36640 0.04275
# Poissons Ratio (y) = 0.18337 0.20500
# Poissons Ratio (z) = 0.02640 0.25298
#
# Static dielectric constant tensor:
#      x y z
#    x 1.632180 0.038140 0.028640 
#    y 0.038140 1.623540 0.013030 
#    z 0.028640 0.013030 1.661820 
# 
# From -- ./inp_files/218405.got.cif
#   From: 2010.05.17/outbox.cif.g08.bks.cpg/sg2_110_cif.got.tgz:218405.got - 2010.06.03 11:33:40.
