data_PCOD9046417
_publ_section_title
;
Structure prediction by ZEFSAII (Michael W. Deem and Ramdas Pophale) SiO2 
 PCOD9046417
Probable space group: P -1
;
_chemical_formula_sum "Si O2"
_cell_formula_units_Z 12
_cell_length_a 7.100398
_cell_length_b 9.958054
_cell_length_c 9.299125
_cell_angle_alpha 74.993092
_cell_angle_beta 49.894153
_cell_angle_gamma 65.032482
_cell_volume 455.819617
_symmetry_space_group_name_H-M "P -1"
_symmetry_group_IT_number 2
_symmetry_cell_setting 'triclinic'
loop_
_space_group_symop_operation_xyz
x,y,z
-x,-y,-z
loop_
_atom_site_type_symbol
_atom_site_label
_atom_site_fract_x
_atom_site_fract_y
_atom_site_fract_z
Si Si1 0.192400 0.234939 0.093135
Si Si2 0.387615 0.352671 0.188585
Si Si3 0.080053 0.645139 0.083358
Si Si4 0.569697 0.634846 0.501880
Si Si5 0.725806 0.083491 0.792863
Si Si6 0.704625 0.037755 0.487253
O O1 0.201089 0.263461 0.250537
O O2 0.229347 0.063802 0.093090
O O3 0.487110 0.228552 0.907896
O O4 0.992697 0.344193 0.052757
O O5 0.260055 0.491736 0.106966
O O6 0.351177 0.398028 0.360952
O O7 0.705264 0.271060 0.039088
O O8 0.803870 0.673244 0.293332
O O9 0.500000 0.500000 0.500000
O O10 0.323473 0.790781 0.578048
O O11 0.661960 0.043060 0.675739
O O12 0.015705 0.086439 0.646518
O O13 0.500000 0.000000 0.500000
#
# Coordination Sequence:
#
# PCOD9046417 Si02
#       6
#     2   2   2   2   2   2
#     4  11  23  46  73 102 144 188 244 300 359 430
#     4  11  27  45  73 106 142 195 242 298 365 435
#     4  11  26  46  71 103 146 191 238 301 362 431
#     4  12  28  48  75 110 149 192 240 304 365 429
#     4  10  24  42  72 104 139 190 239 299 362 423
#     4  11  24  46  72 106 144 187 243 296 355 436
#
# _framework density 26.326203
#
# number of rings (size 3 to 8) (size 9 to 14) (size 15 to 20)
#    0.000    1.000    1.667    3.000   11.667    0.000 
#    3.000    4.167    0.000    0.000    0.000    0.000 
#    0.000    0.000    0.000    0.000    0.000    0.000 
#
# Total GULP energy -66948.442156 kJ/mol
# GULP energy per Si atom -5579.036846 kJ/mol
# Density = 2.626628 g / cm^3
# Si number density = 26.326203 Si / 1000 Ang^3
#
#
#
# Elastic Constant Matrix: (Units=GPa)
#
#
# Indices 1 2 3 4 5 6 
#
# 1 206.3849 17.3235 47.3144 -11.7555 35.5359 -7.9560
# 2 17.3235 83.0060 -5.2746 -21.5013 18.5453 -21.0645
# 3 47.3144 -5.2746 97.8631 -11.5949 7.1109 -10.4502
# 4 -11.7555 -21.5013 -11.5949 30.5286 -12.8960 -3.0411
# 5 35.5359 18.5453 7.1109 -12.8960 40.2378 2.1752
# 6 -7.9560 -21.0645 -10.4502 -3.0411 2.1752 41.3991
#
#
#
# Elastic Compliance Matrix: (Units=1/GPa)
#
#
# Indices 1 2 3 4 5 6 
#
# 1 0.006403 -0.000521 -0.002830 -0.001177 -0.005316 0.000444
# 2 -0.000521 0.021255 0.005109 0.015519 -0.005993 0.013459
# 3 -0.002830 0.005109 0.013483 0.008269 0.000084 0.006062
# 4 -0.001177 0.015519 0.008269 0.051096 0.008094 0.013085
# 5 -0.005316 -0.005993 0.000084 0.008094 0.035176 -0.005303
# 6 0.000444 0.013459 0.006062 0.013085 -0.005303 0.033859
#
#
# Mechanical properties :
#
#
# Convention : Reuss Voigt Hill
#
# Bulk Modulus (GPa) = 22.39242 56.22005 39.30624
# Shear Modulus (GPa) = 28.96196 44.29248 36.62722
#
# Velocity S-wave (km/s) = 3.32040 4.10622 3.73404
# Velocity P-wave (km/s) = 4.81916 6.62441 5.79255
#
# Compressibility (1/GPa) = 0.04465796
#
# Stress axis : x y z
#
# Youngs Moduli (GPa) = 156.17350 47.04753 74.16960
#
# Poissons Ratio (x) = 0.02449 0.20987
# Poissons Ratio (y) = 0.08130 -0.37891
# Poissons Ratio (z) = 0.44190 -0.24035
#
# Static dielectric constant tensor:
#      x y z
#    x 2.214450 0.264550 -0.118150 
#    y 0.264550 2.299630 -0.040720 
#    z -0.118150 -0.040720 2.224770 
# 
# From -- ./inp_files/38689.got.cif
#   From: 2010.05.17/outbox.cif.g08.bks.cpg/sg2_20_cif.got.tgz:38689.got - 2010.06.03 11:33:40.
