data_PCOD9046664
_publ_section_title
;
Structure prediction by ZEFSAII (Michael W. Deem and Ramdas Pophale) SiO2 
 PCOD9046664
Probable space group: P -1
;
_chemical_formula_sum "Si O2"
_cell_formula_units_Z 16
_cell_length_a 7.261914
_cell_length_b 19.345789
_cell_length_c 19.677278
_cell_angle_alpha 21.129697
_cell_angle_beta 53.253484
_cell_angle_gamma 46.151701
_cell_volume 706.359671
_symmetry_space_group_name_H-M "P -1"
_symmetry_group_IT_number 2
_symmetry_cell_setting 'triclinic'
loop_
_space_group_symop_operation_xyz
x,y,z
-x,-y,-z
loop_
_atom_site_type_symbol
_atom_site_label
_atom_site_fract_x
_atom_site_fract_y
_atom_site_fract_z
Si Si1 0.245269 0.470502 0.347296
Si Si2 0.403983 0.319043 0.939320
Si Si3 0.298438 0.720738 0.379111
Si Si4 0.182083 0.440321 0.168074
Si Si5 0.309170 0.163386 0.730156
Si Si6 0.477216 0.337167 0.061957
Si Si7 0.803052 0.917043 0.026917
Si Si8 0.211220 0.172706 0.527969
O O1 0.447282 0.560099 0.239168
O O2 0.171681 0.366275 0.523526
O O3 0.356388 0.276842 0.445834
O O4 0.002968 0.677760 0.177032
O O5 0.117840 0.392268 0.908323
O O6 0.380988 0.384428 0.963146
O O7 0.566253 0.061855 0.131022
O O8 0.500000 0.500000 0.500000
O O9 0.465229 0.798842 0.317869
O O10 0.079176 0.712875 0.481716
O O11 0.151755 0.899708 0.188318
O O12 0.257203 0.392527 0.116558
O O13 0.223670 0.232413 0.392791
O O14 0.364643 0.534648 0.071116
O O15 0.163438 0.121887 0.863944
O O16 0.670057 0.081778 0.257079
O O17 0.500000 0.000000 0.000000
#
# Coordination Sequence:
#
# PCOD9046664 Si02
#       8
#     2   2   2   2   2   2   2   2
#     4  12  25  43  68 101 141 188 231 294 348 418
#     4  12  25  45  72 103 140 183 238 287 359 424
#     4  11  25  44  71 104 139 188 238 288 348 422
#     4  11  26  44  77  99 143 187 229 299 357 425
#     4  11  25  44  67  98 141 183 236 290 351 409
#     4  11  24  49  69 109 138 182 239 291 362 421
#     4  10  24  43  66  97 138 185 235 283 343 414
#     4  12  23  44  71 100 144 183 234 289 356 417
#
# _framework density 22.651350000000001
#
# number of rings (size 3 to 8) (size 9 to 14) (size 15 to 20)
#    0.000    0.750    2.500    4.875    7.000    0.500 
#    0.000    0.625    0.000    0.000    0.000    0.000 
#    0.000    0.000    0.000    0.000    0.000    0.000 
#
# Total GULP energy -89514.901954 kJ/mol
# GULP energy per Si atom -5594.681372 kJ/mol
# Density = 2.259979 g / cm^3
# Si number density = 22.651350 Si / 1000 Ang^3
#
#
#
# Elastic Constant Matrix: (Units=GPa)
#
#
# Indices 1 2 3 4 5 6 
#
# 1 52.4133 13.9429 2.1927 10.0475 -11.0040 -2.5617
# 2 13.9429 84.3851 35.1432 12.8008 -12.5603 -0.5065
# 3 2.1927 35.1432 105.7944 27.2666 3.6342 6.2898
# 4 10.0475 12.8008 27.2666 39.4166 2.6315 1.0743
# 5 -11.0040 -12.5603 3.6342 2.6315 37.3357 3.1497
# 6 -2.5617 -0.5065 6.2898 1.0743 3.1497 39.4949
#
#
#
# Elastic Compliance Matrix: (Units=1/GPa)
#
#
# Indices 1 2 3 4 5 6 
#
# 1 0.022208 -0.002555 0.001812 -0.006501 0.005898 0.000826
# 2 -0.002555 0.015225 -0.004875 -0.001260 0.004894 0.000450
# 3 0.001812 -0.004875 0.013220 -0.007865 -0.001695 -0.001701
# 4 -0.006501 -0.001260 -0.007865 0.033133 -0.003929 0.000227
# 5 0.005898 0.004894 -0.001695 -0.003929 0.030748 -0.001630
# 6 0.000826 0.000450 -0.001701 0.000227 -0.001630 0.025774
#
#
# Mechanical properties :
#
#
# Convention : Reuss Voigt Hill
#
# Bulk Modulus (GPa) = 25.36896 38.35004 31.85950
# Shear Modulus (GPa) = 30.36145 36.00372 33.18259
#
# Velocity S-wave (km/s) = 3.66509 3.99115 3.83159
# Velocity P-wave (km/s) = 5.39765 6.18113 5.80263
#
# Compressibility (1/GPa) = 0.03941825
#
# Stress axis : x y z
#
# Youngs Moduli (GPa) = 45.02913 65.68116 75.64090
#
# Poissons Ratio (x) = 0.16783 -0.13709
# Poissons Ratio (y) = 0.11506 0.36873
# Poissons Ratio (z) = -0.08161 0.32017
#
# Static dielectric constant tensor:
#      x y z
#    x 1.873930 0.011090 -0.007520 
#    y 0.011090 1.864800 0.027330 
#    z -0.007520 0.027330 1.816600 
# 
# From -- ./inp_files/591601.got.cif
#   From: 2010.05.17/outbox.cif.g08.bks.cpg/sg2_296_cif.got.tgz:591601.got - 2010.06.03 11:33:40.
