data_PCOD9046821
_publ_section_title
;
Structure prediction by ZEFSAII (Michael W. Deem and Ramdas Pophale) SiO2 
 PCOD9046821
Probable space group: P -1
;
_chemical_formula_sum "Si O2"
_cell_formula_units_Z 16
_cell_length_a 5.078465
_cell_length_b 15.202827
_cell_length_c 23.865264
_cell_angle_alpha 150.726767
_cell_angle_beta 61.919037
_cell_angle_gamma 100.499938
_cell_volume 674.400465
_symmetry_space_group_name_H-M "P -1"
_symmetry_group_IT_number 2
_symmetry_cell_setting 'triclinic'
loop_
_space_group_symop_operation_xyz
x,y,z
-x,-y,-z
loop_
_atom_site_type_symbol
_atom_site_label
_atom_site_fract_x
_atom_site_fract_y
_atom_site_fract_z
Si Si1 0.882300 0.983919 0.923323
Si Si2 0.911029 0.902247 0.695640
Si Si3 0.069169 0.671437 0.819647
Si Si4 0.544878 0.202920 0.503401
Si Si5 0.482831 0.260983 0.008517
Si Si6 0.534377 0.278176 0.363147
Si Si7 0.065937 0.015786 0.437460
Si Si8 0.611180 0.547588 0.075528
O O1 0.846551 0.169168 0.069167
O O2 0.679707 0.100489 0.951660
O O3 0.832541 0.816826 0.871688
O O4 0.280305 0.826034 0.772414
O O5 0.823410 0.720624 0.596374
O O6 0.085619 0.931547 0.640615
O O7 0.198984 0.858545 0.689502
O O8 0.540217 0.105585 0.864913
O O9 0.388021 0.449239 0.643148
O O10 0.893467 0.606404 0.850296
O O11 0.262231 0.144724 0.482651
O O12 0.679744 0.142205 0.519004
O O13 0.614687 0.401579 0.045360
O O14 0.500000 0.500000 0.500000
O O15 0.328876 0.785247 0.256263
O O16 0.000000 0.000000 0.500000
O O17 0.500000 0.500000 0.000000
O O18 0.000000 0.500000 0.000000
#
# Coordination Sequence:
#
# PCOD9046821 Si02
#       8
#     2   2   2   2   2   2   2   2
#     4  10  24  43  68 105 142 190 247 301 351 447
#     4  11  23  42  65  98 130 182 230 291 353 424
#     4  11  24  44  70 103 144 195 244 292 369 434
#     4  12  27  46  74 103 148 191 240 308 369 440
#     4  11  24  44  74  99 148 186 245 303 371 428
#     4  11  22  41  65  95 136 181 234 289 351 411
#     4  12  27  50  72 110 148 191 247 309 379 451
#     4  12  28  48  81 114 147 194 252 311 381 444
#
# _framework density 23.724777
#
# number of rings (size 3 to 8) (size 9 to 14) (size 15 to 20)
#    0.000    0.750    1.250    5.625    5.250    1.000 
#    2.250    0.000    0.000    0.000    0.000    0.000 
#    0.000    0.000    0.000    0.000    0.000    0.000 
#
# Total GULP energy -89348.715527 kJ/mol
# GULP energy per Si atom -5584.294720 kJ/mol
# Density = 2.367078 g / cm^3
# Si number density = 23.724777 Si / 1000 Ang^3
#
#
#
# Elastic Constant Matrix: (Units=GPa)
#
#
# Indices 1 2 3 4 5 6 
#
# 1 84.5025 21.7523 24.5948 -3.4014 6.4116 6.1583
# 2 21.7523 138.3176 32.0001 1.0803 -3.6282 9.8828
# 3 24.5948 32.0001 118.8211 12.3802 10.0678 -2.5147
# 4 -3.4014 1.0803 12.3802 32.5345 0.6648 -4.1034
# 5 6.4116 -3.6282 10.0678 0.6648 29.2762 1.4686
# 6 6.1583 9.8828 -2.5147 -4.1034 1.4686 46.5835
#
#
#
# Elastic Compliance Matrix: (Units=1/GPa)
#
#
# Indices 1 2 3 4 5 6 
#
# 1 0.013281 -0.001515 -0.002411 0.002239 -0.002253 -0.001296
# 2 -0.001515 0.008132 -0.002106 0.000115 0.002146 -0.001696
# 3 -0.002411 -0.002106 0.010178 -0.003854 -0.003200 0.001076
# 4 0.002239 0.000115 -0.003854 0.032731 -0.000012 0.002355
# 5 -0.002253 0.002146 -0.003200 -0.000012 0.036091 -0.001469
# 6 -0.001296 -0.001696 0.001076 0.002355 -0.001469 0.022310
#
#
# Mechanical properties :
#
#
# Convention : Reuss Voigt Hill
#
# Bulk Modulus (GPa) = 51.21174 55.37062 53.29118
# Shear Modulus (GPa) = 35.38692 39.23177 37.30934
#
# Velocity S-wave (km/s) = 3.86626 4.07088 3.96989
# Velocity P-wave (km/s) = 6.44696 6.74430 6.59730
#
# Compressibility (1/GPa) = 0.01952677
#
# Stress axis : x y z
#
# Youngs Moduli (GPa) = 75.29466 122.97359 98.25406
#
# Poissons Ratio (x) = 0.18628 0.23688
# Poissons Ratio (y) = 0.11406 0.20694
# Poissons Ratio (z) = 0.18153 0.25901
#
# Static dielectric constant tensor:
#      x y z
#    x 1.962880 -0.027280 -0.052240 
#    y -0.027280 2.002600 -0.029420 
#    z -0.052240 -0.029420 1.987430 
# 
# From -- ./inp_files/604753.got.cif
#   From: 2010.05.17/outbox.cif.g08.bks.cpg/sg2_303_cif.got.tgz:604753.got - 2010.06.03 11:33:40.
