data_PCOD9046353
_publ_section_title
;
Structure prediction by ZEFSAII (Michael W. Deem and Ramdas Pophale) SiO2 
 PCOD9046353
Probable space group: P -1
;
_chemical_formula_sum "Si O2"
_cell_formula_units_Z 14
_cell_length_a 8.687810
_cell_length_b 5.679222
_cell_length_c 11.280548
_cell_angle_alpha 85.430162
_cell_angle_beta 84.232507
_cell_angle_gamma 93.280432
_cell_volume 550.809115
_symmetry_space_group_name_H-M "P -1"
_symmetry_group_IT_number 2
_symmetry_cell_setting 'triclinic'
loop_
_space_group_symop_operation_xyz
x,y,z
-x,-y,-z
loop_
_atom_site_type_symbol
_atom_site_label
_atom_site_fract_x
_atom_site_fract_y
_atom_site_fract_z
Si Si1 0.027487 0.304976 0.605188
Si Si2 0.907346 0.363168 0.217217
Si Si3 0.271290 0.966577 0.597166
Si Si4 0.566112 0.311184 0.586802
Si Si5 0.749074 0.630900 0.019110
Si Si6 0.824886 0.949123 0.805408
Si Si7 0.580001 0.297970 0.844262
O O1 0.129906 0.444085 0.691271
O O2 0.000000 0.500000 0.500000
O O3 0.141280 0.124539 0.548936
O O4 0.904696 0.159223 0.708676
O O5 0.794566 0.140949 0.270787
O O6 0.078772 0.275336 0.236113
O O7 0.863173 0.481212 0.093929
O O8 0.296449 0.789804 0.494175
O O9 0.432920 0.100811 0.611901
O O10 0.500000 0.500000 0.500000
O O11 0.596287 0.417880 0.709169
O O12 0.836091 0.867398 0.946724
O O13 0.679540 0.454068 0.927131
O O14 0.597878 0.704420 0.100022
O O15 0.650302 0.041626 0.824250
#
# Coordination Sequence:
#
# PCOD9046353 Si02
#       7
#     2   2   2   2   2   2   2
#     4  11  26  44  69 104 145 182 235 291 349 420
#     4  11  25  47  71 103 140 189 231 293 351 422
#     4  10  24  42  71 102 138 186 228 284 358 420
#     4  11  24  44  71 104 143 182 232 288 356 423
#     4  11  25  48  71 101 144 183 240 289 350 418
#     4  11  26  44  73 102 139 188 237 288 352 411
#     4  11  26  43  71 105 140 182 232 297 345 418
#
# _framework density 25.417157
#
# number of rings (size 3 to 8) (size 9 to 14) (size 15 to 20)
#    0.000    1.143    0.000    4.286    6.000   10.286 
#    0.000    0.000    0.000    0.000    0.000    0.000 
#    0.000    0.000    0.000    0.000    0.000    0.000 
#
# Total GULP energy -78043.316705 kJ/mol
# GULP energy per Si atom -5574.522622 kJ/mol
# Density = 2.535931 g / cm^3
# Si number density = 25.417157 Si / 1000 Ang^3
#
#
#
# Elastic Constant Matrix: (Units=GPa)
#
#
# Indices 1 2 3 4 5 6 
#
# 1 78.3080 49.8417 58.6281 -5.8438 -11.2696 -16.5145
# 2 49.8417 99.8489 65.9676 -17.3708 -6.3296 -44.5891
# 3 58.6281 65.9676 186.5835 -26.4780 14.2551 -22.5440
# 4 -5.8438 -17.3708 -26.4780 59.9400 -5.5541 -0.1923
# 5 -11.2696 -6.3296 14.2551 -5.5541 53.2451 5.0128
# 6 -16.5145 -44.5891 -22.5440 -0.1923 5.0128 45.9483
#
#
#
# Elastic Compliance Matrix: (Units=1/GPa)
#
#
# Indices 1 2 3 4 5 6 
#
# 1 0.022372 -0.010353 -0.004682 -0.002443 0.004960 -0.004854
# 2 -0.010353 0.028254 -0.003287 0.005852 0.000582 0.022046
# 3 -0.004682 -0.003287 0.008503 0.002030 -0.003416 -0.000319
# 4 -0.002443 0.005852 0.002030 0.019157 0.001091 0.005757
# 5 0.004960 0.000582 -0.003416 0.001091 0.021082 -0.001624
# 6 -0.004854 0.022046 -0.000319 0.005757 -0.001624 0.041457
#
#
# Mechanical properties :
#
#
# Convention : Reuss Voigt Hill
#
# Bulk Modulus (GPa) = 44.46955 79.29059 61.88007
# Shear Modulus (GPa) = 27.03222 44.51354 35.77288
#
# Velocity S-wave (km/s) = 3.26474 4.18942 3.75564
# Velocity P-wave (km/s) = 5.63429 7.39358 6.57306
#
# Compressibility (1/GPa) = 0.02248730
#
# Stress axis : x y z
#
# Youngs Moduli (GPa) = 44.69786 35.39278 117.60321
#
# Poissons Ratio (x) = 0.36642 0.55058
# Poissons Ratio (y) = 0.46275 0.38654
# Poissons Ratio (z) = 0.20926 0.11633
#
# Static dielectric constant tensor:
#      x y z
#    x 2.078490 0.029220 -0.018440 
#    y 0.029220 2.014730 -0.005010 
#    z -0.018440 -0.005010 2.002950 
# 
# From -- ./inp_files/372917.got.cif
#   From: 2010.05.17/outbox.cif.g08.bks.cpg/sg2_187_cif.got.tgz:372917.got - 2010.06.03 11:33:40.
