data_PCOD9046578
_publ_section_title
;
Structure prediction by ZEFSAII (Michael W. Deem and Ramdas Pophale) SiO2 
 PCOD9046578
Probable space group: P -1
;
_chemical_formula_sum "Si O2"
_cell_formula_units_Z 14
_cell_length_a 14.697543
_cell_length_b 10.920655
_cell_length_c 17.403904
_cell_angle_alpha 27.768991
_cell_angle_beta 31.938561
_cell_angle_gamma 28.049682
_cell_volume 582.041866
_symmetry_space_group_name_H-M "P -1"
_symmetry_group_IT_number 2
_symmetry_cell_setting 'triclinic'
loop_
_space_group_symop_operation_xyz
x,y,z
-x,-y,-z
loop_
_atom_site_type_symbol
_atom_site_label
_atom_site_fract_x
_atom_site_fract_y
_atom_site_fract_z
Si Si1 0.405566 0.142980 0.159773
Si Si2 0.627770 0.367566 0.801917
Si Si3 0.611335 0.603639 0.187530
Si Si4 0.015414 0.844249 0.910863
Si Si5 0.948815 0.531400 0.272386
Si Si6 0.152567 0.300086 0.570875
Si Si7 0.474239 0.315809 0.552436
O O1 0.175514 0.245991 0.253825
O O2 0.544907 0.864120 0.155463
O O3 0.461977 0.016558 0.275652
O O4 0.448382 0.412289 0.961889
O O5 0.563669 0.287691 0.811336
O O6 0.662280 0.648568 0.606274
O O7 0.830733 0.084763 0.854417
O O8 0.829365 0.482563 0.060881
O O9 0.615935 0.316135 0.385404
O O10 0.159040 0.980212 0.745051
O O11 0.936934 0.788076 0.078747
O O12 0.930480 0.581402 0.349300
O O13 0.760133 0.502307 0.403053
O O14 0.000000 0.500000 0.500000
O O15 0.500000 0.500000 0.500000
#
# Coordination Sequence:
#
# PCOD9046578 Si02
#       7
#     2   2   2   2   2   2   2
#     4  11  25  42  68 104 136 173 229 268 346 409
#     4  11  22  44  66  99 137 175 223 276 332 403
#     4  11  24  43  66 102 134 178 218 275 344 403
#     4  11  25  43  69  96 137 178 226 276 332 397
#     4  12  23  46  69  97 140 178 219 288 329 398
#     4  10  25  46  68  98 132 180 234 278 334 388
#     4  10  24  43  65 102 137 177 222 267 343 410
#
# _framework density 24.053252000000001
#
# number of rings (size 3 to 8) (size 9 to 14) (size 15 to 20)
#    0.000    1.143    4.286    0.857    4.000    5.714 
#    0.000    2.857    0.000    0.000    0.000    0.000 
#    0.000    0.000    0.000    0.000    0.000    0.000 
#
# Total GULP energy -78160.526022 kJ/mol
# GULP energy per Si atom -5582.894716 kJ/mol
# Density = 2.399851 g / cm^3
# Si number density = 24.053252 Si / 1000 Ang^3
#
#
#
# Elastic Constant Matrix: (Units=GPa)
#
#
# Indices 1 2 3 4 5 6 
#
# 1 98.2012 32.0220 38.3799 10.9529 22.4724 -8.8734
# 2 32.0220 48.4615 5.0811 5.7083 3.8154 -12.4059
# 3 38.3799 5.0811 149.8222 4.9053 32.2498 10.1941
# 4 10.9529 5.7083 4.9053 30.9238 -8.6789 3.2930
# 5 22.4724 3.8154 32.2498 -8.6789 49.8761 0.1907
# 6 -8.8734 -12.4059 10.1941 3.2930 0.1907 25.9545
#
#
#
# Elastic Compliance Matrix: (Units=1/GPa)
#
#
# Indices 1 2 3 4 5 6 
#
# 1 0.016310 -0.008484 -0.002628 -0.005842 -0.006029 0.003339
# 2 -0.008484 0.029513 0.000360 -0.003537 0.000673 0.011508
# 3 -0.002628 0.000360 0.008652 -0.001401 -0.004667 -0.003913
# 4 -0.005842 -0.003537 -0.001401 0.039142 0.010651 -0.008182
# 5 -0.006029 0.000673 -0.004667 0.010651 0.027591 -0.001461
# 6 0.003339 0.011508 -0.003913 -0.008182 -0.001461 0.047757
#
#
# Mechanical properties :
#
#
# Convention : Reuss Voigt Hill
#
# Bulk Modulus (GPa) = 30.32970 49.71677 40.02324
# Shear Modulus (GPa) = 24.81879 36.08434 30.45157
#
# Velocity S-wave (km/s) = 3.21569 3.87742 3.56196
# Velocity P-wave (km/s) = 5.14046 6.38437 5.79588
#
# Compressibility (1/GPa) = 0.03297098
#
# Stress axis : x y z
#
# Youngs Moduli (GPa) = 61.31204 33.88338 115.57610
#
# Poissons Ratio (x) = 0.28747 0.30379
# Poissons Ratio (y) = 0.52018 -0.04166
# Poissons Ratio (z) = 0.16116 -0.01221
#
# Static dielectric constant tensor:
#      x y z
#    x 1.928790 -0.006610 0.029010 
#    y -0.006610 1.937080 -0.072020 
#    z 0.029010 -0.072020 2.021200 
# 
# From -- ./inp_files/236600.got.cif
#   From: 2010.05.17/outbox.cif.g08.bks.cpg/sg2_119_cif.got.tgz:236600.got - 2010.06.03 11:33:40.
