data_PCOD9046182
_publ_section_title
;
Structure prediction by ZEFSAII (Michael W. Deem and Ramdas Pophale) SiO2 
 PCOD9046182
Probable space group: P -1
;
_chemical_formula_sum "Si O2"
_cell_formula_units_Z 16
_cell_length_a 17.880621
_cell_length_b 5.098189
_cell_length_c 15.299566
_cell_angle_alpha 71.124547
_cell_angle_beta 149.562570
_cell_angle_gamma 115.011112
_cell_volume 637.729877
_symmetry_space_group_name_H-M "P -1"
_symmetry_group_IT_number 2
_symmetry_cell_setting 'triclinic'
loop_
_space_group_symop_operation_xyz
x,y,z
-x,-y,-z
loop_
_atom_site_type_symbol
_atom_site_label
_atom_site_fract_x
_atom_site_fract_y
_atom_site_fract_z
Si Si1 0.061294 0.132569 0.762388
Si Si2 0.985689 0.366892 0.903056
Si Si3 0.738131 0.737186 0.755633
Si Si4 0.210107 0.812746 0.413095
Si Si5 0.745708 0.245825 0.095496
Si Si6 0.579501 0.365132 0.468204
Si Si7 0.866285 0.080691 0.410013
Si Si8 0.604426 0.862370 0.294236
O O1 0.192340 0.413137 0.896956
O O2 0.925234 0.048124 0.707643
O O3 0.970263 0.237983 0.579778
O O4 0.151036 0.918055 0.837161
O O5 0.901468 0.458700 0.725084
O O6 0.869474 0.036040 0.829944
O O7 0.000000 0.500000 0.000000
O O8 0.164233 0.399428 0.064994
O O9 0.678566 0.528644 0.634169
O O10 0.593019 0.771730 0.657359
O O11 0.357310 0.877372 0.487692
O O12 0.306218 0.841003 0.596110
O O13 0.778420 0.210880 0.235127
O O14 0.563419 0.134064 0.905017
O O15 0.588952 0.610164 0.377963
O O16 0.724735 0.842568 0.341786
O O17 0.000000 0.000000 0.500000
#
# Coordination Sequence:
#
# PCOD9046182 Si02
#       8
#     2   2   2   2   2   2   2   2
#     4  10  25  44  74 103 140 184 234 291 352 418
#     4  11  22  43  64  95 127 187 229 291 343 427
#     4  10  24  42  68  95 135 178 239 286 364 412
#     4  11  25  41  66  97 138 180 236 289 354 419
#     4  11  24  46  70 107 138 188 232 288 355 428
#     4  11  24  44  66 101 138 182 228 301 351 430
#     4   9  21  46  72 102 141 186 232 286 352 427
#     4  11  25  43  67 102 143 181 230 291 355 419
#
# _framework density 25.088991
#
# number of rings (size 3 to 8) (size 9 to 14) (size 15 to 20)
#    0.000    1.500    2.500    0.750    8.750    1.500 
#    2.250    3.125    0.000    0.000    0.000    0.000 
#    0.000    0.000    0.000    0.000    0.000    0.000 
#
# Total GULP energy -89093.024839 kJ/mol
# GULP energy per Si atom -5568.314052 kJ/mol
# Density = 2.503189 g / cm^3
# Si number density = 25.088991 Si / 1000 Ang^3
#
#
#
# Elastic Constant Matrix: (Units=GPa)
#
#
# Indices 1 2 3 4 5 6 
#
# 1 186.2911 39.8120 62.6833 13.0739 24.0097 4.6406
# 2 39.8120 75.3516 24.2779 15.6972 -1.5559 -4.9508
# 3 62.6833 24.2779 204.4122 10.8000 23.3581 5.8405
# 4 13.0739 15.6972 10.8000 28.5896 3.1436 -6.3800
# 5 24.0097 -1.5559 23.3581 3.1436 50.6662 -1.4638
# 6 4.6406 -4.9508 5.8405 -6.3800 -1.4638 35.0096
#
#
#
# Elastic Compliance Matrix: (Units=1/GPa)
#
#
# Indices 1 2 3 4 5 6 
#
# 1 0.006963 -0.003201 -0.001349 -0.000934 -0.002759 -0.001436
# 2 -0.003201 0.017026 -0.001046 -0.007426 0.003034 0.001780
# 3 -0.001349 -0.001046 0.005749 -0.001027 -0.002014 -0.001199
# 4 -0.000934 -0.007426 -0.001027 0.041562 -0.001696 0.006748
# 5 -0.002759 0.003034 -0.002014 -0.001696 0.022222 0.001751
# 6 -0.001436 0.001780 -0.001199 0.006748 0.001751 0.030509
#
#
# Mechanical properties :
#
#
# Convention : Reuss Voigt Hill
#
# Bulk Modulus (GPa) = 53.92188 79.95572 66.93880
# Shear Modulus (GPa) = 35.35960 45.47185 40.41573
#
# Velocity S-wave (km/s) = 3.75823 4.26187 4.01795
# Velocity P-wave (km/s) = 6.35384 7.49374 6.94721
#
# Compressibility (1/GPa) = 0.01854535
#
# Stress axis : x y z
#
# Youngs Moduli (GPa) = 143.61635 58.73451 173.95244
#
# Poissons Ratio (x) = 0.18800 0.23472
# Poissons Ratio (y) = 0.45970 0.18192
# Poissons Ratio (z) = 0.19379 0.06142
#
# Static dielectric constant tensor:
#      x y z
#    x 2.123350 0.125950 -0.142250 
#    y 0.125950 2.191560 -0.181450 
#    z -0.142250 -0.181450 2.088160 
# 
# From -- ./inp_files/536324.got.cif
#   From: 2010.05.17/outbox.cif.g08.bks.cpg/sg2_269_cif.got.tgz:536324.got - 2010.06.03 11:33:40.
