data_PCOD9046591
_publ_section_title
;
Structure prediction by ZEFSAII (Michael W. Deem and Ramdas Pophale) SiO2 
 PCOD9046591
Probable space group: P -1
;
_chemical_formula_sum "Si O2"
_cell_formula_units_Z 16
_cell_length_a 15.525895
_cell_length_b 9.597869
_cell_length_c 12.509529
_cell_angle_alpha 67.852353
_cell_angle_beta 116.996258
_cell_angle_gamma 57.312224
_cell_volume 780.513205
_symmetry_space_group_name_H-M "P -1"
_symmetry_group_IT_number 2
_symmetry_cell_setting 'triclinic'
loop_
_space_group_symop_operation_xyz
x,y,z
-x,-y,-z
loop_
_atom_site_type_symbol
_atom_site_label
_atom_site_fract_x
_atom_site_fract_y
_atom_site_fract_z
Si Si1 0.842715 0.841643 0.795214
Si Si2 0.345755 0.119230 0.674385
Si Si3 0.718060 0.260372 0.191351
Si Si4 0.722236 0.582067 0.154756
Si Si5 0.926566 0.271310 0.582018
Si Si6 0.149720 0.821353 0.229381
Si Si7 0.478750 0.139042 0.550860
Si Si8 0.885234 0.838667 0.569126
O O1 0.847521 0.866718 0.663791
O O2 0.837773 0.014032 0.796735
O O3 0.660565 0.999506 0.689411
O O4 0.000000 0.500000 0.000000
O O5 0.155942 0.468798 0.486802
O O6 0.457703 0.051812 0.661867
O O7 0.257836 0.079838 0.599011
O O8 0.498489 0.918159 0.915232
O O9 0.735297 0.414719 0.138107
O O10 0.817147 0.088478 0.410050
O O11 0.500000 0.500000 0.000000
O O12 0.857509 0.999798 0.258135
O O13 0.789823 0.443795 0.351056
O O14 0.888209 0.474246 0.240050
O O15 0.907537 0.166811 0.689522
O O16 0.315629 0.484823 0.378426
O O17 0.000000 0.000000 0.000000
O O18 0.500000 0.000000 0.500000
#
# Coordination Sequence:
#
# PCOD9046591 Si02
#       8
#     2   2   2   2   2   2   2   2
#     4  12  24  42  70  98 134 180 228 283 344 397
#     4  11  23  43  67  99 132 178 222 276 343 398
#     4  11  22  41  65  98 130 173 219 271 337 401
#     4  11  22  42  67  96 131 170 225 272 339 406
#     4  10  24  43  65  93 142 168 220 288 327 402
#     4  11  25  44  68 100 134 179 231 279 341 406
#     4  11  23  43  67  98 139 177 227 284 332 406
#     4  11  23  41  70  94 135 174 225 275 336 406
#
# _framework density 20.499334000000001
#
# number of rings (size 3 to 8) (size 9 to 14) (size 15 to 20)
#    0.000    1.000    2.500    5.250    1.750    4.000 
#    2.250    1.250    0.000    0.000    0.000    0.000 
#    0.000    0.000    0.000    0.000    0.000    0.000 
#
# Total GULP energy -89085.151169 kJ/mol
# GULP energy per Si atom -5567.821948 kJ/mol
# Density = 2.045268 g / cm^3
# Si number density = 20.499334 Si / 1000 Ang^3
#
#
#
# Elastic Constant Matrix: (Units=GPa)
#
#
# Indices 1 2 3 4 5 6 
#
# 1 121.4925 62.9625 60.7538 -7.5394 16.4302 6.8787
# 2 62.9625 101.8966 41.9191 0.4741 -0.7007 3.6631
# 3 60.7538 41.9191 109.2537 -9.8547 16.2290 -3.1148
# 4 -7.5394 0.4741 -9.8547 32.2229 2.7770 4.9551
# 5 16.4302 -0.7007 16.2290 2.7770 31.3338 -1.0568
# 6 6.8787 3.6631 -3.1148 4.9551 -1.0568 39.3563
#
#
#
# Elastic Compliance Matrix: (Units=1/GPa)
#
#
# Indices 1 2 3 4 5 6 
#
# 1 0.015885 -0.007866 -0.004622 0.003445 -0.006519 -0.003019
# 2 -0.007866 0.015965 -0.003013 -0.003588 0.006370 0.000273
# 3 -0.004622 -0.003013 0.014000 0.003438 -0.005145 0.001625
# 4 0.003445 -0.003588 0.003438 0.034225 -0.006852 -0.004489
# 5 -0.006519 0.006370 -0.005145 -0.006852 0.038816 0.002044
# 6 -0.003019 0.000273 0.001625 -0.004489 0.002044 0.026660
#
#
# Mechanical properties :
#
#
# Convention : Reuss Voigt Hill
#
# Bulk Modulus (GPa) = 67.35568 73.76817 70.56193
# Shear Modulus (GPa) = 27.54769 31.71643 29.63206
#
# Velocity S-wave (km/s) = 3.66981 3.93770 3.80612
# Velocity P-wave (km/s) = 7.13341 7.53245 7.33564
#
# Compressibility (1/GPa) = 0.01484656
#
# Stress axis : x y z
#
# Youngs Moduli (GPa) = 62.95091 62.63777 71.42778
#
# Poissons Ratio (x) = 0.49273 0.33016
# Poissons Ratio (y) = 0.49520 0.21522
# Poissons Ratio (z) = 0.29098 0.18874
#
# Static dielectric constant tensor:
#      x y z
#    x 1.698720 -0.103230 0.072020 
#    y -0.103230 1.229700 0.371260 
#    z 0.072020 0.371260 1.465150 
# 
# From -- ./inp_files/346083.got.cif
#   From: 2010.05.17/outbox.cif.g08.bks.cpg/sg2_174_cif.got.tgz:346083.got - 2010.06.03 11:33:40.
