data_PCOD9046145
_publ_section_title
;
Structure prediction by ZEFSAII (Michael W. Deem and Ramdas Pophale) SiO2 
 PCOD9046145
Probable space group: P -1
;
_chemical_formula_sum "Si O2"
_cell_formula_units_Z 12
_cell_length_a 13.468540
_cell_length_b 10.658194
_cell_length_c 6.476847
_cell_angle_alpha 104.030589
_cell_angle_beta 108.418598
_cell_angle_gamma 130.392002
_cell_volume 527.749536
_symmetry_space_group_name_H-M "P -1"
_symmetry_group_IT_number 2
_symmetry_cell_setting 'triclinic'
loop_
_space_group_symop_operation_xyz
x,y,z
-x,-y,-z
loop_
_atom_site_type_symbol
_atom_site_label
_atom_site_fract_x
_atom_site_fract_y
_atom_site_fract_z
Si Si1 0.239425 0.294299 0.229009
Si Si2 0.528331 0.137842 0.900354
Si Si3 0.203602 0.852217 0.323402
Si Si4 0.902474 0.415775 0.188698
Si Si5 0.042740 0.955044 0.313896
Si Si6 0.471555 0.369244 0.122132
O O1 0.304302 0.250343 0.089917
O O2 0.394014 0.497360 0.545209
O O3 0.123349 0.127672 0.268097
O O4 0.123923 0.269419 0.993942
O O5 0.387966 0.982202 0.566098
O O6 0.727022 0.325346 0.046776
O O7 0.485661 0.238564 0.997239
O O8 0.500000 0.000000 0.000000
O O9 0.178112 0.973286 0.430843
O O10 0.051370 0.626536 0.239912
O O11 0.164147 0.785195 0.030833
O O12 0.000000 0.500000 0.500000
O O13 0.000000 0.000000 0.500000
O O14 0.500000 0.500000 0.000000
#
# Coordination Sequence:
#
# PCOD9046145 Si02
#       6
#     2   2   2   2   2   2
#     4  10  24  42  68 102 139 185 235 291 358 425
#     4  12  26  46  75 102 146 187 236 295 358 425
#     4  11  26  46  70 104 139 187 242 290 359 427
#     4  11  26  46  71 101 141 188 234 295 355 428
#     4  11  24  42  71 101 139 185 237 298 353 422
#     4  11  25  46  69 105 141 186 236 293 357 428
#
# _framework density 22.738059
#
# number of rings (size 3 to 8) (size 9 to 14) (size 15 to 20)
#    0.000    1.000    1.667    3.500    9.333    1.333 
#    3.000    0.000    0.000    0.000    0.000    0.000 
#    0.000    0.000    0.000    0.000    0.000    0.000 
#
# Total GULP energy -66905.038601 kJ/mol
# GULP energy per Si atom -5575.419883 kJ/mol
# Density = 2.268631 g / cm^3
# Si number density = 22.738059 Si / 1000 Ang^3
#
#
#
# Elastic Constant Matrix: (Units=GPa)
#
#
# Indices 1 2 3 4 5 6 
#
# 1 137.0098 25.1969 77.4258 -4.8029 -6.4328 10.4724
# 2 25.1969 50.1473 27.4295 -7.7132 -9.2907 12.6822
# 3 77.4258 27.4295 190.9897 6.8763 18.5175 10.7569
# 4 -4.8029 -7.7132 6.8763 24.7437 15.4197 3.8288
# 5 -6.4328 -9.2907 18.5175 15.4197 50.5236 5.1029
# 6 10.4724 12.6822 10.7569 3.8288 5.1029 42.5727
#
#
#
# Elastic Compliance Matrix: (Units=1/GPa)
#
#
# Indices 1 2 3 4 5 6 
#
# 1 0.010184 -0.001994 -0.004025 0.001348 0.002122 -0.001270
# 2 -0.001994 0.026642 -0.003268 0.007287 0.004407 -0.007804
# 3 -0.004025 -0.003268 0.007703 -0.001905 -0.003416 0.000598
# 4 0.001348 0.007287 -0.001905 0.052571 -0.013315 -0.005153
# 5 0.002122 0.004407 -0.003416 -0.013315 0.026487 -0.002949
# 6 -0.001270 -0.007804 0.000598 -0.005153 -0.002949 0.026792
#
#
# Mechanical properties :
#
#
# Convention : Reuss Voigt Hill
#
# Bulk Modulus (GPa) = 38.52846 70.91679 54.72262
# Shear Modulus (GPa) = 28.15255 40.10766 34.13010
#
# Velocity S-wave (km/s) = 3.52252 4.20444 3.87849
# Velocity P-wave (km/s) = 5.79011 7.40446 6.64648
#
# Compressibility (1/GPa) = 0.02595484
#
# Stress axis : x y z
#
# Youngs Moduli (GPa) = 98.19458 37.53533 129.82044
#
# Poissons Ratio (x) = 0.07484 0.52251
# Poissons Ratio (y) = 0.19579 0.42426
# Poissons Ratio (z) = 0.39522 0.12267
#
# Static dielectric constant tensor:
#      x y z
#    x 1.902240 0.082960 0.039340 
#    y 0.082960 1.829300 0.007930 
#    z 0.039340 0.007930 2.030270 
# 
# From -- ./inp_files/31060.got.cif
#   From: 2010.05.17/outbox.cif.g08.bks.cpg/sg2_16_cif.got.tgz:31060.got - 2010.06.03 11:33:40.
