data_PCOD9046889
_publ_section_title
;
Structure prediction by ZEFSAII (Michael W. Deem and Ramdas Pophale) SiO2 
 PCOD9046889
Probable space group: P -1
;
_chemical_formula_sum "Si O2"
_cell_formula_units_Z 16
_cell_length_a 21.710204
_cell_length_b 10.084416
_cell_length_c 20.880988
_cell_angle_alpha 44.155276
_cell_angle_beta 18.738155
_cell_angle_gamma 33.531227
_cell_volume 741.565961
_symmetry_space_group_name_H-M "P -1"
_symmetry_group_IT_number 2
_symmetry_cell_setting 'triclinic'
loop_
_space_group_symop_operation_xyz
x,y,z
-x,-y,-z
loop_
_atom_site_type_symbol
_atom_site_label
_atom_site_fract_x
_atom_site_fract_y
_atom_site_fract_z
Si Si1 0.788190 0.888670 0.094200
Si Si2 0.810283 0.215370 0.165563
Si Si3 0.295416 0.735177 0.420793
Si Si4 0.530331 0.580728 0.010402
Si Si5 0.536016 0.250611 0.540074
Si Si6 0.017074 0.003538 0.726602
Si Si7 0.736280 0.484587 0.599560
Si Si8 0.680984 0.871200 0.803835
O O1 0.704835 0.727060 0.231382
O O2 0.511171 0.198363 0.267470
O O3 0.996723 0.786335 0.980854
O O4 0.926821 0.878692 0.897799
O O5 0.557856 0.486812 0.286645
O O6 0.695540 0.136408 0.355659
O O7 0.000000 0.000000 0.000000
O O8 0.058122 0.919173 0.641992
O O9 0.239029 0.627071 0.456115
O O10 0.334389 0.915774 0.289390
O O11 0.565555 0.781318 0.904872
O O12 0.500000 0.500000 0.000000
O O13 0.333476 0.635327 0.239083
O O14 0.811351 0.300625 0.849300
O O15 0.500000 0.500000 0.500000
O O16 0.712203 0.086696 0.484911
O O17 0.016409 0.373663 0.386704
O O18 0.500000 0.000000 0.000000
#
# Coordination Sequence:
#
# PCOD9046889 Si02
#       8
#     2   2   2   2   2   2   2   2
#     4  10  24  45  74  97 139 192 226 286 358 411
#     4  11  24  46  68 103 143 181 232 286 343 419
#     4  12  24  46  71 107 142 181 237 295 344 424
#     4  11  25  47  70 102 138 187 233 293 352 421
#     4  11  23  46  65 101 140 179 233 287 340 415
#     4  10  24  43  69 101 142 178 238 289 345 416
#     4  11  24  47  72 100 142 183 235 286 352 424
#     4  12  27  45  74 106 142 186 232 293 360 411
#
# _framework density 21.575963000000002
#
# number of rings (size 3 to 8) (size 9 to 14) (size 15 to 20)
#    0.000    1.000    3.750    1.875    1.750    7.500 
#    4.500    0.000    0.000    0.000    0.000    0.000 
#    0.000    0.000    0.000    0.000    0.000    0.000 
#
# Total GULP energy -89368.237345 kJ/mol
# GULP energy per Si atom -5585.514834 kJ/mol
# Density = 2.152686 g / cm^3
# Si number density = 21.575963 Si / 1000 Ang^3
#
#
#
# Elastic Constant Matrix: (Units=GPa)
#
#
# Indices 1 2 3 4 5 6 
#
# 1 110.7775 12.8804 43.1659 -17.9356 11.5518 17.2106
# 2 12.8804 69.2134 22.4109 -18.6962 3.3115 12.7920
# 3 43.1659 22.4109 116.4447 -10.2317 4.2692 21.2878
# 4 -17.9356 -18.6962 -10.2317 34.7427 6.6188 -8.1551
# 5 11.5518 3.3115 4.2692 6.6188 52.7744 9.8661
# 6 17.2106 12.7920 21.2878 -8.1551 9.8661 29.4880
#
#
#
# Elastic Compliance Matrix: (Units=1/GPa)
#
#
# Indices 1 2 3 4 5 6 
#
# 1 0.011839 0.001014 -0.003568 0.005551 -0.002621 -0.002361
# 2 0.001014 0.018242 -0.002342 0.009073 -0.001611 -0.003766
# 3 -0.003568 -0.002342 0.011260 -0.001404 0.001287 -0.005849
# 4 0.005551 0.009073 -0.001404 0.039378 -0.007993 0.007403
# 5 -0.002621 -0.001611 0.001287 -0.007993 0.022073 -0.008296
# 6 -0.002361 -0.003766 -0.005849 0.007403 -0.008296 0.045969
#
#
# Mechanical properties :
#
#
# Convention : Reuss Voigt Hill
#
# Bulk Modulus (GPa) = 31.69820 50.37224 41.03522
# Shear Modulus (GPa) = 29.57378 37.93292 33.75335
#
# Velocity S-wave (km/s) = 3.70629 4.19753 3.95954
# Velocity P-wave (km/s) = 5.74794 6.84759 6.32172
#
# Compressibility (1/GPa) = 0.03154753
#
# Stress axis : x y z
#
# Youngs Moduli (GPa) = 84.46976 54.81977 88.81076
#
# Poissons Ratio (x) = -0.05556 0.31688
# Poissons Ratio (y) = -0.08561 0.20797
# Poissons Ratio (z) = 0.30139 0.12837
#
# Static dielectric constant tensor:
#      x y z
#    x 1.951790 -0.262650 -0.117810 
#    y -0.262650 2.173340 0.202840 
#    z -0.117810 0.202840 1.868400 
# 
# From -- ./inp_files/591610.got.cif
#   From: 2010.05.17/outbox.cif.g08.bks.cpg/sg2_296_cif.got.tgz:591610.got - 2010.06.03 11:33:40.
