data_PCOD9046675
_publ_section_title
;
Structure prediction by ZEFSAII (Michael W. Deem and Ramdas Pophale) SiO2 
 PCOD9046675
Probable space group: P -1
;
_chemical_formula_sum "Si O2"
_cell_formula_units_Z 16
_cell_length_a 23.520350
_cell_length_b 11.128591
_cell_length_c 7.455883
_cell_angle_alpha 116.673622
_cell_angle_beta 60.310417
_cell_angle_gamma 158.661002
_cell_volume 616.441367
_symmetry_space_group_name_H-M "P -1"
_symmetry_group_IT_number 2
_symmetry_cell_setting 'triclinic'
loop_
_space_group_symop_operation_xyz
x,y,z
-x,-y,-z
loop_
_atom_site_type_symbol
_atom_site_label
_atom_site_fract_x
_atom_site_fract_y
_atom_site_fract_z
Si Si1 0.881971 0.856447 0.223139
Si Si2 0.525059 0.777506 0.345695
Si Si3 0.530244 0.612317 0.729114
Si Si4 0.843529 0.904657 0.649162
Si Si5 0.912436 0.319743 0.704162
Si Si6 0.066732 0.863749 0.970268
Si Si7 0.553515 0.948223 0.809637
Si Si8 0.278391 0.690220 0.893030
O O1 0.716985 0.462568 0.217422
O O2 0.934148 0.970581 0.422497
O O3 0.868666 0.971457 0.215860
O O4 0.000000 0.000000 0.000000
O O5 0.559023 0.678488 0.219471
O O6 0.575631 0.945284 0.566212
O O7 0.400474 0.997477 0.782634
O O8 0.333400 0.422994 0.380720
O O9 0.500000 0.500000 0.500000
O O10 0.475995 0.667034 0.833177
O O11 0.717785 0.969879 0.741388
O O12 0.931688 0.209575 0.681199
O O13 0.825972 0.869361 0.864591
O O14 0.000000 0.500000 0.500000
O O15 0.011508 0.607300 0.868347
O O16 0.894893 0.606359 0.113745
O O17 0.500000 0.000000 0.000000
O O18 0.722683 0.266270 0.869356
#
# Coordination Sequence:
#
# PCOD9046675 Si02
#       8
#     2   2   2   2   2   2   2   2
#     4  10  24  43  66  98 138 188 237 285 348 416
#     4  10  25  45  68 104 143 183 230 295 357 416
#     4   9  21  44  70 104 138 181 232 286 354 416
#     4  11  24  43  68 104 144 180 239 294 353 427
#     4  11  21  43  73 101 140 184 235 291 354 424
#     4  11  24  45  69 103 139 187 235 292 351 425
#     4  11  23  43  71 100 140 184 235 284 350 415
#     4  11  25  44  73  99 138 187 237 288 352 422
#
# _framework density 25.955428000000001
#
# number of rings (size 3 to 8) (size 9 to 14) (size 15 to 20)
#    0.000    1.500    2.500    1.125    0.000   11.500 
#    2.250    0.000    0.000    0.000    0.000    0.000 
#    0.000    0.000    0.000    0.000    0.000    0.000 
#
# Total GULP energy -89125.603321 kJ/mol
# GULP energy per Si atom -5570.350208 kJ/mol
# Density = 2.589635 g / cm^3
# Si number density = 25.955428 Si / 1000 Ang^3
#
#
#
# Elastic Constant Matrix: (Units=GPa)
#
#
# Indices 1 2 3 4 5 6 
#
# 1 36.9115 37.9639 54.6435 12.5829 -5.8609 -22.4458
# 2 37.9639 86.3394 46.5116 1.8339 -0.9533 -39.1461
# 3 54.6435 46.5116 210.6595 31.8486 23.2550 -11.5718
# 4 12.5829 1.8339 31.8486 41.1965 -5.6870 0.5036
# 5 -5.8609 -0.9533 23.2550 -5.6870 54.8218 12.1688
# 6 -22.4458 -39.1461 -11.5718 0.5036 12.1688 43.6511
#
#
#
# Elastic Compliance Matrix: (Units=1/GPa)
#
#
# Indices 1 2 3 4 5 6 
#
# 1 0.096549 -0.022429 -0.018187 -0.013111 0.011478 0.021663
# 2 -0.022429 0.027830 0.000349 0.004486 -0.004888 0.014828
# 3 -0.018187 0.000349 0.010196 -0.003048 -0.005523 -0.004761
# 4 -0.013111 0.004486 -0.003048 0.031094 0.004325 -0.005091
# 5 0.011478 -0.004888 -0.005523 0.004325 0.023636 -0.006585
# 6 0.021663 0.014828 -0.004761 -0.005091 -0.006585 0.047978
#
#
# Mechanical properties :
#
#
# Convention : Reuss Voigt Hill
#
# Bulk Modulus (GPa) = 18.50400 68.01650 43.26025
# Shear Modulus (GPa) = 14.88850 40.91998 27.90424
#
# Velocity S-wave (km/s) = 2.39763 3.97488 3.28240
# Velocity P-wave (km/s) = 3.84831 6.87956 5.57395
#
# Compressibility (1/GPa) = 0.05404237
#
# Stress axis : x y z
#
# Youngs Moduli (GPa) = 10.35747 35.93270 98.07445
#
# Poissons Ratio (x) = 0.80592 1.78367
# Poissons Ratio (y) = 0.23230 -0.03425
# Poissons Ratio (z) = 0.18837 -0.01255
#
# Static dielectric constant tensor:
#      x y z
#    x 2.442940 0.006610 -0.182750 
#    y 0.006610 2.013180 0.073260 
#    z -0.182750 0.073260 2.328770 
# 
# From -- ./inp_files/353667.got.cif
#   From: 2010.05.17/outbox.cif.g08.bks.cpg/sg2_177_cif.got.tgz:353667.got - 2010.06.03 11:33:40.
