data_PCOD9046326
_publ_section_title
;
Structure prediction by ZEFSAII (Michael W. Deem and Ramdas Pophale) SiO2 
 PCOD9046326
Probable space group: P -1
;
_chemical_formula_sum "Si O2"
_cell_formula_units_Z 16
_cell_length_a 6.467931
_cell_length_b 8.565067
_cell_length_c 26.460523
_cell_angle_alpha 150.657464
_cell_angle_beta 86.545154
_cell_angle_gamma 93.966953
_cell_volume 716.597407
_symmetry_space_group_name_H-M "P -1"
_symmetry_group_IT_number 2
_symmetry_cell_setting 'triclinic'
loop_
_space_group_symop_operation_xyz
x,y,z
-x,-y,-z
loop_
_atom_site_type_symbol
_atom_site_label
_atom_site_fract_x
_atom_site_fract_y
_atom_site_fract_z
Si Si1 0.543441 0.193708 0.502186
Si Si2 0.169440 0.203975 0.304774
Si Si3 0.120115 0.402879 0.522791
Si Si4 0.815648 0.753191 0.995601
Si Si5 0.848391 0.445751 0.143713
Si Si6 0.511881 0.749076 0.170338
Si Si7 0.129296 0.231106 0.661998
Si Si8 0.128129 0.921121 0.808551
O O1 0.702055 0.467512 0.597285
O O2 0.360260 0.357695 0.519991
O O3 0.500000 0.000000 0.500000
O O4 0.656361 0.952693 0.394904
O O5 0.951915 0.301259 0.359161
O O6 0.093005 0.078737 0.216449
O O7 0.327405 0.954901 0.253243
O O8 0.000000 0.500000 0.500000
O O9 0.030448 0.042265 0.433156
O O10 0.790917 0.088175 0.061566
O O11 0.884279 0.858076 0.079756
O O12 0.605684 0.540805 0.938880
O O13 0.990370 0.576776 0.911061
O O14 0.645979 0.607314 0.172533
O O15 0.931677 0.645951 0.247068
O O16 0.670439 0.952055 0.189751
O O17 0.152105 0.550044 0.718394
#
# Coordination Sequence:
#
# PCOD9046326 Si02
#       8
#     2   2   2   2   2   2   2   2
#     4  11  23  43  68 100 137 180 228 275 335 407
#     4  11  25  40  65  97 134 172 221 274 335 395
#     4  11  26  41  67 100 141 178 224 278 341 404
#     4  10  24  45  67  96 132 177 222 282 339 399
#     4  10  24  44  67  97 135 173 224 276 340 403
#     4  12  24  39  70  96 135 173 226 278 336 402
#     4  10  24  42  70  95 137 179 224 274 339 400
#     4  11  24  45  66 100 132 178 226 279 338 402
#
# _framework density 22.327736999999999
#
# number of rings (size 3 to 8) (size 9 to 14) (size 15 to 20)
#    0.000    1.250    0.000    4.500    7.000    6.000 
#    0.000    6.250    0.000    0.000    0.000    0.000 
#    0.000    0.000    0.000    0.000    0.000    0.000 
#
# Total GULP energy -89315.179066 kJ/mol
# GULP energy per Si atom -5582.198692 kJ/mol
# Density = 2.227692 g / cm^3
# Si number density = 22.327737 Si / 1000 Ang^3
#
#
#
# Elastic Constant Matrix: (Units=GPa)
#
#
# Indices 1 2 3 4 5 6 
#
# 1 114.4781 45.5901 37.1948 9.5005 1.5699 -13.7888
# 2 45.5901 53.2495 38.1933 5.6106 4.5375 -13.7198
# 3 37.1948 38.1933 101.0683 8.0944 11.2304 11.2733
# 4 9.5005 5.6106 8.0944 31.8825 -1.7191 -1.0034
# 5 1.5699 4.5375 11.2304 -1.7191 47.8034 4.3002
# 6 -13.7888 -13.7198 11.2733 -1.0034 4.3002 27.5570
#
#
#
# Elastic Compliance Matrix: (Units=1/GPa)
#
#
# Indices 1 2 3 4 5 6 
#
# 1 0.013536 -0.009797 -0.001454 -0.001837 0.000551 0.002337
# 2 -0.009797 0.045055 -0.015840 -0.000352 -0.002439 0.024377
# 3 -0.001454 -0.015840 0.018530 -0.002066 -0.001433 -0.016046
# 4 -0.001837 -0.000352 -0.002066 0.032611 0.001691 0.000674
# 5 0.000551 -0.002439 -0.001433 0.001691 0.021863 -0.003703
# 6 0.002337 0.024377 -0.016046 0.000674 -0.003703 0.056761
#
#
# Mechanical properties :
#
#
# Convention : Reuss Voigt Hill
#
# Bulk Modulus (GPa) = 43.59676 56.75028 50.17352
# Shear Modulus (GPa) = 19.98533 31.30310 25.64422
#
# Velocity S-wave (km/s) = 2.99505 3.74837 3.39268
# Velocity P-wave (km/s) = 5.61504 6.64874 6.15364
#
# Compressibility (1/GPa) = 0.02293749
#
# Stress axis : x y z
#
# Youngs Moduli (GPa) = 73.87852 22.19531 53.96743
#
# Poissons Ratio (x) = 0.21745 0.07846
# Poissons Ratio (y) = 0.72381 0.85486
# Poissons Ratio (z) = 0.10740 0.35158
#
# Static dielectric constant tensor:
#      x y z
#    x 1.825050 0.030970 -0.017350 
#    y 0.030970 1.898750 -0.026270 
#    z -0.017350 -0.026270 1.841260 
# 
# From -- ./inp_files/566534.got.cif
#   From: 2010.05.17/outbox.cif.g08.bks.cpg/sg2_284_cif.got.tgz:566534.got - 2010.06.03 11:33:40.
