data_PCOD9046239
_publ_section_title
;
Structure prediction by ZEFSAII (Michael W. Deem and Ramdas Pophale) SiO2 
 PCOD9046239
Probable space group: P -1
;
_chemical_formula_sum "Si O2"
_cell_formula_units_Z 16
_cell_length_a 5.101179
_cell_length_b 12.969402
_cell_length_c 21.311352
_cell_angle_alpha 150.825207
_cell_angle_beta 104.963691
_cell_angle_gamma 79.186652
_cell_volume 661.858856
_symmetry_space_group_name_H-M "P -1"
_symmetry_group_IT_number 2
_symmetry_cell_setting 'triclinic'
loop_
_space_group_symop_operation_xyz
x,y,z
-x,-y,-z
loop_
_atom_site_type_symbol
_atom_site_label
_atom_site_fract_x
_atom_site_fract_y
_atom_site_fract_z
Si Si1 0.259505 0.960714 0.036103
Si Si2 0.837127 0.706420 0.107903
Si Si3 0.028901 0.545037 0.451168
Si Si4 0.614069 0.354276 0.229397
Si Si5 0.817979 0.905341 0.345623
Si Si6 0.560545 0.802706 0.589032
Si Si7 0.314080 0.196708 0.585671
Si Si8 0.278864 0.875396 0.133905
O O1 0.213021 0.876283 0.057858
O O2 0.422162 0.191174 0.171713
O O3 0.387026 0.779441 0.906386
O O4 0.000000 0.000000 0.000000
O O5 0.513757 0.714389 0.078415
O O6 0.000389 0.851119 0.143191
O O7 0.895819 0.786121 0.224470
O O8 0.000000 0.500000 0.000000
O O9 0.331837 0.609848 0.480813
O O10 0.411431 0.097975 0.287209
O O11 0.000000 0.500000 0.500000
O O12 0.883721 0.386107 0.306683
O O13 0.839359 0.741708 0.544711
O O14 0.561361 0.594606 0.332511
O O15 0.555969 0.021795 0.369364
O O16 0.037671 0.089491 0.481121
O O17 0.756202 0.749979 0.318070
O O18 0.500000 0.000000 0.500000
#
# Coordination Sequence:
#
# PCOD9046239 Si02
#       8
#     2   2   2   2   2   2   2   2
#     4  11  29  49  72 104 154 209 260 310 373 464
#     4  11  26  46  77 109 152 197 262 320 384 454
#     4  12  25  41  74 106 141 186 243 308 379 440
#     4  11  27  47  73 109 149 200 257 313 380 464
#     4  10  24  42  69 113 143 197 240 316 385 459
#     4  11  23  44  70 104 147 180 239 313 375 448
#     4  11  24  44  77 107 154 193 251 314 398 454
#     4  11  26  47  77 105 151 203 256 320 381 458
#
# _framework density 24.174339
#
# number of rings (size 3 to 8) (size 9 to 14) (size 15 to 20)
#    0.000    1.000    1.250    3.750   12.250    3.000 
#    0.000    0.000    0.000    0.000    0.000    0.000 
#    0.000    0.000    0.000    0.000    0.000    0.000 
#
# Total GULP energy -89411.449881 kJ/mol
# GULP energy per Si atom -5588.215618 kJ/mol
# Density = 2.411932 g / cm^3
# Si number density = 24.174339 Si / 1000 Ang^3
#
#
#
# Elastic Constant Matrix: (Units=GPa)
#
#
# Indices 1 2 3 4 5 6 
#
# 1 38.2953 8.0921 -3.4943 0.0232 -16.8361 -3.1635
# 2 8.0921 143.3516 36.6167 -33.5935 -8.6103 17.9097
# 3 -3.4943 36.6167 86.3649 -0.5495 -15.5514 -1.3091
# 4 0.0232 -33.5935 -0.5495 47.0973 5.7561 -2.7977
# 5 -16.8361 -8.6103 -15.5514 5.7561 37.4249 -3.5249
# 6 -3.1635 17.9097 -1.3091 -2.7977 -3.5249 36.9926
#
#
#
# Elastic Compliance Matrix: (Units=1/GPa)
#
#
# Indices 1 2 3 4 5 6 
#
# 1 0.037356 -0.004987 0.007350 -0.005527 0.020257 0.007381
# 2 -0.004987 0.011034 -0.005599 0.007930 -0.003791 -0.005728
# 3 0.007350 -0.005599 0.016060 -0.004746 0.009845 0.004487
# 4 -0.005527 0.007930 -0.004746 0.027528 -0.007158 -0.003080
# 5 0.020257 -0.003791 0.009845 -0.007158 0.040837 0.007266
# 6 0.007381 -0.005728 0.004487 -0.003080 0.007266 0.031055
#
#
# Mechanical properties :
#
#
# Convention : Reuss Voigt Hill
#
# Bulk Modulus (GPa) = 17.24745 38.93788 28.09267
# Shear Modulus (GPa) = 26.36175 39.42277 32.89226
#
# Velocity S-wave (km/s) = 3.30583 4.04266 3.69267
# Velocity P-wave (km/s) = 4.66063 6.15897 5.46143
#
# Compressibility (1/GPa) = 0.05797957
#
# Stress axis : x y z
#
# Youngs Moduli (GPa) = 26.76924 90.63028 62.26486
#
# Poissons Ratio (x) = 0.45196 -0.45766
# Poissons Ratio (y) = 0.13349 0.34861
# Poissons Ratio (z) = -0.19676 0.50742
#
# Static dielectric constant tensor:
#      x y z
#    x 1.980150 0.014300 0.061370 
#    y 0.014300 2.018960 -0.009070 
#    z 0.061370 -0.009070 2.109930 
# 
# From -- ./inp_files/583380.got.cif
#   From: 2010.05.17/outbox.cif.g08.bks.cpg/sg2_292_cif.got.tgz:583380.got - 2010.06.03 11:33:40.
