data_PCOD9046103
_publ_section_title
;
Structure prediction by ZEFSAII (Michael W. Deem and Ramdas Pophale) SiO2 
 PCOD9046103
Probable space group: P -1
;
_chemical_formula_sum "Si O2"
_cell_formula_units_Z 16
_cell_length_a 7.767797
_cell_length_b 12.420483
_cell_length_c 14.280147
_cell_angle_alpha 93.470963
_cell_angle_beta 134.992969
_cell_angle_gamma 111.676343
_cell_volume 789.542123
_symmetry_space_group_name_H-M "P -1"
_symmetry_group_IT_number 2
_symmetry_cell_setting 'triclinic'
loop_
_space_group_symop_operation_xyz
x,y,z
-x,-y,-z
loop_
_atom_site_type_symbol
_atom_site_label
_atom_site_fract_x
_atom_site_fract_y
_atom_site_fract_z
Si Si1 0.233401 0.130048 0.706181
Si Si2 0.299846 0.058064 0.929677
Si Si3 0.126838 0.860396 0.583325
Si Si4 0.661264 0.355472 0.139681
Si Si5 0.743909 0.895809 0.822464
Si Si6 0.230895 0.419885 0.469114
Si Si7 0.841497 0.373813 0.998494
Si Si8 0.417436 0.386193 0.216728
O O1 0.241531 0.114279 0.818591
O O2 0.574983 0.254131 0.828294
O O3 0.026398 0.165327 0.578999
O O4 0.151510 0.989373 0.633881
O O5 0.482048 0.194120 0.067718
O O6 0.964538 0.940081 0.822208
O O7 0.500000 0.000000 0.000000
O O8 0.465957 0.904802 0.709907
O O9 0.920099 0.733975 0.566164
O O10 0.488351 0.404278 0.133450
O O11 0.965112 0.418019 0.318480
O O12 0.734392 0.390890 0.059601
O O13 0.594673 0.742634 0.772865
O O14 0.000000 0.000000 0.000000
O O15 0.500000 0.500000 0.500000
O O16 0.350248 0.497605 0.617824
O O17 0.000000 0.500000 0.000000
O O18 0.091418 0.348538 0.112823
#
# Coordination Sequence:
#
# PCOD9046103 Si02
#       8
#     2   2   2   2   2   2   2   2
#     4  10  24  42  67  93 136 178 224 280 349 421
#     4  11  22  40  68  98 131 177 231 281 342 412
#     4  11  24  44  64  98 136 177 225 283 353 411
#     4  11  23  42  65 101 131 173 230 288 334 418
#     4  12  22  39  69  98 129 169 222 293 336 409
#     4  12  24  42  68  99 137 179 229 285 351 414
#     4  11  24  45  68  97 136 186 229 282 355 418
#     4  12  24  40  69 100 132 173 237 286 348 406
#
# _framework density 20.26491
#
# number of rings (size 3 to 8) (size 9 to 14) (size 15 to 20)
#    0.000    0.750    3.750    4.875    1.750    1.000 
#    0.000    0.000    0.000    0.000    0.000    0.000 
#    0.000    0.000    0.000    0.000    0.000    0.000 
#
# Total GULP energy -89131.559832 kJ/mol
# GULP energy per Si atom -5570.722490 kJ/mol
# Density = 2.021879 g / cm^3
# Si number density = 20.264910 Si / 1000 Ang^3
#
#
#
# Elastic Constant Matrix: (Units=GPa)
#
#
# Indices 1 2 3 4 5 6 
#
# 1 107.3322 32.6811 28.3313 4.7881 0.4035 16.6247
# 2 32.6811 88.6373 27.0610 8.4225 2.0299 19.4955
# 3 28.3313 27.0610 124.0003 5.3022 9.8014 -2.7692
# 4 4.7881 8.4225 5.3022 39.0369 -3.4699 0.9146
# 5 0.4035 2.0299 9.8014 -3.4699 34.3189 5.0431
# 6 16.6247 19.4955 -2.7692 0.9146 5.0431 28.7802
#
#
#
# Elastic Compliance Matrix: (Units=1/GPa)
#
#
# Indices 1 2 3 4 5 6 
#
# 1 0.011510 -0.002305 -0.002352 -0.000335 0.001455 -0.005558
# 2 -0.002305 0.015329 -0.003023 -0.002291 0.001144 -0.009471
# 3 -0.002352 -0.003023 0.009671 -0.000788 -0.003363 0.004951
# 4 -0.000335 -0.002291 -0.000788 0.026519 0.003002 0.000301
# 5 0.001455 0.001144 -0.003363 0.003002 0.031426 -0.007541
# 6 -0.005558 -0.009471 0.004951 0.000301 -0.007541 0.046160
#
#
# Mechanical properties :
#
#
# Convention : Reuss Voigt Hill
#
# Bulk Modulus (GPa) = 47.27631 55.12407 51.20019
# Shear Modulus (GPa) = 30.67029 35.88697 33.27863
#
# Velocity S-wave (km/s) = 3.89455 4.21276 4.05678
# Velocity P-wave (km/s) = 6.60327 7.13610 6.87485
#
# Compressibility (1/GPa) = 0.02115224
#
# Stress axis : x y z
#
# Youngs Moduli (GPa) = 86.88318 65.23538 103.39660
#
# Poissons Ratio (x) = 0.15035 0.24314
# Poissons Ratio (y) = 0.20025 0.31254
# Poissons Ratio (z) = 0.20431 0.19719
#
# Static dielectric constant tensor:
#      x y z
#    x 1.816080 0.150480 -0.070840 
#    y 0.150480 1.866510 -0.053880 
#    z -0.070840 -0.053880 1.829240 
# 
# From -- ./inp_files/500430.got.cif
#   From: 2010.05.17/outbox.cif.g08.bks.cpg/sg2_251_cif.got.tgz:500430.got - 2010.06.03 11:33:40.
