data_PCOD9046622
_publ_section_title
;
Structure prediction by ZEFSAII (Michael W. Deem and Ramdas Pophale) SiO2 
 PCOD9046622
Probable space group: P -1
;
_chemical_formula_sum "Si O2"
_cell_formula_units_Z 15
_cell_length_a 10.770111
_cell_length_b 10.816023
_cell_length_c 17.119853
_cell_angle_alpha 44.256189
_cell_angle_beta 29.019372
_cell_angle_gamma 60.514853
_cell_volume 619.910105
_symmetry_space_group_name_H-M "P -1"
_symmetry_group_IT_number 2
_symmetry_cell_setting 'triclinic'
loop_
_space_group_symop_operation_xyz
x,y,z
-x,-y,-z
loop_
_atom_site_type_symbol
_atom_site_label
_atom_site_fract_x
_atom_site_fract_y
_atom_site_fract_z
Si Si1 0.736474 0.012206 0.597474
Si Si2 0.287567 0.604914 0.061732
Si Si3 0.570474 0.762040 0.381765
Si Si4 0.089036 0.148683 0.567668
Si Si5 0.749933 0.434062 0.727646
Si Si6 0.117875 0.395455 0.840856
Si Si7 0.500000 0.000000 0.000000
Si Si8 0.214707 0.959514 0.722665
O O1 0.655337 0.193389 0.566090
O O2 0.802078 0.981937 0.485360
O O3 0.000000 0.000000 0.500000
O O4 0.468963 0.830949 0.853502
O O5 0.142138 0.570204 0.241716
O O6 0.104437 0.549262 0.110030
O O7 0.500000 0.500000 0.000000
O O8 0.394880 0.586156 0.615216
O O9 0.774961 0.715714 0.232940
O O10 0.722106 0.942312 0.272030
O O11 0.307210 0.368816 0.335612
O O12 0.056913 0.066282 0.710737
O O13 0.768858 0.108276 0.744259
O O14 0.541249 0.219249 0.915278
O O15 0.000000 0.500000 0.500000
O O16 0.978197 0.262441 0.051841
O O17 0.500000 0.000000 0.500000
#
# Coordination Sequence:
#
# PCOD9046622 Si02
#       8
#     2   2   2   2   2   2   1   2
#     4  12  24  44  73 107 147 186 248 297 361 434
#     4  12  23  44  73 103 143 186 237 301 356 426
#     4  11  26  48  71 106 142 194 246 300 358 440
#     4  11  24  45  68 107 142 188 234 297 364 424
#     4  10  24  43  66 101 142 182 231 291 356 423
#     4  11  27  47  73 106 142 195 247 294 369 432
#     4  10  24  44  66 102 142 184 234 286 360 422
#     4  12  25  48  71 100 148 188 240 298 361 435
#
# _framework density 24.197056
#
# number of rings (size 3 to 8) (size 9 to 14) (size 15 to 20)
#    0.000    0.800    4.000    2.000    3.733    2.667 
#    4.800    0.000    0.000    0.000    0.000    0.000 
#    0.000    0.000    0.000    0.000    0.000    0.000 
#
# Total GULP energy -83520.793137 kJ/mol
# GULP energy per Si atom -5568.052876 kJ/mol
# Density = 2.414198 g / cm^3
# Si number density = 24.197056 Si / 1000 Ang^3
#
#
#
# Elastic Constant Matrix: (Units=GPa)
#
#
# Indices 1 2 3 4 5 6 
#
# 1 58.5548 -12.7545 1.8916 -7.3891 19.8110 -8.6331
# 2 -12.7545 52.8867 8.6314 0.2920 -1.8689 -7.7780
# 3 1.8916 8.6314 169.8903 -24.8473 19.3739 2.4994
# 4 -7.3891 0.2920 -24.8473 49.2099 6.3327 0.0696
# 5 19.8110 -1.8689 19.3739 6.3327 32.5368 -8.0501
# 6 -8.6331 -7.7780 2.4994 0.0696 -8.0501 17.1700
#
#
#
# Elastic Compliance Matrix: (Units=1/GPa)
#
#
# Indices 1 2 3 4 5 6 
#
# 1 0.025919 0.006500 0.002105 0.006964 -0.016003 0.008139
# 2 0.006500 0.023050 -0.001767 -0.000357 0.002199 0.015000
# 3 0.002105 -0.001767 0.007729 0.005289 -0.008184 -0.004726
# 4 0.006964 -0.000357 0.005289 0.025765 -0.013365 -0.003801
# 5 -0.016003 0.002199 -0.008184 -0.013365 0.052763 0.018933
# 6 0.008139 0.015000 -0.004726 -0.003801 0.018933 0.078709
#
#
# Mechanical properties :
#
#
# Convention : Reuss Voigt Hill
#
# Bulk Modulus (GPa) = 14.20969 30.76319 22.48644
# Shear Modulus (GPa) = 22.34969 38.68758 30.51864
#
# Velocity S-wave (km/s) = 3.04246 4.00291 3.55527
# Velocity P-wave (km/s) = 4.26935 5.84000 5.11532
#
# Compressibility (1/GPa) = 0.07037450
#
# Stress axis : x y z
#
# Youngs Moduli (GPa) = 38.58139 43.38373 129.38625
#
# Poissons Ratio (x) = -0.28201 -0.27235
# Poissons Ratio (y) = -0.25079 0.22864
# Poissons Ratio (z) = -0.08121 0.07666
#
# Static dielectric constant tensor:
#      x y z
#    x 1.788860 0.087000 0.007520 
#    y 0.087000 2.017590 -0.033590 
#    z 0.007520 -0.033590 1.906280 
# 
# From -- ./inp_files/568567.got.cif
#   From: 2010.05.17/outbox.cif.g08.bks.cpg/sg2_285_cif.got.tgz:568567.got - 2010.06.03 11:33:40.
