data_PCOD9046972
_publ_section_title
;
Structure prediction by ZEFSAII (Michael W. Deem and Ramdas Pophale) SiO2 
 PCOD9046972
Probable space group: P -1
;
_chemical_formula_sum "Si O2"
_cell_formula_units_Z 14
_cell_length_a 4.935740
_cell_length_b 7.949830
_cell_length_c 15.614529
_cell_angle_alpha 107.283637
_cell_angle_beta 73.401839
_cell_angle_gamma 90.706037
_cell_volume 558.880394
_symmetry_space_group_name_H-M "P -1"
_symmetry_group_IT_number 2
_symmetry_cell_setting 'triclinic'
loop_
_space_group_symop_operation_xyz
x,y,z
-x,-y,-z
loop_
_atom_site_type_symbol
_atom_site_label
_atom_site_fract_x
_atom_site_fract_y
_atom_site_fract_z
Si Si1 0.180576 0.159661 0.533649
Si Si2 0.226738 0.377945 0.405423
Si Si3 0.556114 0.141595 0.922335
Si Si4 0.492831 0.442312 0.848277
Si Si5 0.167098 0.233550 0.205030
Si Si6 0.078837 0.750376 0.946108
Si Si7 0.427950 0.691983 0.355548
O O1 0.314227 0.230433 0.445258
O O2 0.425115 0.161290 0.582070
O O3 0.913802 0.283298 0.616239
O O4 0.000000 0.000000 0.500000
O O5 0.467611 0.504923 0.374258
O O6 0.000000 0.500000 0.500000
O O7 0.108911 0.290412 0.317060
O O8 0.637010 0.309990 0.884559
O O9 0.653273 0.956933 0.840221
O O10 0.227617 0.196342 0.979095
O O11 0.712924 0.141901 0.999354
O O12 0.201623 0.548947 0.917249
O O13 0.443396 0.326298 0.751947
O O14 0.676933 0.601531 0.824335
O O15 0.927632 0.215184 0.150796
#
# Coordination Sequence:
#
# PCOD9046972 Si02
#       7
#     2   2   2   2   2   2   2
#     4  11  23  43  70 102 140 181 234 299 361 423
#     4   9  22  46  71 104 141 188 242 292 365 435
#     4  12  28  46  72 107 146 189 245 302 358 433
#     4  11  27  45  76 103 148 191 244 292 370 429
#     4  11  26  47  74 107 144 195 240 303 359 435
#     4  12  26  48  71 107 146 192 242 301 364 428
#     4  10  24  43  69  99 141 186 236 291 356 441
#
# _framework density 25.050083000000001
#
# number of rings (size 3 to 8) (size 9 to 14) (size 15 to 20)
#    0.000    1.143    1.429    2.571   12.000    0.000 
#    2.571    0.000    0.000    0.000    0.000    0.000 
#    0.000    0.000    0.000    0.000    0.000    0.000 
#
# Total GULP energy -78258.843379 kJ/mol
# GULP energy per Si atom -5589.917384 kJ/mol
# Density = 2.499307 g / cm^3
# Si number density = 25.050083 Si / 1000 Ang^3
#
#
#
# Elastic Constant Matrix: (Units=GPa)
#
#
# Indices 1 2 3 4 5 6 
#
# 1 105.1600 23.6105 38.8186 14.5056 15.2107 4.8767
# 2 23.6105 84.1238 41.5386 8.5079 5.5945 -27.0099
# 3 38.8186 41.5386 175.2710 34.5475 4.8550 -13.5972
# 4 14.5056 8.5079 34.5475 39.9271 3.3324 4.1264
# 5 15.2107 5.5945 4.8550 3.3324 30.0421 5.7346
# 6 4.8767 -27.0099 -13.5972 4.1264 5.7346 30.7400
#
#
#
# Elastic Compliance Matrix: (Units=1/GPa)
#
#
# Indices 1 2 3 4 5 6 
#
# 1 0.011988 -0.003710 -0.001840 -0.001115 -0.003988 -0.005082
# 2 -0.003710 0.020669 -0.001844 -0.003034 -0.005016 0.019276
# 3 -0.001840 -0.001844 0.008000 -0.006181 0.000091 0.003023
# 4 -0.001115 -0.003034 -0.006181 0.032411 0.000374 -0.009644
# 5 -0.003988 -0.005016 0.000091 0.000374 0.038269 -0.010924
# 6 -0.005082 0.019276 0.003023 -0.009644 -0.010924 0.054944
#
#
# Mechanical properties :
#
#
# Convention : Reuss Voigt Hill
#
# Bulk Modulus (GPa) = 38.65654 63.61004 51.13329
# Shear Modulus (GPa) = 26.35877 37.51432 31.93654
#
# Velocity S-wave (km/s) = 3.24735 3.87405 3.57446
# Velocity P-wave (km/s) = 5.43374 6.74235 6.12310
#
# Compressibility (1/GPa) = 0.02586885
#
# Stress axis : x y z
#
# Youngs Moduli (GPa) = 83.41978 48.38259 124.99408
#
# Poissons Ratio (x) = 0.17948 0.22997
# Poissons Ratio (y) = 0.30945 0.23054
# Poissons Ratio (z) = 0.15348 0.08924
#
# Static dielectric constant tensor:
#      x y z
#    x 2.049510 -0.045230 -0.025660 
#    y -0.045230 2.112830 0.032530 
#    z -0.025660 0.032530 1.998070 
# 
# From -- ./inp_files/480646.got.cif
#   From: 2010.05.17/outbox.cif.g08.bks.cpg/sg2_241_cif.got.tgz:480646.got - 2010.06.03 11:33:40.
