data_PCOD9046061
_publ_section_title
;
Structure prediction by ZEFSAII (Michael W. Deem and Ramdas Pophale) SiO2 
 PCOD9046061
Probable space group: P -1
;
_chemical_formula_sum "Si O2"
_cell_formula_units_Z 14
_cell_length_a 19.072261
_cell_length_b 8.441879
_cell_length_c 22.464154
_cell_angle_alpha 148.306922
_cell_angle_beta 17.090918
_cell_angle_gamma 142.285376
_cell_volume 552.623351
_symmetry_space_group_name_H-M "P -1"
_symmetry_group_IT_number 2
_symmetry_cell_setting 'triclinic'
loop_
_space_group_symop_operation_xyz
x,y,z
-x,-y,-z
loop_
_atom_site_type_symbol
_atom_site_label
_atom_site_fract_x
_atom_site_fract_y
_atom_site_fract_z
Si Si1 0.479715 0.451874 0.811840
Si Si2 0.823126 0.263039 0.051295
Si Si3 0.673862 0.177534 0.269532
Si Si4 0.255809 0.428534 0.561543
Si Si5 0.815021 0.760322 0.564771
Si Si6 0.923121 0.068000 0.775291
Si Si7 0.437472 0.335789 0.057947
O O1 0.732704 0.554111 0.617858
O O2 0.461651 0.107162 0.697565
O O3 0.259177 0.668840 0.027637
O O4 0.466962 0.519235 0.914178
O O5 0.809175 0.088327 0.069231
O O6 0.543583 0.402737 0.310709
O O7 0.917910 0.114839 0.865246
O O8 0.000000 0.500000 0.000000
O O9 0.500000 0.500000 0.500000
O O10 0.818566 0.288914 0.243532
O O11 0.137078 0.438263 0.596481
O O12 0.178510 0.126460 0.559203
O O13 0.576062 0.999362 0.825588
O O14 0.000000 0.000000 0.500000
O O15 0.827034 0.748865 0.742113
O O16 0.500000 0.500000 0.000000
#
# Coordination Sequence:
#
# PCOD9046061 Si02
#       7
#     2   2   2   2   2   2   2
#     4  11  23  43  70  98 141 186 233 285 356 414
#     4  11  21  43  66  96 139 183 231 288 346 406
#     4  10  24  42  66  98 137 181 234 289 342 414
#     4  11  22  42  70 100 140 177 239 280 347 413
#     4  11  23  45  69 104 143 180 233 289 347 427
#     4  11  22  43  70 100 139 187 228 294 350 417
#     4  11  23  43  70 100 141 183 234 293 353 413
#
# _framework density 25.33371
#
# number of rings (size 3 to 8) (size 9 to 14) (size 15 to 20)
#    0.000    1.143    4.286    4.286    2.000    1.143 
#    5.143    2.857    0.000    0.000    0.000    0.000 
#    0.000    0.000    0.000    0.000    0.000    0.000 
#
# Total GULP energy -78242.924190 kJ/mol
# GULP energy per Si atom -5588.780299 kJ/mol
# Density = 2.527605 g / cm^3
# Si number density = 25.333710 Si / 1000 Ang^3
#
#
#
# Elastic Constant Matrix: (Units=GPa)
#
#
# Indices 1 2 3 4 5 6 
#
# 1 175.6130 62.5009 42.8910 4.9930 46.1938 27.0784
# 2 62.5009 196.7628 43.1332 -25.6083 -2.1759 12.9141
# 3 42.8910 43.1332 85.5046 -5.4970 1.3706 -6.3779
# 4 4.9930 -25.6083 -5.4970 50.3886 -0.0429 1.7280
# 5 46.1938 -2.1759 1.3706 -0.0429 43.0328 -5.5689
# 6 27.0784 12.9141 -6.3779 1.7280 -5.5689 48.7509
#
#
#
# Elastic Compliance Matrix: (Units=1/GPa)
#
#
# Indices 1 2 3 4 5 6 
#
# 1 0.014290 -0.003156 -0.006251 -0.003384 -0.016558 -0.009691
# 2 -0.003156 0.006996 -0.001772 0.003679 0.003799 -0.000028
# 3 -0.006251 -0.001772 0.016202 0.001258 0.006988 0.006815
# 4 -0.003384 0.003679 0.001258 0.022167 0.003895 0.000729
# 5 -0.016558 0.003799 0.006988 0.003895 0.042779 0.013854
# 6 -0.009691 -0.000028 0.006815 0.000729 0.013854 0.028351
#
#
# Mechanical properties :
#
#
# Convention : Reuss Voigt Hill
#
# Bulk Modulus (GPa) = 66.09814 83.88119 74.98966
# Shear Modulus (GPa) = 31.60797 49.05813 40.33305
#
# Velocity S-wave (km/s) = 3.53606 4.40532 3.99440
# Velocity P-wave (km/s) = 6.54364 7.68493 7.13713
#
# Compressibility (1/GPa) = 0.01512902
#
# Stress axis : x y z
#
# Youngs Moduli (GPa) = 69.97676 142.93611 61.71975
#
# Poissons Ratio (x) = 0.45117 0.38582
# Poissons Ratio (y) = 0.22088 0.10939
# Poissons Ratio (z) = 0.43743 0.25333
#
# Static dielectric constant tensor:
#      x y z
#    x 2.089010 0.009820 -0.081230 
#    y 0.009820 2.061520 -0.116270 
#    z -0.081230 -0.116270 2.164430 
# 
# From -- ./inp_files/613629.got.cif
#   From: 2010.05.17/outbox.cif.g08.bks.cpg/sg2_307_cif.got.tgz:613629.got - 2010.06.03 11:33:40.
