data_PCOD9046502
_publ_section_title
;
Structure prediction by ZEFSAII (Michael W. Deem and Ramdas Pophale) SiO2 
 PCOD9046502
Probable space group: P -1
;
_chemical_formula_sum "Si O2"
_cell_formula_units_Z 16
_cell_length_a 8.717243
_cell_length_b 15.508429
_cell_length_c 7.704830
_cell_angle_alpha 69.637512
_cell_angle_beta 49.662252
_cell_angle_gamma 57.798980
_cell_volume 671.835265
_symmetry_space_group_name_H-M "P -1"
_symmetry_group_IT_number 2
_symmetry_cell_setting 'triclinic'
loop_
_space_group_symop_operation_xyz
x,y,z
-x,-y,-z
loop_
_atom_site_type_symbol
_atom_site_label
_atom_site_fract_x
_atom_site_fract_y
_atom_site_fract_z
Si Si1 0.339719 0.848254 0.158080
Si Si2 0.189963 0.436677 0.690555
Si Si3 0.769093 0.768807 0.043938
Si Si4 0.530917 0.372769 0.191552
Si Si5 0.178918 0.819250 0.671948
Si Si6 0.135028 0.034093 0.674916
Si Si7 0.435181 0.012940 0.803839
Si Si8 0.309411 0.459707 0.955870
O O1 0.602315 0.770618 0.009550
O O2 0.277219 0.820650 0.410550
O O3 0.112155 0.873353 0.199963
O O4 0.371446 0.952536 0.040444
O O5 0.176247 0.330753 0.813571
O O6 0.304259 0.431854 0.426881
O O7 0.337425 0.444242 0.739584
O O8 0.941467 0.524958 0.829847
O O9 0.637591 0.869097 0.186998
O O10 0.983566 0.783310 0.819246
O O11 0.647127 0.261119 0.266693
O O12 0.672844 0.436047 0.082366
O O13 0.482326 0.379503 0.018293
O O14 0.106845 0.932525 0.717732
O O15 0.304440 0.042714 0.401015
O O16 0.280950 0.013057 0.755096
#
# Coordination Sequence:
#
# PCOD9046502 Si02
#       8
#     2   2   2   2   2   2   2   2
#     4  12  23  40  62  90 123 177 210 260 318 374
#     4  11  22  45  68  99 132 165 213 270 330 391
#     4  12  24  39  64  92 128 173 212 264 317 382
#     4  11  22  45  67 100 130 170 213 268 331 387
#     4  12  24  39  65  90 133 169 216 267 316 381
#     4  11  24  41  63  92 128 170 221 269 309 383
#     4  11  24  41  63  92 127 173 218 265 322 372
#     4  10  24  42  75  97 126 169 213 270 331 399
#
# _framework density 23.815359999999998
#
# number of rings (size 3 to 8) (size 9 to 14) (size 15 to 20)
#    0.000    0.750    5.000    2.625    0.000    1.000 
#    0.000    1.250    0.000    0.000    0.000    0.000 
#    0.000    0.000    0.000    0.000    0.000    0.000 
#
# Total GULP energy -89391.547213 kJ/mol
# GULP energy per Si atom -5586.971701 kJ/mol
# Density = 2.376116 g / cm^3
# Si number density = 23.815360 Si / 1000 Ang^3
#
#
#
# Elastic Constant Matrix: (Units=GPa)
#
#
# Indices 1 2 3 4 5 6 
#
# 1 94.3024 16.3199 35.4253 -17.5636 -17.2419 2.6173
# 2 16.3199 38.4682 8.7741 -8.1307 0.3428 -19.2993
# 3 35.4253 8.7741 96.2456 -9.8502 -20.2956 -9.5079
# 4 -17.5636 -8.1307 -9.8502 27.4946 -11.8964 -0.4582
# 5 -17.2419 0.3428 -20.2956 -11.8964 35.3188 4.7777
# 6 2.6173 -19.2993 -9.5079 -0.4582 4.7777 37.3930
#
#
#
# Elastic Compliance Matrix: (Units=1/GPa)
#
#
# Indices 1 2 3 4 5 6 
#
# 1 0.018170 -0.008148 -0.002483 0.013909 0.013239 -0.007630
# 2 -0.008148 0.042206 0.001003 0.005865 -0.004990 0.023318
# 3 -0.002483 0.001003 0.014274 0.007853 0.009187 0.003243
# 4 0.013909 0.005865 0.007853 0.063964 0.032702 0.000656
# 5 0.013239 -0.004990 0.009187 0.032702 0.052124 -0.007425
# 6 -0.007630 0.023318 0.003243 0.000656 -0.007425 0.041094
#
#
# Mechanical properties :
#
#
# Convention : Reuss Voigt Hill
#
# Bulk Modulus (GPa) = 18.05271 38.89497 28.47384
# Shear Modulus (GPa) = 18.54919 31.27441 24.91180
#
# Velocity S-wave (km/s) = 2.79386 3.62775 3.23776
# Velocity P-wave (km/s) = 4.24315 5.82364 5.09505
#
# Compressibility (1/GPa) = 0.05539334
#
# Stress axis : x y z
#
# Youngs Moduli (GPa) = 55.03527 23.69315 70.05695
#
# Poissons Ratio (x) = 0.19305 0.17399
# Poissons Ratio (y) = 0.44843 -0.07027
# Poissons Ratio (z) = 0.13668 -0.02376
#
# Static dielectric constant tensor:
#      x y z
#    x 1.962770 -0.031900 -0.005860 
#    y -0.031900 1.913430 0.044060 
#    z -0.005860 0.044060 1.896720 
# 
# From -- ./inp_files/214668.got.cif
#   From: 2010.05.17/outbox.cif.g08.bks.cpg/sg2_108_cif.got.tgz:214668.got - 2010.06.03 11:33:40.
