data_PCOD9046883
_publ_section_title
;
Structure prediction by ZEFSAII (Michael W. Deem and Ramdas Pophale) SiO2 
 PCOD9046883
Probable space group: P -1
;
_chemical_formula_sum "Si O2"
_cell_formula_units_Z 14
_cell_length_a 8.298559
_cell_length_b 13.636651
_cell_length_c 8.165739
_cell_angle_alpha 72.558696
_cell_angle_beta 79.013050
_cell_angle_gamma 124.784859
_cell_volume 642.343630
_symmetry_space_group_name_H-M "P -1"
_symmetry_group_IT_number 2
_symmetry_cell_setting 'triclinic'
loop_
_space_group_symop_operation_xyz
x,y,z
-x,-y,-z
loop_
_atom_site_type_symbol
_atom_site_label
_atom_site_fract_x
_atom_site_fract_y
_atom_site_fract_z
Si Si1 0.100553 0.156884 0.885518
Si Si2 0.352514 0.416180 0.907299
Si Si3 0.055962 0.417282 0.175482
Si Si4 0.555844 0.687176 0.539998
Si Si5 0.823233 0.343075 0.557409
Si Si6 0.629272 0.296058 0.135379
Si Si7 0.696912 0.142908 0.972764
O O1 0.286786 0.276991 0.919199
O O2 0.219779 0.222037 0.653350
O O3 0.895487 0.147153 0.957287
O O4 0.000000 0.000000 0.000000
O O5 0.453156 0.532181 0.686975
O O6 0.500000 0.500000 0.000000
O O7 0.124783 0.369476 0.043487
O O8 0.959727 0.331864 0.403757
O O9 0.839952 0.387125 0.171727
O O10 0.269011 0.580482 0.077255
O O11 0.389241 0.686711 0.461353
O O12 0.565948 0.746076 0.689042
O O13 0.768278 0.253605 0.767599
O O14 0.000000 0.500000 0.500000
O O15 0.613490 0.176639 0.124611
O O16 0.500000 0.000000 0.000000
#
# Coordination Sequence:
#
# PCOD9046883 Si02
#       7
#     2   2   2   2   2   2   2
#     4  12  27  48  65  97 146 182 222 279 341 401
#     4  11  24  41  71 101 137 175 228 275 341 399
#     4   9  18  36  64  95 124 164 214 277 319 380
#     4  10  24  43  69 101 134 174 221 289 336 397
#     4  11  21  37  70  99 130 167 228 274 333 394
#     4   9  18  41  64  94 128 164 218 272 326 383
#     4  12  25  43  68  98 133 180 224 272 338 412
#
# _framework density 21.795189000000001
#
# number of rings (size 3 to 8) (size 9 to 14) (size 15 to 20)
#    0.000    1.429    2.857    3.000    4.000    2.286 
#    2.571    3.571    0.000    0.000    0.000    0.000 
#    0.000    0.000    0.000    0.000    0.000    0.000 
#
# Total GULP energy -77970.720343 kJ/mol
# GULP energy per Si atom -5569.337167 kJ/mol
# Density = 2.174558 g / cm^3
# Si number density = 21.795189 Si / 1000 Ang^3
#
#
#
# Elastic Constant Matrix: (Units=GPa)
#
#
# Indices 1 2 3 4 5 6 
#
# 1 56.5605 40.0293 2.9412 -8.2023 1.8015 1.6401
# 2 40.0293 159.9447 55.7042 -8.2623 -10.1613 -21.2268
# 3 2.9412 55.7042 86.5748 2.2420 -8.6236 -17.7290
# 4 -8.2023 -8.2623 2.2420 30.3867 -11.8550 -2.9337
# 5 1.8015 -10.1613 -8.6236 -11.8550 37.8931 2.1545
# 6 1.6401 -21.2268 -17.7290 -2.9337 2.1545 27.0136
#
#
#
# Elastic Compliance Matrix: (Units=1/GPa)
#
#
# Indices 1 2 3 4 5 6 
#
# 1 0.023406 -0.007385 0.002733 0.003158 -0.001199 -0.004992
# 2 -0.007385 0.011112 -0.005552 0.003035 0.002696 0.005651
# 3 0.002733 -0.005552 0.016443 -0.000805 0.001527 0.006054
# 4 0.003158 0.003035 -0.000805 0.040100 0.012742 0.005004
# 5 -0.001199 0.002696 0.001527 0.012742 0.031386 0.002074
# 6 -0.004992 0.005651 0.006054 0.005004 0.002074 0.046113
#
#
# Mechanical properties :
#
#
# Convention : Reuss Voigt Hill
#
# Bulk Modulus (GPa) = 32.73011 55.60328 44.16669
# Shear Modulus (GPa) = 25.10667 32.68572 28.89619
#
# Velocity S-wave (km/s) = 3.39770 3.87677 3.64511
# Velocity P-wave (km/s) = 5.51745 6.75324 6.16638
#
# Compressibility (1/GPa) = 0.03055291
#
# Stress axis : x y z
#
# Youngs Moduli (GPa) = 42.72473 89.99403 60.81782
#
# Poissons Ratio (x) = 0.66461 -0.16622
# Poissons Ratio (y) = 0.31553 0.33764
# Poissons Ratio (z) = -0.11677 0.49961
#
# Static dielectric constant tensor:
#      x y z
#    x 2.078830 0.086020 -0.044310 
#    y 0.086020 1.879020 0.025120 
#    z -0.044310 0.025120 1.877740 
# 
# From -- ./inp_files/158471.got.cif
#   From: 2010.05.17/outbox.cif.g08.bks.cpg/sg2_80_cif.got.tgz:158471.got - 2010.06.03 11:33:40.
