data_PCOD9046037
_publ_section_title
;
Structure prediction by ZEFSAII (Michael W. Deem and Ramdas Pophale) SiO2 
 PCOD9046037
Probable space group: P -1
;
_chemical_formula_sum "Si O2"
_cell_formula_units_Z 15
_cell_length_a 9.418535
_cell_length_b 8.844923
_cell_length_c 14.571474
_cell_angle_alpha 125.675702
_cell_angle_beta 70.095271
_cell_angle_gamma 72.174545
_cell_volume 695.954692
_symmetry_space_group_name_H-M "P -1"
_symmetry_group_IT_number 2
_symmetry_cell_setting 'triclinic'
loop_
_space_group_symop_operation_xyz
x,y,z
-x,-y,-z
loop_
_atom_site_type_symbol
_atom_site_label
_atom_site_fract_x
_atom_site_fract_y
_atom_site_fract_z
Si Si1 0.043216 0.027182 0.849340
Si Si2 0.364952 0.446838 0.858480
Si Si3 0.246596 0.519224 0.697797
Si Si4 0.703640 0.428707 0.722608
Si Si5 0.760507 0.753110 0.041704
Si Si6 0.319082 0.773161 0.527118
Si Si7 0.924551 0.711659 0.315630
Si Si8 0.500000 0.000000 0.000000
O O1 0.088342 0.815407 0.829757
O O2 0.153804 0.882756 0.680090
O O3 0.150228 0.127074 0.897600
O O4 0.809574 0.264389 0.972802
O O5 0.315603 0.443227 0.761604
O O6 0.578793 0.374994 0.787342
O O7 0.343972 0.284360 0.869497
O O8 0.448614 0.403011 0.557080
O O9 0.144841 0.409468 0.653594
O O10 0.699356 0.366728 0.596625
O O11 0.926827 0.275866 0.657224
O O12 0.591931 0.715511 0.860528
O O13 0.615449 0.908652 0.043345
O O14 0.946404 0.478400 0.864314
O O15 0.262886 0.017774 0.581298
#
# Coordination Sequence:
#
# PCOD9046037 Si02
#       8
#     2   2   2   2   2   2   2   1
#     4  12  23  41  71  99 137 166 228 279 325 383
#     4  11  22  41  69 101 129 173 228 266 327 393
#     4  11  24  39  67  98 130 178 225 269 331 383
#     4  10  25  43  68  96 133 177 218 269 334 393
#     4  11  22  41  67 101 131 174 219 276 326 384
#     4  11  23  44  63  95 134 177 221 273 326 394
#     4  11  22  41  65  94 135 175 219 271 326 396
#     4  10  24  42  66  94 138 166 214 272 330 390
#
# _framework density 21.553128999999998
#
# number of rings (size 3 to 8) (size 9 to 14) (size 15 to 20)
#    0.000    1.067    2.667    4.400    3.733    3.200 
#    0.000    0.667    0.000    0.000    0.000    0.000 
#    0.000    0.000    0.000    0.000    0.000    0.000 
#
# Total GULP energy -83660.737386 kJ/mol
# GULP energy per Si atom -5577.382492 kJ/mol
# Density = 2.150407 g / cm^3
# Si number density = 21.553129 Si / 1000 Ang^3
#
#
#
# Elastic Constant Matrix: (Units=GPa)
#
#
# Indices 1 2 3 4 5 6 
#
# 1 89.7594 10.3523 17.7801 -11.3468 -1.1772 10.1333
# 2 10.3523 59.9059 -9.4585 10.5083 -2.6023 -3.1332
# 3 17.7801 -9.4585 49.9364 -15.5028 4.1474 5.2052
# 4 -11.3468 10.5083 -15.5028 34.3895 3.5686 -1.4311
# 5 -1.1772 -2.6023 4.1474 3.5686 34.8737 5.3430
# 6 10.1333 -3.1332 5.2052 -1.4311 5.3430 14.8074
#
#
#
# Elastic Compliance Matrix: (Units=1/GPa)
#
#
# Indices 1 2 3 4 5 6 
#
# 1 0.013871 -0.004027 -0.003772 0.003547 0.001675 -0.009280
# 2 -0.004027 0.019132 0.002650 -0.005855 0.000807 0.005015
# 3 -0.003772 0.002650 0.025533 0.009655 -0.003391 -0.003677
# 4 0.003547 -0.005855 0.009655 0.036835 -0.004973 -0.001705
# 5 0.001675 0.000807 -0.003391 -0.004973 0.031485 -0.011625
# 6 -0.009280 0.005015 -0.003677 -0.001705 -0.011625 0.080268
#
#
# Mechanical properties :
#
#
# Convention : Reuss Voigt Hill
#
# Bulk Modulus (GPa) = 20.73141 26.32774 23.52957
# Shear Modulus (GPa) = 21.41319 28.87598 25.14459
#
# Velocity S-wave (km/s) = 3.15541 3.66424 3.41931
# Velocity P-wave (km/s) = 4.78698 5.49036 5.15069
#
# Compressibility (1/GPa) = 0.04823598
#
# Stress axis : x y z
#
# Youngs Moduli (GPa) = 72.09506 52.26933 39.16555
#
# Poissons Ratio (x) = 0.21050 0.14774
# Poissons Ratio (y) = 0.29035 -0.10379
# Poissons Ratio (z) = 0.27196 -0.13852
#
# Static dielectric constant tensor:
#      x y z
#    x 1.781810 -0.000330 -0.020870 
#    y -0.000330 1.804420 -0.032790 
#    z -0.020870 -0.032790 1.790850 
# 
# From -- ./inp_files/179036.got.cif
#   From: 2010.05.17/outbox.cif.g08.bks.cpg/sg2_90_cif.got.tgz:179036.got - 2010.06.03 11:33:40.
