data_PCOD9046341
_publ_section_title
;
Structure prediction by ZEFSAII (Michael W. Deem and Ramdas Pophale) SiO2 
 PCOD9046341
Probable space group: P -1
;
_chemical_formula_sum "Si O2"
_cell_formula_units_Z 14
_cell_length_a 24.128202
_cell_length_b 7.705739
_cell_length_c 24.010227
_cell_angle_alpha 39.939985
_cell_angle_beta 168.435082
_cell_angle_gamma 141.168173
_cell_volume 560.948309
_symmetry_space_group_name_H-M "P -1"
_symmetry_group_IT_number 2
_symmetry_cell_setting 'triclinic'
loop_
_space_group_symop_operation_xyz
x,y,z
-x,-y,-z
loop_
_atom_site_type_symbol
_atom_site_label
_atom_site_fract_x
_atom_site_fract_y
_atom_site_fract_z
Si Si1 0.378703 0.713377 0.749337
Si Si2 0.777148 0.784147 0.933786
Si Si3 0.246263 0.653960 0.368625
Si Si4 0.237585 0.860758 0.452280
Si Si5 0.770900 0.531215 0.721646
Si Si6 0.749264 0.930147 0.225944
Si Si7 0.944902 0.061714 0.266755
O O1 0.289290 0.728439 0.593615
O O2 0.324331 0.389714 0.788135
O O3 0.192992 0.891087 0.557043
O O4 0.699424 0.871590 0.035637
O O5 0.552845 0.648323 0.698288
O O6 0.533901 0.900042 0.699835
O O7 0.071675 0.877685 0.164736
O O8 0.957066 0.697418 0.184475
O O9 0.264577 0.671299 0.315951
O O10 0.054311 0.359008 0.272528
O O11 0.173411 0.161884 0.323904
O O12 0.500000 0.500000 0.500000
O O13 0.000000 0.500000 0.000000
O O14 0.825312 0.091131 0.203363
O O15 0.000000 0.000000 0.500000
O O16 0.500000 0.000000 0.000000
#
# Coordination Sequence:
#
# PCOD9046341 Si02
#       7
#     2   2   2   2   2   2   2
#     4  12  25  45  73 100 145 180 237 279 345 412
#     4  10  24  42  70  99 146 172 232 274 348 413
#     4  11  24  45  70 106 135 187 226 286 347 412
#     4  11  24  45  70 106 135 187 226 286 347 412
#     4  12  26  46  72 103 140 177 234 290 342 410
#     4  12  28  46  68 108 142 183 229 290 344 399
#     4  12  25  45  73 100 145 180 237 279 345 412
#
# _framework density 24.957736000000001
#
# number of rings (size 3 to 8) (size 9 to 14) (size 15 to 20)
#    0.000    0.571    1.429    6.000    8.000    0.000 
#    0.000   14.286    0.000    0.000    0.000    0.000 
#    0.000    0.000    0.000    0.000    0.000    0.000 
#
# Total GULP energy -78161.773956 kJ/mol
# GULP energy per Si atom -5582.983854 kJ/mol
# Density = 2.490093 g / cm^3
# Si number density = 24.957736 Si / 1000 Ang^3
#
#
#
# Elastic Constant Matrix: (Units=GPa)
#
#
# Indices 1 2 3 4 5 6 
#
# 1 166.5275 -8.9133 44.0013 0.1840 -0.2744 7.7702
# 2 -8.9133 83.4448 11.6102 -4.6580 2.3285 3.4618
# 3 44.0013 11.6102 196.1658 21.0840 -1.6074 2.6331
# 4 0.1840 -4.6580 21.0840 33.7399 -17.2482 0.7337
# 5 -0.2744 2.3285 -1.6074 -17.2482 58.7365 -2.1680
# 6 7.7702 3.4618 2.6331 0.7337 -2.1680 28.5710
#
#
#
# Elastic Compliance Matrix: (Units=1/GPa)
#
#
# Indices 1 2 3 4 5 6 
#
# 1 0.006582 0.001074 -0.001656 0.001321 0.000265 -0.001781
# 2 0.001074 0.012484 -0.001237 0.002621 0.000182 -0.001744
# 3 -0.001656 -0.001237 0.006015 -0.004489 -0.001110 0.000077
# 4 0.001321 0.002621 -0.004489 0.038460 0.011058 -0.000412
# 5 0.000265 0.000182 -0.001110 0.011058 0.020283 0.001263
# 6 -0.001781 -0.001744 0.000077 -0.000412 0.001263 0.035796
#
#
# Mechanical properties :
#
#
# Convention : Reuss Voigt Hill
#
# Bulk Modulus (GPa) = 46.63369 59.94827 53.29098
# Shear Modulus (GPa) = 38.34197 50.83881 44.59039
#
# Velocity S-wave (km/s) = 3.92379 4.51821 4.23145
# Velocity P-wave (km/s) = 6.26528 7.16177 6.72847
#
# Compressibility (1/GPa) = 0.02144372
#
# Stress axis : x y z
#
# Youngs Moduli (GPa) = 151.92668 80.10040 166.25890
#
# Poissons Ratio (x) = -0.08601 0.27531
# Poissons Ratio (y) = -0.16313 0.20559
# Poissons Ratio (z) = 0.25158 0.09905
#
# Static dielectric constant tensor:
#      x y z
#    x 2.032710 -0.064250 0.013300 
#    y -0.064250 2.093950 -0.012650 
#    z 0.013300 -0.012650 1.902200 
# 
# From -- ./inp_files/613978.got.cif
#   From: 2010.05.17/outbox.cif.g08.bks.cpg/sg2_307_cif.got.tgz:613978.got - 2010.06.03 11:33:40.
