data_PCOD9046133
_publ_section_title
;
Structure prediction by ZEFSAII (Michael W. Deem and Ramdas Pophale) SiO2 
 PCOD9046133
Probable space group: P -1
;
_chemical_formula_sum "Si O2"
_cell_formula_units_Z 13
_cell_length_a 10.719440
_cell_length_b 10.312761
_cell_length_c 13.530703
_cell_angle_alpha 136.990490
_cell_angle_beta 34.845498
_cell_angle_gamma 141.663218
_cell_volume 513.703853
_symmetry_space_group_name_H-M "P -1"
_symmetry_group_IT_number 2
_symmetry_cell_setting 'triclinic'
loop_
_space_group_symop_operation_xyz
x,y,z
-x,-y,-z
loop_
_atom_site_type_symbol
_atom_site_label
_atom_site_fract_x
_atom_site_fract_y
_atom_site_fract_z
Si Si1 0.818142 0.618399 0.592444
Si Si2 0.488296 0.666649 0.673724
Si Si3 0.029794 0.061034 0.795246
Si Si4 0.196056 0.571097 0.190493
Si Si5 0.000000 0.500000 0.000000
Si Si6 0.523631 0.069702 0.908430
Si Si7 0.563975 0.712784 0.188059
O O1 0.613266 0.646901 0.680931
O O2 0.668452 0.463924 0.694352
O O3 0.946214 0.520845 0.380469
O O4 0.014504 0.861411 0.630141
O O5 0.500000 0.500000 0.500000
O O6 0.211591 0.615915 0.846633
O O7 0.611808 0.918718 0.708312
O O8 0.074773 0.286962 0.842092
O O9 0.242650 0.111774 0.766247
O O10 0.743503 0.955947 0.960187
O O11 0.417305 0.748341 0.213583
O O12 0.252169 0.687449 0.111639
O O13 0.266392 0.382500 0.024502
O O14 0.500000 0.000000 0.000000
#
# Coordination Sequence:
#
# PCOD9046133 Si02
#       7
#     2   2   2   2   1   2   2
#     4  12  25  46  71 108 137 182 238 291 341 414
#     4  11  25  40  68 104 139 178 233 278 348 415
#     4  11  24  43  76  97 143 186 227 290 348 409
#     4  11  27  45  75 100 139 188 232 291 348 412
#     4  10  24  42  68 100 142 184 216 286 350 404
#     4  11  23  46  70 104 143 184 225 288 353 415
#     4  11  25  52  68 101 142 185 237 285 351 413
#
# _framework density 25.306408999999999
#
# number of rings (size 3 to 8) (size 9 to 14) (size 15 to 20)
#    0.000    0.923    4.615    0.462    8.615    1.846 
#    0.000    0.000    0.000    0.000    0.000    0.000 
#    0.000    0.000    0.000    0.000    0.000    0.000 
#
# Total GULP energy -72420.591002 kJ/mol
# GULP energy per Si atom -5570.814692 kJ/mol
# Density = 2.524881 g / cm^3
# Si number density = 25.306409 Si / 1000 Ang^3
#
#
#
# Elastic Constant Matrix: (Units=GPa)
#
#
# Indices 1 2 3 4 5 6 
#
# 1 55.1085 14.5511 -20.1312 -14.4714 2.9983 12.3137
# 2 14.5511 64.6273 24.9531 -4.3737 6.3754 9.9621
# 3 -20.1312 24.9531 159.3851 -3.8144 5.7877 -7.5455
# 4 -14.4714 -4.3737 -3.8144 33.7410 8.5311 4.1906
# 5 2.9983 6.3754 5.7877 8.5311 27.7509 2.3762
# 6 12.3137 9.9621 -7.5455 4.1906 2.3762 45.6239
#
#
#
# Elastic Compliance Matrix: (Units=1/GPa)
#
#
# Indices 1 2 3 4 5 6 
#
# 1 0.026367 -0.005158 0.004393 0.013470 -0.006192 -0.006178
# 2 -0.005158 0.018911 -0.003632 0.001009 -0.003060 -0.003271
# 3 0.004393 -0.003632 0.007573 0.002715 -0.002116 0.000721
# 4 0.013470 0.001009 0.002715 0.040199 -0.014066 -0.006366
# 5 -0.006192 -0.003060 -0.002116 -0.014066 0.042079 0.001090
# 6 -0.006178 -0.003271 0.000721 -0.006366 0.001090 0.024947
#
#
# Mechanical properties :
#
#
# Convention : Reuss Voigt Hill
#
# Bulk Modulus (GPa) = 22.69770 35.31856 29.00813
# Shear Modulus (GPa) = 27.23943 38.73971 32.98957
#
# Velocity S-wave (km/s) = 3.28439 3.91682 3.61446
# Velocity P-wave (km/s) = 4.83442 5.86873 5.37650
#
# Compressibility (1/GPa) = 0.04405733
#
# Stress axis : x y z
#
# Youngs Moduli (GPa) = 37.92620 52.87857 132.04049
#
# Poissons Ratio (x) = 0.27274 -0.57999
# Poissons Ratio (y) = 0.19562 0.47954
# Poissons Ratio (z) = -0.16659 0.19204
#
# Static dielectric constant tensor:
#      x y z
#    x 2.022450 -0.069460 0.045540 
#    y -0.069460 2.101050 0.082640 
#    z 0.045540 0.082640 1.987100 
# 
# From -- ./inp_files/518262.got.cif
#   From: 2010.05.17/outbox.cif.g08.bks.cpg/sg2_260_cif.got.tgz:518262.got - 2010.06.03 11:33:40.
