data_PCOD9046317
_publ_section_title
;
Structure prediction by ZEFSAII (Michael W. Deem and Ramdas Pophale) SiO2 
 PCOD9046317
Probable space group: P -1
;
_chemical_formula_sum "Si O2"
_cell_formula_units_Z 16
_cell_length_a 9.179130
_cell_length_b 8.377776
_cell_length_c 12.358550
_cell_angle_alpha 98.815150
_cell_angle_beta 132.207179
_cell_angle_gamma 81.435653
_cell_volume 694.278301
_symmetry_space_group_name_H-M "P -1"
_symmetry_group_IT_number 2
_symmetry_cell_setting 'triclinic'
loop_
_space_group_symop_operation_xyz
x,y,z
-x,-y,-z
loop_
_atom_site_type_symbol
_atom_site_label
_atom_site_fract_x
_atom_site_fract_y
_atom_site_fract_z
Si Si1 0.042703 0.329367 0.445891
Si Si2 0.173587 0.141730 0.688131
Si Si3 0.345496 0.796356 0.792164
Si Si4 0.715196 0.569953 0.608548
Si Si5 0.532255 0.817101 0.680521
Si Si6 0.207660 0.890200 0.112447
Si Si7 0.822744 0.219612 0.667690
Si Si8 0.526408 0.318292 0.943472
O O1 0.061506 0.183874 0.525575
O O2 0.230504 0.345930 0.466549
O O3 0.000000 0.500000 0.500000
O O4 0.848124 0.291612 0.278587
O O5 0.323636 0.283972 0.780125
O O6 0.019202 0.135653 0.707516
O O7 0.292125 0.972360 0.737443
O O8 0.447950 0.717567 0.728938
O O9 0.475461 0.794557 0.962500
O O10 0.500000 0.500000 0.500000
O O11 0.714069 0.706497 0.711750
O O12 0.850767 0.409201 0.678498
O O13 0.363175 0.832968 0.504015
O O14 0.624423 0.980965 0.779296
O O15 0.198295 0.811368 0.219247
O O16 0.293244 0.755026 0.052011
O O17 0.000000 0.000000 0.000000
O O18 0.500000 0.500000 0.000000
#
# Coordination Sequence:
#
# PCOD9046317 Si02
#       8
#     2   2   2   2   2   2   2   2
#     4  12  23  44  73 107 145 185 247 301 365 437
#     4  12  25  45  75 108 141 190 244 308 362 440
#     4  12  26  46  71 105 147 188 246 296 371 429
#     4  10  24  42  70 108 147 183 235 304 363 432
#     4  11  25  46  73 107 142 191 237 310 363 434
#     4  12  29  49  73 107 152 197 244 299 370 444
#     4  11  25  46  73 109 144 186 245 300 372 431
#     4  12  30  49  74 105 149 201 247 303 366 443
#
# _framework density 23.045515000000002
#
# number of rings (size 3 to 8) (size 9 to 14) (size 15 to 20)
#    0.000    0.500    3.750    3.375   10.500    0.000 
#    0.000    1.250    0.000    0.000    0.000    0.000 
#    0.000    0.000    0.000    0.000    0.000    0.000 
#
# Total GULP energy -89325.051041 kJ/mol
# GULP energy per Si atom -5582.815690 kJ/mol
# Density = 2.299306 g / cm^3
# Si number density = 23.045515 Si / 1000 Ang^3
#
#
#
# Elastic Constant Matrix: (Units=GPa)
#
#
# Indices 1 2 3 4 5 6 
#
# 1 149.3735 32.0643 33.2147 4.2888 -26.1657 -7.3210
# 2 32.0643 87.5410 15.0808 10.4882 -2.5515 -5.7636
# 3 33.2147 15.0808 75.9934 -7.2969 -16.4815 -5.4126
# 4 4.2888 10.4882 -7.2969 35.9009 8.4757 -6.4007
# 5 -26.1657 -2.5515 -16.4815 8.4757 37.7314 -5.0668
# 6 -7.3210 -5.7636 -5.4126 -6.4007 -5.0668 37.5881
#
#
#
# Elastic Compliance Matrix: (Units=1/GPa)
#
#
# Indices 1 2 3 4 5 6 
#
# 1 0.008803 -0.002353 -0.002246 -0.001878 0.005583 0.001463
# 2 -0.002353 0.013093 -0.002047 -0.003691 -0.000741 0.000526
# 3 -0.002246 -0.002047 0.016160 0.003486 0.004961 0.002838
# 4 -0.001878 -0.003691 0.003486 0.032187 -0.006702 0.004148
# 5 0.005583 -0.000741 0.004961 -0.006702 0.034699 0.005224
# 6 0.001463 0.000526 0.002838 0.004148 0.005224 0.028789
#
#
# Mechanical properties :
#
#
# Convention : Reuss Voigt Hill
#
# Bulk Modulus (GPa) = 40.38369 52.62527 46.50448
# Shear Modulus (GPa) = 32.20038 37.74728 34.97383
#
# Velocity S-wave (km/s) = 3.74204 4.05154 3.89986
# Velocity P-wave (km/s) = 6.01930 6.69116 6.36410
#
# Compressibility (1/GPa) = 0.02476247
#
# Stress axis : x y z
#
# Youngs Moduli (GPa) = 113.60197 76.37546 61.88249
#
# Poissons Ratio (x) = 0.17974 0.13897
# Poissons Ratio (y) = 0.26735 0.12670
# Poissons Ratio (z) = 0.25512 0.15638
#
# Static dielectric constant tensor:
#      x y z
#    x 1.827280 -0.004340 0.021480 
#    y -0.004340 1.850020 -0.002850 
#    z 0.021480 -0.002850 1.829290 
# 
# From -- ./inp_files/382448.got.cif
#   From: 2010.05.17/outbox.cif.g08.bks.cpg/sg2_192_cif.got.tgz:382448.got - 2010.06.03 11:33:40.
