data_PCOD9046858
_publ_section_title
;
Structure prediction by ZEFSAII (Michael W. Deem and Ramdas Pophale) SiO2 
 PCOD9046858
Probable space group: P -1
;
_chemical_formula_sum "Si O2"
_cell_formula_units_Z 14
_cell_length_a 15.861855
_cell_length_b 12.282386
_cell_length_c 9.330945
_cell_angle_alpha 47.833551
_cell_angle_beta 59.281048
_cell_angle_gamma 27.949065
_cell_volume 613.590434
_symmetry_space_group_name_H-M "P -1"
_symmetry_group_IT_number 2
_symmetry_cell_setting 'triclinic'
loop_
_space_group_symop_operation_xyz
x,y,z
-x,-y,-z
loop_
_atom_site_type_symbol
_atom_site_label
_atom_site_fract_x
_atom_site_fract_y
_atom_site_fract_z
Si Si1 0.603590 0.325530 0.207834
Si Si2 0.017135 0.841026 0.751084
Si Si3 0.736187 0.720030 0.407375
Si Si4 0.391387 0.990424 0.436048
Si Si5 0.976041 0.487306 0.867505
Si Si6 0.988570 0.124641 0.766873
Si Si7 0.678228 0.354380 0.407377
O O1 0.615725 0.431576 0.226768
O O2 0.522983 0.280627 0.386693
O O3 0.500000 0.500000 0.000000
O O4 0.821084 0.025065 0.258699
O O5 0.216544 0.620571 0.697063
O O6 0.979546 0.029099 0.720793
O O7 0.851590 0.040789 0.601760
O O8 0.019766 0.694438 0.975926
O O9 0.684898 0.873490 0.459709
O O10 0.869319 0.638643 0.257776
O O11 0.831232 0.446817 0.615830
O O12 0.543962 0.916161 0.329143
O O13 0.221708 0.206677 0.285306
O O14 0.000000 0.500000 0.000000
O O15 0.000000 0.000000 0.000000
O O16 0.500000 0.500000 0.500000
#
# Coordination Sequence:
#
# PCOD9046858 Si02
#       7
#     2   2   2   2   2   2   2
#     4  11  24  41  68 105 133 170 232 285 338 411
#     4  10  25  43  67 101 137 175 232 279 335 416
#     4  11  26  45  71  98 138 186 228 288 350 405
#     4  11  25  46  69  98 140 177 238 285 343 416
#     4  12  26  44  71 101 143 185 226 281 355 414
#     4  11  23  42  71 101 134 180 230 286 347 397
#     4  10  24  43  68  98 136 178 225 280 344 398
#
# _framework density 22.816521999999999
#
# number of rings (size 3 to 8) (size 9 to 14) (size 15 to 20)
#    0.000    1.143    1.429    3.000   10.000    5.143 
#    0.000    0.000    0.000    0.000    0.000    0.000 
#    0.000    0.000    0.000    0.000    0.000    0.000 
#
# Total GULP energy -78150.129893 kJ/mol
# GULP energy per Si atom -5582.152135 kJ/mol
# Density = 2.276459 g / cm^3
# Si number density = 22.816522 Si / 1000 Ang^3
#
#
#
# Elastic Constant Matrix: (Units=GPa)
#
#
# Indices 1 2 3 4 5 6 
#
# 1 124.6740 39.3847 48.0551 -5.6204 10.7290 -32.9119
# 2 39.3847 62.3094 16.9914 12.1206 1.6296 -38.2556
# 3 48.0551 16.9914 128.7683 6.7664 1.0612 -26.7127
# 4 -5.6204 12.1206 6.7664 24.0877 -6.0196 -10.2135
# 5 10.7290 1.6296 1.0612 -6.0196 56.0751 -3.3585
# 6 -32.9119 -38.2556 -26.7127 -10.2135 -3.3585 50.0319
#
#
#
# Elastic Compliance Matrix: (Units=1/GPa)
#
#
# Indices 1 2 3 4 5 6 
#
# 1 0.012906 -0.007082 -0.003753 0.008509 -0.001115 0.002733
# 2 -0.007082 0.035047 0.003064 -0.010899 0.000401 0.021577
# 3 -0.003753 0.003064 0.009863 -0.003180 0.000371 0.004516
# 4 0.008509 -0.010899 -0.003180 0.054060 0.004967 0.006935
# 5 -0.001115 0.000401 0.000371 0.004967 0.018683 0.002039
# 6 0.002733 0.021577 0.004516 0.006935 0.002039 0.042247
#
#
# Mechanical properties :
#
#
# Convention : Reuss Voigt Hill
#
# Bulk Modulus (GPa) = 23.65550 58.29047 40.97298
# Shear Modulus (GPa) = 24.69873 40.12697 32.41285
#
# Velocity S-wave (km/s) = 3.29370 4.19821 3.77316
# Velocity P-wave (km/s) = 4.98546 7.00735 6.08102
#
# Compressibility (1/GPa) = 0.04227347
#
# Stress axis : x y z
#
# Youngs Moduli (GPa) = 77.48478 28.53299 101.38961
#
# Poissons Ratio (x) = 0.20208 0.38049
# Poissons Ratio (y) = 0.54878 -0.31066
# Poissons Ratio (z) = 0.29078 -0.08743
#
# Static dielectric constant tensor:
#      x y z
#    x 1.913250 0.018120 -0.081680 
#    y 0.018120 1.928010 0.014960 
#    z -0.081680 0.014960 2.003710 
# 
# From -- ./inp_files/306461.got.cif
#   From: 2010.05.17/outbox.cif.g08.bks.cpg/sg2_154_cif.got.tgz:306461.got - 2010.06.03 11:33:40.
