data_PCOD9046195
_publ_section_title
;
Structure prediction by ZEFSAII (Michael W. Deem and Ramdas Pophale) SiO2 
 PCOD9046195
Probable space group: P -1
;
_chemical_formula_sum "Si O2"
_cell_formula_units_Z 15
_cell_length_a 6.702729
_cell_length_b 19.183315
_cell_length_c 5.072184
_cell_angle_alpha 111.266532
_cell_angle_beta 92.050123
_cell_angle_gamma 106.253417
_cell_volume 576.570849
_symmetry_space_group_name_H-M "P -1"
_symmetry_group_IT_number 2
_symmetry_cell_setting 'triclinic'
loop_
_space_group_symop_operation_xyz
x,y,z
-x,-y,-z
loop_
_atom_site_type_symbol
_atom_site_label
_atom_site_fract_x
_atom_site_fract_y
_atom_site_fract_z
Si Si1 0.500000 0.000000 0.000000
Si Si2 0.669973 0.662541 0.394719
Si Si3 0.713439 0.135635 0.372744
Si Si4 0.096142 0.197154 0.104516
Si Si5 0.136790 0.465178 0.767321
Si Si6 0.724033 0.389498 0.343374
Si Si7 0.830485 0.041155 0.626109
Si Si8 0.512841 0.769696 0.147691
O O1 0.433397 0.902722 0.932046
O O2 0.706004 0.997402 0.808908
O O3 0.816764 0.708743 0.707785
O O4 0.763340 0.597533 0.195445
O O5 0.438065 0.620989 0.439798
O O6 0.645428 0.729153 0.288086
O O7 0.687587 0.046315 0.369990
O O8 0.606381 0.184252 0.614924
O O9 0.946506 0.172082 0.321702
O O10 0.317113 0.187530 0.006587
O O11 0.941109 0.135206 0.809638
O O12 0.301766 0.540789 0.745421
O O13 0.964318 0.418028 0.482100
O O14 0.000000 0.500000 0.000000
O O15 0.663318 0.304207 0.090834
O O16 0.000000 0.000000 0.500000
#
# Coordination Sequence:
#
# PCOD9046195 Si02
#       8
#     1   2   2   2   2   2   2   2
#     4  10  24  42  68  98 134 180 226 284 342 410
#     4  11  25  44  68 100 139 180 232 291 345 415
#     4  11  25  42  69  99 138 185 230 281 351 411
#     4  10  25  42  67 100 136 181 230 284 343 413
#     4  11  25  44  71 100 137 181 232 288 353 416
#     4  10  25  44  68  99 136 183 228 289 348 417
#     4  11  24  42  67 100 137 180 232 284 343 412
#     4  11  25  45  69 101 142 181 235 287 348 412
#
# _framework density 26.015881
#
# number of rings (size 3 to 8) (size 9 to 14) (size 15 to 20)
#    0.000    1.333    0.000    3.200    5.600   13.867 
#    0.000    0.000    0.000    0.000    0.000    0.000 
#    0.000    0.000    0.000    0.000    0.000    0.000 
#
# Total GULP energy -83578.657628 kJ/mol
# GULP energy per Si atom -5571.910509 kJ/mol
# Density = 2.595667 g / cm^3
# Si number density = 26.015881 Si / 1000 Ang^3
#
#
#
# Elastic Constant Matrix: (Units=GPa)
#
#
# Indices 1 2 3 4 5 6 
#
# 1 116.0293 74.3940 64.9158 6.6049 -45.6472 0.3699
# 2 74.3940 69.4252 22.5741 -9.6773 -25.7064 20.7484
# 3 64.9158 22.5741 129.8774 7.8657 -41.3387 7.2567
# 4 6.6049 -9.6773 7.8657 29.1456 11.0554 0.6895
# 5 -45.6472 -25.7064 -41.3387 11.0554 59.3936 8.0012
# 6 0.3699 20.7484 7.2567 0.6895 8.0012 64.0809
#
#
#
# Elastic Compliance Matrix: (Units=1/GPa)
#
#
# Indices 1 2 3 4 5 6 
#
# 1 0.196139 -0.220285 -0.044527 -0.121433 0.037330 0.071881
# 2 -0.220285 0.268170 0.049447 0.140225 -0.032990 -0.088547
# 3 -0.044527 0.049447 0.021314 0.020966 0.000600 -0.018467
# 4 -0.121433 0.140225 0.020966 0.116597 -0.033805 -0.044110
# 5 0.037330 -0.032990 0.000600 -0.033805 0.037133 0.006125
# 6 0.071881 -0.088547 -0.018467 -0.044110 0.006125 0.045662
#
#
# Mechanical properties :
#
#
# Convention : Reuss Voigt Hill
#
# Bulk Modulus (GPa) = 18.21698 71.01106 44.61402
# Shear Modulus (GPa) = 4.40901 40.75388 22.58145
#
# Velocity S-wave (km/s) = 1.30323 3.96220 2.94936
# Velocity P-wave (km/s) = 3.04664 6.94885 5.36510
#
# Compressibility (1/GPa) = 0.05489385
#
# Stress axis : x y z
#
# Youngs Moduli (GPa) = 5.09843 3.72897 46.91784
#
# Poissons Ratio (x) = 0.82144 2.08912
# Poissons Ratio (y) = 1.12311 -2.31996
# Poissons Ratio (z) = 0.22702 -0.18439
#
# Static dielectric constant tensor:
#      x y z
#    x 2.397800 -0.058390 0.484870 
#    y -0.058390 2.042040 -0.042960 
#    z 0.484870 -0.042960 2.673720 
# 
# From -- ./inp_files/11653.got.cif
#   From: 2010.05.17/outbox.cif.g08.bks.cpg/sg2_6_cif.got.tgz:11653.got - 2010.06.03 11:33:40.
