data_PCOD9046656
_publ_section_title
;
Structure prediction by ZEFSAII (Michael W. Deem and Ramdas Pophale) SiO2 
 PCOD9046656
Probable space group: P -1
;
_chemical_formula_sum "Si O2"
_cell_formula_units_Z 16
_cell_length_a 11.431985
_cell_length_b 11.144419
_cell_length_c 14.234865
_cell_angle_alpha 125.440592
_cell_angle_beta 148.546635
_cell_angle_gamma 63.337939
_cell_volume 766.474156
_symmetry_space_group_name_H-M "P -1"
_symmetry_group_IT_number 2
_symmetry_cell_setting 'triclinic'
loop_
_space_group_symop_operation_xyz
x,y,z
-x,-y,-z
loop_
_atom_site_type_symbol
_atom_site_label
_atom_site_fract_x
_atom_site_fract_y
_atom_site_fract_z
Si Si1 0.851823 0.281677 0.454470
Si Si2 0.316777 0.398623 0.885558
Si Si3 0.737233 0.043888 0.133152
Si Si4 0.146804 0.891673 0.431426
Si Si5 0.378225 0.464572 0.500378
Si Si6 0.549129 0.129344 0.863453
Si Si7 0.818238 0.353757 0.811156
Si Si8 0.124412 0.661816 0.953702
O O1 0.802302 0.210844 0.288239
O O2 0.871985 0.160744 0.496546
O O3 0.670901 0.384855 0.413673
O O4 0.094530 0.372014 0.658199
O O5 0.416081 0.240763 0.888180
O O6 0.230858 0.501618 0.955841
O O7 0.500000 0.500000 0.000000
O O8 0.695222 0.037394 0.990959
O O9 0.927993 0.954441 0.266966
O O10 0.500000 0.000000 0.000000
O O11 0.169529 0.747695 0.318174
O O12 0.359788 0.017635 0.631517
O O13 0.500000 0.500000 0.500000
O O14 0.560237 0.389824 0.651535
O O15 0.133646 0.372824 0.274046
O O16 0.716160 0.229632 0.954663
O O17 0.870847 0.276667 0.909787
O O18 0.000000 0.500000 0.000000
#
# Coordination Sequence:
#
# PCOD9046656 Si02
#       8
#     2   2   2   2   2   2   2   2
#     4  11  21  41  67  97 130 167 216 274 321 382
#     4   9  19  41  64  91 134 167 203 272 324 377
#     4  12  25  38  68  99 127 176 216 261 332 384
#     4  12  25  43  65  95 135 168 221 270 319 389
#     4  11  22  43  68  96 130 163 225 275 314 381
#     4  11  24  44  63  97 137 169 217 269 326 388
#     4  12  25  42  71  94 126 176 217 265 326 382
#     4  10  24  43  66  96 133 173 213 271 326 382
#
# _framework density 20.874806
#
# number of rings (size 3 to 8) (size 9 to 14) (size 15 to 20)
#    0.000    1.000    5.000    1.875    3.500    2.500 
#    0.000    3.125    0.000    0.000    0.000    0.000 
#    0.000    0.000    0.000    0.000    0.000    0.000 
#
# Total GULP energy -89306.008068 kJ/mol
# GULP energy per Si atom -5581.625504 kJ/mol
# Density = 2.082729 g / cm^3
# Si number density = 20.874806 Si / 1000 Ang^3
#
#
#
# Elastic Constant Matrix: (Units=GPa)
#
#
# Indices 1 2 3 4 5 6 
#
# 1 60.8020 15.8850 41.1180 -2.2058 19.9674 6.7823
# 2 15.8850 73.6120 46.8140 -11.0513 7.1645 -10.2520
# 3 41.1180 46.8140 130.0933 -8.5196 17.7619 2.1492
# 4 -2.2058 -11.0513 -8.5196 36.3274 4.6762 3.0206
# 5 19.9674 7.1645 17.7619 4.6762 37.5096 0.5024
# 6 6.7823 -10.2520 2.1492 3.0206 0.5024 28.1639
#
#
#
# Elastic Compliance Matrix: (Units=1/GPa)
#
#
# Indices 1 2 3 4 5 6 
#
# 1 0.024801 -0.001272 -0.005765 0.001597 -0.010349 -0.005982
# 2 -0.001272 0.019655 -0.006463 0.003835 -0.000596 0.007554
# 3 -0.005765 -0.006463 0.012134 0.000889 -0.001527 -0.001958
# 4 0.001597 0.003835 0.000889 0.029913 -0.005703 -0.002163
# 5 -0.010349 -0.000596 -0.001527 -0.005703 0.033684 0.002403
# 6 -0.005982 0.007554 -0.001958 -0.002163 0.002403 0.040035
#
#
# Mechanical properties :
#
#
# Convention : Reuss Voigt Hill
#
# Bulk Modulus (GPa) = 33.79495 52.46014 43.12755
# Shear Modulus (GPa) = 25.36950 31.11286 28.24118
#
# Velocity S-wave (km/s) = 3.48992 3.86482 3.68215
# Velocity P-wave (km/s) = 5.69771 6.71574 6.22756
#
# Compressibility (1/GPa) = 0.02959022
#
# Stress axis : x y z
#
# Youngs Moduli (GPa) = 40.32026 50.87696 82.41550
#
# Poissons Ratio (x) = 0.06472 0.47511
# Poissons Ratio (y) = 0.05129 0.53266
# Poissons Ratio (z) = 0.23244 0.32883
#
# Static dielectric constant tensor:
#      x y z
#    x 1.732220 -0.020050 0.008670 
#    y -0.020050 1.816140 -0.005020 
#    z 0.008670 -0.005020 1.671130 
# 
# From -- ./inp_files/510685.got.cif
#   From: 2010.05.17/outbox.cif.g08.bks.cpg/sg2_256_cif.got.tgz:510685.got - 2010.06.03 11:33:40.
