data_PCOD9046236
_publ_section_title
;
Structure prediction by ZEFSAII (Michael W. Deem and Ramdas Pophale) SiO2 
 PCOD9046236
Probable space group: P -1
;
_chemical_formula_sum "Si O2"
_cell_formula_units_Z 14
_cell_length_a 7.531105
_cell_length_b 12.307883
_cell_length_c 8.025525
_cell_angle_alpha 107.393702
_cell_angle_beta 104.455850
_cell_angle_gamma 118.257749
_cell_volume 553.452638
_symmetry_space_group_name_H-M "P -1"
_symmetry_group_IT_number 2
_symmetry_cell_setting 'triclinic'
loop_
_space_group_symop_operation_xyz
x,y,z
-x,-y,-z
loop_
_atom_site_type_symbol
_atom_site_label
_atom_site_fract_x
_atom_site_fract_y
_atom_site_fract_z
Si Si1 0.531392 0.674407 0.801666
Si Si2 0.347838 0.046329 0.917695
Si Si3 0.077148 0.366219 0.109161
Si Si4 0.075469 0.358002 0.497877
Si Si5 0.779810 0.321687 0.725085
Si Si6 0.138485 0.134698 0.315314
Si Si7 0.659958 0.955610 0.465664
O O1 0.719375 0.648359 0.879739
O O2 0.291150 0.522136 0.650783
O O3 0.640655 0.769415 0.705064
O O4 0.530299 0.786273 0.966400
O O5 0.284956 0.003676 0.691945
O O6 0.093411 0.947741 0.888068
O O7 0.500000 0.000000 0.000000
O O8 0.007795 0.338924 0.276703
O O9 0.164436 0.525983 0.175538
O O10 0.887842 0.286494 0.884858
O O11 0.144695 0.251534 0.482814
O O12 0.885330 0.319431 0.572110
O O13 0.513131 0.212326 0.633582
O O14 0.140017 0.014559 0.356409
O O15 0.500000 0.000000 0.500000
#
# Coordination Sequence:
#
# PCOD9046236 Si02
#       7
#     2   2   2   2   2   2   2
#     4  11  25  44  75 103 147 187 244 297 371 426
#     4  12  29  46  75 106 142 192 247 301 370 432
#     4  10  24  42  69 105 148 190 236 299 363 431
#     4  11  24  45  75 105 148 195 242 294 371 426
#     4  11  25  42  71 109 148 183 251 297 361 427
#     4  11  25  49  72 104 147 193 240 305 362 436
#     4  12  27  46  72 103 147 191 248 293 366 441
#
# _framework density 25.295750000000002
#
# number of rings (size 3 to 8) (size 9 to 14) (size 15 to 20)
#    0.000    0.857    0.000    6.429   12.000    1.714 
#    0.000    0.000    0.000    0.000    0.000    0.000 
#    0.000    0.000    0.000    0.000    0.000    0.000 
#
# Total GULP energy -78337.803043 kJ/mol
# GULP energy per Si atom -5595.557360 kJ/mol
# Density = 2.523818 g / cm^3
# Si number density = 25.295750 Si / 1000 Ang^3
#
#
#
# Elastic Constant Matrix: (Units=GPa)
#
#
# Indices 1 2 3 4 5 6 
#
# 1 91.8254 32.4068 47.1227 -9.4219 -1.6573 -18.0585
# 2 32.4068 95.1817 56.2765 -4.6452 0.9610 -14.5080
# 3 47.1227 56.2765 86.5387 -5.3909 11.4632 -11.1791
# 4 -9.4219 -4.6452 -5.3909 47.9089 -16.2722 9.5437
# 5 -1.6573 0.9610 11.4632 -16.2722 36.1041 0.1730
# 6 -18.0585 -14.5080 -11.1791 9.5437 0.1730 65.4615
#
#
#
# Elastic Compliance Matrix: (Units=1/GPa)
#
#
# Indices 1 2 3 4 5 6 
#
# 1 0.016542 0.000475 -0.009477 0.003545 0.005342 0.002519
# 2 0.000475 0.017750 -0.012011 0.001471 0.004017 0.001789
# 3 -0.009477 -0.012011 0.025557 -0.003388 -0.009755 -0.000392
# 4 0.003545 0.001471 -0.003388 0.026418 0.013121 -0.003161
# 5 0.005342 0.004017 -0.009755 0.013121 0.036853 -0.001312
# 6 0.002519 0.001789 -0.000392 -0.003161 -0.001312 0.016765
#
#
# Mechanical properties :
#
#
# Convention : Reuss Voigt Hill
#
# Bulk Modulus (GPa) = 56.11053 60.57309 58.34181
# Shear Modulus (GPa) = 26.61664 39.07755 32.84709
#
# Velocity S-wave (km/s) = 3.24731 3.93469 3.60741
# Velocity P-wave (km/s) = 6.02412 6.68134 6.36122
#
# Compressibility (1/GPa) = 0.01782197
#
# Stress axis : x y z
#
# Youngs Moduli (GPa) = 60.45233 56.33860 39.12780
#
# Poissons Ratio (x) = -0.02673 0.37083
# Poissons Ratio (y) = -0.02869 0.46995
# Poissons Ratio (z) = 0.57293 0.67666
#
# Static dielectric constant tensor:
#      x y z
#    x 2.267820 0.130040 0.232510 
#    y 0.130040 2.121270 0.113310 
#    z 0.232510 0.113310 2.366680 
# 
# From -- ./inp_files/180612.got.cif
#   From: 2010.05.17/outbox.cif.g08.bks.cpg/sg2_91_cif.got.tgz:180612.got - 2010.06.03 11:33:40.
