data_PCOD9046042
_publ_section_title
;
Structure prediction by ZEFSAII (Michael W. Deem and Ramdas Pophale) SiO2 
 PCOD9046042
Probable space group: P -1
;
_chemical_formula_sum "Si O2"
_cell_formula_units_Z 16
_cell_length_a 11.980902
_cell_length_b 8.919594
_cell_length_c 14.697814
_cell_angle_alpha 130.582696
_cell_angle_beta 140.432341
_cell_angle_gamma 50.951050
_cell_volume 732.557112
_symmetry_space_group_name_H-M "P -1"
_symmetry_group_IT_number 2
_symmetry_cell_setting 'triclinic'
loop_
_space_group_symop_operation_xyz
x,y,z
-x,-y,-z
loop_
_atom_site_type_symbol
_atom_site_label
_atom_site_fract_x
_atom_site_fract_y
_atom_site_fract_z
Si Si1 0.581664 0.456206 0.634344
Si Si2 0.334824 0.056316 0.847608
Si Si3 0.054858 0.835568 0.668427
Si Si4 0.097677 0.895285 0.927870
Si Si5 0.642098 0.565843 0.349934
Si Si6 0.401133 0.130523 0.211496
Si Si7 0.363990 0.500095 0.998538
Si Si8 0.334364 0.001126 0.512951
O O1 0.500000 0.500000 0.500000
O O2 0.412979 0.503008 0.615112
O O3 0.687235 0.632218 0.775970
O O4 0.683647 0.218761 0.621286
O O5 0.172232 0.980213 0.758172
O O6 0.418611 0.937542 0.762934
O O7 0.310880 0.292369 0.903225
O O8 0.500000 0.000000 0.000000
O O9 0.014538 0.882538 0.769930
O O10 0.178528 0.601940 0.639913
O O11 0.859288 0.893189 0.519489
O O12 0.183422 0.666473 0.924365
O O13 0.261758 0.998643 0.052404
O O14 0.000000 0.000000 0.000000
O O15 0.475465 0.556508 0.175383
O O16 0.646016 0.802174 0.453645
O O17 0.483729 0.072170 0.340677
O O18 0.500000 0.500000 0.000000
#
# Coordination Sequence:
#
# PCOD9046042 Si02
#       8
#     2   2   2   2   2   2   2   2
#     4  10  24  42  66  95 131 185 225 264 340 405
#     4  12  20  41  73  99 131 172 227 280 323 401
#     4  12  26  43  67 108 133 174 231 279 332 398
#     4  12  27  44  68 104 138 171 226 285 336 401
#     4  12  21  43  71  94 134 183 227 270 330 407
#     4  11  21  46  70  93 137 182 218 271 343 400
#     4  12  21  41  74 102 127 178 229 269 340 406
#     4  11  26  42  66 101 140 173 226 277 338 394
#
# _framework density 21.8413
#
# number of rings (size 3 to 8) (size 9 to 14) (size 15 to 20)
#    0.000    0.500    7.500    0.750    1.750    3.500 
#    0.000    1.250    0.000    0.000    0.000    0.000 
#    0.000    0.000    0.000    0.000    0.000    0.000 
#
# Total GULP energy -89226.240014 kJ/mol
# GULP energy per Si atom -5576.640001 kJ/mol
# Density = 2.179159 g / cm^3
# Si number density = 21.841300 Si / 1000 Ang^3
#
#
#
# Elastic Constant Matrix: (Units=GPa)
#
#
# Indices 1 2 3 4 5 6 
#
# 1 100.4195 27.7934 3.7341 0.5839 -20.2120 21.3213
# 2 27.7934 177.4410 22.7460 36.2477 7.9803 27.5627
# 3 3.7341 22.7460 39.3536 2.4791 -1.7863 18.4753
# 4 0.5839 36.2477 2.4791 29.3624 4.6335 15.6440
# 5 -20.2120 7.9803 -1.7863 4.6335 34.0243 12.4524
# 6 21.3213 27.5627 18.4753 15.6440 12.4524 32.1665
#
#
#
# Elastic Compliance Matrix: (Units=1/GPa)
#
#
# Indices 1 2 3 4 5 6 
#
# 1 0.036916 -0.009144 0.037424 0.040577 0.048573 -0.076667
# 2 -0.009144 0.010443 -0.013865 -0.020087 -0.013174 0.019945
# 3 0.037424 -0.013865 0.082565 0.060233 0.063407 -0.114189
# 4 0.040577 -0.020087 0.060233 0.107342 0.061367 -0.120242
# 5 0.048573 -0.013174 0.063407 0.061367 0.102771 -0.126957
# 6 -0.076667 0.019945 -0.114189 -0.120242 -0.126957 0.238029
#
#
# Mechanical properties :
#
#
# Convention : Reuss Voigt Hill
#
# Bulk Modulus (GPa) = 6.29904 47.30680 26.80292
# Shear Modulus (GPa) = 8.30352 36.64001 22.47176
#
# Velocity S-wave (km/s) = 1.95192 4.10024 3.21107
# Velocity P-wave (km/s) = 2.82317 6.64246 5.10356
#
# Compressibility (1/GPa) = 0.15875434
#
# Stress axis : x y z
#
# Youngs Moduli (GPa) = 27.08832 95.75803 12.11168
#
# Poissons Ratio (x) = 0.87565 -0.45327
# Poissons Ratio (y) = 0.24771 0.16792
# Poissons Ratio (z) = -1.01375 1.32764
#
# Static dielectric constant tensor:
#      x y z
#    x 1.862540 0.056850 -0.044290 
#    y 0.056850 1.888020 0.016720 
#    z -0.044290 0.016720 1.787590 
# 
# From -- ./inp_files/379314.got.cif
#   From: 2010.05.17/outbox.cif.g08.bks.cpg/sg2_190_cif.got.tgz:379314.got - 2010.06.03 11:33:40.
