data_PCOD9046207
_publ_section_title
;
Structure prediction by ZEFSAII (Michael W. Deem and Ramdas Pophale) SiO2 
 PCOD9046207
Probable space group: P -1
;
_chemical_formula_sum "Si O2"
_cell_formula_units_Z 14
_cell_length_a 9.700379
_cell_length_b 6.591948
_cell_length_c 12.025705
_cell_angle_alpha 50.197859
_cell_angle_beta 100.182140
_cell_angle_gamma 100.326488
_cell_volume 579.243749
_symmetry_space_group_name_H-M "P -1"
_symmetry_group_IT_number 2
_symmetry_cell_setting 'triclinic'
loop_
_space_group_symop_operation_xyz
x,y,z
-x,-y,-z
loop_
_atom_site_type_symbol
_atom_site_label
_atom_site_fract_x
_atom_site_fract_y
_atom_site_fract_z
Si Si1 0.142798 0.994837 0.591445
Si Si2 0.946596 0.510277 0.113506
Si Si3 0.250188 0.627359 0.164329
Si Si4 0.711600 0.433241 0.564916
Si Si5 0.348516 0.140716 0.234919
Si Si6 0.398469 0.690894 0.640967
Si Si7 0.672088 0.789536 0.035027
O O1 0.191669 0.293861 0.530927
O O2 0.110465 0.787040 0.758195
O O3 0.263753 0.859977 0.586201
O O4 0.000000 0.000000 0.500000
O O5 0.083790 0.608679 0.171323
O O6 0.824148 0.698526 0.053743
O O7 0.000000 0.500000 0.000000
O O8 0.329284 0.559793 0.313045
O O9 0.271722 0.394532 0.165292
O O10 0.305693 0.910266 0.024759
O O11 0.610086 0.411969 0.451117
O O12 0.754565 0.128457 0.679265
O O13 0.470628 0.135082 0.345967
O O14 0.407812 0.183954 0.103448
O O15 0.388283 0.427470 0.810441
#
# Coordination Sequence:
#
# PCOD9046207 Si02
#       7
#     2   2   2   2   2   2   2
#     4  11  25  46  66  98 134 173 219 278 329 392
#     4  11  22  42  69  95 133 170 221 275 329 389
#     4  11  23  42  66  96 135 177 221 266 333 388
#     4  11  25  43  68  97 134 177 219 267 332 392
#     4  11  24  45  67  97 137 177 220 272 321 400
#     4  11  26  43  67 102 134 172 226 270 329 392
#     4  10  24  42  68  99 130 177 218 277 326 388
#
# _framework density 24.169442
#
# number of rings (size 3 to 8) (size 9 to 14) (size 15 to 20)
#    0.000    1.143    2.857    2.143    2.000    4.571 
#    0.000    0.000    0.000    0.000    0.000    0.000 
#    0.000    0.000    0.000    0.000    0.000    0.000 
#
# Total GULP energy -78224.198866 kJ/mol
# GULP energy per Si atom -5587.442776 kJ/mol
# Density = 2.411443 g / cm^3
# Si number density = 24.169442 Si / 1000 Ang^3
#
#
#
# Elastic Constant Matrix: (Units=GPa)
#
#
# Indices 1 2 3 4 5 6 
#
# 1 68.0355 29.1367 20.5627 0.5521 13.8599 16.7429
# 2 29.1367 177.0439 78.0870 -32.2365 -3.9527 25.2219
# 3 20.5627 78.0870 129.2614 -12.9532 -9.5999 9.0182
# 4 0.5521 -32.2365 -12.9532 61.3889 9.2667 -4.5348
# 5 13.8599 -3.9527 -9.5999 9.2667 42.2623 4.5225
# 6 16.7429 25.2219 9.0182 -4.5348 4.5225 31.4049
#
#
#
# Elastic Compliance Matrix: (Units=1/GPa)
#
#
# Indices 1 2 3 4 5 6 
#
# 1 0.019050 -0.001391 -0.002189 -0.001057 -0.005817 -0.007725
# 2 -0.001391 0.009283 -0.004693 0.003538 0.000002 -0.004855
# 3 -0.002189 -0.004693 0.010986 -0.000441 0.002729 0.001325
# 4 -0.001057 0.003538 -0.000441 0.018692 -0.003636 0.001071
# 5 -0.005817 0.000002 0.002729 -0.003636 0.027214 -0.002129
# 6 -0.007725 -0.004855 0.001325 0.001071 -0.002129 0.039941
#
#
# Mechanical properties :
#
#
# Convention : Reuss Voigt Hill
#
# Bulk Modulus (GPa) = 43.91303 69.99040 56.95172
# Shear Modulus (GPa) = 33.48866 43.44820 38.46843
#
# Velocity S-wave (km/s) = 3.72637 4.24447 3.99383
# Velocity P-wave (km/s) = 6.05993 7.28298 6.69942
#
# Compressibility (1/GPa) = 0.02277228
#
# Stress axis : x y z
#
# Youngs Moduli (GPa) = 52.49283 107.72036 91.02733
#
# Poissons Ratio (x) = 0.14989 0.19924
# Poissons Ratio (y) = 0.07304 0.42721
# Poissons Ratio (z) = 0.11489 0.50556
#
# Static dielectric constant tensor:
#      x y z
#    x 1.968800 0.004900 0.044900 
#    y 0.004900 1.914800 0.021010 
#    z 0.044900 0.021010 1.967130 
# 
# From -- ./inp_files/72079.got.cif
#   From: 2010.05.17/outbox.cif.g08.bks.cpg/sg2_37_cif.got.tgz:72079.got - 2010.06.03 11:33:40.
