data_PCOD9046372
_publ_section_title
;
Structure prediction by ZEFSAII (Michael W. Deem and Ramdas Pophale) SiO2 
 PCOD9046372
Probable space group: P -1
;
_chemical_formula_sum "Si O2"
_cell_formula_units_Z 14
_cell_length_a 8.996823
_cell_length_b 10.835477
_cell_length_c 10.112784
_cell_angle_alpha 110.403245
_cell_angle_beta 50.298460
_cell_angle_gamma 123.558234
_cell_volume 632.053226
_symmetry_space_group_name_H-M "P -1"
_symmetry_group_IT_number 2
_symmetry_cell_setting 'triclinic'
loop_
_space_group_symop_operation_xyz
x,y,z
-x,-y,-z
loop_
_atom_site_type_symbol
_atom_site_label
_atom_site_fract_x
_atom_site_fract_y
_atom_site_fract_z
Si Si1 0.269659 0.709260 0.009955
Si Si2 0.245503 0.209426 0.322632
Si Si3 0.804572 0.908619 0.433470
Si Si4 0.636538 0.116338 0.719477
Si Si5 0.051345 0.363805 0.077657
Si Si6 0.029771 0.656597 0.587963
Si Si7 0.777289 0.864794 0.124839
O O1 0.516646 0.761889 0.843486
O O2 0.116341 0.703274 0.973259
O O3 0.268363 0.816801 0.166919
O O4 0.175452 0.540976 0.055106
O O5 0.220977 0.221304 0.500081
O O6 0.177393 0.318489 0.322924
O O7 0.050302 0.043960 0.343324
O O8 0.742494 0.871195 0.303799
O O9 0.653120 0.969621 0.615623
O O10 0.405510 0.113445 0.841318
O O11 0.777668 0.225143 0.563919
O O12 0.930295 0.325521 0.272407
O O13 0.209473 0.287153 0.962880
O O14 0.000000 0.500000 0.500000
O O15 0.000000 0.000000 0.000000
#
# Coordination Sequence:
#
# PCOD9046372 Si02
#       7
#     2   2   2   2   2   2   2
#     4  11  25  45  68 100 133 180 221 274 339 388
#     4  10  24  42  71  94 133 177 225 269 338 385
#     4  10  24  44  68 101 134 173 229 275 326 399
#     4  11  24  43  73  96 131 181 221 274 333 395
#     4  11  27  44  66 101 139 171 224 279 328 402
#     4  11  23  44  69  97 132 171 223 275 330 394
#     4  12  26  43  69 101 137 175 223 274 336 396
#
# _framework density 22.150033000000001
#
# number of rings (size 3 to 8) (size 9 to 14) (size 15 to 20)
#    0.000    1.143    1.429    3.857   12.000    1.714 
#    0.000    1.429    0.000    0.000    0.000    0.000 
#    0.000    0.000    0.000    0.000    0.000    0.000 
#
# Total GULP energy -78342.974740 kJ/mol
# GULP energy per Si atom -5595.926767 kJ/mol
# Density = 2.209962 g / cm^3
# Si number density = 22.150033 Si / 1000 Ang^3
#
#
#
# Elastic Constant Matrix: (Units=GPa)
#
#
# Indices 1 2 3 4 5 6 
#
# 1 93.1011 18.5164 51.0216 4.9833 7.0205 -5.3564
# 2 18.5164 39.1853 29.3896 5.5219 5.7889 -18.1398
# 3 51.0216 29.3896 132.9311 5.5774 20.3866 3.1008
# 4 4.9833 5.5219 5.5774 37.5412 2.9537 2.8836
# 5 7.0205 5.7889 20.3866 2.9537 60.6022 -0.2161
# 6 -5.3564 -18.1398 3.1008 2.8836 -0.2161 27.2836
#
#
#
# Elastic Compliance Matrix: (Units=1/GPa)
#
#
# Indices 1 2 3 4 5 6 
#
# 1 0.014017 -0.001603 -0.005082 -0.001076 0.000300 0.002380
# 2 -0.001603 0.053877 -0.011738 -0.008834 -0.000447 0.037770
# 3 -0.005082 -0.011738 0.012655 0.001531 -0.002659 -0.010423
# 4 -0.001076 -0.008834 0.001531 0.028643 -0.000976 -0.009294
# 5 0.000300 -0.000447 -0.002659 -0.000976 0.017452 0.000305
# 6 0.002380 0.037770 -0.010423 -0.009294 0.000305 0.064401
#
#
# Mechanical properties :
#
#
# Convention : Reuss Voigt Hill
#
# Bulk Modulus (GPa) = 22.88196 51.45253 37.16725
# Shear Modulus (GPa) = 20.62220 36.17140 28.39680
#
# Velocity S-wave (km/s) = 3.05458 4.04545 3.58442
# Velocity P-wave (km/s) = 4.77425 6.71568 5.82640
#
# Compressibility (1/GPa) = 0.04370255
#
# Stress axis : x y z
#
# Youngs Moduli (GPa) = 71.34352 18.56094 79.01952
#
# Poissons Ratio (x) = 0.02975 0.40157
# Poissons Ratio (y) = 0.11435 0.92755
# Poissons Ratio (z) = 0.36256 0.21787
#
# Static dielectric constant tensor:
#      x y z
#    x 1.903180 -0.056560 0.008620 
#    y -0.056560 1.844930 -0.000040 
#    z 0.008620 -0.000040 1.800830 
# 
# From -- ./inp_files/188270.got.cif
#   From: 2010.05.17/outbox.cif.g08.bks.cpg/sg2_95_cif.got.tgz:188270.got - 2010.06.03 11:33:40.
