data_PCOD9046568
_publ_section_title
;
Structure prediction by ZEFSAII (Michael W. Deem and Ramdas Pophale) SiO2 
 PCOD9046568
Probable space group: P -1
;
_chemical_formula_sum "Si O2"
_cell_formula_units_Z 16
_cell_length_a 9.000441
_cell_length_b 6.627260
_cell_length_c 17.070409
_cell_angle_alpha 79.576708
_cell_angle_beta 116.827455
_cell_angle_gamma 122.569419
_cell_volume 763.128632
_symmetry_space_group_name_H-M "P -1"
_symmetry_group_IT_number 2
_symmetry_cell_setting 'triclinic'
loop_
_space_group_symop_operation_xyz
x,y,z
-x,-y,-z
loop_
_atom_site_type_symbol
_atom_site_label
_atom_site_fract_x
_atom_site_fract_y
_atom_site_fract_z
Si Si1 0.635720 0.391803 0.026624
Si Si2 0.304418 0.359639 0.413667
Si Si3 0.347165 0.843939 0.701240
Si Si4 0.445457 0.914849 0.121690
Si Si5 0.953642 0.399526 0.645275
Si Si6 0.743141 0.905246 0.728905
Si Si7 0.124803 0.898104 0.498979
Si Si8 0.952763 0.131339 0.912194
O O1 0.860088 0.603832 0.075434
O O2 0.560422 0.166058 0.083193
O O3 0.500000 0.500000 0.000000
O O4 0.597271 0.289570 0.936181
O O5 0.500000 0.500000 0.500000
O O6 0.168923 0.466891 0.394006
O O7 0.294850 0.312264 0.321826
O O8 0.241596 0.099227 0.448743
O O9 0.533880 0.836468 0.718078
O O10 0.256597 0.892476 0.599573
O O11 0.171738 0.593046 0.710837
O O12 0.423355 0.044737 0.773210
O O13 0.237456 0.863792 0.106563
O O14 0.976385 0.330059 0.566486
O O15 0.840995 0.164068 0.689271
O O16 0.890258 0.966082 0.831372
O O17 0.000000 0.000000 0.500000
O O18 0.000000 0.000000 0.000000
#
# Coordination Sequence:
#
# PCOD9046568 Si02
#       8
#     2   2   2   2   2   2   2   2
#     4  11  22  43  67  92 128 167 208 262 318 379
#     4  11  23  41  65  92 126 168 205 260 317 364
#     4  11  22  43  65  91 127 163 211 259 307 375
#     4  10  24  43  64  97 125 166 212 259 320 375
#     4  11  23  43  64  89 129 168 205 258 314 364
#     4  10  25  43  62  96 126 161 216 255 308 382
#     4  11  23  40  61  93 124 163 212 253 308 371
#     4  11  22  45  66  93 131 166 209 265 318 375
#
# _framework density 20.966322000000002
#
# number of rings (size 3 to 8) (size 9 to 14) (size 15 to 20)
#    0.000    1.250    2.500    3.000    1.750    3.000 
#   11.250    0.000    0.000    0.000    0.000    0.000 
#    0.000    0.000    0.000    0.000    0.000    0.000 
#
# Total GULP energy -89256.526495 kJ/mol
# GULP energy per Si atom -5578.532906 kJ/mol
# Density = 2.091860 g / cm^3
# Si number density = 20.966322 Si / 1000 Ang^3
#
#
#
# Elastic Constant Matrix: (Units=GPa)
#
#
# Indices 1 2 3 4 5 6 
#
# 1 94.7284 46.0314 45.6315 38.8144 -2.4436 7.3544
# 2 46.0314 64.9865 36.9377 23.7915 7.9090 4.9237
# 3 45.6315 36.9377 147.6192 43.1511 -5.0996 -14.8199
# 4 38.8144 23.7915 43.1511 44.6856 -3.4783 -7.5026
# 5 -2.4436 7.9090 -5.0996 -3.4783 28.0648 13.5490
# 6 7.3544 4.9237 -14.8199 -7.5026 13.5490 40.1543
#
#
#
# Elastic Compliance Matrix: (Units=1/GPa)
#
#
# Indices 1 2 3 4 5 6 
#
# 1 0.022751 -0.010742 -0.000802 -0.014089 0.007055 -0.008159
# 2 -0.010742 0.026802 -0.002841 -0.002886 -0.009508 0.000301
# 3 -0.000802 -0.002841 0.010079 -0.007030 0.000347 0.002785
# 4 -0.014089 -0.002886 -0.007030 0.044381 -0.000427 0.008776
# 5 0.007055 -0.009508 0.000347 -0.000427 0.046557 -0.015788
# 6 -0.008159 0.000301 0.002785 0.008776 -0.015788 0.034356
#
#
# Mechanical properties :
#
#
# Convention : Reuss Voigt Hill
#
# Bulk Modulus (GPa) = 32.40071 62.72615 47.56343
# Shear Modulus (GPa) = 22.32320 34.49650 28.40985
#
# Velocity S-wave (km/s) = 3.26654 4.06067 3.68506
# Velocity P-wave (km/s) = 5.45108 7.20887 6.39070
#
# Compressibility (1/GPa) = 0.03086352
#
# Stress axis : x y z
#
# Youngs Moduli (GPa) = 43.95492 37.31108 99.21361
#
# Poissons Ratio (x) = 0.40078 0.07955
# Poissons Ratio (y) = 0.47215 0.28183
# Poissons Ratio (z) = 0.03524 0.10599
#
# Static dielectric constant tensor:
#      x y z
#    x 1.756100 0.016280 -0.034360 
#    y 0.016280 1.748050 0.028480 
#    z -0.034360 0.028480 1.716480 
# 
# From -- ./inp_files/47564.got.cif
#   From: 2010.05.17/outbox.cif.g08.bks.cpg/sg2_24_cif.got.tgz:47564.got - 2010.06.03 11:33:40.
