data_PCOD9046285
_publ_section_title
;
Structure prediction by ZEFSAII (Michael W. Deem and Ramdas Pophale) SiO2 
 PCOD9046285
Probable space group: P -1
;
_chemical_formula_sum "Si O2"
_cell_formula_units_Z 12
_cell_length_a 5.055248
_cell_length_b 8.264042
_cell_length_c 12.644793
_cell_angle_alpha 93.287474
_cell_angle_beta 99.474932
_cell_angle_gamma 90.474598
_cell_volume 520.110389
_symmetry_space_group_name_H-M "P -1"
_symmetry_group_IT_number 2
_symmetry_cell_setting 'triclinic'
loop_
_space_group_symop_operation_xyz
x,y,z
-x,-y,-z
loop_
_atom_site_type_symbol
_atom_site_label
_atom_site_fract_x
_atom_site_fract_y
_atom_site_fract_z
Si Si1 0.221675 0.532522 0.928024
Si Si2 0.857916 0.174337 0.215833
Si Si3 0.386444 0.966926 0.256262
Si Si4 0.936506 0.330556 0.729682
Si Si5 0.106136 0.392361 0.407134
Si Si6 0.225969 0.129876 0.554326
O O1 0.196034 0.710457 0.882112
O O2 0.155138 0.410077 0.823549
O O3 0.500000 0.500000 0.000000
O O4 0.000000 0.500000 0.000000
O O5 0.631142 0.036202 0.206257
O O6 0.146160 0.091127 0.231481
O O7 0.875520 0.289210 0.325858
O O8 0.260759 0.788763 0.223615
O O9 0.513729 0.950376 0.381373
O O10 0.785199 0.479367 0.667640
O O11 0.085665 0.227464 0.645574
O O12 0.287321 0.259862 0.471080
O O13 0.000000 0.500000 0.500000
O O14 0.000000 0.000000 0.500000
#
# Coordination Sequence:
#
# PCOD9046285 Si02
#       6
#     2   2   2   2   2   2
#     4  11  26  50  77  99 131 178 232 288 349 404
#     4  11  24  45  69  99 134 180 222 284 343 406
#     4  12  23  43  68  98 145 175 222 275 340 400
#     4  10  24  42  70 102 140 176 233 285 334 405
#     4   9  20  42  60 100 134 185 227 271 329 398
#     4  11  21  41  69 102 143 188 224 270 337 409
#
# _framework density 23.072026999999999
#
# number of rings (size 3 to 8) (size 9 to 14) (size 15 to 20)
#    0.000    1.333    3.333    1.000    2.333    3.333 
#    9.000    5.000    0.000    0.000    0.000    0.000 
#    0.000    0.000    0.000    0.000    0.000    0.000 
#
# Total GULP energy -67139.119766 kJ/mol
# GULP energy per Si atom -5594.926647 kJ/mol
# Density = 2.301951 g / cm^3
# Si number density = 23.072027 Si / 1000 Ang^3
#
#
#
# Elastic Constant Matrix: (Units=GPa)
#
#
# Indices 1 2 3 4 5 6 
#
# 1 120.6271 48.6858 45.9056 -27.2565 31.7902 -5.1171
# 2 48.6858 153.8637 65.0041 -44.9391 23.1430 1.3744
# 3 45.9056 65.0041 111.6531 -38.3475 26.6059 -5.3993
# 4 -27.2565 -44.9391 -38.3475 55.0414 -11.2423 3.3425
# 5 31.7902 23.1430 26.6059 -11.2423 40.3227 -6.4660
# 6 -5.1171 1.3744 -5.3993 3.3425 -6.4660 35.2880
#
#
#
# Elastic Compliance Matrix: (Units=1/GPa)
#
#
# Indices 1 2 3 4 5 6 
#
# 1 0.011751 -0.001362 -0.001687 0.002147 -0.006762 0.000057
# 2 -0.001362 0.010021 -0.003303 0.005033 -0.001387 -0.001824
# 3 -0.001687 -0.003303 0.014699 0.005690 -0.004771 0.000720
# 4 0.002147 0.005033 0.005690 0.027202 -0.001038 -0.001781
# 5 -0.006762 -0.001387 -0.004771 -0.001038 0.034551 0.004773
# 6 0.000057 -0.001824 0.000720 -0.001781 0.004773 0.029571
#
#
# Mechanical properties :
#
#
# Convention : Reuss Voigt Hill
#
# Bulk Modulus (GPa) = 42.07452 78.37053 60.22252
# Shear Modulus (GPa) = 33.68787 41.23364 37.46076
#
# Velocity S-wave (km/s) = 3.82529 4.23208 4.03382
# Velocity P-wave (km/s) = 6.14705 7.61066 6.91767
#
# Compressibility (1/GPa) = 0.02376736
#
# Stress axis : x y z
#
# Youngs Moduli (GPa) = 85.09609 99.79364 68.03175
#
# Poissons Ratio (x) = 0.13591 0.11477
# Poissons Ratio (y) = 0.11589 0.22471
# Poissons Ratio (z) = 0.14356 0.32962
#
# Static dielectric constant tensor:
#      x y z
#    x 1.869380 -0.025320 -0.024120 
#    y -0.025320 1.902420 0.000550 
#    z -0.024120 0.000550 1.860650 
# 
# From -- ./inp_files/137373.got.cif
#   From: 2010.05.17/outbox.cif.g08.bks.cpg/sg2_69_cif.got.tgz:137373.got - 2010.06.03 11:33:40.
