data_PCOD9046247
_publ_section_title
;
Structure prediction by ZEFSAII (Michael W. Deem and Ramdas Pophale) SiO2 
 PCOD9046247
Probable space group: P -1
;
_chemical_formula_sum "Si O2"
_cell_formula_units_Z 16
_cell_length_a 18.382701
_cell_length_b 8.649851
_cell_length_c 21.179130
_cell_angle_alpha 49.042336
_cell_angle_beta 19.656326
_cell_angle_gamma 59.149788
_cell_volume 779.734923
_symmetry_space_group_name_H-M "P -1"
_symmetry_group_IT_number 2
_symmetry_cell_setting 'triclinic'
loop_
_space_group_symop_operation_xyz
x,y,z
-x,-y,-z
loop_
_atom_site_type_symbol
_atom_site_label
_atom_site_fract_x
_atom_site_fract_y
_atom_site_fract_z
Si Si1 0.679100 0.540245 0.625672
Si Si2 0.653004 0.283765 0.227283
Si Si3 0.197283 0.509610 0.687623
Si Si4 0.007141 0.740787 0.413462
Si Si5 0.737391 0.818432 0.860188
Si Si6 0.489018 0.753304 0.505952
Si Si7 0.762095 0.222772 0.540763
Si Si8 0.645385 0.768392 0.803702
O O1 0.538555 0.649166 0.669311
O O2 0.895454 0.718828 0.441326
O O3 0.757828 0.382734 0.559007
O O4 0.492841 0.388616 0.870991
O O5 0.646222 0.328302 0.295451
O O6 0.576128 0.018324 0.356044
O O7 0.914416 0.415524 0.950091
O O8 0.319458 0.633018 0.618785
O O9 0.287348 0.312856 0.658039
O O10 0.289709 0.678333 0.507889
O O11 0.851381 0.777347 0.586428
O O12 0.000000 0.500000 0.500000
O O13 0.240541 0.966618 0.173316
O O14 0.715068 0.852958 0.795088
O O15 0.971773 0.766540 0.687918
O O16 0.582461 0.963082 0.771090
O O17 0.500000 0.500000 0.000000
#
# Coordination Sequence:
#
# PCOD9046247 Si02
#       8
#     2   2   2   2   2   2   2   2
#     4  12  24  41  67  94 131 172 213 273 319 375
#     4  11  23  42  68  98 130 165 215 265 325 384
#     4  11  22  44  67  95 132 171 210 263 328 385
#     4  11  24  41  64  93 124 170 222 263 319 382
#     4  11  24  44  64  90 130 170 214 270 321 377
#     4  10  24  42  69  96 130 168 211 265 324 395
#     4  11  24  42  63  94 134 165 221 266 316 388
#     4  11  23  41  65  91 127 172 215 268 323 376
#
# _framework density 20.519793
#
# number of rings (size 3 to 8) (size 9 to 14) (size 15 to 20)
#    0.000    1.000    3.750    3.750    5.250    1.000 
#    0.000    0.000    0.000    0.000    0.000    0.000 
#    0.000    0.000    0.000    0.000    0.000    0.000 
#
# Total GULP energy -89332.516671 kJ/mol
# GULP energy per Si atom -5583.282292 kJ/mol
# Density = 2.047309 g / cm^3
# Si number density = 20.519793 Si / 1000 Ang^3
#
#
#
# Elastic Constant Matrix: (Units=GPa)
#
#
# Indices 1 2 3 4 5 6 
#
# 1 2216.6710 -250.8859 260.3646 331.4769 -222.5703 522.6278
# 2 -250.8859 175.5018 -7.2640 -51.3976 34.3172 -71.6437
# 3 260.3646 -7.2640 74.4797 34.6180 -20.0915 65.4050
# 4 331.4769 -51.3976 34.6180 85.8810 -38.0579 88.3379
# 5 -222.5703 34.3172 -20.0915 -38.0579 57.1585 -57.7768
# 6 522.6278 -71.6437 65.4050 88.3379 -57.7768 163.2967
#
#
#
# Elastic Compliance Matrix: (Units=1/GPa)
#
#
# Indices 1 2 3 4 5 6 
#
# 1 0.002550 0.000458 -0.003084 -0.002772 0.002246 -0.004430
# 2 0.000458 0.007790 -0.003864 0.001782 -0.000782 0.002259
# 3 -0.003084 -0.003864 0.025973 0.002486 -0.003916 -0.004959
# 4 -0.002772 0.001782 0.002486 0.030838 0.002229 -0.007236
# 5 0.002246 -0.000782 -0.003916 0.002229 0.030468 0.003613
# 6 -0.004430 0.002259 -0.004959 -0.007236 0.003613 0.028471
#
#
# Mechanical properties :
#
#
# Convention : Reuss Voigt Hill
#
# Bulk Modulus (GPa) = 42.85979 274.56466 158.71223
# Shear Modulus (GPa) = 34.04920 225.56311 129.80615
#
# Velocity S-wave (km/s) = 4.07791 10.49587 7.96218
# Velocity P-wave (km/s) = 6.56543 16.76245 12.72958
#
# Compressibility (1/GPa) = 0.02333189
#
# Stress axis : x y z
#
# Youngs Moduli (GPa) = 392.22716 128.37761 38.50194
#
# Poissons Ratio (x) = -0.05878 0.11874
# Poissons Ratio (y) = -0.17958 0.14877
# Poissons Ratio (z) = 1.20959 0.49604
#
# Static dielectric constant tensor:
#      x y z
#    x 1.703030 -0.009320 -0.014030 
#    y -0.009320 1.761250 -0.026090 
#    z -0.014030 -0.026090 1.777810 
# 
# From -- ./inp_files/529874.got.cif
#   From: 2010.05.17/outbox.cif.g08.bks.cpg/sg2_265_cif.got.tgz:529874.got - 2010.06.03 11:33:40.
