data_PCOD9046121
_publ_section_title
;
Structure prediction by ZEFSAII (Michael W. Deem and Ramdas Pophale) SiO2 
 PCOD9046121
Probable space group: P -1
;
_chemical_formula_sum "Si O2"
_cell_formula_units_Z 14
_cell_length_a 12.576706
_cell_length_b 5.153817
_cell_length_c 9.676650
_cell_angle_alpha 70.721109
_cell_angle_beta 79.537545
_cell_angle_gamma 94.684310
_cell_volume 575.389080
_symmetry_space_group_name_H-M "P -1"
_symmetry_group_IT_number 2
_symmetry_cell_setting 'triclinic'
loop_
_space_group_symop_operation_xyz
x,y,z
-x,-y,-z
loop_
_atom_site_type_symbol
_atom_site_label
_atom_site_fract_x
_atom_site_fract_y
_atom_site_fract_z
Si Si1 0.423453 0.541908 0.139625
Si Si2 0.818489 0.624216 0.844952
Si Si3 0.792286 0.574965 0.174029
Si Si4 0.322247 0.071901 0.674629
Si Si5 0.563613 0.076621 0.672825
Si Si6 0.216894 0.981333 0.454969
Si Si7 0.027736 0.538152 0.648314
O O1 0.300911 0.554896 0.113647
O O2 0.450066 0.794843 0.194933
O O3 0.428105 0.250051 0.266516
O O4 0.500000 0.500000 0.000000
O O5 0.917093 0.509684 0.766250
O O6 0.807371 0.896489 0.708650
O O7 0.836840 0.660711 0.996543
O O8 0.732504 0.253026 0.240493
O O9 0.890071 0.621906 0.255388
O O10 0.705607 0.763975 0.213024
O O11 0.266860 0.179639 0.532381
O O12 0.452150 0.111860 0.617146
O O13 0.683316 0.196747 0.562136
O O14 0.102946 0.838796 0.570303
O O15 0.000000 0.500000 0.500000
#
# Coordination Sequence:
#
# PCOD9046121 Si02
#       7
#     2   2   2   2   2   2   2
#     4  11  23  39  63  98 134 171 214 268 331 391
#     4  11  23  43  67  98 133 175 220 274 330 391
#     4  11  26  44  69 100 132 173 222 272 330 393
#     4  11  23  45  68  98 136 175 218 273 329 391
#     4  11  22  39  65  96 130 174 220 267 322 389
#     4  10  24  42  67  99 133 176 223 271 328 392
#     4  11  23  44  68  97 133 176 222 275 328 391
#
# _framework density 24.331361000000001
#
# number of rings (size 3 to 8) (size 9 to 14) (size 15 to 20)
#    0.000    1.143    0.000    6.000    0.000    9.143 
#    0.000   11.429    0.000    0.000    0.000    0.000 
#    0.000    0.000    0.000    0.000    0.000    0.000 
#
# Total GULP energy -78214.054779 kJ/mol
# GULP energy per Si atom -5586.718198 kJ/mol
# Density = 2.427598 g / cm^3
# Si number density = 24.331361 Si / 1000 Ang^3
#
#
#
# Elastic Constant Matrix: (Units=GPa)
#
#
# Indices 1 2 3 4 5 6 
#
# 1 159.8966 9.4319 33.7692 18.7925 -10.4295 -7.7067
# 2 9.4319 69.2291 15.2319 12.9567 -1.7805 -10.5114
# 3 33.7692 15.2319 161.9421 29.9713 -7.8345 -15.1034
# 4 18.7925 12.9567 29.9713 31.9987 -2.0299 -3.5675
# 5 -10.4295 -1.7805 -7.8345 -2.0299 56.2945 9.7239
# 6 -7.7067 -10.5114 -15.1034 -3.5675 9.7239 21.0482
#
#
#
# Elastic Compliance Matrix: (Units=1/GPa)
#
#
# Indices 1 2 3 4 5 6 
#
# 1 0.006888 0.000003 -0.000699 -0.003217 0.000878 0.001071
# 2 0.000003 0.016731 0.000268 -0.006203 -0.001034 0.007975
# 3 -0.000699 0.000268 0.007939 -0.006638 -0.000026 0.004461
# 4 -0.003217 -0.006203 -0.006638 0.041651 0.000139 -0.002044
# 5 0.000878 -0.001034 -0.000026 0.000139 0.019483 -0.009191
# 6 0.001071 0.007975 0.004461 -0.002044 -0.009191 0.058986
#
#
# Mechanical properties :
#
#
# Convention : Reuss Voigt Hill
#
# Bulk Modulus (GPa) = 32.57275 56.43709 44.50492
# Shear Modulus (GPa) = 30.71850 44.04393 37.38121
#
# Velocity S-wave (km/s) = 3.55703 4.25923 3.92387
# Velocity P-wave (km/s) = 5.50329 6.88720 6.23377
#
# Compressibility (1/GPa) = 0.03070051
#
# Stress axis : x y z
#
# Youngs Moduli (GPa) = 145.17025 59.77012 125.96055
#
# Poissons Ratio (x) = -0.00015 0.08804
# Poissons Ratio (y) = -0.00037 -0.03370
# Poissons Ratio (z) = 0.10147 -0.01599
#
# Static dielectric constant tensor:
#      x y z
#    x 1.982030 0.024770 -0.016840 
#    y 0.024770 1.994150 -0.058370 
#    z -0.016840 -0.058370 1.994420 
# 
# From -- ./inp_files/27499.got.cif
#   From: 2010.05.17/outbox.cif.g08.bks.cpg/sg2_14_cif.got.tgz:27499.got - 2010.06.03 11:33:40.
