data_PCOD9046169
_publ_section_title
;
Structure prediction by ZEFSAII (Michael W. Deem and Ramdas Pophale) SiO2 
 PCOD9046169
Probable space group: P -1
;
_chemical_formula_sum "Si O2"
_cell_formula_units_Z 16
_cell_length_a 8.684298
_cell_length_b 11.463231
_cell_length_c 8.951932
_cell_angle_alpha 86.440766
_cell_angle_beta 63.505830
_cell_angle_gamma 62.216379
_cell_volume 693.549669
_symmetry_space_group_name_H-M "P -1"
_symmetry_group_IT_number 2
_symmetry_cell_setting 'triclinic'
loop_
_space_group_symop_operation_xyz
x,y,z
-x,-y,-z
loop_
_atom_site_type_symbol
_atom_site_label
_atom_site_fract_x
_atom_site_fract_y
_atom_site_fract_z
Si Si1 0.705015 0.918446 0.512236
Si Si2 0.868498 0.179980 0.791757
Si Si3 0.811133 0.711714 0.939788
Si Si4 0.797964 0.374044 0.081156
Si Si5 0.496761 0.685084 0.250037
Si Si6 0.703608 0.984282 0.847793
Si Si7 0.201462 0.372007 0.375408
Si Si8 0.464157 0.635172 0.584879
O O1 0.698994 0.987361 0.669072
O O2 0.753894 0.768353 0.555186
O O3 0.899167 0.895727 0.339291
O O4 0.500000 0.000000 0.500000
O O5 0.728612 0.259083 0.705598
O O6 0.786211 0.077503 0.871272
O O7 0.817021 0.291538 0.931489
O O8 0.839138 0.832861 0.856636
O O9 0.804076 0.637969 0.799188
O O10 0.996160 0.631820 0.973151
O O11 0.610007 0.751725 0.111758
O O12 0.628344 0.529687 0.152805
O O13 0.740391 0.305118 0.246153
O O14 0.495272 0.709061 0.425421
O O15 0.500000 0.000000 0.000000
O O16 0.377374 0.393697 0.354712
O O17 0.000000 0.500000 0.500000
O O18 0.500000 0.500000 0.500000
#
# Coordination Sequence:
#
# PCOD9046169 Si02
#       8
#     2   2   2   2   2   2   2   2
#     4  11  30  49  73 109 145 197 252 306 368 443
#     4  12  27  46  78 102 146 196 248 304 360 449
#     4  11  25  46  72 105 149 189 238 303 369 439
#     4  11  26  43  72 114 147 186 242 303 370 432
#     4  11  24  44  73 107 151 188 241 299 365 441
#     4  11  26  51  73 100 146 193 247 301 370 431
#     4  11  25  44  77 105 149 193 242 306 379 433
#     4  10  24  42  68 108 152 186 237 304 366 436
#
# _framework density 23.069727
#
# number of rings (size 3 to 8) (size 9 to 14) (size 15 to 20)
#    0.000    1.000    1.250    3.375   15.750    1.500 
#    0.000    0.000    0.000    0.000    0.000    0.000 
#    0.000    0.000    0.000    0.000    0.000    0.000 
#
# Total GULP energy -89404.535198 kJ/mol
# GULP energy per Si atom -5587.783450 kJ/mol
# Density = 2.301722 g / cm^3
# Si number density = 23.069727 Si / 1000 Ang^3
#
#
#
# Elastic Constant Matrix: (Units=GPa)
#
#
# Indices 1 2 3 4 5 6 
#
# 1 150.1618 39.9691 16.3295 14.2090 -10.4598 -5.7870
# 2 39.9691 82.1101 14.0478 5.3804 3.0670 0.1393
# 3 16.3295 14.0478 72.9550 4.0028 -12.1459 -5.2364
# 4 14.2090 5.3804 4.0028 30.4330 -2.8551 -8.3237
# 5 -10.4598 3.0670 -12.1459 -2.8551 39.9549 10.8268
# 6 -5.7870 0.1393 -5.2364 -8.3237 10.8268 41.0068
#
#
#
# Elastic Compliance Matrix: (Units=1/GPa)
#
#
# Indices 1 2 3 4 5 6 
#
# 1 0.008134 -0.003744 -0.000606 -0.002876 0.002038 -0.000038
# 2 -0.003744 0.014576 -0.002412 -0.000863 -0.002807 -0.000320
# 3 -0.000606 -0.002412 0.015122 -0.000717 0.004426 0.000540
# 4 -0.002876 -0.000863 -0.000717 0.036326 -0.000186 0.006928
# 5 0.002038 -0.002807 0.004426 -0.000186 0.028958 -0.006821
# 6 -0.000038 -0.000320 0.000540 0.006928 -0.006821 0.027658
#
#
# Mechanical properties :
#
#
# Convention : Reuss Voigt Hill
#
# Bulk Modulus (GPa) = 41.13491 49.54665 45.34078
# Shear Modulus (GPa) = 32.80871 37.93763 35.37317
#
# Velocity S-wave (km/s) = 3.77524 4.05961 3.92001
# Velocity P-wave (km/s) = 6.07228 6.59526 6.33917
#
# Compressibility (1/GPa) = 0.02431025
#
# Stress axis : x y z
#
# Youngs Moduli (GPa) = 122.93536 68.60795 66.12914
#
# Poissons Ratio (x) = 0.25684 0.04005
# Poissons Ratio (y) = 0.46022 0.15948
# Poissons Ratio (z) = 0.07445 0.16546
#
# Static dielectric constant tensor:
#      x y z
#    x 1.763390 -0.005580 0.000740 
#    y -0.005580 2.030870 -0.067710 
#    z 0.000740 -0.067710 1.838110 
# 
# From -- ./inp_files/186518.got.cif
#   From: 2010.05.17/outbox.cif.g08.bks.cpg/sg2_94_cif.got.tgz:186518.got - 2010.06.03 11:33:40.
