data_PCOD9046688
_publ_section_title
;
Structure prediction by ZEFSAII (Michael W. Deem and Ramdas Pophale) SiO2 
 PCOD9046688
Probable space group: P -1
;
_chemical_formula_sum "Si O2"
_cell_formula_units_Z 14
_cell_length_a 5.171859
_cell_length_b 8.896706
_cell_length_c 20.718919
_cell_angle_alpha 133.289938
_cell_angle_beta 113.182641
_cell_angle_gamma 87.502803
_cell_volume 600.280676
_symmetry_space_group_name_H-M "P -1"
_symmetry_group_IT_number 2
_symmetry_cell_setting 'triclinic'
loop_
_space_group_symop_operation_xyz
x,y,z
-x,-y,-z
loop_
_atom_site_type_symbol
_atom_site_label
_atom_site_fract_x
_atom_site_fract_y
_atom_site_fract_z
Si Si1 0.765426 0.998867 0.676085
Si Si2 0.932179 0.270151 0.462781
Si Si3 0.342402 0.547599 0.063826
Si Si4 0.584843 0.203249 0.021341
Si Si5 0.688182 0.996348 0.199529
Si Si6 0.777444 0.477438 0.312326
Si Si7 0.148271 0.521364 0.229483
O O1 0.420303 0.860030 0.610492
O O2 0.899373 0.871899 0.599264
O O3 0.811761 0.240673 0.725689
O O4 0.974823 0.006231 0.761300
O O5 0.000000 0.500000 0.500000
O O6 0.052860 0.330342 0.564842
O O7 0.410923 0.375481 0.067095
O O8 0.504282 0.801841 0.173129
O O9 0.500000 0.500000 0.000000
O O10 0.000000 0.500000 0.000000
O O11 0.928420 0.344039 0.107801
O O12 0.483339 0.094271 0.910115
O O13 0.500000 0.000000 0.000000
O O14 0.710617 0.247614 0.276754
O O15 0.466326 0.496141 0.264553
O O16 0.979210 0.484846 0.271433
#
# Coordination Sequence:
#
# PCOD9046688 Si02
#       7
#     2   2   2   2   2   2   2
#     4  12  27  49  78 106 149 190 246 305 368 433
#     4  12  27  48  79 112 141 189 249 309 365 432
#     4  10  24  43  67 100 139 186 238 287 347 421
#     4  11  24  46  72 107 149 192 239 294 359 436
#     4  11  25  46  73 109 145 195 240 301 360 437
#     4  12  28  47  76 106 147 189 249 301 367 429
#     4  12  28  49  72 112 147 195 240 298 370 435
#
# _framework density 23.322423000000001
#
# number of rings (size 3 to 8) (size 9 to 14) (size 15 to 20)
#    0.000    0.571    4.286    2.143    4.000    8.571 
#    0.000    0.000    0.000    0.000    0.000    0.000 
#    0.000    0.000    0.000    0.000    0.000    0.000 
#
# Total GULP energy -78415.311415 kJ/mol
# GULP energy per Si atom -5601.093672 kJ/mol
# Density = 2.326934 g / cm^3
# Si number density = 23.322423 Si / 1000 Ang^3
#
#
#
# Elastic Constant Matrix: (Units=GPa)
#
#
# Indices 1 2 3 4 5 6 
#
# 1 140.1309 33.4747 54.7271 -1.8336 28.7238 -1.0157
# 2 33.4747 170.1719 46.4334 25.9566 18.3472 -19.3056
# 3 54.7271 46.4334 185.6937 -1.5596 27.8238 5.3579
# 4 -1.8336 25.9566 -1.5596 52.1074 3.2181 4.1308
# 5 28.7238 18.3472 27.8238 3.2181 45.9514 -11.0458
# 6 -1.0157 -19.3056 5.3579 4.1308 -11.0458 30.9910
#
#
#
# Elastic Compliance Matrix: (Units=1/GPa)
#
#
# Indices 1 2 3 4 5 6 
#
# 1 0.009037 -0.001290 -0.001547 0.001381 -0.004807 -0.002138
# 2 -0.001290 0.007982 -0.001913 -0.004595 0.000560 0.006072
# 3 -0.001547 -0.001913 0.006980 0.001639 -0.003556 -0.003935
# 4 0.001381 -0.004595 0.001639 0.022360 -0.003334 -0.007269
# 5 -0.004807 0.000560 -0.003556 -0.003334 0.029783 0.011865
# 6 -0.002138 0.006072 -0.003935 -0.007269 0.011865 0.041858
#
#
# Mechanical properties :
#
#
# Convention : Reuss Voigt Hill
#
# Bulk Modulus (GPa) = 68.98043 85.02964 77.00504
# Shear Modulus (GPa) = 37.78381 49.90074 43.84227
#
# Velocity S-wave (km/s) = 4.02937 4.63060 4.34041
# Velocity P-wave (km/s) = 7.16162 8.07016 7.62943
#
# Compressibility (1/GPa) = 0.01449687
#
# Stress axis : x y z
#
# Youngs Moduli (GPa) = 110.66172 125.28715 143.27306
#
# Poissons Ratio (x) = 0.16166 0.22164
# Poissons Ratio (y) = 0.14279 0.27411
# Poissons Ratio (z) = 0.17119 0.23970
#
# Static dielectric constant tensor:
#      x y z
#    x 1.890810 -0.012000 -0.067260 
#    y -0.012000 1.746410 0.001990 
#    z -0.067260 0.001990 1.892610 
# 
# From -- ./inp_files/603878.got.cif
#   From: 2010.05.17/outbox.cif.g08.bks.cpg/sg2_302_cif.got.tgz:603878.got - 2010.06.03 11:33:40.
