data_PCOD9046794
_publ_section_title
;
Structure prediction by ZEFSAII (Michael W. Deem and Ramdas Pophale) SiO2 
 PCOD9046794
Probable space group: P -1
;
_chemical_formula_sum "Si O2"
_cell_formula_units_Z 15
_cell_length_a 8.012435
_cell_length_b 7.667040
_cell_length_c 21.333027
_cell_angle_alpha 133.643679
_cell_angle_beta 138.683367
_cell_angle_gamma 41.950981
_cell_volume 552.098832
_symmetry_space_group_name_H-M "P -1"
_symmetry_group_IT_number 2
_symmetry_cell_setting 'triclinic'
loop_
_space_group_symop_operation_xyz
x,y,z
-x,-y,-z
loop_
_atom_site_type_symbol
_atom_site_label
_atom_site_fract_x
_atom_site_fract_y
_atom_site_fract_z
Si Si1 0.261484 0.208176 0.314737
Si Si2 0.334830 0.733331 0.843208
Si Si3 0.486437 0.951025 0.188686
Si Si4 0.499834 0.511808 0.712854
Si Si5 0.500000 0.500000 0.000000
Si Si6 0.697267 0.875667 0.463591
Si Si7 0.207518 0.359300 0.964697
Si Si8 0.917040 0.249153 0.655204
O O1 0.275896 0.487463 0.376258
O O2 0.951652 0.259356 0.260671
O O3 0.275611 0.075451 0.217865
O O4 0.505723 0.018813 0.384028
O O5 0.560877 0.508968 0.803137
O O6 0.479650 0.644452 0.931210
O O7 0.277294 0.046442 0.900355
O O8 0.398749 0.808336 0.075700
O O9 0.785883 0.744711 0.254649
O O10 0.563408 0.184687 0.245832
O O11 0.252377 0.431893 0.604942
O O12 0.768136 0.309277 0.696210
O O13 0.170215 0.518568 0.929780
O O14 0.500000 0.000000 0.500000
O O15 0.933510 0.976987 0.562179
O O16 0.000000 0.500000 0.000000
#
# Coordination Sequence:
#
# PCOD9046794 Si02
#       8
#     2   2   2   2   1   2   2   2
#     4  11  25  46  71 102 146 182 241 299 362 432
#     4  11  25  45  66 106 140 189 235 299 360 429
#     4  11  25  46  70 103 143 192 237 300 358 435
#     4  10  24  43  68 101 140 184 235 294 357 428
#     4  12  24  44  72 106 138 190 238 296 358 426
#     4  10  24  44  72 102 139 188 240 297 362 430
#     4  11  26  45  72 103 145 191 248 296 363 431
#     4  10  24  47  69 102 138 189 243 293 361 425
#
# _framework density 27.169048
#
# number of rings (size 3 to 8) (size 9 to 14) (size 15 to 20)
#    0.000    1.333    1.333    2.000   11.200    1.067 
#    4.800    3.333    0.000    0.000    0.000    0.000 
#    0.000    0.000    0.000    0.000    0.000    0.000 
#
# Total GULP energy -83680.583728 kJ/mol
# GULP energy per Si atom -5578.705582 kJ/mol
# Density = 2.710721 g / cm^3
# Si number density = 27.169048 Si / 1000 Ang^3
#
#
#
# Elastic Constant Matrix: (Units=GPa)
#
#
# Indices 1 2 3 4 5 6 
#
# 1 69.4656 4.4280 30.5374 24.8601 -4.3883 -7.8934
# 2 4.4280 62.7853 34.6598 31.9146 -0.2531 13.2941
# 3 30.5374 34.6598 180.2738 39.5344 -2.6804 1.9208
# 4 24.8601 31.9146 39.5344 58.3517 0.2461 2.4556
# 5 -4.3883 -0.2531 -2.6804 0.2461 38.3592 5.3882
# 6 -7.8934 13.2941 1.9208 2.4556 5.3882 33.6137
#
#
#
# Elastic Compliance Matrix: (Units=1/GPa)
#
#
# Indices 1 2 3 4 5 6 
#
# 1 0.018618 0.003408 -0.001927 -0.008645 0.001580 0.003513
# 2 0.003408 0.025710 -0.002443 -0.013507 0.001671 -0.008509
# 3 -0.001927 -0.002443 0.006898 -0.002529 0.000224 0.000268
# 4 -0.008645 -0.013507 -0.002529 0.029864 -0.001663 0.001542
# 5 0.001580 0.001671 0.000224 -0.001663 0.026919 -0.004496
# 6 0.003513 -0.008509 0.000268 0.001542 -0.004496 0.034533
#
#
# Mechanical properties :
#
#
# Convention : Reuss Voigt Hill
#
# Bulk Modulus (GPa) = 20.28310 50.19721 35.24016
# Shear Modulus (GPa) = 31.07516 42.25823 36.66669
#
# Velocity S-wave (km/s) = 3.38564 3.94811 3.67764
# Velocity P-wave (km/s) = 4.77128 6.26893 5.57066
#
# Compressibility (1/GPa) = 0.04930213
#
# Stress axis : x y z
#
# Youngs Moduli (GPa) = 53.71067 38.89561 144.96428
#
# Poissons Ratio (x) = -0.13254 0.27936
# Poissons Ratio (y) = -0.18302 0.35408
# Poissons Ratio (z) = 0.10351 0.09500
#
# Static dielectric constant tensor:
#      x y z
#    x 1.809570 -0.209400 0.271600 
#    y -0.209400 2.054990 0.045930 
#    z 0.271600 0.045930 1.965780 
# 
# From -- ./inp_files/91050.got.cif
#   From: 2010.05.17/outbox.cif.g08.bks.cpg/sg2_46_cif.got.tgz:91050.got - 2010.06.03 11:33:40.
