data_PCOD9046890
_publ_section_title
;
Structure prediction by ZEFSAII (Michael W. Deem and Ramdas Pophale) SiO2 
 PCOD9046890
Probable space group: P -1
;
_chemical_formula_sum "Si O2"
_cell_formula_units_Z 16
_cell_length_a 5.172083
_cell_length_b 12.001147
_cell_length_c 13.466168
_cell_angle_alpha 111.003653
_cell_angle_beta 113.643058
_cell_angle_gamma 99.063482
_cell_volume 668.997359
_symmetry_space_group_name_H-M "P -1"
_symmetry_group_IT_number 2
_symmetry_cell_setting 'triclinic'
loop_
_space_group_symop_operation_xyz
x,y,z
-x,-y,-z
loop_
_atom_site_type_symbol
_atom_site_label
_atom_site_fract_x
_atom_site_fract_y
_atom_site_fract_z
Si Si1 0.512497 0.699311 0.535143
Si Si2 0.795906 0.231857 0.671484
Si Si3 0.787007 0.919524 0.356295
Si Si4 0.316121 0.014329 0.849618
Si Si5 0.936919 0.568775 0.608688
Si Si6 0.849410 0.582976 0.063866
Si Si7 0.995999 0.829499 0.026264
Si Si8 0.520922 0.230684 0.218420
O O1 0.408471 0.774291 0.458892
O O2 0.833375 0.683656 0.592292
O O3 0.323742 0.551405 0.424931
O O4 0.470972 0.750881 0.654661
O O5 0.559196 0.135729 0.679998
O O6 0.081134 0.191919 0.678619
O O7 0.949468 0.367638 0.790685
O O8 0.821915 0.996890 0.285155
O O9 0.000000 0.000000 0.500000
O O10 0.102478 0.058041 0.903644
O O11 0.649310 0.122923 0.926579
O O12 0.382821 0.886233 0.839532
O O13 0.000000 0.500000 0.500000
O O14 0.234365 0.636024 0.738577
O O15 0.891747 0.712016 0.049432
O O16 0.500000 0.500000 0.000000
O O17 0.000000 0.500000 0.000000
O O18 0.800815 0.787945 0.883269
#
# Coordination Sequence:
#
# PCOD9046890 Si02
#       8
#     2   2   2   2   2   2   2   2
#     4  10  24  43  69 101 144 177 238 292 353 411
#     4  12  26  46  72 106 145 180 237 297 349 424
#     4  12  25  45  72 106 142 189 230 288 357 422
#     4  12  25  48  70 104 146 182 235 292 346 419
#     4   9  22  43  63 100 137 182 230 294 340 415
#     4  12  26  47  74 103 138 191 236 288 361 419
#     4  12  27  48  71 105 144 182 237 294 341 423
#     4  11  26  42  74 100 138 191 236 278 362 412
#
# _framework density 23.916387
#
# number of rings (size 3 to 8) (size 9 to 14) (size 15 to 20)
#    0.000    0.750    2.500    3.375   10.500    3.000 
#    0.000    0.000    0.000    0.000    0.000    0.000 
#    0.000    0.000    0.000    0.000    0.000    0.000 
#
# Total GULP energy -89477.330977 kJ/mol
# GULP energy per Si atom -5592.333186 kJ/mol
# Density = 2.386195 g / cm^3
# Si number density = 23.916387 Si / 1000 Ang^3
#
#
#
# Elastic Constant Matrix: (Units=GPa)
#
#
# Indices 1 2 3 4 5 6 
#
# 1 92.7388 1.0521 19.5092 9.3880 1.6280 -7.3643
# 2 1.0521 58.5439 7.2434 -2.6119 -8.3832 -6.5586
# 3 19.5092 7.2434 125.4200 -6.2133 2.1372 8.7578
# 4 9.3880 -2.6119 -6.2133 41.8622 4.5057 1.2417
# 5 1.6280 -8.3832 2.1372 4.5057 34.7032 11.6083
# 6 -7.3643 -6.5586 8.7578 1.2417 11.6083 35.3527
#
#
#
# Elastic Compliance Matrix: (Units=1/GPa)
#
#
# Indices 1 2 3 4 5 6 
#
# 1 0.011851 0.000158 -0.002226 -0.002956 -0.001181 0.003541
# 2 0.000158 0.018045 -0.001281 0.000446 0.003528 0.002524
# 3 -0.002226 -0.001281 0.008686 0.001795 0.000003 -0.002917
# 4 -0.002956 0.000446 0.001795 0.025176 -0.002820 -0.000936
# 5 -0.001181 0.003528 0.000003 -0.002820 0.033612 -0.010530
# 6 0.003541 0.002524 -0.002917 -0.000936 -0.010530 0.033705
#
#
# Mechanical properties :
#
#
# Convention : Reuss Voigt Hill
#
# Bulk Modulus (GPa) = 31.36423 36.92355 34.14389
# Shear Modulus (GPa) = 33.69261 38.97681 36.33471
#
# Velocity S-wave (km/s) = 3.75743 4.04135 3.90197
# Velocity P-wave (km/s) = 5.65393 6.10318 5.88284
#
# Compressibility (1/GPa) = 0.03188346
#
# Stress axis : x y z
#
# Youngs Moduli (GPa) = 84.38346 55.41785 115.12756
#
# Poissons Ratio (x) = -0.00876 0.25629
# Poissons Ratio (y) = -0.01334 0.14748
# Poissons Ratio (z) = 0.18785 0.07099
#
# Static dielectric constant tensor:
#      x y z
#    x 1.995790 0.033610 -0.004190 
#    y 0.033610 1.979810 0.024380 
#    z -0.004190 0.024380 1.993520 
# 
# From -- ./inp_files/482979.got.cif
#   From: 2010.05.17/outbox.cif.g08.bks.cpg/sg2_242_cif.got.tgz:482979.got - 2010.06.03 11:33:40.
