data_PCOD9046490
_publ_section_title
;
Structure prediction by ZEFSAII (Michael W. Deem and Ramdas Pophale) SiO2 
 PCOD9046490
Probable space group: P -1
;
_chemical_formula_sum "Si O2"
_cell_formula_units_Z 16
_cell_length_a 8.660522
_cell_length_b 13.982922
_cell_length_c 8.635350
_cell_angle_alpha 74.651491
_cell_angle_beta 59.702381
_cell_angle_gamma 111.225032
_cell_volume 699.685141
_symmetry_space_group_name_H-M "P -1"
_symmetry_group_IT_number 2
_symmetry_cell_setting 'triclinic'
loop_
_space_group_symop_operation_xyz
x,y,z
-x,-y,-z
loop_
_atom_site_type_symbol
_atom_site_label
_atom_site_fract_x
_atom_site_fract_y
_atom_site_fract_z
Si Si1 0.450194 0.462175 0.860924
Si Si2 0.673209 0.729984 0.564050
Si Si3 0.814190 0.816978 0.806070
Si Si4 0.163089 0.512288 0.543813
Si Si5 0.508513 0.120837 0.926139
Si Si6 0.381823 0.765322 0.500290
Si Si7 0.945882 0.251095 0.834562
Si Si8 0.236615 0.892245 0.695344
O O1 0.471696 0.581925 0.735457
O O2 0.645799 0.475531 0.659424
O O3 0.500000 0.500000 0.000000
O O4 0.267850 0.313550 0.014072
O O5 0.774149 0.783889 0.659040
O O6 0.561391 0.789124 0.522846
O O7 0.870129 0.753627 0.345227
O O8 0.068330 0.913541 0.690670
O O9 0.667386 0.863948 0.909252
O O10 0.258094 0.632062 0.544868
O O11 0.000000 0.500000 0.500000
O O12 0.061968 0.393552 0.755577
O O13 0.497385 0.141277 0.742677
O O14 0.752006 0.222279 0.828653
O O15 0.500000 0.000000 0.000000
O O16 0.209980 0.782683 0.657262
O O17 0.838185 0.156804 0.071539
O O18 0.500000 0.000000 0.500000
#
# Coordination Sequence:
#
# PCOD9046490 Si02
#       8
#     2   2   2   2   2   2   2   2
#     4   9  20  38  70 107 149 187 235 285 374 441
#     4  10  24  42  74 112 148 189 236 297 375 446
#     4  11  23  48  74 104 148 192 243 306 363 431
#     4  11  22  40  71 107 152 187 235 302 370 438
#     4  12  25  46  75 105 141 198 246 300 364 431
#     4  12  25  44  70 108 153 187 250 299 361 435
#     4  11  24  45  70 107 147 191 243 299 370 432
#     4  12  29  49  72 103 147 199 258 301 355 433
#
# _framework density 22.867426999999999
#
# number of rings (size 3 to 8) (size 9 to 14) (size 15 to 20)
#    0.000    1.000    2.500    3.000    5.250    3.500 
#    0.000    6.250    0.000    0.000    0.000    0.000 
#    0.000    0.000    0.000    0.000    0.000    0.000 
#
# Total GULP energy -89417.949275 kJ/mol
# GULP energy per Si atom -5588.621830 kJ/mol
# Density = 2.281538 g / cm^3
# Si number density = 22.867427 Si / 1000 Ang^3
#
#
#
# Elastic Constant Matrix: (Units=GPa)
#
#
# Indices 1 2 3 4 5 6 
#
# 1 89.9101 15.4133 23.7823 -17.1538 3.4272 -9.7834
# 2 15.4133 104.5074 44.2000 -10.4697 -0.7084 -17.2463
# 3 23.7823 44.2000 101.8726 -9.4449 13.7140 -11.6417
# 4 -17.1538 -10.4697 -9.4449 33.2507 -0.0209 -7.5624
# 5 3.4272 -0.7084 13.7140 -0.0209 37.0791 4.9985
# 6 -9.7834 -17.2463 -11.6417 -7.5624 4.9985 32.7504
#
#
#
# Elastic Compliance Matrix: (Units=1/GPa)
#
#
# Indices 1 2 3 4 5 6 
#
# 1 0.013735 0.000500 -0.001836 0.008034 -0.001355 0.005776
# 2 0.000500 0.012979 -0.004800 0.004372 0.001156 0.006111
# 3 -0.001836 -0.004800 0.013593 0.002094 -0.005360 0.003057
# 4 0.008034 0.004372 0.002094 0.039628 -0.003450 0.015124
# 5 -0.001355 0.001156 -0.005360 -0.003450 0.030052 -0.007085
# 6 0.005776 0.006111 0.003057 0.015124 -0.007085 0.041138
#
#
# Mechanical properties :
#
#
# Convention : Reuss Voigt Hill
#
# Bulk Modulus (GPa) = 35.67049 51.45350 43.56199
# Shear Modulus (GPa) = 28.94472 34.80901 31.87686
#
# Velocity S-wave (km/s) = 3.56161 3.90578 3.73766
# Velocity P-wave (km/s) = 5.70492 6.54903 6.14150
#
# Compressibility (1/GPa) = 0.02803438
#
# Stress axis : x y z
#
# Youngs Moduli (GPa) = 72.80573 77.04533 73.56970
#
# Poissons Ratio (x) = -0.03849 0.13507
# Poissons Ratio (y) = -0.03637 0.35313
# Poissons Ratio (z) = 0.13367 0.36982
#
# Static dielectric constant tensor:
#      x y z
#    x 1.820100 0.007610 0.017960 
#    y 0.007610 1.979560 -0.101360 
#    z 0.017960 -0.101360 1.847080 
# 
# From -- ./inp_files/206723.got.cif
#   From: 2010.05.17/outbox.cif.g08.bks.cpg/sg2_104_cif.got.tgz:206723.got - 2010.06.03 11:33:40.
