data_PCOD9046093
_publ_section_title
;
Structure prediction by ZEFSAII (Michael W. Deem and Ramdas Pophale) SiO2 
 PCOD9046093
Probable space group: P -1
;
_chemical_formula_sum "Si O2"
_cell_formula_units_Z 16
_cell_length_a 8.222946
_cell_length_b 10.629755
_cell_length_c 9.352721
_cell_angle_alpha 62.108399
_cell_angle_beta 107.915510
_cell_angle_gamma 116.645856
_cell_volume 640.829452
_symmetry_space_group_name_H-M "P -1"
_symmetry_group_IT_number 2
_symmetry_cell_setting 'triclinic'
loop_
_space_group_symop_operation_xyz
x,y,z
-x,-y,-z
loop_
_atom_site_type_symbol
_atom_site_label
_atom_site_fract_x
_atom_site_fract_y
_atom_site_fract_z
Si Si1 0.296724 0.935557 0.413095
Si Si2 0.412745 0.673847 0.467929
Si Si3 0.839993 0.193223 0.980068
Si Si4 0.510297 0.747529 0.161842
Si Si5 0.341355 0.398170 0.209047
Si Si6 0.059024 0.511658 0.346143
Si Si7 0.943669 0.219125 0.319236
Si Si8 0.792540 0.834871 0.946233
O O1 0.302825 0.786274 0.411716
O O2 0.148597 0.905531 0.517772
O O3 0.500000 0.000000 0.500000
O O4 0.259723 0.048266 0.230546
O O5 0.559130 0.739276 0.346076
O O6 0.492303 0.635032 0.653933
O O7 0.269229 0.528028 0.425430
O O8 0.850579 0.187999 0.157317
O O9 0.988909 0.121357 0.011568
O O10 0.625807 0.158281 0.916974
O O11 0.924978 0.352118 0.829831
O O12 0.392638 0.580201 0.147472
O O13 0.687754 0.817688 0.076045
O O14 0.159544 0.287728 0.303218
O O15 0.295304 0.329779 0.073560
O O16 0.922200 0.366193 0.307287
O O17 0.000000 0.500000 0.500000
#
# Coordination Sequence:
#
# PCOD9046093 Si02
#       8
#     2   2   2   2   2   2   2   2
#     4  12  25  48  69  99 141 191 239 274 340 429
#     4  11  24  43  71 102 138 178 234 285 359 409
#     4  10  24  42  67 107 135 179 231 283 353 406
#     4  11  24  44  70 103 144 172 230 304 347 407
#     4  11  23  42  70 107 132 180 232 290 357 410
#     4  11  22  39  70 103 137 177 221 295 358 394
#     4  11  23  41  72  97 141 173 230 291 335 410
#     4  11  26  43  69 102 138 190 236 278 344 419
#
# _framework density 24.967639999999999
#
# number of rings (size 3 to 8) (size 9 to 14) (size 15 to 20)
#    0.000    1.000    5.000    1.875    3.500    2.500 
#    2.250    2.500    0.000    0.000    0.000    0.000 
#    0.000    0.000    0.000    0.000    0.000    0.000 
#
# Total GULP energy -89297.541159 kJ/mol
# GULP energy per Si atom -5581.096322 kJ/mol
# Density = 2.491081 g / cm^3
# Si number density = 24.967640 Si / 1000 Ang^3
#
#
#
# Elastic Constant Matrix: (Units=GPa)
#
#
# Indices 1 2 3 4 5 6 
#
# 1 133.1783 19.1102 44.2624 -6.7195 -21.9352 -5.8832
# 2 19.1102 59.1047 1.3081 -8.8257 -0.5967 0.5992
# 3 44.2624 1.3081 78.9166 -5.8160 -28.6041 -7.4831
# 4 -6.7195 -8.8257 -5.8160 30.8302 -1.5853 -6.5823
# 5 -21.9352 -0.5967 -28.6041 -1.5853 68.1885 -1.4079
# 6 -5.8832 0.5992 -7.4831 -6.5823 -1.4079 31.5387
#
#
#
# Elastic Compliance Matrix: (Units=1/GPa)
#
#
# Indices 1 2 3 4 5 6 
#
# 1 0.009827 -0.002975 -0.004935 0.000606 0.001097 0.000894
# 2 -0.002975 0.018606 0.001838 0.005160 0.000109 0.000609
# 3 -0.004935 0.001838 0.018466 0.004243 0.006368 0.004596
# 4 0.000606 0.005160 0.004243 0.036894 0.003061 0.008858
# 5 0.001097 0.000109 0.006368 0.003061 0.017827 0.003148
# 6 0.000894 0.000609 0.004596 0.008858 0.003148 0.034942
#
#
# Mechanical properties :
#
#
# Convention : Reuss Voigt Hill
#
# Bulk Modulus (GPa) = 28.77380 44.50679 36.64029
# Shear Modulus (GPa) = 31.19337 39.87940 35.53638
#
# Velocity S-wave (km/s) = 3.53845 4.00089 3.77675
# Velocity P-wave (km/s) = 5.31447 6.26157 5.80736
#
# Compressibility (1/GPa) = 0.03475384
#
# Stress axis : x y z
#
# Youngs Moduli (GPa) = 101.76350 53.74617 54.15440
#
# Poissons Ratio (x) = 0.15992 0.26725
# Poissons Ratio (y) = 0.30279 -0.09954
# Poissons Ratio (z) = 0.50220 -0.09879
#
# Static dielectric constant tensor:
#      x y z
#    x 2.060760 -0.044710 -0.095600 
#    y -0.044710 2.147570 -0.053390 
#    z -0.095600 -0.053390 1.976470 
# 
# From -- ./inp_files/185258.got.cif
#   From: 2010.05.17/outbox.cif.g08.bks.cpg/sg2_93_cif.got.tgz:185258.got - 2010.06.03 11:33:40.
