data_PCOD9046245
_publ_section_title
;
Structure prediction by ZEFSAII (Michael W. Deem and Ramdas Pophale) SiO2 
 PCOD9046245
Probable space group: P -1
;
_chemical_formula_sum "Si O2"
_cell_formula_units_Z 14
_cell_length_a 12.321156
_cell_length_b 9.622248
_cell_length_c 9.450662
_cell_angle_alpha 130.525512
_cell_angle_beta 116.683773
_cell_angle_gamma 50.014603
_cell_volume 651.599072
_symmetry_space_group_name_H-M "P -1"
_symmetry_group_IT_number 2
_symmetry_cell_setting 'triclinic'
loop_
_space_group_symop_operation_xyz
x,y,z
-x,-y,-z
loop_
_atom_site_type_symbol
_atom_site_label
_atom_site_fract_x
_atom_site_fract_y
_atom_site_fract_z
Si Si1 0.413117 0.557177 0.129148
Si Si2 0.030333 0.654190 0.527836
Si Si3 0.145596 0.961650 0.123008
Si Si4 0.755092 0.001947 0.102204
Si Si5 0.981933 0.321175 0.795336
Si Si6 0.355571 0.517559 0.581229
Si Si7 0.668359 0.645922 0.837040
O O1 0.258030 0.737561 0.107805
O O2 0.504554 0.612927 0.326435
O O3 0.408902 0.362980 0.073491
O O4 0.500000 0.500000 0.000000
O O5 0.995621 0.670211 0.352302
O O6 0.000000 0.500000 0.500000
O O7 0.199925 0.569069 0.580315
O O8 0.915530 0.876331 0.676159
O O9 0.218782 0.997751 0.051434
O O10 0.000000 0.000000 0.000000
O O11 0.692172 0.846101 0.984475
O O12 0.905735 0.893253 0.202449
O O13 0.671787 0.241245 0.274114
O O14 0.816139 0.415698 0.777679
O O15 0.000000 0.500000 0.000000
O O16 0.387106 0.388141 0.367644
#
# Coordination Sequence:
#
# PCOD9046245 Si02
#       7
#     2   2   2   2   2   2   2
#     4  12  25  45  67 100 137 184 226 290 352 405
#     4  11  23  42  72 104 138 178 229 287 349 409
#     4  12  23  43  71 101 140 179 228 286 347 405
#     4  11  22  43  67 101 135 182 230 279 346 409
#     4   9  20  38  66 100 132 169 228 281 333 406
#     4  11  24  44  69  96 142 179 228 287 344 414
#     4  10  24  42  69  95 137 180 233 278 343 420
#
# _framework density 21.485606000000001
#
# number of rings (size 3 to 8) (size 9 to 14) (size 15 to 20)
#    0.000    1.143    2.857    3.857    2.000    5.143 
#    0.000    2.857    0.000    0.000    0.000    0.000 
#    0.000    0.000    0.000    0.000    0.000    0.000 
#
# Total GULP energy -78047.707217 kJ/mol
# GULP energy per Si atom -5574.836230 kJ/mol
# Density = 2.143670 g / cm^3
# Si number density = 21.485606 Si / 1000 Ang^3
#
#
#
# Elastic Constant Matrix: (Units=GPa)
#
#
# Indices 1 2 3 4 5 6 
#
# 1 101.0036 36.6067 26.0403 1.0752 3.9345 38.7243
# 2 36.6067 91.2894 19.4666 -13.4606 23.5814 8.5636
# 3 26.0403 19.4666 98.5232 -10.5396 8.3202 20.2985
# 4 1.0752 -13.4606 -10.5396 42.4925 -8.6152 -0.8737
# 5 3.9345 23.5814 8.3202 -8.6152 26.3393 -14.9581
# 6 38.7243 8.5636 20.2985 -0.8737 -14.9581 46.4500
#
#
#
# Elastic Compliance Matrix: (Units=1/GPa)
#
#
# Indices 1 2 3 4 5 6 
#
# 1 0.019015 -0.003282 0.000205 -0.004390 -0.012433 -0.019423
# 2 -0.003282 0.018039 0.000564 0.001906 -0.019175 -0.006974
# 3 0.000205 0.000564 0.012684 0.001303 -0.009063 -0.008711
# 4 -0.004390 0.001906 0.001303 0.026999 0.011275 0.006878
# 5 -0.012433 -0.019175 -0.009063 0.011275 0.090322 0.047158
# 6 -0.019423 -0.006974 -0.008711 0.006878 0.047158 0.058129
#
#
# Mechanical properties :
#
#
# Convention : Reuss Voigt Hill
#
# Bulk Modulus (GPa) = 22.36668 50.56039 36.46354
# Shear Modulus (GPa) = 20.39818 36.96987 28.68402
#
# Velocity S-wave (km/s) = 3.08456 4.15261 3.65778
# Velocity P-wave (km/s) = 4.80819 6.82463 5.90314
#
# Compressibility (1/GPa) = 0.04470936
#
# Stress axis : x y z
#
# Youngs Moduli (GPa) = 52.58929 55.43637 78.83990
#
# Poissons Ratio (x) = 0.18197 -0.01614
# Poissons Ratio (y) = 0.17262 -0.04443
# Poissons Ratio (z) = -0.01076 -0.03124
#
# Static dielectric constant tensor:
#      x y z
#    x 1.763370 -0.457120 0.992300 
#    y -0.457120 -0.033450 3.914040 
#    z 0.992300 3.914040 -6.988620 
# 
# From -- ./inp_files/241116.got.cif
#   From: 2010.05.17/outbox.cif.g08.bks.cpg/sg2_121_cif.got.tgz:241116.got - 2010.06.03 11:33:40.
