data_PCOD9046188
_publ_section_title
;
Structure prediction by ZEFSAII (Michael W. Deem and Ramdas Pophale) SiO2 
 PCOD9046188
Probable space group: P -1
;
_chemical_formula_sum "Si O2"
_cell_formula_units_Z 16
_cell_length_a 17.183542
_cell_length_b 15.587185
_cell_length_c 15.816501
_cell_angle_alpha 27.065330
_cell_angle_beta 31.194016
_cell_angle_gamma 27.475445
_cell_volume 845.099781
_symmetry_space_group_name_H-M "P -1"
_symmetry_group_IT_number 2
_symmetry_cell_setting 'triclinic'
loop_
_space_group_symop_operation_xyz
x,y,z
-x,-y,-z
loop_
_atom_site_type_symbol
_atom_site_label
_atom_site_fract_x
_atom_site_fract_y
_atom_site_fract_z
Si Si1 0.881013 0.795959 0.439637
Si Si2 0.850530 0.771456 0.687573
Si Si3 0.995158 0.297734 0.222875
Si Si4 0.616369 0.307647 0.177850
Si Si5 0.615900 0.100568 0.830829
Si Si6 0.671477 0.274106 0.472064
Si Si7 0.248136 0.508819 0.254792
Si Si8 0.590786 0.593185 0.109458
O O1 0.902017 0.760227 0.552347
O O2 0.798598 0.656331 0.602976
O O3 0.075380 0.684996 0.314369
O O4 0.748277 0.056640 0.310040
O O5 0.004686 0.681958 0.693416
O O6 0.725260 0.031316 0.599421
O O7 0.746429 0.644654 0.910883
O O8 0.837392 0.278342 0.351796
O O9 0.179033 0.078731 0.216507
O O10 0.000000 0.500000 0.000000
O O11 0.426067 0.361187 0.274514
O O12 0.575541 0.489554 0.128421
O O13 0.708382 0.358569 0.970535
O O14 0.560885 0.291167 0.643983
O O15 0.575200 0.183755 0.891809
O O16 0.500000 0.000000 0.000000
O O17 0.621135 0.421372 0.305956
#
# Coordination Sequence:
#
# PCOD9046188 Si02
#       8
#     2   2   2   2   2   2   2   2
#     4  11  22  43  69  93 129 164 209 262 324 385
#     4  11  21  38  63  88 125 163 207 258 314 372
#     4  11  22  39  61  88 125 169 210 257 311 370
#     4  11  23  42  67  95 130 163 208 265 324 379
#     4  11  21  37  60  87 122 161 213 253 304 375
#     4  11  22  40  62  84 124 171 200 258 319 362
#     4  10  24  42  68  97 125 165 207 260 329 395
#     4  12  22  39  63  90 124 163 209 261 315 368
#
# _framework density 18.932676000000001
#
# number of rings (size 3 to 8) (size 9 to 14) (size 15 to 20)
#    0.000    1.000    6.250    2.625    0.000    2.000 
#    0.000    1.250    2.750    0.000    0.000    0.000 
#    0.000    0.000    0.000    0.000    0.000    0.000 
#
# Total GULP energy -89257.289049 kJ/mol
# GULP energy per Si atom -5578.580566 kJ/mol
# Density = 1.888958 g / cm^3
# Si number density = 18.932676 Si / 1000 Ang^3
#
#
#
# Elastic Constant Matrix: (Units=GPa)
#
#
# Indices 1 2 3 4 5 6 
#
# 1 94.7277 23.9748 3.6968 16.2324 13.5030 17.4677
# 2 23.9748 55.8782 9.9259 4.7814 11.3281 8.2338
# 3 3.6968 9.9259 73.3233 -0.4810 8.5840 -0.5634
# 4 16.2324 4.7814 -0.4810 35.8883 -0.9759 4.4087
# 5 13.5030 11.3281 8.5840 -0.9759 36.3117 1.7614
# 6 17.4677 8.2338 -0.5634 4.4087 1.7614 31.6234
#
#
#
# Elastic Compliance Matrix: (Units=1/GPa)
#
#
# Indices 1 2 3 4 5 6 
#
# 1 0.014076 -0.003986 0.000208 -0.005228 -0.003900 -0.005788
# 2 -0.003986 0.021442 -0.002196 -0.000833 -0.004562 -0.003050
# 3 0.000208 -0.002196 0.014260 0.000211 -0.002798 0.000838
# 4 -0.005228 -0.000833 0.000211 0.030588 0.003040 -0.001325
# 5 -0.003900 -0.004562 -0.002798 0.003040 0.031101 0.001136
# 6 -0.005788 -0.003050 0.000838 -0.001325 0.001136 0.035750
#
#
# Mechanical properties :
#
#
# Convention : Reuss Voigt Hill
#
# Bulk Modulus (GPa) = 26.43414 33.23601 29.83507
# Shear Modulus (GPa) = 29.10767 33.18680 31.14724
#
# Velocity S-wave (km/s) = 3.92526 4.19129 4.06045
# Velocity P-wave (km/s) = 5.87674 6.40433 6.14620
#
# Compressibility (1/GPa) = 0.03782987
#
# Stress axis : x y z
#
# Youngs Moduli (GPa) = 71.04190 46.63764 70.12379
#
# Poissons Ratio (x) = 0.18588 -0.01456
# Poissons Ratio (y) = 0.28314 0.15402
# Poissons Ratio (z) = -0.01475 0.10244
#
# Static dielectric constant tensor:
#      x y z
#    x 1.688700 0.114590 -0.100270 
#    y 0.114590 1.979170 -0.319520 
#    z -0.100270 -0.319520 1.972080 
# 
# From -- ./inp_files/221649.got.cif
#   From: 2010.05.17/outbox.cif.g08.bks.cpg/sg2_111_cif.got.tgz:221649.got - 2010.06.03 11:33:40.
