data_PCOD9046823
_publ_section_title
;
Structure prediction by ZEFSAII (Michael W. Deem and Ramdas Pophale) SiO2 
 PCOD9046823
Probable space group: P -1
;
_chemical_formula_sum "Si O2"
_cell_formula_units_Z 14
_cell_length_a 4.987978
_cell_length_b 17.427543
_cell_length_c 24.378736
_cell_angle_alpha 17.031537
_cell_angle_beta 54.142162
_cell_angle_gamma 56.396536
_cell_volume 502.871079
_symmetry_space_group_name_H-M "P -1"
_symmetry_group_IT_number 2
_symmetry_cell_setting 'triclinic'
loop_
_space_group_symop_operation_xyz
x,y,z
-x,-y,-z
loop_
_atom_site_type_symbol
_atom_site_label
_atom_site_fract_x
_atom_site_fract_y
_atom_site_fract_z
Si Si1 0.854920 0.386077 0.522547
Si Si2 0.109202 0.515737 0.877794
Si Si3 0.243090 0.283502 0.387440
Si Si4 0.382664 0.031999 0.355911
Si Si5 0.243820 0.762456 0.144473
Si Si6 0.059879 0.082162 0.085259
Si Si7 0.384488 0.070698 0.205255
O O1 0.500000 0.500000 0.500000
O O2 0.802255 0.194978 0.607502
O O3 0.122126 0.605726 0.320743
O O4 0.932737 0.195539 0.693932
O O5 0.450208 0.677588 0.716992
O O6 0.802810 0.702819 0.790094
O O7 0.163386 0.322570 0.054086
O O8 0.079079 0.320346 0.963535
O O9 0.357533 0.055977 0.570591
O O10 0.206550 0.546546 0.247826
O O11 0.908195 0.194287 0.458076
O O12 0.513740 0.049146 0.266233
O O13 0.374384 0.133918 0.973672
O O14 0.000000 0.000000 0.000000
O O15 0.673440 0.093969 0.108253
#
# Coordination Sequence:
#
# PCOD9046823 Si02
#       7
#     2   2   2   2   2   2   2
#     4  11  22  45  68 100 146 185 243 309 377 437
#     4  10  25  43  71 105 148 194 245 302 370 446
#     4  11  26  45  72 108 151 190 253 311 370 443
#     4  12  25  46  75 107 150 200 245 306 375 445
#     4  11  22  46  72 100 142 192 247 305 374 442
#     4  10  24  43  68 105 146 188 245 308 363 451
#     4  11  25  44  71 105 149 190 249 310 369 447
#
# _framework density 27.840135
#
# number of rings (size 3 to 8) (size 9 to 14) (size 15 to 20)
#    0.000    1.143    2.857    2.143    8.000    1.143 
#    0.000    1.429    0.000    0.000    0.000    0.000 
#    0.000    0.000    0.000    0.000    0.000    0.000 
#
# Total GULP energy -78646.491424 kJ/mol
# GULP energy per Si atom -5617.606530 kJ/mol
# Density = 2.777677 g / cm^3
# Si number density = 27.840135 Si / 1000 Ang^3
#
#
#
# Elastic Constant Matrix: (Units=GPa)
#
#
# Indices 1 2 3 4 5 6 
#
# 1 75.6148 37.7624 45.6825 4.1842 -8.9216 -18.7884
# 2 37.7624 159.7953 81.2416 -4.6607 0.9674 -25.5348
# 3 45.6825 81.2416 202.1498 12.8464 -1.5416 -25.2122
# 4 4.1842 -4.6607 12.8464 55.5411 -20.9965 0.1361
# 5 -8.9216 0.9674 -1.5416 -20.9965 62.7890 6.6399
# 6 -18.7884 -25.5348 -25.2122 0.1361 6.6399 52.5477
#
#
#
# Elastic Compliance Matrix: (Units=1/GPa)
#
#
# Indices 1 2 3 4 5 6 
#
# 1 0.016939 -0.002191 -0.002479 -0.000158 0.001951 0.003557
# 2 -0.002191 0.008564 -0.002781 0.001426 -0.000254 0.002072
# 3 -0.002479 -0.002781 0.006893 -0.001997 -0.000934 0.001193
# 4 -0.000158 0.001426 -0.001997 0.021311 0.007169 -0.001283
# 5 0.001951 -0.000254 -0.000934 0.007169 0.018822 -0.002271
# 6 0.003557 0.002072 0.001193 -0.001283 -0.002271 0.022172
#
#
# Mechanical properties :
#
#
# Convention : Reuss Voigt Hill
#
# Bulk Modulus (GPa) = 57.15860 85.21475 71.18668
# Shear Modulus (GPa) = 43.31489 52.36710 47.84099
#
# Velocity S-wave (km/s) = 3.94870 4.34175 4.14988
# Velocity P-wave (km/s) = 6.43158 7.47057 6.97046
#
# Compressibility (1/GPa) = 0.01749518
#
# Stress axis : x y z
#
# Youngs Moduli (GPa) = 59.03413 116.77180 145.07192
#
# Poissons Ratio (x) = 0.25582 0.35965
# Poissons Ratio (y) = 0.12933 0.40340
# Poissons Ratio (z) = 0.14635 0.32470
#
# Static dielectric constant tensor:
#      x y z
#    x 2.140340 0.006920 -0.031600 
#    y 0.006920 2.157930 0.031400 
#    z -0.031600 0.031400 2.174150 
# 
# From -- ./inp_files/604929.got.cif
#   From: 2010.05.17/outbox.cif.g08.bks.cpg/sg2_303_cif.got.tgz:604929.got - 2010.06.03 11:33:40.
