data_PCOD9046348
_publ_section_title
;
Structure prediction by ZEFSAII (Michael W. Deem and Ramdas Pophale) SiO2 
 PCOD9046348
Probable space group: P -1
;
_chemical_formula_sum "Si O2"
_cell_formula_units_Z 16
_cell_length_a 8.711909
_cell_length_b 14.262639
_cell_length_c 11.141476
_cell_angle_alpha 146.025038
_cell_angle_beta 120.038620
_cell_angle_gamma 58.061722
_cell_volume 650.906288
_symmetry_space_group_name_H-M "P -1"
_symmetry_group_IT_number 2
_symmetry_cell_setting 'triclinic'
loop_
_space_group_symop_operation_xyz
x,y,z
-x,-y,-z
loop_
_atom_site_type_symbol
_atom_site_label
_atom_site_fract_x
_atom_site_fract_y
_atom_site_fract_z
Si Si1 0.284082 0.586049 0.522707
Si Si2 0.062792 0.312194 0.075559
Si Si3 0.455945 0.952315 0.251370
Si Si4 0.753416 0.504399 0.319694
Si Si5 0.692468 0.019479 0.043985
Si Si6 0.798680 0.743929 0.399606
Si Si7 0.109792 0.138584 0.664421
Si Si8 0.557757 0.572830 0.977725
O O1 0.500000 0.500000 0.500000
O O2 0.173214 0.465929 0.280268
O O3 0.213230 0.553532 0.593988
O O4 0.265579 0.791709 0.715857
O O5 0.870993 0.363295 0.125107
O O6 0.170295 0.142741 0.011317
O O7 0.046794 0.275137 0.890093
O O8 0.342238 0.989231 0.122346
O O9 0.672703 0.938980 0.311019
O O10 0.453030 0.759643 0.086794
O O11 0.366454 0.093880 0.463945
O O12 0.823252 0.661498 0.453421
O O13 0.530192 0.547448 0.271288
O O14 0.500000 0.000000 0.000000
O O15 0.934017 0.812219 0.439972
O O16 0.744076 0.614521 0.140804
O O17 0.000000 0.000000 0.500000
O O18 0.500000 0.500000 0.000000
#
# Coordination Sequence:
#
# PCOD9046348 Si02
#       8
#     2   2   2   2   2   2   2   2
#     4  12  25  46  76 102 144 186 243 298 352 430
#     4  12  28  46  71 108 150 186 240 302 364 427
#     4  11  21  44  73 102 139 181 250 289 351 441
#     4  11  25  46  67 104 144 183 239 297 366 424
#     4  12  24  47  74 107 139 194 242 293 357 428
#     4  10  24  42  71 101 138 189 240 292 355 433
#     4  11  25  43  71 108 148 183 240 301 366 424
#     4   9  19  39  66  96 132 178 231 285 345 422
#
# _framework density 24.581112000000001
#
# number of rings (size 3 to 8) (size 9 to 14) (size 15 to 20)
#    0.000    1.000    3.750    2.625    5.250    2.000 
#    0.000    0.000    0.000    0.000    0.000    0.000 
#    0.000    0.000    0.000    0.000    0.000    0.000 
#
# Total GULP energy -89070.448269 kJ/mol
# GULP energy per Si atom -5566.903017 kJ/mol
# Density = 2.452516 g / cm^3
# Si number density = 24.581112 Si / 1000 Ang^3
#
#
#
# Elastic Constant Matrix: (Units=GPa)
#
#
# Indices 1 2 3 4 5 6 
#
# 1 118.9081 35.3365 56.2777 8.3412 4.2550 25.7934
# 2 35.3365 130.8363 36.1981 30.4291 -3.6002 22.8938
# 3 56.2777 36.1981 123.3775 -3.4214 13.0244 12.6351
# 4 8.3412 30.4291 -3.4214 41.9475 5.8434 9.1911
# 5 4.2550 -3.6002 13.0244 5.8434 52.5027 4.5040
# 6 25.7934 22.8938 12.6351 9.1911 4.5040 43.8680
#
#
#
# Elastic Compliance Matrix: (Units=1/GPa)
#
#
# Indices 1 2 3 4 5 6 
#
# 1 0.012124 -0.000690 -0.004917 -0.001289 0.000776 -0.005162
# 2 -0.000690 0.011167 -0.003150 -0.007916 0.002754 -0.003139
# 3 -0.004917 -0.003150 0.011687 0.004551 -0.003271 0.000551
# 4 -0.001289 -0.007916 0.004551 0.031435 -0.004851 -0.002510
# 5 0.000776 0.002754 -0.003271 -0.004851 0.020701 -0.002060
# 6 -0.005162 -0.003139 0.000551 -0.002510 -0.002060 0.028048
#
#
# Mechanical properties :
#
#
# Convention : Reuss Voigt Hill
#
# Bulk Modulus (GPa) = 57.25932 69.86071 63.56001
# Shear Modulus (GPa) = 36.10133 44.01759 40.05946
#
# Velocity S-wave (km/s) = 3.83647 4.23627 4.04131
# Velocity P-wave (km/s) = 6.55509 7.23948 6.90577
#
# Compressibility (1/GPa) = 0.01746441
#
# Stress axis : x y z
#
# Youngs Moduli (GPa) = 82.47773 89.54730 85.56186
#
# Poissons Ratio (x) = 0.06177 0.42071
# Poissons Ratio (y) = 0.05690 0.26956
# Poissons Ratio (z) = 0.40555 0.28212
#
# Static dielectric constant tensor:
#      x y z
#    x 2.008540 -0.121120 0.045960 
#    y -0.121120 2.127320 -0.049590 
#    z 0.045960 -0.049590 2.118070 
# 
# From -- ./inp_files/400128.got.cif
#   From: 2010.05.17/outbox.cif.g08.bks.cpg/sg2_201_cif.got.tgz:400128.got - 2010.06.03 11:33:40.
