data_PCOD9046707
_publ_section_title
;
Structure prediction by ZEFSAII (Michael W. Deem and Ramdas Pophale) SiO2 
 PCOD9046707
Probable space group: P -1
;
_chemical_formula_sum "Si O2"
_cell_formula_units_Z 16
_cell_length_a 9.684001
_cell_length_b 8.511408
_cell_length_c 24.456519
_cell_angle_alpha 47.932439
_cell_angle_beta 29.670618
_cell_angle_gamma 53.074014
_cell_volume 739.811298
_symmetry_space_group_name_H-M "P -1"
_symmetry_group_IT_number 2
_symmetry_cell_setting 'triclinic'
loop_
_space_group_symop_operation_xyz
x,y,z
-x,-y,-z
loop_
_atom_site_type_symbol
_atom_site_label
_atom_site_fract_x
_atom_site_fract_y
_atom_site_fract_z
Si Si1 0.770294 0.799062 0.288944
Si Si2 0.045595 0.676391 0.659107
Si Si3 0.317722 0.976036 0.015480
Si Si4 0.470726 0.777390 0.781327
Si Si5 0.246489 0.612104 0.785938
Si Si6 0.289564 0.308505 0.116009
Si Si7 0.015463 0.210532 0.980156
Si Si8 0.493207 0.009512 0.435165
O O1 0.761107 0.543479 0.355634
O O2 0.074388 0.824570 0.151975
O O3 0.575411 0.970867 0.279738
O O4 0.734315 0.895386 0.340263
O O5 0.789411 0.694348 0.700206
O O6 0.898032 0.694762 0.764850
O O7 0.228343 0.879594 0.539369
O O8 0.158704 0.178813 0.997401
O O9 0.507294 0.891612 0.920114
O O10 0.500000 0.000000 0.000000
O O11 0.327810 0.653587 0.810436
O O12 0.301518 0.729871 0.906183
O O13 0.475203 0.742846 0.645758
O O14 0.934689 0.691682 0.856486
O O15 0.207597 0.366834 0.845261
O O16 0.500000 0.500000 0.000000
O O17 0.000000 0.000000 0.000000
O O18 0.500000 0.000000 0.500000
#
# Coordination Sequence:
#
# PCOD9046707 Si02
#       8
#     2   2   2   2   2   2   2   2
#     4  10  24  43  68 100 138 179 230 287 340 411
#     4  12  24  43  75  97 139 188 232 280 346 412
#     4  11  23  38  65 101 135 169 226 278 344 421
#     4  10  24  43  67 103 136 178 228 283 351 411
#     4  11  24  43  65  95 141 178 224 284 344 402
#     4  12  22  40  67 101 133 178 225 278 352 408
#     4  11  23  39  64 100 140 172 218 288 348 406
#     4  11  24  46  70  98 136 187 236 282 340 410
#
# _framework density 21.627134999999999
#
# number of rings (size 3 to 8) (size 9 to 14) (size 15 to 20)
#    0.000    1.000    2.500    5.250    3.500    2.000 
#    0.000    0.000    0.000    5.250    0.000    0.000 
#    0.000    0.000    0.000    0.000    0.000    0.000 
#
# Total GULP energy -89140.421110 kJ/mol
# GULP energy per Si atom -5571.276319 kJ/mol
# Density = 2.157791 g / cm^3
# Si number density = 21.627135 Si / 1000 Ang^3
#
#
#
# Elastic Constant Matrix: (Units=GPa)
#
#
# Indices 1 2 3 4 5 6 
#
# 1 90.8484 27.7700 25.4391 -4.7824 -7.5397 -0.5863
# 2 27.7700 87.2892 45.6041 -25.1143 -2.3855 2.6343
# 3 25.4391 45.6041 105.1410 -36.7044 3.0269 12.6115
# 4 -4.7824 -25.1143 -36.7044 42.9959 9.7922 0.6897
# 5 -7.5397 -2.3855 3.0269 9.7922 45.2189 8.3939
# 6 -0.5863 2.6343 12.6115 0.6897 8.3939 23.7799
#
#
#
# Elastic Compliance Matrix: (Units=1/GPa)
#
#
# Indices 1 2 3 4 5 6 
#
# 1 0.013059 -0.003580 -0.003328 -0.004146 0.002810 0.001612
# 2 -0.003580 0.016454 -0.004320 0.005691 -0.000762 0.000484
# 3 -0.003328 -0.004320 0.017927 0.013299 -0.003317 -0.008326
# 4 -0.004146 0.005691 0.013299 0.039564 -0.008765 -0.005839
# 5 0.002810 -0.000762 -0.003317 -0.008765 0.025962 -0.006997
# 6 0.001612 0.000484 -0.008326 -0.005839 -0.006997 0.049093
#
#
# Mechanical properties :
#
#
# Convention : Reuss Voigt Hill
#
# Bulk Modulus (GPa) = 40.02784 53.43388 46.73086
# Shear Modulus (GPa) = 25.92766 34.69662 30.31214
#
# Velocity S-wave (km/s) = 3.46620 4.00973 3.74783
# Velocity P-wave (km/s) = 5.87943 6.79689 6.35474
#
# Compressibility (1/GPa) = 0.02498261
#
# Stress axis : x y z
#
# Youngs Moduli (GPa) = 76.57478 60.77514 55.78180
#
# Poissons Ratio (x) = 0.21760 0.18566
# Poissons Ratio (y) = 0.27417 0.24098
# Poissons Ratio (z) = 0.25486 0.26255
#
# Static dielectric constant tensor:
#      x y z
#    x 0.398830 1.429300 0.219990 
#    y 1.429300 0.412280 -0.240600 
#    z 0.219990 -0.240600 1.771330 
# 
# From -- ./inp_files/296257.got.cif
#   From: 2010.05.17/outbox.cif.g08.bks.cpg/sg2_149_cif.got.tgz:296257.got - 2010.06.03 11:33:40.
