data_PCOD9046302
_publ_section_title
;
Structure prediction by ZEFSAII (Michael W. Deem and Ramdas Pophale) SiO2 
 PCOD9046302
Probable space group: P -1
;
_chemical_formula_sum "Si O2"
_cell_formula_units_Z 14
_cell_length_a 5.016850
_cell_length_b 23.464595
_cell_length_c 5.261594
_cell_angle_alpha 119.841676
_cell_angle_beta 94.900475
_cell_angle_gamma 88.705193
_cell_volume 535.151900
_symmetry_space_group_name_H-M "P -1"
_symmetry_group_IT_number 2
_symmetry_cell_setting 'triclinic'
loop_
_space_group_symop_operation_xyz
x,y,z
-x,-y,-z
loop_
_atom_site_type_symbol
_atom_site_label
_atom_site_fract_x
_atom_site_fract_y
_atom_site_fract_z
Si Si1 0.747843 0.952608 0.921090
Si Si2 0.537829 0.831175 0.306296
Si Si3 0.161625 0.372140 0.923628
Si Si4 0.978351 0.843209 0.011493
Si Si5 0.779569 0.255968 0.527953
Si Si6 0.319748 0.510410 0.258726
Si Si7 0.518051 0.351807 0.401252
O O1 0.772550 0.804622 0.089845
O O2 0.831653 0.910292 0.079759
O O3 0.500000 0.000000 0.000000
O O4 0.000000 0.000000 0.000000
O O5 0.668126 0.895818 0.589630
O O6 0.438311 0.778898 0.390816
O O7 0.269417 0.852292 0.181299
O O8 0.320195 0.360227 0.646220
O O9 0.919662 0.319813 0.804620
O O10 0.102970 0.450511 0.110244
O O11 0.356804 0.357614 0.142514
O O12 0.025210 0.800998 0.668552
O O13 0.663713 0.284680 0.319810
O O14 0.500000 0.500000 0.500000
O O15 0.263578 0.587608 0.436694
O O16 0.500000 0.500000 0.000000
#
# Coordination Sequence:
#
# PCOD9046302 Si02
#       7
#     2   2   2   2   2   2   2
#     4  12  27  52  82 118 153 199 264 317 387 470
#     4  12  29  50  78 113 161 207 255 324 396 468
#     4  10  24  42  70 104 150 202 268 334 403 474
#     4  12  29  50  78 113 161 207 255 324 396 468
#     4  12  29  43  72 112 153 204 268 318 397 480
#     4   8  16  39  64  97 141 196 258 336 402 466
#     4  10  24  42  70 104 150 202 268 334 403 474
#
# _framework density 26.160798
#
# number of rings (size 3 to 8) (size 9 to 14) (size 15 to 20)
#    0.000    1.143    0.000    4.286   10.000    4.000 
#    0.000    0.000    0.000   10.286    0.000    3.000 
#    0.000    0.000    0.000    0.000    0.000    0.000 
#
# Total GULP energy -78525.137395 kJ/mol
# GULP energy per Si atom -5608.938385 kJ/mol
# Density = 2.610125 g / cm^3
# Si number density = 26.160798 Si / 1000 Ang^3
#
#
#
# Elastic Constant Matrix: (Units=GPa)
#
#
# Indices 1 2 3 4 5 6 
#
# 1 144.2221 59.4992 51.1057 4.3462 18.1755 22.5783
# 2 59.4992 167.9830 52.2993 13.9566 7.7470 10.5893
# 3 51.1057 52.2993 152.5767 3.6623 32.4769 26.0322
# 4 4.3462 13.9566 3.6623 54.2858 15.5842 13.3243
# 5 18.1755 7.7470 32.4769 15.5842 51.0565 -0.3179
# 6 22.5783 10.5893 26.0322 13.3243 -0.3179 53.6411
#
#
#
# Elastic Compliance Matrix: (Units=1/GPa)
#
#
# Indices 1 2 3 4 5 6 
#
# 1 0.009246 -0.002749 -0.001062 0.001615 -0.002712 -0.003251
# 2 -0.002749 0.007680 -0.002337 -0.002543 0.002085 0.001419
# 3 -0.001062 -0.002337 0.009803 0.003015 -0.006452 -0.004636
# 4 0.001615 -0.002543 0.003015 0.023228 -0.009243 -0.007465
# 5 -0.002712 0.002085 -0.006452 -0.009243 0.027200 0.006318
# 6 -0.003251 0.001419 -0.004636 -0.007465 0.006318 0.023872
#
#
# Mechanical properties :
#
#
# Convention : Reuss Voigt Hill
#
# Bulk Modulus (GPa) = 69.27637 87.84336 78.55987
# Shear Modulus (GPa) = 42.32500 51.92186 47.12343
#
# Velocity S-wave (km/s) = 4.02665 4.45985 4.24878
# Velocity P-wave (km/s) = 6.93953 7.75703 7.35964
#
# Compressibility (1/GPa) = 0.01443494
#
# Stress axis : x y z
#
# Youngs Moduli (GPa) = 108.15561 130.21358 102.01424
#
# Poissons Ratio (x) = 0.35789 0.10829
# Poissons Ratio (y) = 0.29727 0.23836
# Poissons Ratio (z) = 0.11481 0.30425
#
# Static dielectric constant tensor:
#      x y z
#    x 2.006890 -0.014480 0.002340 
#    y -0.014480 2.076070 -0.019230 
#    z 0.002340 -0.019230 2.106420 
# 
# From -- ./inp_files/14753.got.cif
#   From: 2010.05.17/outbox.cif.g08.bks.cpg/sg2_8_cif.got.tgz:14753.got - 2010.06.03 11:33:40.
