data_PCOD9046228
_publ_section_title
;
Structure prediction by ZEFSAII (Michael W. Deem and Ramdas Pophale) SiO2 
 PCOD9046228
Probable space group: P -1
;
_chemical_formula_sum "Si O2"
_cell_formula_units_Z 10
_cell_length_a 6.716388
_cell_length_b 12.185869
_cell_length_c 10.347693
_cell_angle_alpha 141.446072
_cell_angle_beta 112.281759
_cell_angle_gamma 50.503794
_cell_volume 394.814964
_symmetry_space_group_name_H-M "P -1"
_symmetry_group_IT_number 2
_symmetry_cell_setting 'triclinic'
loop_
_space_group_symop_operation_xyz
x,y,z
-x,-y,-z
loop_
_atom_site_type_symbol
_atom_site_label
_atom_site_fract_x
_atom_site_fract_y
_atom_site_fract_z
Si Si1 0.750084 0.877735 0.762913
Si Si2 0.750279 0.667603 0.912228
Si Si3 0.723104 0.513183 0.502525
Si Si4 0.265346 0.979278 0.393007
Si Si5 0.169094 0.671164 0.192619
O O1 0.641572 0.726579 0.598509
O O2 0.787559 0.961060 0.714192
O O3 0.056561 0.704095 0.721262
O O4 0.519846 0.101194 0.979048
O O5 0.857549 0.528366 0.680159
O O6 0.686472 0.553316 0.900844
O O7 0.967084 0.687774 0.052061
O O8 0.500000 0.500000 0.500000
O O9 0.015041 0.156380 0.581202
O O10 0.500000 0.000000 0.500000
O O11 0.332838 0.748519 0.239295
#
# Coordination Sequence:
#
# PCOD9046228 Si02
#       5
#     2   2   2   2   2
#     4  11  25  45  66 100 131 180 228 267 338 397
#     4  11  23  46  68 102 136 174 225 275 336 399
#     4  11  27  47  68  94 138 181 225 281 324 394
#     4  11  22  43  70  99 136 176 222 272 340 399
#     4  10  24  42  69 102 140 171 212 288 334 392
#
# _framework density 25.328322
#
# number of rings (size 3 to 8) (size 9 to 14) (size 15 to 20)
#    0.000    1.200    4.000    0.600    5.600    1.600 
#    7.200    0.000    0.000    0.000    0.000    0.000 
#    0.000    0.000    0.000    0.000    0.000    0.000 
#
# Total GULP energy -55904.597381 kJ/mol
# GULP energy per Si atom -5590.459738 kJ/mol
# Density = 2.527067 g / cm^3
# Si number density = 25.328322 Si / 1000 Ang^3
#
#
#
# Elastic Constant Matrix: (Units=GPa)
#
#
# Indices 1 2 3 4 5 6 
#
# 1 177.8699 51.8096 19.1234 29.0938 24.8389 49.8031
# 2 51.8096 77.5582 36.9064 11.2637 6.9042 34.5220
# 3 19.1234 36.9064 68.2813 27.3508 1.7112 1.7896
# 4 29.0938 11.2637 27.3508 57.5295 5.0792 -4.5774
# 5 24.8389 6.9042 1.7112 5.0792 37.8879 15.5786
# 6 49.8031 34.5220 1.7896 -4.5774 15.5786 37.5810
#
#
#
# Elastic Compliance Matrix: (Units=1/GPa)
#
#
# Indices 1 2 3 4 5 6 
#
# 1 0.011146 0.001484 -0.000679 -0.007007 0.000439 -0.017137
# 2 0.001484 0.039510 -0.019540 -0.003472 0.010486 -0.042100
# 3 -0.000679 -0.019540 0.027957 -0.007345 -0.003746 0.018176
# 4 -0.007007 -0.003472 -0.007345 0.027067 -0.005665 0.018470
# 5 0.000439 0.010486 -0.003746 -0.005665 0.035602 -0.025483
# 6 -0.017137 -0.042100 0.018176 0.018470 -0.025483 0.099940
#
#
# Mechanical properties :
#
#
# Convention : Reuss Voigt Hill
#
# Bulk Modulus (GPa) = 24.30550 59.93201 42.11876
# Shear Modulus (GPa) = 17.09952 40.99101 29.04526
#
# Velocity S-wave (km/s) = 2.60112 4.02728 3.39004
# Velocity P-wave (km/s) = 4.31718 6.73341 5.65583
#
# Compressibility (1/GPa) = 0.04114295
#
# Stress axis : x y z
#
# Youngs Moduli (GPa) = 89.71871 25.30988 35.76981
#
# Poissons Ratio (x) = -0.03755 0.02428
# Poissons Ratio (y) = -0.13311 0.69893
# Poissons Ratio (z) = 0.06090 0.49455
#
# Static dielectric constant tensor:
#      x y z
#    x 1.997320 0.038860 0.008030 
#    y 0.038860 15.514430 1.360280 
#    z 0.008030 1.360280 2.177540 
# 
# From -- ./inp_files/15955.got.cif
#   From: 2010.05.17/outbox.cif.g08.bks.cpg/sg2_8_cif.got.tgz:15955.got - 2010.06.03 11:33:40.
