data_PCOD9046495
_publ_section_title
;
Structure prediction by ZEFSAII (Michael W. Deem and Ramdas Pophale) SiO2 
 PCOD9046495
Probable space group: P -1
;
_chemical_formula_sum "Si O2"
_cell_formula_units_Z 13
_cell_length_a 23.972885
_cell_length_b 12.063033
_cell_length_c 5.275823
_cell_angle_alpha 78.926128
_cell_angle_beta 82.913667
_cell_angle_gamma 20.291775
_cell_volume 511.980260
_symmetry_space_group_name_H-M "P -1"
_symmetry_group_IT_number 2
_symmetry_cell_setting 'triclinic'
loop_
_space_group_symop_operation_xyz
x,y,z
-x,-y,-z
loop_
_atom_site_type_symbol
_atom_site_label
_atom_site_fract_x
_atom_site_fract_y
_atom_site_fract_z
Si Si1 0.449146 0.750739 0.860585
Si Si2 0.442857 0.236286 0.450801
Si Si3 0.892664 0.219369 0.716493
Si Si4 0.868266 0.650897 0.953955
Si Si5 0.500000 0.500000 0.500000
Si Si6 0.925069 0.403261 0.535525
Si Si7 0.305196 0.663262 0.703918
O O1 0.438038 0.897360 0.687327
O O2 0.407769 0.734458 0.689237
O O3 0.325476 0.954783 0.075110
O O4 0.626621 0.423825 0.028663
O O5 0.261349 0.572945 0.283126
O O6 0.402123 0.367137 0.692222
O O7 0.500000 0.000000 0.500000
O O8 0.833869 0.459627 0.630186
O O9 0.000000 0.000000 0.500000
O O10 0.000000 0.000000 0.000000
O O11 0.898061 0.502841 0.225727
O O12 0.889610 0.562305 0.701051
O O13 0.000000 0.500000 0.000000
O O14 0.365526 0.649458 0.493182
O O15 0.114347 0.012888 0.635450
#
# Coordination Sequence:
#
# PCOD9046495 Si02
#       7
#     2   2   2   2   1   2   2
#     4  11  26  47  74 108 144 196 251 307 376 452
#     4  11  26  46  72 107 152 194 248 311 372 446
#     4  12  25  47  75 109 148 197 251 305 369 444
#     4  12  29  49  76 109 152 193 250 314 382 441
#     4  10  24  42  74  98 144 178 248 296 370 428
#     4  12  27  48  75 108 150 197 250 308 374 449
#     4  11  25  44  73 106 142 194 250 298 377 444
#
# _framework density 25.391603
#
# number of rings (size 3 to 8) (size 9 to 14) (size 15 to 20)
#    0.000    0.615    1.538    4.615   12.923    0.615 
#    0.000    0.000    0.000    0.000    0.000    0.000 
#    0.000    0.000    0.000    0.000    0.000    0.000 
#
# Total GULP energy -72578.640096 kJ/mol
# GULP energy per Si atom -5582.972315 kJ/mol
# Density = 2.533381 g / cm^3
# Si number density = 25.391603 Si / 1000 Ang^3
#
#
#
# Elastic Constant Matrix: (Units=GPa)
#
#
# Indices 1 2 3 4 5 6 
#
# 1 171.2646 27.4819 16.3610 5.3145 3.2660 4.7312
# 2 27.4819 70.8263 12.5839 10.1534 9.9645 -11.6751
# 3 16.3610 12.5839 115.7979 -4.6138 15.1240 14.2719
# 4 5.3145 10.1534 -4.6138 44.6405 4.1853 5.4093
# 5 3.2660 9.9645 15.1240 4.1853 49.3671 5.9997
# 6 4.7312 -11.6751 14.2719 5.4093 5.9997 39.7061
#
#
#
# Elastic Compliance Matrix: (Units=1/GPa)
#
#
# Indices 1 2 3 4 5 6 
#
# 1 0.006346 -0.002661 -0.000494 -0.000071 0.000447 -0.001419
# 2 -0.002661 0.017909 -0.002252 -0.004593 -0.003273 0.007512
# 3 -0.000494 -0.002252 0.009839 0.002295 -0.002221 -0.004117
# 4 -0.000071 -0.004593 0.002295 0.024448 -0.001198 -0.005316
# 5 0.000447 -0.003273 -0.002221 -0.001198 0.022082 -0.003390
# 6 -0.001419 0.007512 -0.004117 -0.005316 -0.003390 0.030279
#
#
# Mechanical properties :
#
#
# Convention : Reuss Voigt Hill
#
# Bulk Modulus (GPa) = 42.95396 52.30472 47.62934
# Shear Modulus (GPa) = 38.61707 46.84022 42.72864
#
# Velocity S-wave (km/s) = 3.90405 4.29967 4.10663
# Velocity P-wave (km/s) = 6.10536 6.73005 6.42530
#
# Compressibility (1/GPa) = 0.02328074
#
# Stress axis : x y z
#
# Youngs Moduli (GPa) = 157.57937 55.83814 101.63493
#
# Poissons Ratio (x) = 0.14860 0.05018
# Poissons Ratio (y) = 0.41936 0.22885
# Poissons Ratio (z) = 0.07781 0.12573
#
# Static dielectric constant tensor:
#      x y z
#    x 1.950680 0.077410 0.029030 
#    y 0.077410 2.091950 0.026050 
#    z 0.029030 0.026050 1.666410 
# 
# From -- ./inp_files/59122.got.cif
#   From: 2010.05.17/outbox.cif.g08.bks.cpg/sg2_30_cif.got.tgz:59122.got - 2010.06.03 11:33:40.
