data_PCOD9046269
_publ_section_title
;
Structure prediction by ZEFSAII (Michael W. Deem and Ramdas Pophale) SiO2 
 PCOD9046269
Probable space group: P -1
;
_chemical_formula_sum "Si O2"
_cell_formula_units_Z 16
_cell_length_a 16.992958
_cell_length_b 7.849802
_cell_length_c 12.397306
_cell_angle_alpha 112.601832
_cell_angle_beta 49.039375
_cell_angle_gamma 142.653497
_cell_volume 722.991073
_symmetry_space_group_name_H-M "P -1"
_symmetry_group_IT_number 2
_symmetry_cell_setting 'triclinic'
loop_
_space_group_symop_operation_xyz
x,y,z
-x,-y,-z
loop_
_atom_site_type_symbol
_atom_site_label
_atom_site_fract_x
_atom_site_fract_y
_atom_site_fract_z
Si Si1 0.058233 0.118642 0.855948
Si Si2 0.837228 0.634800 0.787305
Si Si3 0.510740 0.831208 0.371699
Si Si4 0.122284 0.590201 0.822712
Si Si5 0.498746 0.285775 0.901467
Si Si6 0.668237 0.711227 0.464635
Si Si7 0.891212 0.168728 0.535450
Si Si8 0.152044 0.736522 0.184420
O O1 0.155575 0.436094 0.809130
O O2 0.183024 0.130389 0.710632
O O3 0.894168 0.882130 0.871474
O O4 0.000000 0.000000 0.000000
O O5 0.653732 0.404198 0.851569
O O6 0.852132 0.471545 0.807652
O O7 0.980930 0.815036 0.610669
O O8 0.480559 0.752049 0.251405
O O9 0.374907 0.512296 0.469528
O O10 0.500000 0.000000 0.500000
O O11 0.708195 0.064110 0.260661
O O12 0.014934 0.446790 0.775232
O O13 0.000000 0.500000 0.000000
O O14 0.500000 0.500000 0.000000
O O15 0.315164 0.964985 0.020647
O O16 0.500000 0.500000 0.500000
O O17 0.736600 0.964096 0.542671
O O18 0.831558 0.091675 0.692406
O O19 0.000000 0.500000 0.500000
#
# Coordination Sequence:
#
# PCOD9046269 Si02
#       8
#     2   2   2   2   2   2   2   2
#     4  11  25  44  67 102 139 184 240 293 364 434
#     4  10  24  42  69  99 137 184 238 298 359 434
#     4  12  28  47  71 107 149 193 242 302 372 429
#     4  12  25  45  70 102 141 188 238 300 363 433
#     4  12  26  46  69 103 144 190 242 298 363 435
#     4  11  26  44  70 106 145 189 243 303 361 436
#     4   9  22  43  67 103 139 189 240 298 370 429
#     4  11  23  43  71 100 138 186 241 298 362 428
#
# _framework density 22.130286999999999
#
# number of rings (size 3 to 8) (size 9 to 14) (size 15 to 20)
#    0.000    1.000    2.500    2.625    8.750    2.000 
#    0.000    3.125    0.000    0.000    0.000    0.000 
#    0.000    0.000    0.000    0.000    0.000    0.000 
#
# Total GULP energy -89204.045232 kJ/mol
# GULP energy per Si atom -5575.252827 kJ/mol
# Density = 2.207992 g / cm^3
# Si number density = 22.130287 Si / 1000 Ang^3
#
#
#
# Elastic Constant Matrix: (Units=GPa)
#
#
# Indices 1 2 3 4 5 6 
#
# 1 71.1962 25.7820 27.1667 4.3569 11.3679 20.7203
# 2 25.7820 114.3121 25.8707 1.1076 10.3539 26.4720
# 3 27.1667 25.8707 140.7105 0.9338 29.2500 11.4035
# 4 4.3569 1.1076 0.9338 44.8836 4.0171 1.7437
# 5 11.3679 10.3539 29.2500 4.0171 25.6623 -0.8989
# 6 20.7203 26.4720 11.4035 1.7437 -0.8989 47.7287
#
#
#
# Elastic Compliance Matrix: (Units=1/GPa)
#
#
# Indices 1 2 3 4 5 6 
#
# 1 0.018127 -0.001685 -0.001437 -0.000910 -0.005803 -0.006668
# 2 -0.001685 0.010737 -0.000573 0.000395 -0.003175 -0.005161
# 3 -0.001437 -0.000573 0.009800 0.000954 -0.010509 -0.001632
# 4 -0.000910 0.000395 0.000954 0.022774 -0.004442 -0.000968
# 5 -0.005803 -0.003175 -0.010509 -0.004442 0.055773 0.008004
# 6 -0.006668 -0.005161 -0.001632 -0.000968 0.008004 0.027285
#
#
# Mechanical properties :
#
#
# Convention : Reuss Voigt Hill
#
# Bulk Modulus (GPa) = 31.97581 53.76194 42.86888
# Shear Modulus (GPa) = 30.80531 40.14821 35.47676
#
# Velocity S-wave (km/s) = 3.73500 4.26393 4.00820
# Velocity P-wave (km/s) = 5.75157 6.97048 6.39015
#
# Compressibility (1/GPa) = 0.03127364
#
# Stress axis : x y z
#
# Youngs Moduli (GPa) = 55.16658 93.14013 102.03956
#
# Poissons Ratio (x) = 0.15690 0.14666
# Poissons Ratio (y) = 0.09293 0.05848
# Poissons Ratio (z) = 0.07929 0.05338
#
# Static dielectric constant tensor:
#      x y z
#    x 1.923530 -0.072260 -0.024230 
#    y -0.072260 1.885010 0.078350 
#    z -0.024230 0.078350 1.872080 
# 
# From -- ./inp_files/447091.got.cif
#   From: 2010.05.17/outbox.cif.g08.bks.cpg/sg2_224_cif.got.tgz:447091.got - 2010.06.03 11:33:40.
