data_PCOD9046151
_publ_section_title
;
Structure prediction by ZEFSAII (Michael W. Deem and Ramdas Pophale) SiO2 
 PCOD9046151
Probable space group: P -1
;
_chemical_formula_sum "Si O2"
_cell_formula_units_Z 16
_cell_length_a 18.747248
_cell_length_b 9.647667
_cell_length_c 10.116444
_cell_angle_alpha 67.571738
_cell_angle_beta 134.079228
_cell_angle_gamma 147.757649
_cell_volume 590.343248
_symmetry_space_group_name_H-M "P -1"
_symmetry_group_IT_number 2
_symmetry_cell_setting 'triclinic'
loop_
_space_group_symop_operation_xyz
x,y,z
-x,-y,-z
loop_
_atom_site_type_symbol
_atom_site_label
_atom_site_fract_x
_atom_site_fract_y
_atom_site_fract_z
Si Si1 0.405407 0.250248 0.370959
Si Si2 0.042330 0.846760 0.356922
Si Si3 0.452840 0.069728 0.307087
Si Si4 0.917532 0.651367 0.562902
Si Si5 0.581855 0.026820 0.338453
Si Si6 0.140996 0.106334 0.921861
Si Si7 0.581915 0.832946 0.171682
Si Si8 0.837995 0.321435 0.102886
O O1 0.500000 0.500000 0.500000
O O2 0.520548 0.321021 0.368854
O O3 0.203050 0.064652 0.123543
O O4 0.383697 0.075690 0.498336
O O5 0.934690 0.575847 0.234206
O O6 0.942450 0.735725 0.415136
O O7 0.009989 0.961664 0.201346
O O8 0.266719 0.088014 0.597225
O O9 0.360440 0.807603 0.156741
O O10 0.500000 0.000000 0.500000
O O11 0.212523 0.793552 0.076218
O O12 0.965327 0.539741 0.669933
O O13 0.671783 0.313782 0.402523
O O14 0.039294 0.901732 0.735450
O O15 0.603310 0.012059 0.221227
O O16 0.356334 0.469946 0.028105
O O17 0.661874 0.981014 0.077191
#
# Coordination Sequence:
#
# PCOD9046151 Si02
#       8
#     2   2   2   2   2   2   2   2
#     4  11  24  46  68  98 143 181 234 294 342 416
#     4  11  24  42  70 109 142 178 233 286 352 424
#     4  10  24  42  68 103 135 183 242 287 333 423
#     4  11  23  45  66 101 142 176 234 300 333 420
#     4  11  22  44  74  95 136 184 234 289 344 402
#     4  12  26  43  68 101 143 189 225 289 363 403
#     4  11  23  43  73 105 140 187 228 295 346 413
#     4  11  21  42  73 100 141 181 235 283 353 408
#
# _framework density 27.102876999999999
#
# number of rings (size 3 to 8) (size 9 to 14) (size 15 to 20)
#    0.000    1.000    5.000    1.875    3.500    4.500 
#    0.000    0.625    0.000    0.000    0.000    0.000 
#    0.000    0.000    0.000    0.000    0.000    0.000 
#
# Total GULP energy -89201.235660 kJ/mol
# GULP energy per Si atom -5575.077229 kJ/mol
# Density = 2.704119 g / cm^3
# Si number density = 27.102877 Si / 1000 Ang^3
#
#
#
# Elastic Constant Matrix: (Units=GPa)
#
#
# Indices 1 2 3 4 5 6 
#
# 1 152.0075 44.6930 42.8479 -3.3557 4.0300 -37.6844
# 2 44.6930 96.3214 62.2475 -1.4293 0.4931 -44.1888
# 3 42.8479 62.2475 210.2990 -5.4892 -1.8097 -35.7765
# 4 -3.3557 -1.4293 -5.4892 58.4238 -20.2101 7.8283
# 5 4.0300 0.4931 -1.8097 -20.2101 27.3024 0.8315
# 6 -37.6844 -44.1888 -35.7765 7.8283 0.8315 55.9812
#
#
#
# Elastic Compliance Matrix: (Units=1/GPa)
#
#
# Indices 1 2 3 4 5 6 
#
# 1 0.008251 -0.001599 -0.000552 -0.000849 -0.001979 0.004088
# 2 -0.001599 0.018698 -0.003255 -0.002393 -0.002454 0.011973
# 3 -0.000552 -0.003255 0.005990 0.000706 0.001037 0.000773
# 4 -0.000849 -0.002393 0.000706 0.024152 0.018266 -0.005658
# 5 -0.001979 -0.002454 0.001037 0.018266 0.050733 -0.005914
# 6 0.004088 0.011973 0.000773 -0.005658 -0.005914 0.031439
#
#
# Mechanical properties :
#
#
# Convention : Reuss Voigt Hill
#
# Bulk Modulus (GPa) = 45.19451 84.24495 64.71973
# Shear Modulus (GPa) = 31.75594 48.93078 40.34336
#
# Velocity S-wave (km/s) = 3.42670 4.25358 3.86233
# Velocity P-wave (km/s) = 5.68926 7.43470 6.61976
#
# Compressibility (1/GPa) = 0.02212658
#
# Stress axis : x y z
#
# Youngs Moduli (GPa) = 121.19068 53.48290 166.94716
#
# Poissons Ratio (x) = 0.08554 0.09209
# Poissons Ratio (y) = 0.19383 0.54345
# Poissons Ratio (z) = 0.06685 0.17410
#
# Static dielectric constant tensor:
#      x y z
#    x 2.343850 0.137540 0.114030 
#    y 0.137540 2.277990 0.317780 
#    z 0.114030 0.317780 2.519880 
# 
# From -- ./inp_files/398972.got.cif
#   From: 2010.05.17/outbox.cif.g08.bks.cpg/sg2_200_cif.got.tgz:398972.got - 2010.06.03 11:33:40.
