data_PCOD9046526
_publ_section_title
;
Structure prediction by ZEFSAII (Michael W. Deem and Ramdas Pophale) SiO2 
 PCOD9046526
Probable space group: P -1
;
_chemical_formula_sum "Si O2"
_cell_formula_units_Z 16
_cell_length_a 19.292884
_cell_length_b 6.662178
_cell_length_c 9.360903
_cell_angle_alpha 51.134513
_cell_angle_beta 55.641796
_cell_angle_gamma 64.536759
_cell_volume 767.975104
_symmetry_space_group_name_H-M "P -1"
_symmetry_group_IT_number 2
_symmetry_cell_setting 'triclinic'
loop_
_space_group_symop_operation_xyz
x,y,z
-x,-y,-z
loop_
_atom_site_type_symbol
_atom_site_label
_atom_site_fract_x
_atom_site_fract_y
_atom_site_fract_z
Si Si1 0.710361 0.080072 0.084187
Si Si2 0.598823 0.372960 0.618107
Si Si3 0.569419 0.342129 0.340549
Si Si4 0.049279 0.262969 0.466052
Si Si5 0.233024 0.366657 0.281272
Si Si6 0.369770 0.100188 0.032130
Si Si7 0.774758 0.582640 0.395464
Si Si8 0.038021 0.691540 0.760119
O O1 0.629572 0.170509 0.238726
O O2 0.768349 0.845925 0.194767
O O3 0.757253 0.333964 0.896861
O O4 0.680071 0.982511 0.011216
O O5 0.589484 0.268440 0.514433
O O6 0.530179 0.629317 0.591529
O O7 0.693197 0.441971 0.507653
O O8 0.577898 0.162266 0.853522
O O9 0.588865 0.642742 0.171579
O O10 0.147773 0.287621 0.349595
O O11 0.000000 0.500000 0.500000
O O12 0.015271 0.287546 0.333592
O O13 0.033833 0.990965 0.677685
O O14 0.308911 0.191714 0.194223
O O15 0.232944 0.344537 0.461575
O O16 0.864076 0.412010 0.340344
O O17 0.000000 0.500000 0.000000
#
# Coordination Sequence:
#
# PCOD9046526 Si02
#       8
#     2   2   2   2   2   2   2   2
#     4  11  25  41  68  98 137 170 227 274 330 398
#     4  11  22  42  69  90 138 171 225 275 330 396
#     4  10  24  43  62 101 127 180 220 276 334 390
#     4  11  25  47  70  99 136 174 223 276 336 404
#     4  11  25  43  68  94 135 178 221 270 336 396
#     4  11  22  43  65  95 130 178 220 278 327 393
#     4  12  24  44  66  99 132 179 220 272 338 398
#     4  11  28  44  72 103 135 174 222 281 336 399
#
# _framework density 20.834009999999999
#
# number of rings (size 3 to 8) (size 9 to 14) (size 15 to 20)
#    0.000    1.000    3.750    1.875    3.500    2.500 
#    2.250    0.000    0.000    0.000    0.000    0.000 
#    0.000    0.000    0.000    0.000    0.000    0.000 
#
# Total GULP energy -89475.663517 kJ/mol
# GULP energy per Si atom -5592.228970 kJ/mol
# Density = 2.078659 g / cm^3
# Si number density = 20.834010 Si / 1000 Ang^3
#
#
#
# Elastic Constant Matrix: (Units=GPa)
#
#
# Indices 1 2 3 4 5 6 
#
# 1 115.2879 24.8076 43.5896 -8.9746 5.8880 -1.8888
# 2 24.8076 90.2570 31.2810 -10.6828 13.8540 7.8407
# 3 43.5896 31.2810 92.1920 -12.0564 19.0193 2.2829
# 4 -8.9746 -10.6828 -12.0564 38.1953 -2.6381 -2.0224
# 5 5.8880 13.8540 19.0193 -2.6381 39.5811 -9.0179
# 6 -1.8888 7.8407 2.2829 -2.0224 -9.0179 18.6549
#
#
#
# Elastic Compliance Matrix: (Units=1/GPa)
#
#
# Indices 1 2 3 4 5 6 
#
# 1 0.010981 -0.001861 -0.005027 0.000832 0.002338 0.003729
# 2 -0.001861 0.014170 -0.002379 0.001977 -0.005274 -0.008188
# 3 -0.005027 -0.002379 0.015893 0.002451 -0.006926 -0.004536
# 4 0.000832 0.001977 0.002451 0.027841 0.000349 0.002140
# 5 0.002338 -0.005274 -0.006926 0.000349 0.034696 0.020111
# 6 0.003729 -0.008188 -0.004536 0.002140 0.020111 0.067933
#
#
# Mechanical properties :
#
#
# Convention : Reuss Voigt Hill
#
# Bulk Modulus (GPa) = 44.42157 55.23258 49.82707
# Shear Modulus (GPa) = 25.30998 32.49019 28.90008
#
# Velocity S-wave (km/s) = 3.48924 3.95331 3.72850
# Velocity P-wave (km/s) = 6.13196 6.88524 6.51949
#
# Compressibility (1/GPa) = 0.02251159
#
# Stress axis : x y z
#
# Youngs Moduli (GPa) = 91.06380 70.57084 62.92211
#
# Poissons Ratio (x) = 0.13130 0.31629
# Poissons Ratio (y) = 0.16943 0.14969
# Poissons Ratio (z) = 0.45775 0.16789
#
# Static dielectric constant tensor:
#      x y z
#    x 1.728960 -0.011030 -0.030050 
#    y -0.011030 1.756740 -0.013530 
#    z -0.030050 -0.013530 1.748700 
# 
# From -- ./inp_files/49160.got.cif
#   From: 2010.05.17/outbox.cif.g08.bks.cpg/sg2_25_cif.got.tgz:49160.got - 2010.06.03 11:33:40.
