data_PCOD9046271
_publ_section_title
;
Structure prediction by ZEFSAII (Michael W. Deem and Ramdas Pophale) SiO2 
 PCOD9046271
Probable space group: P -1
;
_chemical_formula_sum "Si O2"
_cell_formula_units_Z 15
_cell_length_a 6.880675
_cell_length_b 23.975848
_cell_length_c 23.557536
_cell_angle_alpha 163.200910
_cell_angle_beta 124.993786
_cell_angle_gamma 46.923153
_cell_volume 758.689568
_symmetry_space_group_name_H-M "P -1"
_symmetry_group_IT_number 2
_symmetry_cell_setting 'triclinic'
loop_
_space_group_symop_operation_xyz
x,y,z
-x,-y,-z
loop_
_atom_site_type_symbol
_atom_site_label
_atom_site_fract_x
_atom_site_fract_y
_atom_site_fract_z
Si Si1 0.258119 0.448653 0.914836
Si Si2 0.444503 0.552946 0.345771
Si Si3 0.500000 0.500000 0.500000
Si Si4 0.815999 0.676634 0.342852
Si Si5 0.367588 0.192197 0.802463
Si Si6 0.386482 0.866081 0.738397
Si Si7 0.236994 0.681427 0.943539
Si Si8 0.342591 0.844991 0.913064
O O1 0.247786 0.328804 0.739215
O O2 0.320857 0.290797 0.826753
O O3 0.500000 0.500000 0.000000
O O4 0.944484 0.688023 0.105028
O O5 0.471862 0.734879 0.564188
O O6 0.615697 0.474670 0.239633
O O7 0.566864 0.324129 0.182361
O O8 0.109708 0.660565 0.383680
O O9 0.455231 0.676134 0.612114
O O10 0.477923 0.686591 0.725605
O O11 0.845531 0.454699 0.160971
O O12 0.557479 0.913118 0.558927
O O13 0.541247 0.276015 0.947460
O O14 0.553587 0.985601 0.895133
O O15 0.048821 0.071154 0.880098
O O16 0.000000 0.000000 0.000000
#
# Coordination Sequence:
#
# PCOD9046271 Si02
#       8
#     2   2   1   2   2   2   2   2
#     4  11  24  45  69  98 139 176 223 279 338 400
#     4  11  25  42  67 101 132 179 228 275 340 402
#     4  10  24  42  70 100 130 176 224 268 342 396
#     4  12  24  43  68  99 135 178 231 276 337 401
#     4  11  25  43  68 100 134 179 225 278 335 401
#     4  11  24  45  69  99 139 176 225 282 334 403
#     4  12  24  42  69  98 135 179 227 279 335 396
#     4  11  24  44  67  99 138 174 221 280 339 402
#
# _framework density 19.770931000000001
#
# number of rings (size 3 to 8) (size 9 to 14) (size 15 to 20)
#    0.000    0.800    5.333    1.600    0.000    6.933 
#    0.000    0.000    0.000    0.000    0.000    0.000 
#    0.000    0.000    0.000    0.000    0.000    0.000 
#
# Total GULP energy -83649.626115 kJ/mol
# GULP energy per Si atom -5576.641741 kJ/mol
# Density = 1.972593 g / cm^3
# Si number density = 19.770931 Si / 1000 Ang^3
#
#
#
# Elastic Constant Matrix: (Units=GPa)
#
#
# Indices 1 2 3 4 5 6 
#
# 1 68.4156 39.6924 41.1012 -19.9356 -4.2724 -7.2969
# 2 39.6924 110.8514 50.9235 -35.9751 -0.2006 -7.3127
# 3 41.1012 50.9235 130.1544 -31.1128 3.6233 -9.4440
# 4 -19.9356 -35.9751 -31.1128 36.4911 -1.6507 -8.7767
# 5 -4.2724 -0.2006 3.6233 -1.6507 25.4246 -6.9954
# 6 -7.2969 -7.3127 -9.4440 -8.7767 -6.9954 30.6150
#
#
#
# Elastic Compliance Matrix: (Units=1/GPa)
#
#
# Indices 1 2 3 4 5 6 
#
# 1 0.022088 -0.003248 -0.003465 0.007950 0.006684 0.007226
# 2 -0.003248 0.016150 -0.001205 0.015099 0.002850 0.007692
# 3 -0.003465 -0.001205 0.011441 0.007741 -0.000474 0.004526
# 4 0.007950 0.015099 0.007741 0.060502 0.011976 0.027970
# 5 0.006684 0.002850 -0.000474 0.011976 0.045728 0.016009
# 6 0.007226 0.007692 0.004526 0.027970 0.016009 0.049296
#
#
# Mechanical properties :
#
#
# Convention : Reuss Voigt Hill
#
# Bulk Modulus (GPa) = 29.54912 63.65061 46.59987
# Shear Modulus (GPa) = 21.52186 30.35310 25.93748
#
# Velocity S-wave (km/s) = 3.30291 3.92246 3.62595
# Velocity P-wave (km/s) = 5.43358 7.26486 6.41491
#
# Compressibility (1/GPa) = 0.03384195
#
# Stress axis : x y z
#
# Youngs Moduli (GPa) = 45.27432 61.91802 87.40485
#
# Poissons Ratio (x) = 0.20110 0.30290
# Poissons Ratio (y) = 0.14705 0.10534
# Poissons Ratio (z) = 0.15690 0.07462
#
# Static dielectric constant tensor:
#      x y z
#    x 1.671940 -0.019130 -0.024780 
#    y -0.019130 1.700760 0.013820 
#    z -0.024780 0.013820 1.678800 
# 
# From -- ./inp_files/7528.got.cif
#   From: 2010.05.17/outbox.cif.g08.bks.cpg/sg2_4_cif.got.tgz:7528.got - 2010.06.03 11:33:40.
