data_PCOD9046565
_publ_section_title
;
Structure prediction by ZEFSAII (Michael W. Deem and Ramdas Pophale) SiO2 
 PCOD9046565
Probable space group: P -1
;
_chemical_formula_sum "Si O2"
_cell_formula_units_Z 16
_cell_length_a 23.126829
_cell_length_b 22.105067
_cell_length_c 8.279227
_cell_angle_alpha 145.930951
_cell_angle_beta 147.142667
_cell_angle_gamma 17.927215
_cell_volume 696.002825
_symmetry_space_group_name_H-M "P -1"
_symmetry_group_IT_number 2
_symmetry_cell_setting 'triclinic'
loop_
_space_group_symop_operation_xyz
x,y,z
-x,-y,-z
loop_
_atom_site_type_symbol
_atom_site_label
_atom_site_fract_x
_atom_site_fract_y
_atom_site_fract_z
Si Si1 0.912364 0.840023 0.796635
Si Si2 0.497309 0.096934 0.335911
Si Si3 0.013929 0.736828 0.155152
Si Si4 0.531619 0.702133 0.812791
Si Si5 0.631588 0.586308 0.154074
Si Si6 0.003789 0.122541 0.241164
Si Si7 0.660535 0.911023 0.798617
Si Si8 0.577499 0.437400 0.861915
O O1 0.133308 0.607437 0.764319
O O2 0.873309 0.948777 0.786701
O O3 0.724447 0.920750 0.536804
O O4 0.946584 0.855133 0.093461
O O5 0.420639 0.283454 0.540224
O O6 0.335979 0.183162 0.267961
O O7 0.500000 0.000000 0.000000
O O8 0.242979 0.510929 0.183518
O O9 0.974054 0.834299 0.443486
O O10 0.871330 0.755520 0.873550
O O11 0.420254 0.686291 0.468738
O O12 0.536458 0.709889 0.034879
O O13 0.431939 0.894474 0.933056
O O14 0.500712 0.587679 0.881846
O O15 0.781205 0.327944 0.114363
O O16 0.000000 0.000000 0.000000
O O17 0.500000 0.000000 0.500000
O O18 0.500000 0.500000 0.000000
#
# Coordination Sequence:
#
# PCOD9046565 Si02
#       8
#     2   2   2   2   2   2   2   2
#     4  10  24  43  64  95 131 175 224 270 331 401
#     4  12  26  42  68  95 134 177 217 281 335 389
#     4  11  23  43  67  94 135 178 219 275 337 389
#     4  11  23  43  70  94 134 179 214 278 334 394
#     4  10  24  43  65  96 132 171 224 269 330 403
#     4  11  24  41  65 100 134 172 225 278 328 401
#     4  12  24  43  66 100 129 169 233 269 327 406
#     4  11  23  41  65  97 130 169 222 269 331 396
#
# _framework density 22.988413999999999
#
# number of rings (size 3 to 8) (size 9 to 14) (size 15 to 20)
#    0.000    1.000    3.750    1.875    3.500    2.500 
#    0.000    0.000    0.000    0.000    0.000    0.000 
#    0.000    0.000    0.000    0.000    0.000    0.000 
#
# Total GULP energy -89075.258161 kJ/mol
# GULP energy per Si atom -5567.203635 kJ/mol
# Density = 2.293609 g / cm^3
# Si number density = 22.988414 Si / 1000 Ang^3
#
#
#
# Elastic Constant Matrix: (Units=GPa)
#
#
# Indices 1 2 3 4 5 6 
#
# 1 106.1819 6.1535 24.2276 -4.7242 14.0192 -15.5872
# 2 6.1535 68.7317 18.1563 -10.6742 12.1658 -21.2031
# 3 24.2276 18.1563 130.0125 -3.7177 9.0079 -5.4119
# 4 -4.7242 -10.6742 -3.7177 32.9980 7.7304 10.7920
# 5 14.0192 12.1658 9.0079 7.7304 35.9137 -0.1852
# 6 -15.5872 -21.2031 -5.4119 10.7920 -0.1852 22.9213
#
#
#
# Elastic Compliance Matrix: (Units=1/GPa)
#
#
# Indices 1 2 3 4 5 6 
#
# 1 0.012010 0.003902 -0.001924 0.000450 -0.005567 0.011065
# 2 0.003902 0.024026 -0.002387 0.002803 -0.009548 0.022918
# 3 -0.001924 -0.002387 0.008373 0.000666 -0.000694 -0.001858
# 4 0.000450 0.002803 0.000666 0.038586 -0.009676 -0.015189
# 5 -0.005567 -0.009548 -0.000694 -0.009676 0.035468 -0.007940
# 6 0.011065 0.022918 -0.001858 -0.015189 -0.007940 0.079001
#
#
# Mechanical properties :
#
#
# Convention : Reuss Voigt Hill
#
# Bulk Modulus (GPa) = 22.93997 44.66676 33.80337
# Shear Modulus (GPa) = 23.49500 35.45919 29.47710
#
# Velocity S-wave (km/s) = 3.20040 3.93170 3.58475
# Velocity P-wave (km/s) = 4.86388 6.33114 5.64538
#
# Compressibility (1/GPa) = 0.04359203
#
# Stress axis : x y z
#
# Youngs Moduli (GPa) = 83.26344 41.62186 119.42995
#
# Poissons Ratio (x) = -0.16240 0.22975
# Poissons Ratio (y) = -0.32488 0.28503
# Poissons Ratio (z) = 0.16018 0.09934
#
# Static dielectric constant tensor:
#      x y z
#    x 1.830040 -0.191580 -0.151770 
#    y -0.191580 1.710890 -0.201550 
#    z -0.151770 -0.201550 1.909500 
# 
# From -- ./inp_files/355544.got.cif
#   From: 2010.05.17/outbox.cif.g08.bks.cpg/sg2_178_cif.got.tgz:355544.got - 2010.06.03 11:33:40.
