data_PCOD9046676
_publ_section_title
;
Structure prediction by ZEFSAII (Michael W. Deem and Ramdas Pophale) SiO2 
 PCOD9046676
Probable space group: P -1
;
_chemical_formula_sum "Si O2"
_cell_formula_units_Z 12
_cell_length_a 4.952848
_cell_length_b 14.834975
_cell_length_c 9.598200
_cell_angle_alpha 125.483720
_cell_angle_beta 68.037301
_cell_angle_gamma 95.396498
_cell_volume 525.463461
_symmetry_space_group_name_H-M "P -1"
_symmetry_group_IT_number 2
_symmetry_cell_setting 'triclinic'
loop_
_space_group_symop_operation_xyz
x,y,z
-x,-y,-z
loop_
_atom_site_type_symbol
_atom_site_label
_atom_site_fract_x
_atom_site_fract_y
_atom_site_fract_z
Si Si1 0.395795 0.926537 0.578725
Si Si2 0.733020 0.454047 0.083233
Si Si3 0.192649 0.298121 0.381733
Si Si4 0.255688 0.609840 0.669216
Si Si5 0.237375 0.056853 0.199112
Si Si6 0.306081 0.672656 0.292948
O O1 0.619674 0.923501 0.661314
O O2 0.380152 0.796907 0.419404
O O3 0.069599 0.985262 0.746422
O O4 0.500000 0.000000 0.500000
O O5 0.824870 0.396947 0.160439
O O6 0.486634 0.565296 0.243088
O O7 0.645704 0.363635 0.909463
O O8 0.000000 0.500000 0.000000
O O9 0.539776 0.296669 0.316246
O O10 0.132807 0.175028 0.250350
O O11 0.024652 0.375556 0.363235
O O12 0.026129 0.327529 0.586388
O O13 0.500000 0.500000 0.500000
O O14 0.500000 0.000000 0.000000
#
# Coordination Sequence:
#
# PCOD9046676 Si02
#       6
#     2   2   2   2   2   2
#     4  11  25  47  76 102 141 188 237 293 356 422
#     4  11  25  41  66  98 144 179 229 280 346 416
#     4  11  24  44  68  96 133 182 224 279 348 403
#     4  12  24  40  67  98 133 176 230 275 332 417
#     4  11  25  48  73 103 141 183 235 300 354 415
#     4  10  24  43  66  98 139 185 224 284 351 411
#
# _framework density 22.836984000000001
#
# number of rings (size 3 to 8) (size 9 to 14) (size 15 to 20)
#    0.000    1.000    1.667    4.500    9.333    1.333 
#    3.000    0.000    0.000    0.000    0.000    0.000 
#    0.000    0.000    0.000    0.000    0.000    0.000 
#
# Total GULP energy -67059.515807 kJ/mol
# GULP energy per Si atom -5588.292984 kJ/mol
# Density = 2.278501 g / cm^3
# Si number density = 22.836984 Si / 1000 Ang^3
#
#
#
# Elastic Constant Matrix: (Units=GPa)
#
#
# Indices 1 2 3 4 5 6 
#
# 1 111.3118 24.7410 17.2460 -7.0970 -5.2051 -8.2526
# 2 24.7410 104.7329 41.2640 -16.1810 1.6088 -4.0137
# 3 17.2460 41.2640 83.9512 -6.3373 -8.9125 -16.4379
# 4 -7.0970 -16.1810 -6.3373 23.8759 -0.6769 -5.5915
# 5 -5.2051 1.6088 -8.9125 -0.6769 45.7978 -12.5408
# 6 -8.2526 -4.0137 -16.4379 -5.5915 -12.5408 40.0222
#
#
#
# Elastic Compliance Matrix: (Units=1/GPa)
#
#
# Indices 1 2 3 4 5 6 
#
# 1 0.009857 -0.001802 -0.000237 0.002326 0.001905 0.002676
# 2 -0.001802 0.013416 -0.006225 0.006528 -0.002160 -0.001348
# 3 -0.000237 -0.006225 0.017588 0.002616 0.006068 0.008817
# 4 0.002326 0.006528 0.002616 0.050280 0.004174 0.010541
# 5 0.001905 -0.002160 0.006068 0.004174 0.026537 0.011567
# 6 0.002676 -0.001348 0.008817 0.010541 0.011567 0.034121
#
#
# Mechanical properties :
#
#
# Convention : Reuss Voigt Hill
#
# Bulk Modulus (GPa) = 41.09635 51.83309 46.46472
# Shear Modulus (GPa) = 28.33833 36.38884 32.36358
#
# Velocity S-wave (km/s) = 3.52646 3.99609 3.76860
# Velocity P-wave (km/s) = 5.88352 6.63611 6.27111
#
# Compressibility (1/GPa) = 0.02433306
#
# Stress axis : x y z
#
# Youngs Moduli (GPa) = 101.45163 74.53587 56.85662
#
# Poissons Ratio (x) = 0.13434 0.01349
# Poissons Ratio (y) = 0.18285 0.35391
# Poissons Ratio (z) = 0.02406 0.46396
#
# Static dielectric constant tensor:
#      x y z
#    x 1.955970 0.185900 0.054180 
#    y 0.185900 2.266550 0.171940 
#    z 0.054180 0.171940 1.986930 
# 
# From -- ./inp_files/30220.got.cif
#   From: 2010.05.17/outbox.cif.g08.bks.cpg/sg2_16_cif.got.tgz:30220.got - 2010.06.03 11:33:40.
