data_PCOD9046866
_publ_section_title
;
Structure prediction by ZEFSAII (Michael W. Deem and Ramdas Pophale) SiO2 
 PCOD9046866
Probable space group: P -1
;
_chemical_formula_sum "Si O2"
_cell_formula_units_Z 16
_cell_length_a 23.368847
_cell_length_b 9.105530
_cell_length_c 14.449992
_cell_angle_alpha 129.812512
_cell_angle_beta 148.550856
_cell_angle_gamma 29.059930
_cell_volume 708.577405
_symmetry_space_group_name_H-M "P -1"
_symmetry_group_IT_number 2
_symmetry_cell_setting 'triclinic'
loop_
_space_group_symop_operation_xyz
x,y,z
-x,-y,-z
loop_
_atom_site_type_symbol
_atom_site_label
_atom_site_fract_x
_atom_site_fract_y
_atom_site_fract_z
Si Si1 0.518118 0.361031 0.800464
Si Si2 0.503647 0.716907 0.565912
Si Si3 0.926389 0.565864 0.711401
Si Si4 0.698319 0.786220 0.950776
Si Si5 0.581802 0.080765 0.106730
Si Si6 0.119057 0.271481 0.482236
Si Si7 0.084427 0.185649 0.947492
Si Si8 0.197626 0.737363 0.367307
O O1 0.517761 0.579676 0.926300
O O2 0.316821 0.588426 0.567873
O O3 0.578242 0.114198 0.858037
O O4 0.688023 0.127649 0.864429
O O5 0.500000 0.500000 0.500000
O O6 0.598685 0.724545 0.774769
O O7 0.640410 0.546611 0.597790
O O8 0.282453 0.089582 0.399638
O O9 0.901520 0.562182 0.566565
O O10 0.021741 0.270142 0.786901
O O11 0.086991 0.503908 0.910180
O O12 0.700512 0.848180 0.085824
O O13 0.673264 0.022095 0.305113
O O14 0.500000 0.000000 0.000000
O O15 0.000000 0.500000 0.500000
O O16 0.101271 0.078133 0.349879
O O17 0.973002 0.169744 0.831177
O O18 0.000000 0.500000 0.000000
#
# Coordination Sequence:
#
# PCOD9046866 Si02
#       8
#     2   2   2   2   2   2   2   2
#     4  10  24  43  68  99 134 178 228 274 345 411
#     4  12  25  43  67 102 137 176 233 280 344 409
#     4  11  23  44  68  99 134 177 228 275 342 403
#     4  11  24  44  68  96 137 180 222 285 339 403
#     4  11  24  41  70  98 135 179 227 285 338 407
#     4  11  23  44  66  95 137 178 224 278 341 402
#     4  11  24  44  69 103 137 179 228 281 340 413
#     4  11  24  44  68  98 136 178 220 286 341 403
#
# _framework density 22.580452999999999
#
# number of rings (size 3 to 8) (size 9 to 14) (size 15 to 20)
#    0.000    1.000    2.500    4.125    3.500    2.000 
#    2.250    0.625    0.000    0.000    0.000    0.000 
#    0.000    0.000    0.000    0.000    0.000    0.000 
#
# Total GULP energy -89245.019942 kJ/mol
# GULP energy per Si atom -5577.813746 kJ/mol
# Density = 2.252906 g / cm^3
# Si number density = 22.580453 Si / 1000 Ang^3
#
#
#
# Elastic Constant Matrix: (Units=GPa)
#
#
# Indices 1 2 3 4 5 6 
#
# 1 92.0294 5.9577 7.8432 13.5457 -1.9577 -7.0222
# 2 5.9577 71.7042 16.8408 18.2289 10.4555 -10.8539
# 3 7.8432 16.8408 56.0086 12.7377 7.8829 11.9631
# 4 13.5457 18.2289 12.7377 37.7293 7.1915 7.1473
# 5 -1.9577 10.4555 7.8829 7.1915 49.7871 -0.4442
# 6 -7.0222 -10.8539 11.9631 7.1473 -0.4442 36.4886
#
#
#
# Elastic Compliance Matrix: (Units=1/GPa)
#
#
# Indices 1 2 3 4 5 6 
#
# 1 0.012116 0.001319 -0.002003 -0.005410 0.001338 0.004457
# 2 0.001319 0.019255 -0.005672 -0.009376 -0.001653 0.009658
# 3 -0.002003 -0.005672 0.022557 -0.002002 -0.002251 -0.009103
# 4 -0.005410 -0.009376 -0.002002 0.036226 -0.003251 -0.010309
# 5 0.001338 -0.001653 -0.002251 -0.003251 0.021324 0.001400
# 6 0.004457 0.009658 -0.009103 -0.010309 0.001400 0.036157
#
#
# Mechanical properties :
#
#
# Convention : Reuss Voigt Hill
#
# Bulk Modulus (GPa) = 24.26267 31.22508 27.74387
# Shear Modulus (GPa) = 28.72125 37.40771 33.06448
#
# Velocity S-wave (km/s) = 3.57031 4.07460 3.83076
# Velocity P-wave (km/s) = 5.26920 5.99957 5.64621
#
# Compressibility (1/GPa) = 0.04121558
#
# Stress axis : x y z
#
# Youngs Moduli (GPa) = 82.53363 51.93354 44.33206
#
# Poissons Ratio (x) = -0.06848 0.08880
# Poissons Ratio (y) = -0.10884 0.25146
# Poissons Ratio (z) = 0.16532 0.29458
#
# Static dielectric constant tensor:
#      x y z
#    x 0.823060 -1.543840 0.177300 
#    y -1.543840 -0.384880 0.241180 
#    z 0.177300 0.241180 1.880310 
# 
# From -- ./inp_files/532382.got.cif
#   From: 2010.05.17/outbox.cif.g08.bks.cpg/sg2_267_cif.got.tgz:532382.got - 2010.06.03 11:33:40.
