data_PCOD9046606
_publ_section_title
;
Structure prediction by ZEFSAII (Michael W. Deem and Ramdas Pophale) SiO2 
 PCOD9046606
Probable space group: P -1
;
_chemical_formula_sum "Si O2"
_cell_formula_units_Z 16
_cell_length_a 9.043959
_cell_length_b 11.132845
_cell_length_c 12.210529
_cell_angle_alpha 132.183583
_cell_angle_beta 60.029760
_cell_angle_gamma 87.348975
_cell_volume 634.498220
_symmetry_space_group_name_H-M "P -1"
_symmetry_group_IT_number 2
_symmetry_cell_setting 'triclinic'
loop_
_space_group_symop_operation_xyz
x,y,z
-x,-y,-z
loop_
_atom_site_type_symbol
_atom_site_label
_atom_site_fract_x
_atom_site_fract_y
_atom_site_fract_z
Si Si1 0.831370 0.518007 0.303992
Si Si2 0.820933 0.344602 0.985244
Si Si3 0.508876 0.844285 0.122764
Si Si4 0.358240 0.891151 0.736046
Si Si5 0.636938 0.426160 0.754387
Si Si6 0.308872 0.928675 0.032587
Si Si7 0.129465 0.717617 0.638140
Si Si8 0.958535 0.801459 0.414020
O O1 0.901759 0.404015 0.092906
O O2 0.582420 0.699842 0.492870
O O3 0.852371 0.387161 0.319046
O O4 0.942563 0.624897 0.353014
O O5 0.587706 0.538156 0.149265
O O6 0.767306 0.196700 0.960783
O O7 0.979244 0.242217 0.762726
O O8 0.481867 0.894578 0.033161
O O9 0.649734 0.911171 0.158309
O O10 0.589949 0.616121 0.956454
O O11 0.271935 0.995246 0.351283
O O12 0.178645 0.879138 0.744526
O O13 0.364769 0.860286 0.845276
O O14 0.707809 0.427775 0.604923
O O15 0.844461 0.230236 0.612942
O O16 0.106750 0.160996 0.246143
#
# Coordination Sequence:
#
# PCOD9046606 Si02
#       8
#     2   2   2   2   2   2   2   2
#     4  11  23  41  67  96 132 173 215 275 328 385
#     4  11  23  44  67  93 133 178 219 265 323 388
#     4  10  24  43  65  98 133 173 214 273 326 384
#     4  11  22  41  64  96 134 168 215 268 336 386
#     4  11  24  44  70  98 130 174 216 275 326 384
#     4  11  23  39  67  97 131 172 214 275 327 387
#     4  12  23  41  68 101 132 166 220 271 333 392
#     4  11  25  45  66  96 132 177 224 263 320 390
#
# _framework density 25.216777
#
# number of rings (size 3 to 8) (size 9 to 14) (size 15 to 20)
#    0.000    1.000    3.750    3.375    1.750    3.500 
#    2.250    0.000    0.000    3.750    0.000    0.000 
#    0.000    0.000    0.000    0.000    0.000    0.000 
#
# Total GULP energy -89655.757973 kJ/mol
# GULP energy per Si atom -5603.484873 kJ/mol
# Density = 2.515938 g / cm^3
# Si number density = 25.216777 Si / 1000 Ang^3
#
#
#
# Elastic Constant Matrix: (Units=GPa)
#
#
# Indices 1 2 3 4 5 6 
#
# 1 100.4107 31.4781 33.5474 5.3245 -0.5772 4.5674
# 2 31.4781 45.1423 14.5774 -11.9411 16.2236 5.7539
# 3 33.5474 14.5774 153.7528 -25.8022 9.6100 -13.8749
# 4 5.3245 -11.9411 -25.8022 33.3635 -4.4269 13.6504
# 5 -0.5772 16.2236 9.6100 -4.4269 36.2763 1.4574
# 6 4.5674 5.7539 -13.8749 13.6504 1.4574 28.8674
#
#
#
# Elastic Compliance Matrix: (Units=1/GPa)
#
#
# Indices 1 2 3 4 5 6 
#
# 1 0.017515 -0.017601 -0.004462 -0.013412 0.007512 0.004555
# 2 -0.017601 0.049990 0.003413 0.028061 -0.019400 -0.017828
# 3 -0.004462 0.003413 0.008744 0.008076 -0.002951 0.000558
# 4 -0.013412 0.028061 0.008076 0.058535 -0.006677 -0.026932
# 5 0.007512 -0.019400 -0.002951 -0.006677 0.036225 0.002588
# 6 0.004555 -0.017828 0.000558 -0.026932 0.002588 0.050347
#
#
# Mechanical properties :
#
#
# Convention : Reuss Voigt Hill
#
# Bulk Modulus (GPa) = 25.67357 50.94572 38.30965
# Shear Modulus (GPa) = 18.40686 34.34831 26.37759
#
# Velocity S-wave (km/s) = 2.70468 3.69470 3.23775
# Velocity P-wave (km/s) = 4.46732 6.20065 5.40393
#
# Compressibility (1/GPa) = 0.03895056
#
# Stress axis : x y z
#
# Youngs Moduli (GPa) = 57.09470 20.00391 114.36368
#
# Poissons Ratio (x) = 0.35208 0.51030
# Poissons Ratio (y) = 1.00490 -0.39038
# Poissons Ratio (z) = 0.25476 -0.06828
#
# Static dielectric constant tensor:
#      x y z
#    x 2.006340 0.015790 -0.022330 
#    y 0.015790 1.992880 0.020020 
#    z -0.022330 0.020020 1.977330 
# 
# From -- ./inp_files/392995.got.cif
#   From: 2010.05.17/outbox.cif.g08.bks.cpg/sg2_197_cif.got.tgz:392995.got - 2010.06.03 11:33:40.
