data_PCOD9046469
_publ_section_title
;
Structure prediction by ZEFSAII (Michael W. Deem and Ramdas Pophale) SiO2 
 PCOD9046469
Probable space group: P -1
;
_chemical_formula_sum "Si O2"
_cell_formula_units_Z 16
_cell_length_a 12.469460
_cell_length_b 5.030210
_cell_length_c 12.050685
_cell_angle_alpha 109.992966
_cell_angle_beta 104.324752
_cell_angle_gamma 72.266278
_cell_volume 667.838278
_symmetry_space_group_name_H-M "P -1"
_symmetry_group_IT_number 2
_symmetry_cell_setting 'triclinic'
loop_
_space_group_symop_operation_xyz
x,y,z
-x,-y,-z
loop_
_atom_site_type_symbol
_atom_site_label
_atom_site_fract_x
_atom_site_fract_y
_atom_site_fract_z
Si Si1 0.701446 0.797992 0.193468
Si Si2 0.098783 0.273263 0.059368
Si Si3 0.345739 0.114199 0.047886
Si Si4 0.918887 0.262952 0.173708
Si Si5 0.899006 0.341397 0.430447
Si Si6 0.766742 0.976515 0.459554
Si Si7 0.476901 0.597368 0.160733
Si Si8 0.557092 0.265292 0.571624
O O1 0.823372 0.565399 0.182554
O O2 0.601552 0.632460 0.164525
O O3 0.701826 0.005826 0.328231
O O4 0.681534 0.962887 0.095445
O O5 0.226022 0.316248 0.092134
O O6 0.044959 0.279404 0.168752
O O7 0.000000 0.500000 0.000000
O O8 0.109104 0.966725 0.954038
O O9 0.439795 0.300503 0.086042
O O10 0.390343 0.850239 0.105351
O O11 0.916945 0.188613 0.292426
O O12 0.872507 0.117473 0.481323
O O13 0.000000 0.500000 0.500000
O O14 0.794546 0.631015 0.439941
O O15 0.689681 0.152720 0.559981
O O16 0.462730 0.637399 0.293959
O O17 0.500000 0.500000 0.500000
O O18 0.500000 0.000000 0.500000
#
# Coordination Sequence:
#
# PCOD9046469 Si02
#       8
#     2   2   2   2   2   2   2   2
#     4  11  23  47  71 104 144 185 238 285 356 436
#     4  11  23  45  69  99 136 189 239 282 344 433
#     4  12  26  45  68 107 144 181 229 291 366 409
#     4  10  24  42  73  98 137 187 240 287 346 426
#     4  11  25  45  68 108 139 179 234 301 355 404
#     4  11  25  44  76  98 137 191 240 283 350 422
#     4  12  28  44  71 107 145 182 227 297 356 418
#     4  12  25  48  72 100 138 187 241 283 340 424
#
# _framework density 23.957895000000001
#
# number of rings (size 3 to 8) (size 9 to 14) (size 15 to 20)
#    0.000    0.750    2.500    4.125    5.250    4.000 
#    0.000    0.000    0.000    0.000    0.000    0.000 
#    0.000    0.000    0.000    0.000    0.000    0.000 
#
# Total GULP energy -89607.816416 kJ/mol
# GULP energy per Si atom -5600.488526 kJ/mol
# Density = 2.390337 g / cm^3
# Si number density = 23.957895 Si / 1000 Ang^3
#
#
#
# Elastic Constant Matrix: (Units=GPa)
#
#
# Indices 1 2 3 4 5 6 
#
# 1 141.8954 15.6437 7.5275 3.0943 -23.3889 -3.1377
# 2 15.6437 109.9978 18.9492 -7.1059 -7.8149 9.0043
# 3 7.5275 18.9492 98.0207 -3.1538 -19.8787 -5.0271
# 4 3.0943 -7.1059 -3.1538 27.7263 3.0124 -2.1178
# 5 -23.3889 -7.8149 -19.8787 3.0124 44.8225 4.4562
# 6 -3.1377 9.0043 -5.0271 -2.1178 4.4562 37.4160
#
#
#
# Elastic Compliance Matrix: (Units=1/GPa)
#
#
# Indices 1 2 3 4 5 6 
#
# 1 0.007868 -0.001022 0.000410 -0.001518 0.004174 0.000378
# 2 -0.001022 0.009944 -0.001805 0.002198 0.000517 -0.002658
# 3 0.000410 -0.001805 0.011595 0.000394 0.004869 0.001469
# 4 -0.001518 0.002198 0.000394 0.037304 -0.002926 0.001857
# 5 0.004174 0.000517 0.004869 -0.002926 0.027185 -0.002523
# 6 0.000378 -0.002658 0.001469 0.001857 -0.002523 0.028001
#
#
# Mechanical properties :
#
#
# Convention : Reuss Voigt Hill
#
# Bulk Modulus (GPa) = 40.69437 48.23941 44.46689
# Shear Modulus (GPa) = 37.05887 42.51250 39.78568
#
# Velocity S-wave (km/s) = 3.93725 4.21701 4.07953
# Velocity P-wave (km/s) = 6.13937 6.62493 6.38677
#
# Compressibility (1/GPa) = 0.02457342
#
# Stress axis : x y z
#
# Youngs Moduli (GPa) = 127.10054 100.56687 86.24567
#
# Poissons Ratio (x) = 0.10279 -0.03539
# Poissons Ratio (y) = 0.12991 0.15564
# Poissons Ratio (z) = -0.05216 0.18149
#
# Static dielectric constant tensor:
#      x y z
#    x 1.994550 -0.021890 -0.000560 
#    y -0.021890 1.927970 -0.005870 
#    z -0.000560 -0.005870 1.912530 
# 
# From -- ./inp_files/411098.got.cif
#   From: 2010.05.17/outbox.cif.g08.bks.cpg/sg2_206_cif.got.tgz:411098.got - 2010.06.03 11:33:40.
