data_PCOD9046740
_publ_section_title
;
Structure prediction by ZEFSAII (Michael W. Deem and Ramdas Pophale) SiO2 
 PCOD9046740
Probable space group: P -1
;
_chemical_formula_sum "Si O2"
_cell_formula_units_Z 16
_cell_length_a 8.950738
_cell_length_b 8.877692
_cell_length_c 25.012509
_cell_angle_alpha 133.127473
_cell_angle_beta 148.797674
_cell_angle_gamma 57.846939
_cell_volume 744.194545
_symmetry_space_group_name_H-M "P -1"
_symmetry_group_IT_number 2
_symmetry_cell_setting 'triclinic'
loop_
_space_group_symop_operation_xyz
x,y,z
-x,-y,-z
loop_
_atom_site_type_symbol
_atom_site_label
_atom_site_fract_x
_atom_site_fract_y
_atom_site_fract_z
Si Si1 0.006158 0.998894 0.064669
Si Si2 0.339193 0.460002 0.670206
Si Si3 0.741195 0.211029 0.125416
Si Si4 0.358933 0.874193 0.705540
Si Si5 0.814375 0.188793 0.480757
Si Si6 0.702221 0.564783 0.903269
Si Si7 0.254852 0.143822 0.467708
Si Si8 0.284652 0.284247 0.392496
O O1 0.341291 0.977630 0.172706
O O2 0.911219 0.191433 0.116319
O O3 0.000000 0.000000 0.000000
O O4 0.792892 0.799072 0.967930
O O5 0.373207 0.688497 0.708003
O O6 0.591556 0.442345 0.786009
O O7 0.317533 0.300992 0.575050
O O8 0.055598 0.395227 0.605856
O O9 0.557125 0.403001 0.126509
O O10 0.997773 0.225539 0.253085
O O11 0.500000 0.000000 0.000000
O O12 0.309307 0.782963 0.609250
O O13 0.070314 0.977995 0.653225
O O14 0.530088 0.136704 0.417443
O O15 0.000000 0.000000 0.500000
O O16 0.000000 0.500000 0.000000
O O17 0.230948 0.262601 0.433562
O O18 0.500000 0.000000 0.500000
O O19 0.500000 0.500000 0.500000
#
# Coordination Sequence:
#
# PCOD9046740 Si02
#       8
#     2   2   2   2   2   2   2   2
#     4  11  23  43  71  96 125 175 227 265 325 406
#     4  11  23  45  65  92 133 175 220 263 338 399
#     4  10  24  43  67  96 130 178 226 267 331 405
#     4  11  21  43  65  90 131 175 214 259 325 398
#     4  11  23  37  64  94 125 166 212 274 322 376
#     4  11  25  45  68  96 132 175 217 283 335 387
#     4  11  25  40  63  97 134 169 209 273 336 385
#     4  12  22  39  65  97 123 167 224 270 313 394
#
# _framework density 21.499755
#
# number of rings (size 3 to 8) (size 9 to 14) (size 15 to 20)
#    0.000    1.000    2.500    6.000    3.500    2.000 
#    2.250    0.625    0.000    0.000    0.000    0.000 
#    0.000    0.000    0.000    0.000    0.000    0.000 
#
# Total GULP energy -89092.823370 kJ/mol
# GULP energy per Si atom -5568.301461 kJ/mol
# Density = 2.145082 g / cm^3
# Si number density = 21.499755 Si / 1000 Ang^3
#
#
#
# Elastic Constant Matrix: (Units=GPa)
#
#
# Indices 1 2 3 4 5 6 
#
# 1 139.8092 18.0573 48.1810 -15.8793 -12.6556 -20.9647
# 2 18.0573 44.7849 11.4291 -16.7989 -15.0826 -15.3270
# 3 48.1810 11.4291 149.6024 -23.8834 -13.8632 -12.0248
# 4 -15.8793 -16.7989 -23.8834 32.8695 4.0454 9.9009
# 5 -12.6556 -15.0826 -13.8632 4.0454 41.0821 -6.2355
# 6 -20.9647 -15.3270 -12.0248 9.9009 -6.2355 40.0127
#
#
#
# Elastic Compliance Matrix: (Units=1/GPa)
#
#
# Indices 1 2 3 4 5 6 
#
# 1 0.008864 -0.000540 -0.002125 0.000999 0.002310 0.003911
# 2 -0.000540 0.036823 0.002057 0.014278 0.014643 0.013189
# 3 -0.002125 0.002057 0.008423 0.005445 0.002599 0.001264
# 4 0.000999 0.014278 0.005445 0.042553 0.002823 -0.002460
# 5 0.002310 0.014643 0.002599 0.002823 0.032853 0.012021
# 6 0.003911 0.013189 0.001264 -0.002460 0.012021 0.034956
#
#
# Mechanical properties :
#
#
# Convention : Reuss Voigt Hill
#
# Bulk Modulus (GPa) = 18.90588 54.39238 36.64913
# Shear Modulus (GPa) = 27.27488 39.89480 33.58484
#
# Velocity S-wave (km/s) = 3.56562 4.31233 3.95663
# Velocity P-wave (km/s) = 5.07584 7.08159 6.16089
#
# Compressibility (1/GPa) = 0.05289360
#
# Stress axis : x y z
#
# Youngs Moduli (GPa) = 112.81598 27.15721 118.71791
#
# Poissons Ratio (x) = 0.01466 0.25233
# Poissons Ratio (y) = 0.06092 -0.24423
# Poissons Ratio (z) = 0.23979 -0.05587
#
# Static dielectric constant tensor:
#      x y z
#    x 1.939260 -0.097050 0.034450 
#    y -0.097050 1.889110 -0.001000 
#    z 0.034450 -0.001000 1.879370 
# 
# From -- ./inp_files/379558.got.cif
#   From: 2010.05.17/outbox.cif.g08.bks.cpg/sg2_190_cif.got.tgz:379558.got - 2010.06.03 11:33:40.
