data_PCOD9046114
_publ_section_title
;
Structure prediction by ZEFSAII (Michael W. Deem and Ramdas Pophale) SiO2 
 PCOD9046114
Probable space group: P -1
;
_chemical_formula_sum "Si O2"
_cell_formula_units_Z 16
_cell_length_a 15.303507
_cell_length_b 8.996385
_cell_length_c 19.516877
_cell_angle_alpha 144.316526
_cell_angle_beta 144.538855
_cell_angle_gamma 29.184935
_cell_volume 709.908160
_symmetry_space_group_name_H-M "P -1"
_symmetry_group_IT_number 2
_symmetry_cell_setting 'triclinic'
loop_
_space_group_symop_operation_xyz
x,y,z
-x,-y,-z
loop_
_atom_site_type_symbol
_atom_site_label
_atom_site_fract_x
_atom_site_fract_y
_atom_site_fract_z
Si Si1 0.090991 0.139819 0.050041
Si Si2 0.815465 0.769252 0.714842
Si Si3 0.167671 0.555563 0.787659
Si Si4 0.668834 0.739934 0.960841
Si Si5 0.796385 0.561939 0.389167
Si Si6 0.428589 0.867973 0.081553
Si Si7 0.543175 0.661023 0.530538
Si Si8 0.473328 0.421684 0.671022
O O1 0.135098 0.078687 0.136262
O O2 0.274088 0.109353 0.129358
O O3 0.879602 0.476126 0.028837
O O4 0.119288 0.864215 0.915319
O O5 0.749392 0.583306 0.640248
O O6 0.992296 0.559738 0.697754
O O7 0.634746 0.047790 0.658454
O O8 0.192445 0.579888 0.732056
O O9 0.364481 0.218567 0.813369
O O10 0.584325 0.566540 0.812551
O O11 0.672632 0.955507 0.987210
O O12 0.500000 0.000000 0.000000
O O13 0.716319 0.451808 0.356316
O O14 0.000000 0.500000 0.500000
O O15 0.629009 0.951702 0.426329
O O16 0.500000 0.500000 0.000000
O O17 0.500000 0.500000 0.500000
O O18 0.550257 0.560116 0.418602
#
# Coordination Sequence:
#
# PCOD9046114 Si02
#       8
#     2   2   2   2   2   2   2   2
#     4  11  24  43  73 105 146 185 235 292 363 420
#     4  11  22  45  76  99 142 194 232 289 363 423
#     4  11  22  41  74 105 140 184 241 291 357 431
#     4  12  27  43  69 108 148 180 242 294 356 426
#     4  11  24  46  73 101 137 188 247 296 355 422
#     4  10  24  42  67  97 146 186 234 277 358 425
#     4  11  26  49  71 102 140 188 242 296 355 420
#     4  11  25  45  75 101 143 189 238 294 358 422
#
# _framework density 22.538126999999999
#
# number of rings (size 3 to 8) (size 9 to 14) (size 15 to 20)
#    0.000    1.000    1.250    6.000   10.500    0.000 
#    4.500    1.250    0.000    0.000    0.000    0.000 
#    0.000    0.000    0.000    0.000    0.000    0.000 
#
# Total GULP energy -89245.684516 kJ/mol
# GULP energy per Si atom -5577.855282 kJ/mol
# Density = 2.248683 g / cm^3
# Si number density = 22.538127 Si / 1000 Ang^3
#
#
#
# Elastic Constant Matrix: (Units=GPa)
#
#
# Indices 1 2 3 4 5 6 
#
# 1 191.2198 59.5867 34.9866 -7.4452 -13.8755 -16.2403
# 2 59.5867 99.7146 13.3536 -20.8741 4.7740 -24.6578
# 3 34.9866 13.3536 74.3700 -12.0524 -10.5561 -4.2620
# 4 -7.4452 -20.8741 -12.0524 26.1565 0.3761 5.6622
# 5 -13.8755 4.7740 -10.5561 0.3761 48.1982 -2.7581
# 6 -16.2403 -24.6578 -4.2620 5.6622 -2.7581 52.8080
#
#
#
# Elastic Compliance Matrix: (Units=1/GPa)
#
#
# Indices 1 2 3 4 5 6 
#
# 1 0.007214 -0.004589 -0.002756 -0.002967 0.001967 0.000274
# 2 -0.004589 0.016319 0.000956 0.011120 -0.002531 0.004961
# 3 -0.002756 0.000956 0.016142 0.007324 0.002605 0.000252
# 4 -0.002967 0.011120 0.007324 0.049756 -0.000768 -0.000504
# 5 0.001967 -0.002531 0.002605 -0.000768 0.022191 0.000875
# 6 0.000274 0.004961 0.000252 -0.000504 0.000875 0.021457
#
#
# Mechanical properties :
#
#
# Convention : Reuss Voigt Hill
#
# Bulk Modulus (GPa) = 37.17865 64.57312 50.87588
# Shear Modulus (GPa) = 32.29461 42.59103 37.44282
#
# Velocity S-wave (km/s) = 3.78946 4.35182 4.08034
# Velocity P-wave (km/s) = 5.97314 7.34602 6.69486
#
# Compressibility (1/GPa) = 0.02689716
#
# Stress axis : x y z
#
# Youngs Moduli (GPa) = 138.61095 61.27846 61.94938
#
# Poissons Ratio (x) = 0.28124 0.17072
# Poissons Ratio (y) = 0.63615 -0.05923
# Poissons Ratio (z) = 0.38198 -0.05858
#
# Static dielectric constant tensor:
#      x y z
#    x 2.039480 0.166050 0.340190 
#    y 0.166050 1.894230 0.161770 
#    z 0.340190 0.161770 2.275090 
# 
# From -- ./inp_files/572940.got.cif
#   From: 2010.05.17/outbox.cif.g08.bks.cpg/sg2_287_cif.got.tgz:572940.got - 2010.06.03 11:33:40.
