data_PCOD9046670
_publ_section_title
;
Structure prediction by ZEFSAII (Michael W. Deem and Ramdas Pophale) SiO2 
 PCOD9046670
Probable space group: P -1
;
_chemical_formula_sum "Si O2"
_cell_formula_units_Z 16
_cell_length_a 15.865222
_cell_length_b 5.133741
_cell_length_c 18.723123
_cell_angle_alpha 124.636423
_cell_angle_beta 30.026359
_cell_angle_gamma 114.985847
_cell_volume 618.788323
_symmetry_space_group_name_H-M "P -1"
_symmetry_group_IT_number 2
_symmetry_cell_setting 'triclinic'
loop_
_space_group_symop_operation_xyz
x,y,z
-x,-y,-z
loop_
_atom_site_type_symbol
_atom_site_label
_atom_site_fract_x
_atom_site_fract_y
_atom_site_fract_z
Si Si1 0.628085 0.485261 0.684645
Si Si2 0.007842 0.459308 0.573282
Si Si3 0.309229 0.175256 0.668446
Si Si4 0.533453 0.367058 0.033932
Si Si5 0.281250 0.238242 0.540366
Si Si6 0.382393 0.707154 0.790740
Si Si7 0.918436 0.196181 0.738798
Si Si8 0.017528 0.879703 0.048413
O O1 0.790832 0.647753 0.578261
O O2 0.458885 0.698253 0.811281
O O3 0.674321 0.152411 0.556398
O O4 0.596664 0.436183 0.783274
O O5 0.000000 0.500000 0.500000
O O6 0.926585 0.232119 0.651394
O O7 0.937947 0.836081 0.701151
O O8 0.282050 0.352377 0.639649
O O9 0.319982 0.379197 0.763837
O O10 0.151521 0.984207 0.760943
O O11 0.500000 0.000000 0.500000
O O12 0.726026 0.371101 0.920369
O O13 0.500000 0.500000 0.000000
O O14 0.500000 0.000000 0.000000
O O15 0.450168 0.301774 0.383818
O O16 0.089304 0.318963 0.661319
O O17 0.202422 0.941767 0.949119
O O18 0.000000 0.500000 0.000000
O O19 0.000000 0.000000 0.000000
#
# Coordination Sequence:
#
# PCOD9046670 Si02
#       8
#     2   2   2   2   2   2   2   2
#     4  11  25  43  69 103 139 179 228 293 347 413
#     4  11  22  43  70  99 132 175 224 283 350 419
#     4  11  22  43  71 100 142 190 235 283 339 411
#     4  12  28  49  73 103 139 184 230 287 360 423
#     4  11  24  43  68 106 141 184 234 286 344 407
#     4  11  23  44  69 100 143 185 233 285 348 407
#     4  11  24  43  67 102 137 175 230 282 341 412
#     4  10  24  43  66  98 135 186 234 281 341 401
#
# _framework density 25.856983
#
# number of rings (size 3 to 8) (size 9 to 14) (size 15 to 20)
#    0.000    1.000    2.500    3.750    5.250    2.000 
#    0.000    1.250    0.000    0.000    0.000    0.000 
#    0.000    0.000    0.000    0.000    0.000    0.000 
#
# Total GULP energy -89308.122217 kJ/mol
# GULP energy per Si atom -5581.757639 kJ/mol
# Density = 2.579813 g / cm^3
# Si number density = 25.856983 Si / 1000 Ang^3
#
#
#
# Elastic Constant Matrix: (Units=GPa)
#
#
# Indices 1 2 3 4 5 6 
#
# 1 90.3912 25.0698 21.6376 2.5170 -22.9061 -20.8140
# 2 25.0698 100.4314 10.8484 -10.3757 -7.3952 -18.8778
# 3 21.6376 10.8484 143.1678 -24.1498 -39.8486 -10.0849
# 4 2.5170 -10.3757 -24.1498 29.0582 -5.4240 5.8490
# 5 -22.9061 -7.3952 -39.8486 -5.4240 57.8931 -8.2461
# 6 -20.8140 -18.8778 -10.0849 5.8490 -8.2461 41.4200
#
#
#
# Elastic Compliance Matrix: (Units=1/GPa)
#
#
# Indices 1 2 3 4 5 6 
#
# 1 0.015375 -0.002010 -0.000163 -0.002645 0.006673 0.008472
# 2 -0.002010 0.011914 0.001381 0.005179 0.002816 0.004586
# 3 -0.000163 0.001381 0.011851 0.011439 0.009880 0.003784
# 4 -0.002645 0.005179 0.011439 0.048353 0.011928 -0.000637
# 5 0.006673 0.002816 0.009880 0.011928 0.029799 0.011290
# 6 0.008472 0.004586 0.003784 -0.000637 0.011290 0.033750
#
#
# Mechanical properties :
#
#
# Convention : Reuss Voigt Hill
#
# Bulk Modulus (GPa) = 26.62684 49.90021 38.26352
# Shear Modulus (GPa) = 30.27666 44.10324 37.18995
#
# Velocity S-wave (km/s) = 3.42559 4.13445 3.79660
# Velocity P-wave (km/s) = 5.09572 6.49091 5.83517
#
# Compressibility (1/GPa) = 0.03755610
#
# Stress axis : x y z
#
# Youngs Moduli (GPa) = 65.04008 83.93642 84.38299
#
# Poissons Ratio (x) = 0.16868 0.01379
# Poissons Ratio (y) = 0.13071 -0.11655
# Poissons Ratio (z) = 0.01063 -0.11594
#
# Static dielectric constant tensor:
#      x y z
#    x 2.049620 0.033240 0.010760 
#    y 0.033240 2.104750 0.068230 
#    z 0.010760 0.068230 2.123410 
# 
# From -- ./inp_files/536355.got.cif
#   From: 2010.05.17/outbox.cif.g08.bks.cpg/sg2_269_cif.got.tgz:536355.got - 2010.06.03 11:33:40.
