data_PCOD9046999
_publ_section_title
;
Structure prediction by ZEFSAII (Michael W. Deem and Ramdas Pophale) SiO2 
 PCOD9046999
Probable space group: P -1
;
_chemical_formula_sum "Si O2"
_cell_formula_units_Z 15
_cell_length_a 5.210783
_cell_length_b 22.286407
_cell_length_c 13.502792
_cell_angle_alpha 22.899544
_cell_angle_beta 110.335840
_cell_angle_gamma 112.416715
_cell_volume 564.025740
_symmetry_space_group_name_H-M "P -1"
_symmetry_group_IT_number 2
_symmetry_cell_setting 'triclinic'
loop_
_space_group_symop_operation_xyz
x,y,z
-x,-y,-z
loop_
_atom_site_type_symbol
_atom_site_label
_atom_site_fract_x
_atom_site_fract_y
_atom_site_fract_z
Si Si1 0.379257 0.003287 0.322327
Si Si2 0.573460 0.567919 0.514536
Si Si3 0.844384 0.706974 0.056538
Si Si4 0.887767 0.568536 0.736867
Si Si5 0.418862 0.288858 0.172330
Si Si6 0.911716 0.932407 0.198886
Si Si7 0.678459 0.150562 0.974065
Si Si8 0.500000 0.500000 0.000000
O O1 0.410344 0.848202 0.619928
O O2 0.158123 0.963720 0.265459
O O3 0.323734 0.156354 0.138297
O O4 0.660366 0.053786 0.220976
O O5 0.500000 0.500000 0.500000
O O6 0.331330 0.465793 0.700482
O O7 0.836459 0.536574 0.660623
O O8 0.562539 0.749850 0.228283
O O9 0.068135 0.716472 0.159627
O O10 0.851002 0.734919 0.896564
O O11 0.833041 0.745580 0.470598
O O12 0.191849 0.546415 0.844658
O O13 0.639124 0.457214 0.936020
O O14 0.370202 0.311929 0.245731
O O15 0.706029 0.039165 0.056606
O O16 0.000000 0.000000 0.000000
#
# Coordination Sequence:
#
# PCOD9046999 Si02
#       8
#     2   2   2   2   2   2   2   1
#     4  11  23  44  67 102 143 188 241 295 352 431
#     4  11  23  45  74 104 148 183 241 296 360 433
#     4  10  24  43  70 103 143 188 239 297 357 429
#     4  11  27  47  72 104 146 189 238 305 355 432
#     4  11  26  44  70 104 141 187 246 295 355 429
#     4  11  26  45  70 106 147 184 245 296 361 429
#     4  11  25  43  74 105 146 193 233 296 367 428
#     4  12  26  44  74 100 142 190 240 290 368 418
#
# _framework density 26.594532999999998
#
# number of rings (size 3 to 8) (size 9 to 14) (size 15 to 20)
#    0.000    1.067    2.667    2.000    5.600    5.867 
#    0.000    0.000    0.000    0.000    0.000    0.000 
#    0.000    0.000    0.000    0.000    0.000    0.000 
#
# Total GULP energy -83552.949081 kJ/mol
# GULP energy per Si atom -5570.196605 kJ/mol
# Density = 2.653400 g / cm^3
# Si number density = 26.594533 Si / 1000 Ang^3
#
#
#
# Elastic Constant Matrix: (Units=GPa)
#
#
# Indices 1 2 3 4 5 6 
#
# 1 55.4722 33.9772 30.6583 -5.3933 19.9339 -5.5426
# 2 33.9772 165.1443 35.9431 41.1341 12.5831 11.3126
# 3 30.6583 35.9431 148.9831 -14.7321 18.0445 11.0518
# 4 -5.3933 41.1341 -14.7321 38.3283 9.3291 6.9677
# 5 19.9339 12.5831 18.0445 9.3291 32.2986 -2.2374
# 6 -5.5426 11.3126 11.0518 6.9677 -2.2374 22.5764
#
#
#
# Elastic Compliance Matrix: (Units=1/GPa)
#
#
# Indices 1 2 3 4 5 6 
#
# 1 0.036636 -0.011726 0.000067 0.022681 -0.024255 0.005433
# 2 -0.011726 0.013654 -0.004048 -0.020193 0.009975 -0.000518
# 3 0.000067 -0.004048 0.010367 0.011673 -0.008144 -0.007440
# 4 0.022681 -0.020193 0.011673 0.065847 -0.032613 -0.013582
# 5 -0.024255 0.009975 -0.008144 -0.032613 0.056617 0.008710
# 6 0.005433 -0.000518 -0.007440 -0.013582 0.008710 0.054585
#
#
# Mechanical properties :
#
#
# Convention : Reuss Voigt Hill
#
# Bulk Modulus (GPa) = 34.19371 63.41744 48.80557
# Shear Modulus (GPa) = 17.92974 36.57541 27.25258
#
# Velocity S-wave (km/s) = 2.59933 3.71252 3.20463
# Velocity P-wave (km/s) = 4.67911 6.50192 5.66432
#
# Compressibility (1/GPa) = 0.02924515
#
# Stress axis : x y z
#
# Youngs Moduli (GPa) = 27.29555 73.23970 96.45663
#
# Poissons Ratio (x) = 0.85879 -0.00649
# Poissons Ratio (y) = 0.32006 0.39042
# Poissons Ratio (z) = -0.00184 0.29645
#
# Static dielectric constant tensor:
#      x y z
#    x 2.062960 0.234950 0.020730 
#    y 0.234950 1.913250 -0.118980 
#    z 0.020730 -0.118980 2.051630 
# 
# From -- ./inp_files/485955.got.cif
#   From: 2010.05.17/outbox.cif.g08.bks.cpg/sg2_243_cif.got.tgz:485955.got - 2010.06.03 11:33:40.
