data_PCOD9046523
_publ_section_title
;
Structure prediction by ZEFSAII (Michael W. Deem and Ramdas Pophale) SiO2 
 PCOD9046523
Probable space group: P -1
;
_chemical_formula_sum "Si O2"
_cell_formula_units_Z 14
_cell_length_a 7.800328
_cell_length_b 13.734049
_cell_length_c 11.223180
_cell_angle_alpha 36.616932
_cell_angle_beta 128.523741
_cell_angle_gamma 112.963587
_cell_volume 545.318596
_symmetry_space_group_name_H-M "P -1"
_symmetry_group_IT_number 2
_symmetry_cell_setting 'triclinic'
loop_
_space_group_symop_operation_xyz
x,y,z
-x,-y,-z
loop_
_atom_site_type_symbol
_atom_site_label
_atom_site_fract_x
_atom_site_fract_y
_atom_site_fract_z
Si Si1 0.337785 0.232034 0.388400
Si Si2 0.735022 0.064419 0.061773
Si Si3 0.824058 0.679814 0.257304
Si Si4 0.754015 0.446680 0.115103
Si Si5 0.574716 0.662760 0.415763
Si Si6 0.134117 0.804520 0.395689
Si Si7 0.350137 0.845746 0.794556
O O1 0.305159 0.306506 0.438010
O O2 0.605731 0.201718 0.505012
O O3 0.300689 0.043257 0.540770
O O4 0.206956 0.386054 0.096590
O O5 0.724735 0.134614 0.120764
O O6 0.671497 0.215012 0.795490
O O7 0.980634 0.951550 0.261196
O O8 0.500000 0.000000 0.000000
O O9 0.702445 0.693628 0.320294
O O10 0.000000 0.500000 0.500000
O O11 0.982679 0.808418 0.209787
O O12 0.618504 0.749622 0.008312
O O13 0.873489 0.364677 0.366474
O O14 0.767228 0.286311 0.191315
O O15 0.500000 0.500000 0.000000
O O16 0.500000 0.500000 0.500000
#
# Coordination Sequence:
#
# PCOD9046523 Si02
#       7
#     2   2   2   2   2   2   2
#     4  11  22  40  65  93 126 169 217 254 319 378
#     4  11  20  42  61  87 129 160 202 266 323 367
#     4  11  21  38  63  93 127 167 209 260 322 370
#     4  10  24  43  61  91 133 167 211 263 319 375
#     4  11  21  37  61  94 130 161 205 269 317 370
#     4  11  22  39  63  91 123 167 212 262 312 382
#     4  11  22  42  67  88 130 170 203 267 321 373
#
# _framework density 25.673064
#
# number of rings (size 3 to 8) (size 9 to 14) (size 15 to 20)
#    0.000    1.143    4.286    4.286    0.000    6.286 
#    0.000    4.286    0.000    0.000    0.000    0.000 
#    0.000    0.000    0.000    0.000    0.000    0.000 
#
# Total GULP energy -77966.270976 kJ/mol
# GULP energy per Si atom -5569.019355 kJ/mol
# Density = 2.561463 g / cm^3
# Si number density = 25.673064 Si / 1000 Ang^3
#
#
#
# Elastic Constant Matrix: (Units=GPa)
#
#
# Indices 1 2 3 4 5 6 
#
# 1 100.5030 23.4567 19.3120 -8.0833 2.3216 -18.9526
# 2 23.4567 129.3014 17.7918 -13.1607 4.5803 -11.5968
# 3 19.3120 17.7918 96.6463 -19.6759 8.1615 2.9266
# 4 -8.0833 -13.1607 -19.6759 44.4109 -4.2324 6.0870
# 5 2.3216 4.5803 8.1615 -4.2324 37.7329 -5.2258
# 6 -18.9526 -11.5968 2.9266 6.0870 -5.2258 37.9829
#
#
#
# Elastic Compliance Matrix: (Units=1/GPa)
#
#
# Indices 1 2 3 4 5 6 
#
# 1 0.011778 -0.001324 -0.002348 -0.000007 0.000740 0.005757
# 2 -0.001324 0.008433 -0.000996 0.001554 -0.000317 0.001698
# 3 -0.002348 -0.000996 0.012322 0.005001 -0.002330 -0.003547
# 4 -0.000007 0.001554 0.005001 0.025830 0.001087 -0.003905
# 5 0.000740 -0.000317 -0.002330 0.001087 0.027687 0.004087
# 6 0.005757 0.001698 -0.003547 -0.003905 0.004087 0.031180
#
#
# Mechanical properties :
#
#
# Convention : Reuss Voigt Hill
#
# Bulk Modulus (GPa) = 43.11125 49.73019 46.42072
# Shear Modulus (GPa) = 37.23039 41.75135 39.49087
#
# Velocity S-wave (km/s) = 3.81225 4.03708 3.92627
# Velocity P-wave (km/s) = 6.01718 6.41430 6.21891
#
# Compressibility (1/GPa) = 0.02319580
#
# Stress axis : x y z
#
# Youngs Moduli (GPa) = 84.90332 118.58406 81.15673
#
# Poissons Ratio (x) = 0.15704 0.19056
# Poissons Ratio (y) = 0.11243 0.08084
# Poissons Ratio (z) = 0.19936 0.11813
#
# Static dielectric constant tensor:
#      x y z
#    x 1.366400 -0.302020 0.372540 
#    y -0.302020 2.182130 0.122310 
#    z 0.372540 0.122310 1.967340 
# 
# From -- ./inp_files/398457.got.cif
#   From: 2010.05.17/outbox.cif.g08.bks.cpg/sg2_200_cif.got.tgz:398457.got - 2010.06.03 11:33:40.
