data_PCOD9046440
_publ_section_title
;
Structure prediction by ZEFSAII (Michael W. Deem and Ramdas Pophale) SiO2 
 PCOD9046440
Probable space group: P -1
;
_chemical_formula_sum "Si O2"
_cell_formula_units_Z 14
_cell_length_a 8.465994
_cell_length_b 8.715145
_cell_length_c 9.322628
_cell_angle_alpha 83.057469
_cell_angle_beta 116.621086
_cell_angle_gamma 104.415726
_cell_volume 595.531072
_symmetry_space_group_name_H-M "P -1"
_symmetry_group_IT_number 2
_symmetry_cell_setting 'triclinic'
loop_
_space_group_symop_operation_xyz
x,y,z
-x,-y,-z
loop_
_atom_site_type_symbol
_atom_site_label
_atom_site_fract_x
_atom_site_fract_y
_atom_site_fract_z
Si Si1 0.893657 0.722039 0.745034
Si Si2 0.175049 0.872174 0.042180
Si Si3 0.787216 0.802226 0.150537
Si Si4 0.607377 0.266476 0.088692
Si Si5 0.954969 0.518441 0.311780
Si Si6 0.699473 0.985798 0.621314
Si Si7 0.790434 0.054887 0.341991
O O1 0.725185 0.805113 0.667538
O O2 0.893275 0.546649 0.709912
O O3 0.041843 0.829589 0.683820
O O4 0.987817 0.751580 0.935907
O O5 0.320751 0.797127 0.022666
O O6 0.232386 0.916375 0.220538
O O7 0.159439 0.038722 0.942036
O O8 0.924535 0.689509 0.239836
O O9 0.760986 0.879703 0.285691
O O10 0.593148 0.711591 0.019833
O O11 0.759634 0.408773 0.197889
O O12 0.615956 0.123605 0.218533
O O13 0.000000 0.500000 0.500000
O O14 0.500000 0.000000 0.500000
O O15 0.813651 0.055189 0.519604
#
# Coordination Sequence:
#
# PCOD9046440 Si02
#       7
#     2   2   2   2   2   2   2
#     4   9  21  39  53  77 109 142 180 217 261 324
#     4   9  20  34  54  79 107 140 175 216 268 321
#     4  10  17  34  56  78 106 143 177 216 265 318
#     4   9  18  34  53  80 108 138 179 222 262 314
#     4  10  20  32  52  79 106 141 182 220 259 311
#     4  12  20  31  55  86 109 135 175 227 269 305
#     4   9  19  34  58  83 106 135 179 226 262 309
#
# _framework density 23.508430000000001
#
# number of rings (size 3 to 8) (size 9 to 14) (size 15 to 20)
#    0.000    2.857    0.000    5.571    0.000    3.429 
#    0.000    1.429    0.000   10.286    0.000   49.000 
#    0.000    0.000    0.000    0.000    0.000    0.000 
#
# Total GULP energy -78217.836607 kJ/mol
# GULP energy per Si atom -5586.988329 kJ/mol
# Density = 2.345492 g / cm^3
# Si number density = 23.508430 Si / 1000 Ang^3
#
#
#
# Elastic Constant Matrix: (Units=GPa)
#
#
# Indices 1 2 3 4 5 6 
#
# 1 40.4099 31.0823 52.3077 -2.5014 1.7679 -10.6978
# 2 31.0823 129.9094 75.7517 -1.4963 10.1051 -33.1046
# 3 52.3077 75.7517 187.8916 4.3761 -18.1784 -28.9723
# 4 -2.5014 -1.4963 4.3761 43.5932 -18.8610 10.4221
# 5 1.7679 10.1051 -18.1784 -18.8610 53.3034 -3.0241
# 6 -10.6978 -33.1046 -28.9723 10.4221 -3.0241 32.4405
#
#
#
# Elastic Compliance Matrix: (Units=1/GPa)
#
#
# Indices 1 2 3 4 5 6 
#
# 1 0.041241 -0.003504 -0.010508 0.001777 -0.003674 -0.000273
# 2 -0.003504 0.013282 -0.003085 -0.003747 -0.004186 0.010457
# 3 -0.010508 -0.003085 0.010453 -0.000624 0.004467 0.003339
# 4 0.001777 -0.003747 -0.000624 0.030551 0.010533 -0.012628
# 5 -0.003674 -0.004186 0.004467 0.010533 0.024781 -0.002568
# 6 -0.000273 0.010457 0.003339 -0.012628 -0.002568 0.048206
#
#
# Mechanical properties :
#
#
# Convention : Reuss Voigt Hill
#
# Bulk Modulus (GPa) = 32.48465 75.16604 53.82534
# Shear Modulus (GPa) = 23.47782 39.13871 31.30827
#
# Velocity S-wave (km/s) = 3.16365 4.08472 3.65333
# Velocity P-wave (km/s) = 5.21471 7.36818 6.38292
#
# Compressibility (1/GPa) = 0.03078377
#
# Stress axis : x y z
#
# Youngs Moduli (GPa) = 24.24768 75.29040 95.66917
#
# Poissons Ratio (x) = 0.26378 1.00525
# Poissons Ratio (y) = 0.08495 0.29512
# Poissons Ratio (z) = 0.25478 0.23226
#
# Static dielectric constant tensor:
#      x y z
#    x 2.012360 -0.014890 -0.001400 
#    y -0.014890 1.953270 -0.005950 
#    z -0.001400 -0.005950 1.895400 
# 
# From -- ./inp_files/417683.got.cif
#   From: 2010.05.17/outbox.cif.g08.bks.cpg/sg2_209_cif.got.tgz:417683.got - 2010.06.03 11:33:40.
