data_PCOD9046395
_publ_section_title
;
Structure prediction by ZEFSAII (Michael W. Deem and Ramdas Pophale) SiO2 
 PCOD9046395
Probable space group: P -1
;
_chemical_formula_sum "Si O2"
_cell_formula_units_Z 16
_cell_length_a 8.540399
_cell_length_b 8.441692
_cell_length_c 13.374913
_cell_angle_alpha 114.254398
_cell_angle_beta 91.617111
_cell_angle_gamma 51.178159
_cell_volume 648.277909
_symmetry_space_group_name_H-M "P -1"
_symmetry_group_IT_number 2
_symmetry_cell_setting 'triclinic'
loop_
_space_group_symop_operation_xyz
x,y,z
-x,-y,-z
loop_
_atom_site_type_symbol
_atom_site_label
_atom_site_fract_x
_atom_site_fract_y
_atom_site_fract_z
Si Si1 0.874394 0.267035 0.204502
Si Si2 0.589545 0.524735 0.103911
Si Si3 0.744572 0.737389 0.047326
Si Si4 0.547973 0.758449 0.437976
Si Si5 0.743386 0.789897 0.838390
Si Si6 0.597310 0.689408 0.642362
Si Si7 0.883214 0.915518 0.238150
Si Si8 0.727735 0.282580 0.677963
O O1 0.753934 0.289231 0.109842
O O2 0.723933 0.543642 0.308846
O O3 0.887055 0.106105 0.242759
O O4 0.105408 0.159409 0.151590
O O5 0.709013 0.606304 0.089256
O O6 0.388023 0.692804 0.216659
O O7 0.500000 0.500000 0.000000
O O8 0.507118 0.992357 0.104265
O O9 0.897322 0.767951 0.107614
O O10 0.794742 0.659891 0.911486
O O11 0.643791 0.622820 0.510627
O O12 0.318147 0.844520 0.429096
O O13 0.500000 0.000000 0.500000
O O14 0.762008 0.688547 0.703142
O O15 0.357173 0.940113 0.693660
O O16 0.601443 0.524363 0.675799
O O17 0.052251 0.799649 0.301384
#
# Coordination Sequence:
#
# PCOD9046395 Si02
#       8
#     2   2   2   2   2   2   2   2
#     4  11  26  45  67 104 143 185 244 295 355 428
#     4  11  24  42  68 102 151 188 234 292 351 418
#     4  10  24  43  70 105 143 189 231 287 355 426
#     4  11  27  48  73 101 142 187 241 305 359 416
#     4  10  24  42  72 100 143 183 240 280 357 422
#     4  11  24  48  71 100 146 183 237 301 347 424
#     4  11  25  44  73 104 144 184 238 292 358 429
#     4  11  25  46  72 103 140 188 238 293 363 420
#
# _framework density 24.680772999999999
#
# number of rings (size 3 to 8) (size 9 to 14) (size 15 to 20)
#    0.000    1.250    2.500    1.875   15.750    2.000 
#    0.000    0.000    0.000    0.000    0.000    0.000 
#    0.000    0.000    0.000    0.000    0.000    0.000 
#
# Total GULP energy -89288.787329 kJ/mol
# GULP energy per Si atom -5580.549208 kJ/mol
# Density = 2.462460 g / cm^3
# Si number density = 24.680773 Si / 1000 Ang^3
#
#
#
# Elastic Constant Matrix: (Units=GPa)
#
#
# Indices 1 2 3 4 5 6 
#
# 1 87.9092 28.8015 33.2084 0.7671 18.7060 -23.8076
# 2 28.8015 112.0352 39.1900 -23.9917 11.1449 -18.2303
# 3 33.2084 39.1900 129.8676 -32.6832 16.6881 -10.8735
# 4 0.7671 -23.9917 -32.6832 23.4437 5.1297 8.5518
# 5 18.7060 11.1449 16.6881 5.1297 28.9607 -20.3345
# 6 -23.8076 -18.2303 -10.8735 8.5518 -20.3345 36.9745
#
#
#
# Elastic Compliance Matrix: (Units=1/GPa)
#
#
# Indices 1 2 3 4 5 6 
#
# 1 0.029151 -0.012233 -0.026437 -0.080863 0.052216 0.052383
# 2 -0.012233 0.018863 0.015595 0.061540 -0.040757 -0.030638
# 3 -0.026437 0.015595 0.051126 0.140201 -0.100976 -0.082258
# 4 -0.080863 0.061540 0.140201 0.472403 -0.324080 -0.267987
# 5 0.052216 -0.040757 -0.100976 -0.324080 0.282403 0.214098
# 6 0.052383 -0.030638 -0.082258 -0.267987 0.214098 0.201206
#
#
# Mechanical properties :
#
#
# Convention : Reuss Voigt Hill
#
# Bulk Modulus (GPa) = 18.87125 59.13466 39.00295
# Shear Modulus (GPa) = 4.46842 33.11658 18.79250
#
# Velocity S-wave (km/s) = 1.34700 3.66703 2.76238
# Velocity P-wave (km/s) = 3.17521 6.47621 5.10016
#
# Compressibility (1/GPa) = 0.05299067
#
# Stress axis : x y z
#
# Youngs Moduli (GPa) = 34.30378 53.01490 19.55951
#
# Poissons Ratio (x) = 0.64854 0.51709
# Poissons Ratio (y) = 0.41965 -0.30504
# Poissons Ratio (z) = 0.90688 -0.82679
#
# Static dielectric constant tensor:
#      x y z
#    x 1.960210 -0.002820 0.030390 
#    y -0.002820 1.973560 0.080980 
#    z 0.030390 0.080980 2.056560 
# 
# From -- ./inp_files/225822.got.cif
#   From: 2010.05.17/outbox.cif.g08.bks.cpg/sg2_113_cif.got.tgz:225822.got - 2010.06.03 11:33:40.
