data_PCOD9046098
_publ_section_title
;
Structure prediction by ZEFSAII (Michael W. Deem and Ramdas Pophale) SiO2 
 PCOD9046098
Probable space group: P -1
;
_chemical_formula_sum "Si O2"
_cell_formula_units_Z 10
_cell_length_a 19.222948
_cell_length_b 5.215363
_cell_length_c 15.144058
_cell_angle_alpha 95.302941
_cell_angle_beta 159.880289
_cell_angle_gamma 75.707006
_cell_volume 459.714706
_symmetry_space_group_name_H-M "P -1"
_symmetry_group_IT_number 2
_symmetry_cell_setting 'triclinic'
loop_
_space_group_symop_operation_xyz
x,y,z
-x,-y,-z
loop_
_atom_site_type_symbol
_atom_site_label
_atom_site_fract_x
_atom_site_fract_y
_atom_site_fract_z
Si Si1 0.153632 0.328125 0.293398
Si Si2 0.370630 0.315851 0.312502
Si Si3 0.355609 0.026604 0.698042
Si Si4 0.396258 0.689646 0.570717
Si Si5 0.144118 0.153828 0.641204
O O1 0.216601 0.283826 0.471166
O O2 0.205326 0.004228 0.317023
O O3 0.323169 0.441698 0.460473
O O4 0.893488 0.547601 0.973958
O O5 0.500000 0.500000 0.500000
O O6 0.500000 0.000000 0.500000
O O7 0.386685 0.335686 0.225204
O O8 0.403335 0.746347 0.685098
O O9 0.207003 0.081918 0.610422
O O10 0.605759 0.982486 0.019416
O O11 0.000000 0.500000 0.500000
O O12 0.000000 0.000000 0.500000
#
# Coordination Sequence:
#
# PCOD9046098 Si02
#       5
#     2   2   2   2   2
#     4  10  24  42  67  90 128 166 211 258 311 375
#     4  12  26  42  64  97 126 165 216 258 318 370
#     4   9  26  42  66  96 126 168 214 246 324 371
#     4  10  24  42  67  90 128 166 211 258 311 375
#     4  11  26  41  68  94 132 163 208 263 308 376
#
# _framework density 21.752623
#
# number of rings (size 3 to 8) (size 9 to 14) (size 15 to 20)
#    1.200    0.400    0.000    2.400    8.400    6.400 
#    0.000    0.000    0.000    0.000    0.000    0.000 
#    0.000    0.000    0.000    0.000    0.000    0.000 
#
# Total GULP energy -55772.759367 kJ/mol
# GULP energy per Si atom -5577.275937 kJ/mol
# Density = 2.170311 g / cm^3
# Si number density = 21.752623 Si / 1000 Ang^3
#
#
#
# Elastic Constant Matrix: (Units=GPa)
#
#
# Indices 1 2 3 4 5 6 
#
# 1 133.1889 42.4062 39.4315 17.7064 15.5901 -2.1453
# 2 42.4062 107.1054 14.6233 13.7958 3.1649 19.8422
# 3 39.4315 14.6233 79.6734 2.6955 6.8707 13.3961
# 4 17.7064 13.7958 2.6955 23.8530 2.9730 5.5643
# 5 15.5901 3.1649 6.8707 2.9730 38.6893 1.4637
# 6 -2.1453 19.8422 13.3961 5.5643 1.4637 41.0801
#
#
#
# Elastic Compliance Matrix: (Units=1/GPa)
#
#
# Indices 1 2 3 4 5 6 
#
# 1 0.011713 -0.003923 -0.005475 -0.006656 -0.003116 0.005305
# 2 -0.003923 0.012258 0.000722 -0.002974 0.000905 -0.005990
# 3 -0.005475 0.000722 0.016142 0.003392 -0.000741 -0.006331
# 4 -0.006656 -0.002974 0.003392 0.049929 -0.001259 -0.006735
# 5 -0.003116 0.000905 -0.000741 -0.001259 0.027301 -0.001161
# 6 0.005305 -0.005990 -0.006331 -0.006735 -0.001161 0.030531
#
#
# Mechanical properties :
#
#
# Convention : Reuss Voigt Hill
#
# Bulk Modulus (GPa) = 43.93767 56.98773 50.46270
# Shear Modulus (GPa) = 28.93282 35.62492 32.27887
#
# Velocity S-wave (km/s) = 3.65099 4.05128 3.85633
# Velocity P-wave (km/s) = 6.16568 6.93821 6.56332
#
# Compressibility (1/GPa) = 0.02275951
#
# Stress axis : x y z
#
# Youngs Moduli (GPa) = 85.37304 81.58256 61.94983
#
# Poissons Ratio (x) = 0.32009 0.33918
# Poissons Ratio (y) = 0.33496 -0.04471
# Poissons Ratio (z) = 0.46742 -0.05888
#
# Static dielectric constant tensor:
#      x y z
#    x 1.901160 -0.086470 -0.000850 
#    y -0.086470 1.809130 -0.034670 
#    z -0.000850 -0.034670 1.738430 
# 
# From -- ./inp_files/2712.got.cif
#   From: 2010.05.17/outbox.cif.g08.bks.cpg/sg2_2_cif.got.tgz:2712.got - 2010.06.03 11:33:40.
