data_PCOD9046402
_publ_section_title
;
Structure prediction by ZEFSAII (Michael W. Deem and Ramdas Pophale) SiO2 
 PCOD9046402
Probable space group: P -1
;
_chemical_formula_sum "Si O2"
_cell_formula_units_Z 15
_cell_length_a 6.079026
_cell_length_b 6.362034
_cell_length_c 20.566765
_cell_angle_alpha 123.526011
_cell_angle_beta 90.217031
_cell_angle_gamma 80.522362
_cell_volume 650.353408
_symmetry_space_group_name_H-M "P -1"
_symmetry_group_IT_number 2
_symmetry_cell_setting 'triclinic'
loop_
_space_group_symop_operation_xyz
x,y,z
-x,-y,-z
loop_
_atom_site_type_symbol
_atom_site_label
_atom_site_fract_x
_atom_site_fract_y
_atom_site_fract_z
Si Si1 0.968642 0.585476 0.120183
Si Si2 0.725396 0.286531 0.968791
Si Si3 0.245532 0.189122 0.284090
Si Si4 0.561629 0.419030 0.559066
Si Si5 0.171546 0.390801 0.652243
Si Si6 0.656984 0.741356 0.852476
Si Si7 0.581375 0.696367 0.224691
Si Si8 0.000000 0.000000 0.500000
O O1 0.126529 0.722603 0.098605
O O2 0.113757 0.434277 0.152120
O O3 0.754069 0.764629 0.183081
O O4 0.880230 0.378453 0.039182
O O5 0.649581 0.016987 0.931485
O O6 0.500000 0.500000 0.000000
O O7 0.345173 0.356300 0.366058
O O8 0.341192 0.229475 0.219889
O O9 0.984178 0.322939 0.300490
O O10 0.346016 0.897516 0.255518
O O11 0.500000 0.500000 0.500000
O O12 0.346102 0.377357 0.591200
O O13 0.753623 0.168371 0.514071
O O14 0.304417 0.322776 0.707806
O O15 0.019433 0.186241 0.597438
O O16 0.465063 0.584025 0.842068
#
# Coordination Sequence:
#
# PCOD9046402 Si02
#       8
#     2   2   2   2   2   2   2   1
#     4  11  25  45  73 104 144 196 240 304 363 432
#     4  11  26  48  70 108 147 194 245 297 370 434
#     4  11  25  44  70 108 142 189 244 295 360 441
#     4  11  24  44  69 106 142 190 235 299 361 427
#     4  11  24  48  70 105 146 187 241 299 362 433
#     4  12  24  46  71 108 144 192 246 296 368 434
#     4  12  26  46  76 105 147 194 242 306 365 426
#     4  10  24  42  72 102 136 188 240 290 354 432
#
# _framework density 23.064381000000001
#
# number of rings (size 3 to 8) (size 9 to 14) (size 15 to 20)
#    0.000    0.800    2.667    4.000    0.000   10.667 
#    2.400    0.000    0.000    0.000    0.000    0.000 
#    0.000    0.000    0.000    0.000    0.000    0.000 
#
# Total GULP energy -83684.004524 kJ/mol
# GULP energy per Si atom -5578.933635 kJ/mol
# Density = 2.301189 g / cm^3
# Si number density = 23.064381 Si / 1000 Ang^3
#
#
#
# Elastic Constant Matrix: (Units=GPa)
#
#
# Indices 1 2 3 4 5 6 
#
# 1 76.7519 59.6155 33.1687 -8.2310 4.6498 -24.2864
# 2 59.6155 98.2406 48.8673 -0.0411 -2.1642 -17.9394
# 3 33.1687 48.8673 86.9088 -11.7835 13.6067 -1.6565
# 4 -8.2310 -0.0411 -11.7835 51.5388 0.0184 5.7502
# 5 4.6498 -2.1642 13.6067 0.0184 38.4763 5.1883
# 6 -24.2864 -17.9394 -1.6565 5.7502 5.1883 39.8057
#
#
#
# Elastic Compliance Matrix: (Units=1/GPa)
#
#
# Indices 1 2 3 4 5 6 
#
# 1 0.030016 -0.015714 -0.001070 0.003260 -0.005679 0.011456
# 2 -0.015714 0.024837 -0.009628 -0.004810 0.006562 0.001045
# 3 -0.001070 -0.009628 0.018901 0.004593 -0.006557 -0.004014
# 4 0.003260 -0.004810 0.004593 0.021284 -0.001920 -0.002812
# 5 -0.005679 0.006562 -0.006557 -0.001920 0.029960 -0.004408
# 6 0.011456 0.001045 -0.004014 -0.002812 -0.004408 0.033396
#
#
# Mechanical properties :
#
#
# Convention : Reuss Voigt Hill
#
# Bulk Modulus (GPa) = 47.77845 60.57824 54.17835
# Shear Modulus (GPa) = 22.91516 33.98080 28.44798
#
# Velocity S-wave (km/s) = 3.15545 3.84253 3.51581
# Velocity P-wave (km/s) = 5.83404 6.78296 6.32632
#
# Compressibility (1/GPa) = 0.02092994
#
# Stress axis : x y z
#
# Youngs Moduli (GPa) = 33.31584 40.26183 52.90617
#
# Poissons Ratio (x) = 0.63267 0.05663
# Poissons Ratio (y) = 0.52352 0.50939
# Poissons Ratio (z) = 0.03566 0.38764
#
# Static dielectric constant tensor:
#      x y z
#    x 1.883660 0.017930 -0.017610 
#    y 0.017930 1.843910 0.033030 
#    z -0.017610 0.033030 1.893060 
# 
# From -- ./inp_files/10387.got.cif
#   From: 2010.05.17/outbox.cif.g08.bks.cpg/sg2_6_cif.got.tgz:10387.got - 2010.06.03 11:33:40.
