data_PCOD9046618
_publ_section_title
;
Structure prediction by ZEFSAII (Michael W. Deem and Ramdas Pophale) SiO2 
 PCOD9046618
Probable space group: P -1
;
_chemical_formula_sum "Si O2"
_cell_formula_units_Z 16
_cell_length_a 8.412998
_cell_length_b 21.833542
_cell_length_c 12.575612
_cell_angle_alpha 31.054905
_cell_angle_beta 140.773085
_cell_angle_gamma 129.366608
_cell_volume 750.514320
_symmetry_space_group_name_H-M "P -1"
_symmetry_group_IT_number 2
_symmetry_cell_setting 'triclinic'
loop_
_space_group_symop_operation_xyz
x,y,z
-x,-y,-z
loop_
_atom_site_type_symbol
_atom_site_label
_atom_site_fract_x
_atom_site_fract_y
_atom_site_fract_z
Si Si1 0.041097 0.493169 0.406306
Si Si2 0.110074 0.803243 0.736566
Si Si3 0.229303 0.044441 0.338272
Si Si4 0.638498 0.694635 0.271689
Si Si5 0.587652 0.335514 0.372518
Si Si6 0.022233 0.883677 0.111853
Si Si7 0.803575 0.731343 0.870170
Si Si8 0.831098 0.628064 0.712125
O O1 0.810701 0.420683 0.355874
O O2 0.000000 0.500000 0.500000
O O3 0.284526 0.419834 0.593074
O O4 0.023262 0.629392 0.159747
O O5 0.881398 0.800389 0.704289
O O6 0.020662 0.725643 0.705586
O O7 0.148011 0.938184 0.526261
O O8 0.359628 0.745440 0.013252
O O9 0.248025 0.172106 0.210957
O O10 0.500000 0.000000 0.500000
O O11 0.040006 0.068206 0.108640
O O12 0.713915 0.658156 0.488160
O O13 0.817453 0.797092 0.176889
O O14 0.718938 0.200423 0.639685
O O15 0.430098 0.340746 0.174592
O O16 0.400370 0.365727 0.330738
O O17 0.000000 0.000000 0.000000
O O18 0.000000 0.500000 0.000000
#
# Coordination Sequence:
#
# PCOD9046618 Si02
#       8
#     2   2   2   2   2   2   2   2
#     4  11  25  43  67 101 131 176 228 275 342 404
#     4  11  26  45  68 102 137 178 229 277 341 408
#     4  12  24  43  68  98 132 179 229 279 331 401
#     4  11  24  44  70 100 136 180 222 283 341 401
#     4  10  24  43  66 101 132 176 226 283 338 405
#     4  11  23  44  67  98 135 179 231 279 339 404
#     4  11  24  44  66  96 137 176 219 280 342 403
#     4  11  26  45  70 103 140 180 223 282 347 407
#
# _framework density 21.318714
#
# number of rings (size 3 to 8) (size 9 to 14) (size 15 to 20)
#    0.000    1.000    1.250    5.250    5.250    3.000 
#    0.000    1.875    0.000    0.000    0.000    0.000 
#    0.000    0.000    0.000    0.000    0.000    0.000 
#
# Total GULP energy -89342.412398 kJ/mol
# GULP energy per Si atom -5583.900775 kJ/mol
# Density = 2.127019 g / cm^3
# Si number density = 21.318714 Si / 1000 Ang^3
#
#
#
# Elastic Constant Matrix: (Units=GPa)
#
#
# Indices 1 2 3 4 5 6 
#
# 1 53.7529 16.7603 18.4026 -6.8574 10.6980 -10.1635
# 2 16.7603 86.9617 24.8209 -3.8797 5.0702 -24.8766
# 3 18.4026 24.8209 123.8914 -4.8842 7.6693 -15.9328
# 4 -6.8574 -3.8797 -4.8842 44.3517 -5.1514 0.9175
# 5 10.6980 5.0702 7.6693 -5.1514 40.6374 -4.5505
# 6 -10.1635 -24.8766 -15.9328 0.9175 -4.5505 41.3899
#
#
#
# Elastic Compliance Matrix: (Units=1/GPa)
#
#
# Indices 1 2 3 4 5 6 
#
# 1 0.021746 -0.002533 -0.002034 0.002348 -0.004448 0.002493
# 2 -0.002533 0.014617 -0.001562 0.000565 0.000056 0.007555
# 3 -0.002034 -0.001562 0.008996 0.000418 -0.000697 0.001939
# 4 0.002348 0.000565 0.000418 0.023253 0.002271 0.000812
# 5 -0.004448 0.000056 -0.000697 0.002271 0.026362 0.001521
# 6 0.002493 0.007555 0.001939 0.000812 0.001521 0.030209
#
#
# Mechanical properties :
#
#
# Convention : Reuss Voigt Hill
#
# Bulk Modulus (GPa) = 30.21102 42.73041 36.47071
# Shear Modulus (GPa) = 33.67611 38.91726 36.29668
#
# Velocity S-wave (km/s) = 3.97879 4.27722 4.13070
# Velocity P-wave (km/s) = 5.94219 6.66933 6.31623
#
# Compressibility (1/GPa) = 0.03310050
#
# Stress axis : x y z
#
# Youngs Moduli (GPa) = 45.98509 68.41548 111.16588
#
# Poissons Ratio (x) = 0.17332 0.22612
# Poissons Ratio (y) = 0.11649 0.17359
# Poissons Ratio (z) = 0.09354 0.10684
#
# Static dielectric constant tensor:
#      x y z
#    x 1.796360 0.008380 -0.040770 
#    y 0.008380 1.804830 0.022960 
#    z -0.040770 0.022960 1.658780 
# 
# From -- ./inp_files/283297.got.cif
#   From: 2010.05.17/outbox.cif.g08.bks.cpg/sg2_142_cif.got.tgz:283297.got - 2010.06.03 11:33:40.
