data_PCOD9046420
_publ_section_title
;
Structure prediction by ZEFSAII (Michael W. Deem and Ramdas Pophale) SiO2 
 PCOD9046420
Probable space group: P -1
;
_chemical_formula_sum "Si O2"
_cell_formula_units_Z 15
_cell_length_a 5.383009
_cell_length_b 11.955390
_cell_length_c 17.140797
_cell_angle_alpha 133.268973
_cell_angle_beta 137.220385
_cell_angle_gamma 55.729281
_cell_volume 541.501567
_symmetry_space_group_name_H-M "P -1"
_symmetry_group_IT_number 2
_symmetry_cell_setting 'triclinic'
loop_
_space_group_symop_operation_xyz
x,y,z
-x,-y,-z
loop_
_atom_site_type_symbol
_atom_site_label
_atom_site_fract_x
_atom_site_fract_y
_atom_site_fract_z
Si Si1 0.874749 0.692804 0.321575
Si Si2 0.632683 0.749993 0.594588
Si Si3 0.509265 0.399559 0.139826
Si Si4 0.310496 0.277746 0.204990
Si Si5 0.676716 0.654398 0.091757
Si Si6 0.516038 0.977914 0.184684
Si Si7 0.345361 0.984483 0.373116
Si Si8 0.500000 0.500000 0.500000
O O1 0.606987 0.575747 0.237417
O O2 0.952224 0.658964 0.231812
O O3 0.669850 0.866333 0.354812
O O4 0.239751 0.677949 0.454675
O O5 0.584192 0.896005 0.710390
O O6 0.846911 0.589246 0.590707
O O7 0.731629 0.836719 0.583728
O O8 0.381750 0.341811 0.166054
O O9 0.891094 0.305960 0.152140
O O10 0.235142 0.364045 0.988845
O O11 0.414220 0.090102 0.141338
O O12 0.512941 0.372438 0.363467
O O13 0.394972 0.815125 0.105324
O O14 0.500000 0.500000 0.000000
O O15 0.952312 0.926048 0.253256
O O16 0.500000 0.000000 0.500000
#
# Coordination Sequence:
#
# PCOD9046420 Si02
#       8
#     2   2   2   2   2   2   2   1
#     4  11  22  43  70 104 144 190 237 296 360 430
#     4  11  22  43  65 104 145 179 233 293 363 423
#     4  11  27  49  72 107 143 196 242 297 351 424
#     4  11  27  47  75 107 146 188 242 296 360 425
#     4  10  24  47  72  98 141 190 242 295 354 428
#     4  11  25  43  70 105 137 187 239 294 360 427
#     4  12  24  36  67 104 142 185 225 297 362 430
#     4  10  24  42  72 104 144 190 228 296 356 442
#
# _framework density 27.700752999999999
#
# number of rings (size 3 to 8) (size 9 to 14) (size 15 to 20)
#    0.000    1.067    4.000    1.200    5.600    4.800 
#    0.000    4.667    0.000    0.000    0.000    0.000 
#    0.000    0.000    0.000    0.000    0.000    0.000 
#
# Total GULP energy -83528.372858 kJ/mol
# GULP energy per Si atom -5568.558191 kJ/mol
# Density = 2.763771 g / cm^3
# Si number density = 27.700753 Si / 1000 Ang^3
#
#
#
# Elastic Constant Matrix: (Units=GPa)
#
#
# Indices 1 2 3 4 5 6 
#
# 1 105.6553 51.0111 28.0277 -19.2108 -9.1881 12.2002
# 2 51.0111 187.0748 36.8531 35.5085 -10.9553 25.9958
# 3 28.0277 36.8531 122.2445 -6.9924 -24.3229 10.7902
# 4 -19.2108 35.5085 -6.9924 57.0024 13.9825 -0.4473
# 5 -9.1881 -10.9553 -24.3229 13.9825 31.1744 -16.9364
# 6 12.2002 25.9958 10.7902 -0.4473 -16.9364 61.2279
#
#
#
# Elastic Compliance Matrix: (Units=1/GPa)
#
#
# Indices 1 2 3 4 5 6 
#
# 1 0.013712 -0.005027 -0.001738 0.008387 -0.003493 -0.001197
# 2 -0.005027 0.008966 -0.001166 -0.008314 0.003581 -0.001670
# 3 -0.001738 -0.001166 0.010405 -0.000568 0.008132 0.001253
# 4 0.008387 -0.008314 -0.000568 0.029155 -0.015052 -0.001992
# 5 -0.003493 0.003581 0.008132 -0.015052 0.051918 0.011994
# 6 -0.001197 -0.001670 0.001253 -0.001992 0.011994 0.020362
#
#
# Mechanical properties :
#
#
# Convention : Reuss Voigt Hill
#
# Bulk Modulus (GPa) = 58.06755 71.86203 64.96479
# Shear Modulus (GPa) = 32.02664 49.81980 40.92322
#
# Velocity S-wave (km/s) = 3.40393 4.24547 3.84778
# Velocity P-wave (km/s) = 6.03796 7.07323 6.57600
#
# Compressibility (1/GPa) = 0.01722132
#
# Stress axis : x y z
#
# Youngs Moduli (GPa) = 72.92838 111.53833 96.10566
#
# Poissons Ratio (x) = 0.56067 0.16704
# Poissons Ratio (y) = 0.36659 0.11205
# Poissons Ratio (z) = 0.12676 0.13005
#
# Static dielectric constant tensor:
#      x y z
#    x 2.302740 -0.335540 -0.007240 
#    y -0.335540 1.976410 -0.067420 
#    z -0.007240 -0.067420 2.277080 
# 
# From -- ./inp_files/549587.got.cif
#   From: 2010.05.17/outbox.cif.g08.bks.cpg/sg2_275_cif.got.tgz:549587.got - 2010.06.03 11:33:40.
