data_PCOD9046213
_publ_section_title
;
Structure prediction by ZEFSAII (Michael W. Deem and Ramdas Pophale) SiO2 
 PCOD9046213
Probable space group: P -1
;
_chemical_formula_sum "Si O2"
_cell_formula_units_Z 16
_cell_length_a 14.696513
_cell_length_b 5.762436
_cell_length_c 21.816681
_cell_angle_alpha 98.059934
_cell_angle_beta 23.168239
_cell_angle_gamma 99.016348
_cell_volume 717.890014
_symmetry_space_group_name_H-M "P -1"
_symmetry_group_IT_number 2
_symmetry_cell_setting 'triclinic'
loop_
_space_group_symop_operation_xyz
x,y,z
-x,-y,-z
loop_
_atom_site_type_symbol
_atom_site_label
_atom_site_fract_x
_atom_site_fract_y
_atom_site_fract_z
Si Si1 0.737731 0.908325 0.829869
Si Si2 0.828523 0.509300 0.048676
Si Si3 0.917030 0.803936 0.591681
Si Si4 0.029878 0.724904 0.731908
Si Si5 0.500529 0.023754 0.573792
Si Si6 0.974240 0.998429 0.901468
Si Si7 0.286580 0.520524 0.400517
Si Si8 0.839092 0.708570 0.401632
O O1 0.736528 0.863451 0.757238
O O2 0.814907 0.697780 0.817093
O O3 0.953135 0.092568 0.717893
O O4 0.500000 0.000000 0.000000
O O5 0.894201 0.755816 0.979432
O O6 0.847524 0.243647 0.996996
O O7 0.562068 0.535519 0.233795
O O8 0.000000 0.500000 0.000000
O O9 0.790904 0.606231 0.619856
O O10 0.146096 0.750884 0.486867
O O11 0.000000 0.000000 0.500000
O O12 0.083600 0.463011 0.706764
O O13 0.979955 0.899792 0.824180
O O14 0.278147 0.793312 0.547122
O O15 0.590113 0.793653 0.540929
O O16 0.243892 0.067563 0.754776
O O17 0.500000 0.000000 0.500000
O O18 0.181242 0.386166 0.520032
#
# Coordination Sequence:
#
# PCOD9046213 Si02
#       8
#     2   2   2   2   2   2   2   2
#     4  11  25  41  69 103 142 179 235 312 373 429
#     4  12  29  48  74 108 150 193 243 307 371 441
#     4  11  24  47  72 101 142 191 254 299 368 443
#     4  10  24  42  69 100 137 185 237 292 368 439
#     4   9  22  40  68  97 139 183 237 288 360 447
#     4  11  27  45  70 109 145 189 236 303 373 428
#     4  11  26  44  74 101 137 198 250 299 364 450
#     4  11  22  43  69 101 133 189 240 299 360 445
#
# _framework density 22.287537
#
# number of rings (size 3 to 8) (size 9 to 14) (size 15 to 20)
#    0.000    1.250    2.500    1.125   12.250    1.500 
#    0.000    0.000    0.000    0.000    0.000    0.000 
#    0.000    0.000    0.000    0.000    0.000    0.000 
#
# Total GULP energy -89148.174701 kJ/mol
# GULP energy per Si atom -5571.760919 kJ/mol
# Density = 2.223681 g / cm^3
# Si number density = 22.287537 Si / 1000 Ang^3
#
#
#
# Elastic Constant Matrix: (Units=GPa)
#
#
# Indices 1 2 3 4 5 6 
#
# 1 99.1591 15.8438 25.4097 8.3494 4.8821 -6.7044
# 2 15.8438 70.8907 19.8900 9.7110 14.8251 -4.3574
# 3 25.4097 19.8900 130.8936 17.3231 -4.9529 -11.7028
# 4 8.3494 9.7110 17.3231 26.5115 2.1922 1.5778
# 5 4.8821 14.8251 -4.9529 2.1922 34.1406 6.8294
# 6 -6.7044 -4.3574 -11.7028 1.5778 6.8294 48.9977
#
#
#
# Elastic Compliance Matrix: (Units=1/GPa)
#
#
# Indices 1 2 3 4 5 6 
#
# 1 0.011031 -0.001400 -0.001621 -0.001866 -0.001334 0.001244
# 2 -0.001400 0.017265 -0.001912 -0.004120 -0.007729 0.002097
# 3 -0.001621 -0.001912 0.009151 -0.005063 0.002390 0.001624
# 4 -0.001866 -0.004120 -0.005063 0.043379 -0.000842 -0.003110
# 5 -0.001334 -0.007729 0.002390 -0.000842 0.034248 -0.005046
# 6 0.001244 0.002097 0.001624 -0.003110 -0.005046 0.021957
#
#
# Mechanical properties :
#
#
# Convention : Reuss Voigt Hill
#
# Bulk Modulus (GPa) = 36.25539 47.02561 41.64050
# Shear Modulus (GPa) = 32.03319 37.91662 34.97490
#
# Velocity S-wave (km/s) = 3.79525 4.12909 3.96568
# Velocity P-wave (km/s) = 5.95883 6.62404 6.30022
#
# Compressibility (1/GPa) = 0.02758211
#
# Stress axis : x y z
#
# Youngs Moduli (GPa) = 90.65628 57.92064 109.28309
#
# Poissons Ratio (x) = 0.08106 0.17715
# Poissons Ratio (y) = 0.12688 0.20890
# Poissons Ratio (z) = 0.14695 0.11072
#
# Static dielectric constant tensor:
#      x y z
#    x 1.824270 0.007740 -0.002940 
#    y 0.007740 2.039760 0.040360 
#    z -0.002940 0.040360 1.772550 
# 
# From -- ./inp_files/101142.got.cif
#   From: 2010.05.17/outbox.cif.g08.bks.cpg/sg2_51_cif.got.tgz:101142.got - 2010.06.03 11:33:40.
