data_PCOD9046482
_publ_section_title
;
Structure prediction by ZEFSAII (Michael W. Deem and Ramdas Pophale) SiO2 
 PCOD9046482
Probable space group: P -1
;
_chemical_formula_sum "Si O2"
_cell_formula_units_Z 15
_cell_length_a 12.924749
_cell_length_b 8.311677
_cell_length_c 9.511752
_cell_angle_alpha 53.722613
_cell_angle_beta 133.070904
_cell_angle_gamma 105.257896
_cell_volume 584.275725
_symmetry_space_group_name_H-M "P -1"
_symmetry_group_IT_number 2
_symmetry_cell_setting 'triclinic'
loop_
_space_group_symop_operation_xyz
x,y,z
-x,-y,-z
loop_
_atom_site_type_symbol
_atom_site_label
_atom_site_fract_x
_atom_site_fract_y
_atom_site_fract_z
Si Si1 0.392295 0.068003 0.998348
Si Si2 0.346496 0.015193 0.542437
Si Si3 0.322717 0.401553 0.143630
Si Si4 0.657927 0.350264 0.723485
Si Si5 0.112386 0.152914 0.506364
Si Si6 0.760750 0.309263 0.538071
Si Si7 0.500000 0.500000 0.000000
Si Si8 0.964990 0.579230 0.269227
O O1 0.509977 0.145864 0.170005
O O2 0.360120 0.876563 0.150615
O O3 0.234891 0.158045 0.738438
O O4 0.500000 0.000000 0.000000
O O5 0.384545 0.207419 0.402097
O O6 0.217000 0.084493 0.501584
O O7 0.290426 0.895602 0.429862
O O8 0.260298 0.584743 0.100657
O O9 0.434052 0.480766 0.107668
O O10 0.201248 0.339396 0.967200
O O11 0.500000 0.500000 0.500000
O O12 0.721728 0.392722 0.613282
O O13 0.021572 0.387513 0.314327
O O14 0.000000 0.000000 0.500000
O O15 0.934535 0.261553 0.724585
O O16 0.672097 0.450790 0.258490
O O17 0.000000 0.500000 0.500000
#
# Coordination Sequence:
#
# PCOD9046482 Si02
#       8
#     2   2   2   2   2   2   1   2
#     4  10  24  42  74 104 146 186 248 302 364 430
#     4  11  26  48  72 113 147 196 248 314 368 434
#     4  12  27  50  77 107 153 192 251 306 378 445
#     4  12  24  46  71 111 144 190 245 310 369 433
#     4  11  25  45  75 109 154 198 246 305 379 446
#     4  12  28  45  75 109 150 193 251 304 373 442
#     4  12  26  44  80 104 142 200 246 308 358 446
#     4  12  27  47  74 111 148 197 244 301 373 453
#
# _framework density 25.672812
#
# number of rings (size 3 to 8) (size 9 to 14) (size 15 to 20)
#    0.000    0.533    4.000    2.400    7.467    6.933 
#    0.000    0.000    0.000    0.000    0.000    0.000 
#    0.000    0.000    0.000    0.000    0.000    0.000 
#
# Total GULP energy -83639.318329 kJ/mol
# GULP energy per Si atom -5575.954555 kJ/mol
# Density = 2.561438 g / cm^3
# Si number density = 25.672812 Si / 1000 Ang^3
#
#
#
# Elastic Constant Matrix: (Units=GPa)
#
#
# Indices 1 2 3 4 5 6 
#
# 1 83.1775 23.6483 48.5922 3.1622 -20.7495 10.5089
# 2 23.6483 88.0018 21.0279 38.1508 1.8858 17.3128
# 3 48.5922 21.0279 117.3112 30.3293 7.8972 19.1068
# 4 3.1622 38.1508 30.3293 56.4622 4.5183 2.6568
# 5 -20.7495 1.8858 7.8972 4.5183 45.2355 11.2593
# 6 10.5089 17.3128 19.1068 2.6568 11.2593 45.1438
#
#
#
# Elastic Compliance Matrix: (Units=1/GPa)
#
#
# Indices 1 2 3 4 5 6 
#
# 1 0.023918 -0.007550 -0.011488 0.008982 0.012774 -0.001525
# 2 -0.007550 0.020249 0.004657 -0.015294 -0.001952 -0.006592
# 3 -0.011488 0.004657 0.016210 -0.010529 -0.006301 -0.003782
# 4 0.008982 -0.015294 -0.010529 0.032773 0.001870 0.005835
# 5 0.012774 -0.001952 -0.006301 0.001870 0.030789 -0.007347
# 6 -0.001525 -0.006592 -0.003782 0.005835 -0.007347 0.028124
#
#
# Mechanical properties :
#
#
# Convention : Reuss Voigt Hill
#
# Bulk Modulus (GPa) = 31.63077 52.78080 42.20579
# Shear Modulus (GPa) = 26.12845 42.38313 34.25579
#
# Velocity S-wave (km/s) = 3.19368 4.06753 3.65680
# Velocity P-wave (km/s) = 5.09381 6.53172 5.85706
#
# Compressibility (1/GPa) = 0.03161478
#
# Stress axis : x y z
#
# Youngs Moduli (GPa) = 41.80993 49.38632 61.69035
#
# Poissons Ratio (x) = 0.37287 0.70867
# Poissons Ratio (y) = 0.31567 -0.28729
# Poissons Ratio (z) = 0.48030 -0.22999
#
# Static dielectric constant tensor:
#      x y z
#    x 2.326430 0.128590 -0.318000 
#    y 0.128590 2.260480 -0.108140 
#    z -0.318000 -0.108140 2.477990 
# 
# From -- ./inp_files/242776.got.cif
#   From: 2010.05.17/outbox.cif.g08.bks.cpg/sg2_122_cif.got.tgz:242776.got - 2010.06.03 11:33:40.
