data_PCOD9046024
_publ_section_title
;
Structure prediction by ZEFSAII (Michael W. Deem and Ramdas Pophale) SiO2 
 PCOD9046024
Probable space group: P -1
;
_chemical_formula_sum "Si O2"
_cell_formula_units_Z 15
_cell_length_a 25.320191
_cell_length_b 12.371897
_cell_length_c 5.105727
_cell_angle_alpha 58.628843
_cell_angle_beta 65.182447
_cell_angle_gamma 26.239277
_cell_volume 599.020715
_symmetry_space_group_name_H-M "P -1"
_symmetry_group_IT_number 2
_symmetry_cell_setting 'triclinic'
loop_
_space_group_symop_operation_xyz
x,y,z
-x,-y,-z
loop_
_atom_site_type_symbol
_atom_site_label
_atom_site_fract_x
_atom_site_fract_y
_atom_site_fract_z
Si Si1 0.820604 0.285647 0.615637
Si Si2 0.286117 0.304305 0.377961
Si Si3 0.639102 0.475381 0.460050
Si Si4 0.666527 0.167620 0.513449
Si Si5 0.063863 0.438500 0.193151
Si Si6 0.500000 0.000000 0.000000
Si Si7 0.056530 0.739164 0.979048
Si Si8 0.578551 0.199072 0.144801
O O1 0.712787 0.571144 0.608384
O O2 0.763271 0.281290 0.580030
O O3 0.883661 0.266575 0.317492
O O4 0.919763 0.046403 0.916749
O O5 0.340149 0.081347 0.693767
O O6 0.376477 0.156336 0.138340
O O7 0.148539 0.547373 0.269868
O O8 0.665265 0.317968 0.392524
O O9 0.548020 0.598840 0.718761
O O10 0.574984 0.722560 0.171204
O O11 0.639040 0.174308 0.269059
O O12 0.797068 0.864736 0.699691
O O13 0.577915 0.268310 0.780320
O O14 0.000000 0.500000 0.500000
O O15 0.052214 0.612271 0.006612
O O16 0.000000 0.500000 0.000000
#
# Coordination Sequence:
#
# PCOD9046024 Si02
#       8
#     2   2   2   2   2   1   2   2
#     4  11  25  44  72 104 144 193 243 300 363 435
#     4  11  23  43  72 102 146 190 242 296 367 434
#     4  11  25  45  71 111 146 189 248 300 366 438
#     4  12  25  49  74 108 148 194 247 300 368 434
#     4  12  27  46  74 105 143 191 243 300 361 427
#     4  10  24  42  66 106 140 182 236 294 356 432
#     4  11  24  47  69 104 145 187 247 296 366 433
#     4  11  26  45  78 107 148 196 243 304 364 436
#
# _framework density 25.040870000000002
#
# number of rings (size 3 to 8) (size 9 to 14) (size 15 to 20)
#    0.000    0.800    2.667    3.600    1.867    6.400 
#    0.000    0.000    0.000    0.000    0.000    0.000 
#    0.000    0.000    0.000    0.000    0.000    0.000 
#
# Total GULP energy -83886.565510 kJ/mol
# GULP energy per Si atom -5592.437701 kJ/mol
# Density = 2.498388 g / cm^3
# Si number density = 25.040870 Si / 1000 Ang^3
#
#
#
# Elastic Constant Matrix: (Units=GPa)
#
#
# Indices 1 2 3 4 5 6 
#
# 1 143.8648 27.4192 44.2349 -5.9990 -1.2209 2.4865
# 2 27.4192 93.3849 34.0145 -18.7441 -7.6139 6.9926
# 3 44.2349 34.0145 106.1242 -11.4574 -2.3400 6.4091
# 4 -5.9990 -18.7441 -11.4574 42.5350 15.9407 -10.3336
# 5 -1.2209 -7.6139 -2.3400 15.9407 32.5217 -0.0229
# 6 2.4865 6.9926 6.4091 -10.3336 -0.0229 36.7320
#
#
#
# Elastic Compliance Matrix: (Units=1/GPa)
#
#
# Indices 1 2 3 4 5 6 
#
# 1 0.008114 -0.001354 -0.002979 -0.000153 -0.000152 0.000185
# 2 -0.001354 0.013237 -0.003151 0.004385 0.000672 -0.000644
# 3 -0.002979 -0.003151 0.011867 0.001441 -0.000703 -0.000864
# 4 -0.000153 0.004385 0.001441 0.033587 -0.015332 0.008363
# 5 -0.000152 0.000672 -0.000703 -0.015332 0.038362 -0.004284
# 6 0.000185 -0.000644 -0.000864 0.008363 -0.004284 0.029835
#
#
# Mechanical properties :
#
#
# Convention : Reuss Voigt Hill
#
# Bulk Modulus (GPa) = 54.79692 61.63456 58.21574
# Shear Modulus (GPa) = 32.04014 38.20476 35.12245
#
# Velocity S-wave (km/s) = 3.58091 3.91025 3.74920
# Velocity P-wave (km/s) = 6.24722 6.71221 6.48388
#
# Compressibility (1/GPa) = 0.01824920
#
# Stress axis : x y z
#
# Youngs Moduli (GPa) = 123.24013 75.54631 84.26768
#
# Poissons Ratio (x) = 0.10231 0.25105
# Poissons Ratio (y) = 0.16690 0.26553
# Poissons Ratio (z) = 0.36715 0.23805
#
# Static dielectric constant tensor:
#      x y z
#    x 1.958390 -0.009550 0.024280 
#    y -0.009550 1.959080 -0.007140 
#    z 0.024280 -0.007140 1.982740 
# 
# From -- ./inp_files/112969.got.cif
#   From: 2010.05.17/outbox.cif.g08.bks.cpg/sg2_57_cif.got.tgz:112969.got - 2010.06.03 11:33:40.
