data_PCOD9046766
_publ_section_title
;
Structure prediction by ZEFSAII (Michael W. Deem and Ramdas Pophale) SiO2 
 PCOD9046766
Probable space group: P -1
;
_chemical_formula_sum "Si O2"
_cell_formula_units_Z 16
_cell_length_a 9.785712
_cell_length_b 12.025983
_cell_length_c 12.508355
_cell_angle_alpha 87.484286
_cell_angle_beta 54.589789
_cell_angle_gamma 124.456882
_cell_volume 824.127132
_symmetry_space_group_name_H-M "P -1"
_symmetry_group_IT_number 2
_symmetry_cell_setting 'triclinic'
loop_
_space_group_symop_operation_xyz
x,y,z
-x,-y,-z
loop_
_atom_site_type_symbol
_atom_site_label
_atom_site_fract_x
_atom_site_fract_y
_atom_site_fract_z
Si Si1 0.147321 0.822949 0.689001
Si Si2 0.206737 0.743628 0.096610
Si Si3 0.582700 0.947399 0.622379
Si Si4 0.528986 0.957251 0.146796
Si Si5 0.402280 0.665933 0.279628
Si Si6 0.904151 0.449991 0.376382
Si Si7 0.709050 0.376958 0.115610
Si Si8 0.353669 0.413837 0.958202
O O1 0.374631 0.921057 0.660854
O O2 0.125793 0.688082 0.652887
O O3 0.198587 0.936050 0.566154
O O4 0.916469 0.738836 0.869093
O O5 0.368442 0.855613 0.119311
O O6 0.957023 0.569235 0.258026
O O7 0.333926 0.706423 0.974162
O O8 0.226107 0.858161 0.003863
O O9 0.459616 0.770284 0.716504
O O10 0.629110 0.037649 0.706040
O O11 0.562544 0.854436 0.188893
O O12 0.311854 0.616821 0.444756
O O13 0.535014 0.628159 0.164394
O O14 0.151987 0.562844 0.329493
O O15 0.651321 0.476437 0.114896
O O16 0.000000 0.500000 0.000000
O O17 0.500000 0.500000 0.000000
#
# Coordination Sequence:
#
# PCOD9046766 Si02
#       8
#     2   2   2   2   2   2   2   2
#     4  11  20  37  60  88 116 158 205 245 294 356
#     4   9  17  29  56  82 110 145 201 239 281 348
#     4  10  21  35  62  87 116 159 208 241 290 367
#     4   9  17  32  50  84 113 147 189 244 289 348
#     4  10  20  32  55  82 117 148 194 243 299 339
#     4  10  17  34  56  83 108 158 198 238 285 362
#     4  11  20  38  62  90 116 162 204 244 297 360
#     4  12  22  37  60  93 122 152 201 259 293 348
#
# _framework density 19.414480000000001
#
# number of rings (size 3 to 8) (size 9 to 14) (size 15 to 20)
#    0.000    1.750    5.000    0.750    0.000    0.000 
#    0.000    2.500    0.000    3.000    0.000    0.000 
#    0.000    0.000    0.000    0.000    0.000    0.000 
#
# Total GULP energy -89137.690771 kJ/mol
# GULP energy per Si atom -5571.105673 kJ/mol
# Density = 1.937029 g / cm^3
# Si number density = 19.414480 Si / 1000 Ang^3
#
#
#
# Elastic Constant Matrix: (Units=GPa)
#
#
# Indices 1 2 3 4 5 6 
#
# 1 44.6536 20.3430 41.5198 -8.2081 10.9209 -29.9154
# 2 20.3430 82.4981 60.0896 -8.4261 8.3606 -35.1663
# 3 41.5198 60.0896 164.4445 -3.4133 23.6655 -45.0780
# 4 -8.2081 -8.4261 -3.4133 28.4583 -11.8562 9.6016
# 5 10.9209 8.3606 23.6655 -11.8562 29.8995 -7.6676
# 6 -29.9154 -35.1663 -45.0780 9.6016 -7.6676 41.4075
#
#
#
# Elastic Compliance Matrix: (Units=1/GPa)
#
#
# Indices 1 2 3 4 5 6 
#
# 1 0.048124 0.006576 -0.004091 0.000794 -0.007039 0.034411
# 2 0.006576 0.021614 -0.004815 0.002098 0.000687 0.017506
# 3 -0.004091 -0.004815 0.011194 -0.005958 -0.007044 0.005219
# 4 0.000794 0.002098 -0.005958 0.047338 0.019670 -0.011465
# 5 -0.007039 0.000687 -0.007044 0.019670 0.047148 -0.008001
# 6 0.034411 0.017506 0.005219 -0.011465 -0.008001 0.070737
#
#
# Mechanical properties :
#
#
# Convention : Reuss Voigt Hill
#
# Bulk Modulus (GPa) = 13.11102 59.50012 36.30557
# Shear Modulus (GPa) = 18.10034 31.26264 24.68149
#
# Velocity S-wave (km/s) = 3.05669 4.01718 3.56939
# Velocity P-wave (km/s) = 4.38471 7.22709 5.97731
#
# Compressibility (1/GPa) = 0.07627174
#
# Stress axis : x y z
#
# Youngs Moduli (GPa) = 20.77976 46.26672 89.33364
#
# Poissons Ratio (x) = -0.30425 0.36548
# Poissons Ratio (y) = -0.13665 0.43011
# Poissons Ratio (z) = 0.08501 0.22276
#
# Static dielectric constant tensor:
#      x y z
#    x 1.724600 0.014920 0.082440 
#    y 0.014920 1.723100 -0.033410 
#    z 0.082440 -0.033410 1.762600 
# 
# From -- ./inp_files/390929.got.cif
#   From: 2010.05.17/outbox.cif.g08.bks.cpg/sg2_196_cif.got.tgz:390929.got - 2010.06.03 11:33:40.
