data_PCOD9046812
_publ_section_title
;
Structure prediction by ZEFSAII (Michael W. Deem and Ramdas Pophale) SiO2 
 PCOD9046812
Probable space group: P -1
;
_chemical_formula_sum "Si O2"
_cell_formula_units_Z 12
_cell_length_a 9.261649
_cell_length_b 11.197225
_cell_length_c 14.861031
_cell_angle_alpha 152.158319
_cell_angle_beta 131.455954
_cell_angle_gamma 65.436767
_cell_volume 471.792474
_symmetry_space_group_name_H-M "P -1"
_symmetry_group_IT_number 2
_symmetry_cell_setting 'triclinic'
loop_
_space_group_symop_operation_xyz
x,y,z
-x,-y,-z
loop_
_atom_site_type_symbol
_atom_site_label
_atom_site_fract_x
_atom_site_fract_y
_atom_site_fract_z
Si Si1 0.391662 0.655624 0.619281
Si Si2 0.550172 0.120363 0.747259
Si Si3 0.883497 0.930559 0.808198
Si Si4 0.004075 0.300315 0.450639
Si Si5 0.751036 0.444155 0.860103
Si Si6 0.513589 0.266871 0.020757
O O1 0.500000 0.500000 0.500000
O O2 0.309979 0.410879 0.500508
O O3 0.162803 0.676966 0.531228
O O4 0.545074 0.006788 0.908863
O O5 0.634917 0.308988 0.818118
O O6 0.452038 0.196338 0.843646
O O7 0.764108 0.119711 0.875098
O O8 0.374538 0.799484 0.428864
O O9 0.027697 0.973074 0.807117
O O10 0.000000 0.000000 0.000000
O O11 0.000000 0.500000 0.500000
O O12 0.248655 0.442209 0.686465
O O13 0.680141 0.694150 0.987566
O O14 0.000000 0.500000 0.000000
#
# Coordination Sequence:
#
# PCOD9046812 Si02
#       6
#     2   2   2   2   2   2
#     4  11  25  41  69 110 145 186 237 290 364 444
#     4  11  24  48  73 101 151 187 245 298 365 429
#     4  11  23  47  71 107 148 193 232 301 372 437
#     4  10  24  43  68 103 149 192 227 293 369 435
#     4  11  28  48  74 105 140 197 253 304 349 427
#     4  12  25  48  73 107 147 191 241 299 371 432
#
# _framework density 25.434911
#
# number of rings (size 3 to 8) (size 9 to 14) (size 15 to 20)
#    0.000    1.000    3.333    2.500    2.333    6.000 
#    0.000    0.000    0.000    0.000    0.000    0.000 
#    0.000    0.000    0.000    0.000    0.000    0.000 
#
# Total GULP energy -66822.422532 kJ/mol
# GULP energy per Si atom -5568.535211 kJ/mol
# Density = 2.537702 g / cm^3
# Si number density = 25.434911 Si / 1000 Ang^3
#
#
#
# Elastic Constant Matrix: (Units=GPa)
#
#
# Indices 1 2 3 4 5 6 
#
# 1 251.6310 31.5507 74.6093 -11.3167 -8.3673 -26.3292
# 2 31.5507 47.8607 46.8417 -19.6227 -7.7121 -17.1817
# 3 74.6093 46.8417 95.7332 -21.3145 -23.7424 -7.6639
# 4 -11.3167 -19.6227 -21.3145 33.7088 -1.7567 -4.8716
# 5 -8.3673 -7.7121 -23.7424 -1.7567 36.3296 0.4085
# 6 -26.3292 -17.1817 -7.6639 -4.8716 0.4085 55.3422
#
#
#
# Elastic Compliance Matrix: (Units=1/GPa)
#
#
# Indices 1 2 3 4 5 6 
#
# 1 0.005646 0.002951 -0.006144 0.000018 -0.002118 0.002769
# 2 0.002951 0.058758 -0.025461 0.021565 -0.002646 0.018038
# 3 -0.006144 -0.025461 0.031176 0.002623 0.013753 -0.006381
# 4 0.000018 0.021565 0.002623 0.045918 0.008393 0.011047
# 5 -0.002118 -0.002646 0.013753 0.008393 0.035863 0.000549
# 6 0.002769 0.018038 -0.006381 0.011047 0.000549 0.025072
#
#
# Mechanical properties :
#
#
# Convention : Reuss Voigt Hill
#
# Bulk Modulus (GPa) = 26.12831 77.91425 52.02128
# Shear Modulus (GPa) = 18.34884 41.22434 29.78659
#
# Velocity S-wave (km/s) = 2.68881 4.03026 3.42583
# Velocity P-wave (km/s) = 4.46481 7.23579 6.01212
#
# Compressibility (1/GPa) = 0.03827266
#
# Stress axis : x y z
#
# Youngs Moduli (GPa) = 177.12538 17.01893 32.07640
#
# Poissons Ratio (x) = -0.05022 0.19706
# Poissons Ratio (y) = -0.52272 0.81669
# Poissons Ratio (z) = 1.08819 0.43332
#
# Static dielectric constant tensor:
#      x y z
#    x 2.229220 -0.008890 -0.012130 
#    y -0.008890 2.060040 0.084440 
#    z -0.012130 0.084440 2.097590 
# 
# From -- ./inp_files/501318.got.cif
#   From: 2010.05.17/outbox.cif.g08.bks.cpg/sg2_251_cif.got.tgz:501318.got - 2010.06.03 11:33:40.
