data_PCOD9046571
_publ_section_title
;
Structure prediction by ZEFSAII (Michael W. Deem and Ramdas Pophale) SiO2 
 PCOD9046571
Probable space group: P -1
;
_chemical_formula_sum "Si O2"
_cell_formula_units_Z 14
_cell_length_a 21.681622
_cell_length_b 8.852816
_cell_length_c 8.456312
_cell_angle_alpha 133.532157
_cell_angle_beta 29.239915
_cell_angle_gamma 131.188477
_cell_volume 567.167867
_symmetry_space_group_name_H-M "P -1"
_symmetry_group_IT_number 2
_symmetry_cell_setting 'triclinic'
loop_
_space_group_symop_operation_xyz
x,y,z
-x,-y,-z
loop_
_atom_site_type_symbol
_atom_site_label
_atom_site_fract_x
_atom_site_fract_y
_atom_site_fract_z
Si Si1 0.180963 0.035711 0.397001
Si Si2 0.793206 0.883093 0.251689
Si Si3 0.643778 0.184276 0.603546
Si Si4 0.550020 0.561671 0.609968
Si Si5 0.398236 0.175326 0.804316
Si Si6 0.169788 0.402518 0.484066
Si Si7 0.001369 0.339769 0.526291
O O1 0.133148 0.812840 0.260046
O O2 0.159103 0.015988 0.615955
O O3 0.116297 0.224637 0.602834
O O4 0.330561 0.114877 0.079344
O O5 0.696874 0.666517 0.348855
O O6 0.712028 0.037623 0.459079
O O7 0.908416 0.826657 0.851029
O O8 0.751057 0.385770 0.468410
O O9 0.593071 0.033886 0.463207
O O10 0.532816 0.273221 0.011090
O O11 0.500000 0.500000 0.500000
O O12 0.519546 0.354650 0.639045
O O13 0.282757 0.289427 0.069753
O O14 0.065998 0.439549 0.613751
O O15 0.000000 0.500000 0.500000
#
# Coordination Sequence:
#
# PCOD9046571 Si02
#       7
#     2   2   2   2   2   2   2
#     4  10  24  43  64  97 137 172 220 277 328 391
#     4  12  23  41  68  99 133 172 226 274 323 398
#     4  11  20  42  72  98 127 177 219 265 336 393
#     4  11  22  41  70 101 133 171 223 269 328 396
#     4   9  21  42  65  98 132 169 219 262 334 391
#     4   9  21  42  66  93 134 167 216 271 327 387
#     4  12  24  45  67  96 133 177 226 277 321 390
#
# _framework density 24.684049999999999
#
# number of rings (size 3 to 8) (size 9 to 14) (size 15 to 20)
#    0.857    0.571    2.857    3.000    0.000    1.714 
#    0.000    2.857    0.000    0.000    0.000    0.000 
#    0.000    0.000    0.000    0.000    0.000    0.000 
#
# Total GULP energy -78323.144434 kJ/mol
# GULP energy per Si atom -5594.510317 kJ/mol
# Density = 2.462787 g / cm^3
# Si number density = 24.684050 Si / 1000 Ang^3
#
#
#
# Elastic Constant Matrix: (Units=GPa)
#
#
# Indices 1 2 3 4 5 6 
#
# 1 57.1639 -0.0291 7.9454 14.5945 -7.2267 -5.4586
# 2 -0.0291 135.1314 21.1967 -1.8133 -14.5363 -0.2312
# 3 7.9454 21.1967 78.5271 14.3105 12.3831 2.1968
# 4 14.5945 -1.8133 14.3105 36.7635 10.2150 0.5318
# 5 -7.2267 -14.5363 12.3831 10.2150 29.5139 3.7254
# 6 -5.4586 -0.2312 2.1968 0.5318 3.7254 43.8223
#
#
#
# Elastic Compliance Matrix: (Units=1/GPa)
#
#
# Indices 1 2 3 4 5 6 
#
# 1 0.022098 0.001368 -0.002367 -0.010739 0.010528 0.002114
# 2 0.001368 0.008576 -0.003323 -0.000535 0.006155 -0.000135
# 3 -0.002367 -0.003323 0.015668 -0.003197 -0.007632 -0.000410
# 4 -0.010739 -0.000535 -0.003197 0.036627 -0.014176 -0.000420
# 5 0.010528 0.006155 -0.007632 -0.014176 0.047875 -0.002171
# 6 0.002114 -0.000135 -0.000410 -0.000420 -0.002171 0.023292
#
#
# Mechanical properties :
#
#
# Convention : Reuss Voigt Hill
#
# Bulk Modulus (GPa) = 26.52611 36.56093 31.54352
# Shear Modulus (GPa) = 28.51478 38.13391 33.32435
#
# Velocity S-wave (km/s) = 3.40250 3.93476 3.67827
# Velocity P-wave (km/s) = 5.11914 5.95708 5.55394
#
# Compressibility (1/GPa) = 0.03769871
#
# Stress axis : x y z
#
# Youngs Moduli (GPa) = 45.25289 116.59819 63.82249
#
# Poissons Ratio (x) = -0.15953 0.15110
# Poissons Ratio (y) = -0.06191 0.21207
# Poissons Ratio (z) = 0.10713 0.38744
#
# Static dielectric constant tensor:
#      x y z
#    x 1.954000 0.000260 -0.017150 
#    y 0.000260 1.948490 0.002130 
#    z -0.017150 0.002130 1.952950 
# 
# From -- ./inp_files/352362.got.cif
#   From: 2010.05.17/outbox.cif.g08.bks.cpg/sg2_177_cif.got.tgz:352362.got - 2010.06.03 11:33:40.
