data_PCOD9046649
_publ_section_title
;
Structure prediction by ZEFSAII (Michael W. Deem and Ramdas Pophale) SiO2 
 PCOD9046649
Probable space group: P -1
;
_chemical_formula_sum "Si O2"
_cell_formula_units_Z 16
_cell_length_a 12.253843
_cell_length_b 14.870822
_cell_length_c 12.167682
_cell_angle_alpha 151.681927
_cell_angle_beta 129.774582
_cell_angle_gamma 57.402373
_cell_volume 806.547852
_symmetry_space_group_name_H-M "P -1"
_symmetry_group_IT_number 2
_symmetry_cell_setting 'triclinic'
loop_
_space_group_symop_operation_xyz
x,y,z
-x,-y,-z
loop_
_atom_site_type_symbol
_atom_site_label
_atom_site_fract_x
_atom_site_fract_y
_atom_site_fract_z
Si Si1 0.300289 0.576304 0.895943
Si Si2 0.425167 0.903389 0.454869
Si Si3 0.851563 0.805003 0.640838
Si Si4 0.874966 0.298453 0.430542
Si Si5 0.022071 0.297422 0.150486
Si Si6 0.054607 0.713374 0.290633
Si Si7 0.878207 0.042757 0.606104
Si Si8 0.329831 0.876650 0.060555
O O1 0.278716 0.350331 0.635284
O O2 0.135385 0.629537 0.854474
O O3 0.387181 0.681166 0.164040
O O4 0.357094 0.686247 0.941707
O O5 0.272553 0.986022 0.463244
O O6 0.500000 0.000000 0.500000
O O7 0.532265 0.977328 0.698748
O O8 0.913301 0.763032 0.756995
O O9 0.978573 0.780626 0.609967
O O10 0.787778 0.008822 0.825831
O O11 0.885611 0.518958 0.637726
O O12 0.866095 0.284658 0.540164
O O13 0.743973 0.185182 0.166089
O O14 0.996155 0.136855 0.867756
O O15 0.136369 0.805542 0.338108
O O16 0.927230 0.850592 0.378650
O O17 0.000000 0.500000 0.000000
#
# Coordination Sequence:
#
# PCOD9046649 Si02
#       8
#     2   2   2   2   2   2   2   2
#     4   9  18  33  47  76 116 147 182 227 280 338
#     4   9  21  37  58  83 120 158 185 228 286 352
#     4  11  20  30  55  87 116 148 182 238 301 332
#     4  11  20  33  57  83 117 145 193 241 282 340
#     4  10  17  34  56  81 117 143 178 249 294 329
#     4  11  23  39  62  90 109 151 198 245 285 328
#     4  10  22  41  61  84 120 149 191 241 287 335
#     4  11  20  33  53  82 115 153 187 224 288 352
#
# _framework density 19.837634000000001
#
# number of rings (size 3 to 8) (size 9 to 14) (size 15 to 20)
#    0.000    1.750    3.750    1.875    5.250    0.500 
#    0.000    3.125    0.000    0.750    0.000    0.000 
#    0.000    0.000    0.000    0.000    0.000    0.000 
#
# Total GULP energy -89335.376728 kJ/mol
# GULP energy per Si atom -5583.461045 kJ/mol
# Density = 1.979248 g / cm^3
# Si number density = 19.837634 Si / 1000 Ang^3
#
#
#
# Elastic Constant Matrix: (Units=GPa)
#
#
# Indices 1 2 3 4 5 6 
#
# 1 52.7157 14.5042 27.3705 -4.9795 0.8374 9.5566
# 2 14.5042 59.6017 42.3180 -3.6056 3.2937 21.4724
# 3 27.3705 42.3180 180.2499 -15.9100 9.6695 5.0901
# 4 -4.9795 -3.6056 -15.9100 43.0089 -4.5115 -2.5061
# 5 0.8374 3.2937 9.6695 -4.5115 28.3774 -4.1981
# 6 9.5566 21.4724 5.0901 -2.5061 -4.1981 28.4091
#
#
#
# Elastic Compliance Matrix: (Units=1/GPa)
#
#
# Indices 1 2 3 4 5 6 
#
# 1 0.021911 -0.001121 -0.002789 0.001033 -0.000286 -0.005975
# 2 -0.001121 0.029179 -0.005964 -0.001639 -0.004756 -0.021456
# 3 -0.002789 -0.005964 0.007483 0.002102 -0.000825 0.004168
# 4 0.001033 -0.001639 0.002102 0.024603 0.003836 0.003252
# 5 -0.000286 -0.004756 -0.000825 0.003836 0.038142 0.009814
# 6 -0.005975 -0.021456 0.004168 0.003252 0.009814 0.054417
#
#
# Mechanical properties :
#
#
# Convention : Reuss Voigt Hill
#
# Bulk Modulus (GPa) = 25.75592 51.21695 38.48643
# Shear Modulus (GPa) = 23.98941 33.85072 28.92006
#
# Velocity S-wave (km/s) = 3.48125 4.13533 3.82231
# Velocity P-wave (km/s) = 5.40096 6.97677 6.23882
#
# Compressibility (1/GPa) = 0.03882603
#
# Stress axis : x y z
#
# Youngs Moduli (GPa) = 45.63835 34.27150 133.62754
#
# Poissons Ratio (x) = 0.03843 0.37264
# Poissons Ratio (y) = 0.05118 0.79692
# Poissons Ratio (z) = 0.12727 0.20439
#
# Static dielectric constant tensor:
#      x y z
#    x 1.691250 -0.007530 -0.008540 
#    y -0.007530 1.743480 -0.001330 
#    z -0.008540 -0.001330 1.755120 
# 
# From -- ./inp_files/424438.got.cif
#   From: 2010.05.17/outbox.cif.g08.bks.cpg/sg2_213_cif.got.tgz:424438.got - 2010.06.03 11:33:40.
