data_PCOD9046220
_publ_section_title
;
Structure prediction by ZEFSAII (Michael W. Deem and Ramdas Pophale) SiO2 
 PCOD9046220
Probable space group: P -1
;
_chemical_formula_sum "Si O2"
_cell_formula_units_Z 14
_cell_length_a 9.684562
_cell_length_b 5.341009
_cell_length_c 13.066005
_cell_angle_alpha 118.241991
_cell_angle_beta 79.261664
_cell_angle_gamma 101.581225
_cell_volume 579.992493
_symmetry_space_group_name_H-M "P -1"
_symmetry_group_IT_number 2
_symmetry_cell_setting 'triclinic'
loop_
_space_group_symop_operation_xyz
x,y,z
-x,-y,-z
loop_
_atom_site_type_symbol
_atom_site_label
_atom_site_fract_x
_atom_site_fract_y
_atom_site_fract_z
Si Si1 0.595695 0.342669 0.879649
Si Si2 0.659467 0.426621 0.561770
Si Si3 0.559021 0.173513 0.318065
Si Si4 0.170905 0.515006 0.751372
Si Si5 0.882782 0.669342 0.861014
Si Si6 0.169398 0.068950 0.502019
Si Si7 0.170138 0.704181 0.015216
O O1 0.719562 0.543649 0.840877
O O2 0.507817 0.130054 0.773242
O O3 0.500000 0.500000 0.000000
O O4 0.686553 0.187386 0.919649
O O5 0.573178 0.229852 0.447929
O O6 0.540680 0.593084 0.662624
O O7 0.762582 0.687085 0.540972
O O8 0.751826 0.214341 0.566467
O O9 0.716861 0.245998 0.268588
O O10 0.194567 0.217379 0.638836
O O11 0.198318 0.558400 0.876207
O O12 0.009620 0.567411 0.759098
O O13 0.904188 0.530860 0.942178
O O14 0.898809 0.007368 0.928168
O O15 0.000000 0.000000 0.500000
#
# Coordination Sequence:
#
# PCOD9046220 Si02
#       7
#     2   2   2   2   2   2   2
#     4  10  24  42  69 101 139 181 226 282 339 413
#     4  10  25  49  68 103 137 184 232 284 349 407
#     4  10  24  45  72 103 141 187 227 290 343 416
#     4  11  24  42  72  99 136 184 228 284 348 405
#     4  10  24  43  65  99 138 183 227 279 334 416
#     4  11  26  45  73 102 136 176 237 291 345 410
#     4  10  24  43  65  98 140 179 227 277 342 409
#
# _framework density 24.138244
#
# number of rings (size 3 to 8) (size 9 to 14) (size 15 to 20)
#    0.857    0.857    0.000    2.143    4.000   12.000 
#    2.571    0.000    0.000    0.000    0.000    0.000 
#    0.000    0.000    0.000    0.000    0.000    0.000 
#
# Total GULP energy -78228.003048 kJ/mol
# GULP energy per Si atom -5587.714503 kJ/mol
# Density = 2.408330 g / cm^3
# Si number density = 24.138244 Si / 1000 Ang^3
#
#
#
# Elastic Constant Matrix: (Units=GPa)
#
#
# Indices 1 2 3 4 5 6 
#
# 1 122.9135 50.6248 23.8364 21.2396 -9.9490 24.9429
# 2 50.6248 114.4493 45.9262 30.2331 -13.7590 -0.2568
# 3 23.8364 45.9262 90.7738 18.8766 -5.3962 22.2255
# 4 21.2396 30.2331 18.8766 31.6083 2.0897 -3.0792
# 5 -9.9490 -13.7590 -5.3962 2.0897 47.8510 6.9545
# 6 24.9429 -0.2568 22.2255 -3.0792 6.9545 52.6534
#
#
#
# Elastic Compliance Matrix: (Units=1/GPa)
#
#
# Indices 1 2 3 4 5 6 
#
# 1 0.012401 -0.004374 0.002365 -0.006506 0.002986 -0.007669
# 2 -0.004374 0.015488 -0.005713 -0.008281 0.002721 0.003715
# 3 0.002365 -0.005713 0.017235 -0.007474 0.002454 -0.009184
# 4 -0.006506 -0.008281 -0.007474 0.049932 -0.008240 0.010205
# 5 0.002986 0.002721 0.002454 -0.008240 0.023820 -0.006065
# 6 -0.007669 0.003715 -0.009184 0.010205 -0.006065 0.027918
#
#
# Mechanical properties :
#
#
# Convention : Reuss Voigt Hill
#
# Bulk Modulus (GPa) = 33.69410 63.21237 48.45324
# Shear Modulus (GPa) = 29.04769 40.27248 34.66008
#
# Velocity S-wave (km/s) = 3.47275 4.08905 3.79344
# Velocity P-wave (km/s) = 5.48353 6.96694 6.26927
#
# Compressibility (1/GPa) = 0.02967879
#
# Stress axis : x y z
#
# Youngs Moduli (GPa) = 80.63920 64.56709 58.02207
#
# Poissons Ratio (x) = 0.28240 -0.13720
# Poissons Ratio (y) = 0.35270 0.33150
# Poissons Ratio (z) = -0.19069 0.36889
#
# Static dielectric constant tensor:
#      x y z
#    x 1.649510 -0.322410 -0.061520 
#    y -0.322410 1.700800 -0.081590 
#    z -0.061520 -0.081590 1.886310 
# 
# From -- ./inp_files/553929.got.cif
#   From: 2010.05.17/outbox.cif.g08.bks.cpg/sg2_277_cif.got.tgz:553929.got - 2010.06.03 11:33:40.
