data_PCOD9046144
_publ_section_title
;
Structure prediction by ZEFSAII (Michael W. Deem and Ramdas Pophale) SiO2 
 PCOD9046144
Probable space group: P -1
;
_chemical_formula_sum "Si O2"
_cell_formula_units_Z 13
_cell_length_a 14.093330
_cell_length_b 17.881056
_cell_length_c 9.082368
_cell_angle_alpha 141.137333
_cell_angle_beta 34.423502
_cell_angle_gamma 158.129199
_cell_volume 481.044782
_symmetry_space_group_name_H-M "P -1"
_symmetry_group_IT_number 2
_symmetry_cell_setting 'triclinic'
loop_
_space_group_symop_operation_xyz
x,y,z
-x,-y,-z
loop_
_atom_site_type_symbol
_atom_site_label
_atom_site_fract_x
_atom_site_fract_y
_atom_site_fract_z
Si Si1 0.285425 0.517593 0.917623
Si Si2 0.000000 0.500000 0.500000
Si Si3 0.513641 0.325333 0.602056
Si Si4 0.397953 0.780756 0.952573
Si Si5 0.032793 0.146003 0.756535
Si Si6 0.298570 0.124703 0.865962
Si Si7 0.903035 0.246985 0.482149
O O1 0.586366 0.729041 0.926050
O O2 0.058880 0.422860 0.189093
O O3 0.272090 0.591198 0.903890
O O4 0.221937 0.342267 0.716146
O O5 0.865858 0.331968 0.543033
O O6 0.569049 0.247222 0.299137
O O7 0.221400 0.223152 0.776857
O O8 0.526733 0.276652 0.674361
O O9 0.757093 0.563498 0.647660
O O10 0.206169 0.777604 0.253805
O O11 0.705933 0.994555 0.947652
O O12 0.000000 0.000000 0.500000
O O13 0.249617 0.957671 0.690755
O O14 0.000000 0.000000 0.000000
#
# Coordination Sequence:
#
# PCOD9046144 Si02
#       7
#     2   1   2   2   2   2   2
#     4  11  24  42  68 101 139 184 239 285 351 420
#     4  10  24  42  68 102 134 186 226 298 344 410
#     4  11  24  45  66 104 143 186 234 295 358 416
#     4  10  25  43  71 102 138 191 239 294 349 426
#     4  10  24  43  70  98 145 190 236 289 349 426
#     4  12  27  42  71 108 142 188 233 296 363 426
#     4  11  25  45  72 103 145 184 243 290 360 420
#
# _framework density 27.024512000000001
#
# number of rings (size 3 to 8) (size 9 to 14) (size 15 to 20)
#    0.000    1.231    1.538    2.308    6.462    8.000 
#    0.000    0.000    0.000    0.000    0.000    0.000 
#    0.000    0.000    0.000    0.000    0.000    0.000 
#
# Total GULP energy -72629.064391 kJ/mol
# GULP energy per Si atom -5586.851107 kJ/mol
# Density = 2.696300 g / cm^3
# Si number density = 27.024512 Si / 1000 Ang^3
#
#
#
# Elastic Constant Matrix: (Units=GPa)
#
#
# Indices 1 2 3 4 5 6 
#
# 1 53.0912 20.7584 16.9163 13.7789 18.0203 -1.0478
# 2 20.7584 182.9284 48.9612 38.3672 -5.7225 6.7794
# 3 16.9163 48.9612 85.2575 11.7768 21.5810 -5.2432
# 4 13.7789 38.3672 11.7768 49.9717 -9.7978 -5.5219
# 5 18.0203 -5.7225 21.5810 -9.7978 36.8805 0.1393
# 6 -1.0478 6.7794 -5.2432 -5.5219 0.1393 52.6001
#
#
#
# Elastic Compliance Matrix: (Units=1/GPa)
#
#
# Indices 1 2 3 4 5 6 
#
# 1 0.027526 -0.001975 0.001357 -0.009759 -0.017143 -0.000041
# 2 -0.001975 0.007985 -0.004782 -0.003897 0.003974 -0.001965
# 3 0.001357 -0.004782 0.018029 -0.003229 -0.012821 0.002136
# 4 -0.009759 -0.003897 -0.003229 0.029514 0.013883 0.003048
# 5 -0.017143 0.003974 -0.012821 0.013883 0.047301 -0.000800
# 6 -0.000041 -0.001965 0.002136 0.003048 -0.000800 0.019799
#
#
# Mechanical properties :
#
#
# Convention : Reuss Voigt Hill
#
# Bulk Modulus (GPa) = 23.39717 54.94988 39.17352
# Shear Modulus (GPa) = 28.53877 43.53321 36.03599
#
# Velocity S-wave (km/s) = 3.25319 4.01793 3.65561
# Velocity P-wave (km/s) = 4.77363 6.47321 5.68727
#
# Compressibility (1/GPa) = 0.04274021
#
# Stress axis : x y z
#
# Youngs Moduli (GPa) = 36.32975 125.23012 55.46601
#
# Poissons Ratio (x) = 0.24729 -0.07529
# Poissons Ratio (y) = 0.07174 0.26527
# Poissons Ratio (z) = -0.04931 0.59891
#
# Static dielectric constant tensor:
#      x y z
#    x 2.234440 0.047330 -0.121000 
#    y 0.047330 2.000870 -0.101840 
#    z -0.121000 -0.101840 2.258370 
# 
# From -- ./inp_files/28898.got.cif
#   From: 2010.05.17/outbox.cif.g08.bks.cpg/sg2_15_cif.got.tgz:28898.got - 2010.06.03 11:33:40.
