data_PCOD9046825
_publ_section_title
;
Structure prediction by ZEFSAII (Michael W. Deem and Ramdas Pophale) SiO2 
 PCOD9046825
Probable space group: P -1
;
_chemical_formula_sum "Si O2"
_cell_formula_units_Z 16
_cell_length_a 11.446583
_cell_length_b 14.621365
_cell_length_c 11.546735
_cell_angle_alpha 80.787044
_cell_angle_beta 119.944125
_cell_angle_gamma 148.478583
_cell_volume 709.520347
_symmetry_space_group_name_H-M "P -1"
_symmetry_group_IT_number 2
_symmetry_cell_setting 'triclinic'
loop_
_space_group_symop_operation_xyz
x,y,z
-x,-y,-z
loop_
_atom_site_type_symbol
_atom_site_label
_atom_site_fract_x
_atom_site_fract_y
_atom_site_fract_z
Si Si1 0.323873 0.984786 0.789307
Si Si2 0.667660 0.228286 0.143688
Si Si3 0.682700 0.848902 0.569767
Si Si4 0.337759 0.314158 0.814520
Si Si5 0.134046 0.375893 0.809019
Si Si6 0.677740 0.672085 0.460136
Si Si7 0.683538 0.357692 0.334804
Si Si8 0.270984 0.733461 0.276931
O O1 0.631926 0.195993 0.821797
O O2 0.247286 0.826789 0.779258
O O3 0.414922 0.068338 0.947963
O O4 0.038762 0.866194 0.618308
O O5 0.533216 0.194646 0.198995
O O6 0.976194 0.481339 0.209163
O O7 0.591893 0.721544 0.449862
O O8 0.517258 0.737958 0.634163
O O9 0.568989 0.877491 0.462406
O O10 0.054308 0.066541 0.717848
O O11 0.182558 0.300684 0.814497
O O12 0.411931 0.392897 0.705272
O O13 0.633131 0.461138 0.000858
O O14 0.232746 0.498202 0.723289
O O15 0.807124 0.214133 0.721681
O O16 0.500000 0.500000 0.500000
O O17 0.000000 0.500000 0.500000
#
# Coordination Sequence:
#
# PCOD9046825 Si02
#       8
#     2   2   2   2   2   2   2   2
#     4  11  25  44  69 105 135 186 232 290 353 417
#     4  10  24  43  68 106 136 173 240 294 343 415
#     4  12  25  42  70 104 128 184 234 282 345 420
#     4  11  26  46  68 102 144 175 235 280 353 430
#     4  10  25  46  69 103 136 188 222 293 349 411
#     4  12  27  45  70  95 146 186 228 288 356 421
#     4  11  23  44  72  95 137 177 230 286 345 407
#     4  11  23  43  75  99 138 183 230 293 344 411
#
# _framework density 22.550446000000001
#
# number of rings (size 3 to 8) (size 9 to 14) (size 15 to 20)
#    0.000    1.000    3.750    2.250    7.000    4.000 
#    2.250    0.000    0.000    0.000    0.000    0.000 
#    0.000    0.000    0.000    0.000    0.000    0.000 
#
# Total GULP energy -89435.224631 kJ/mol
# GULP energy per Si atom -5589.701539 kJ/mol
# Density = 2.249912 g / cm^3
# Si number density = 22.550446 Si / 1000 Ang^3
#
#
#
# Elastic Constant Matrix: (Units=GPa)
#
#
# Indices 1 2 3 4 5 6 
#
# 1 81.5673 0.1499 -0.1363 -5.7778 8.6594 7.9685
# 2 0.1499 60.8083 5.8517 -7.3451 8.1070 15.0709
# 3 -0.1363 5.8517 61.5893 -22.8805 3.9157 8.6964
# 4 -5.7778 -7.3451 -22.8805 29.4679 -4.0983 -5.1581
# 5 8.6594 8.1070 3.9157 -4.0983 28.6893 -6.5326
# 6 7.9685 15.0709 8.6964 -5.1581 -6.5326 30.2961
#
#
#
# Elastic Compliance Matrix: (Units=1/GPa)
#
#
# Indices 1 2 3 4 5 6 
#
# 1 0.013746 0.002508 0.002219 0.003084 -0.006155 -0.006302
# 2 0.002508 0.021224 0.001761 0.003524 -0.009490 -0.013169
# 3 0.002219 0.001761 0.023736 0.017819 -0.003212 -0.005932
# 4 0.003084 0.003524 0.017819 0.049949 0.003117 0.001497
# 5 -0.006155 -0.009490 -0.003212 0.003117 0.044225 0.017329
# 6 -0.006302 -0.013169 -0.005932 0.001497 0.017329 0.046910
#
#
# Mechanical properties :
#
#
# Convention : Reuss Voigt Hill
#
# Bulk Modulus (GPa) = 13.95042 23.96615 18.95829
# Shear Modulus (GPa) = 23.72932 30.89731 27.31332
#
# Velocity S-wave (km/s) = 3.24740 3.70556 3.48402
# Velocity P-wave (km/s) = 4.50117 5.38136 4.96083
#
# Compressibility (1/GPa) = 0.07168244
#
# Stress axis : x y z
#
# Youngs Moduli (GPa) = 72.74581 47.11569 42.13069
#
# Poissons Ratio (x) = -0.11815 -0.09349
# Poissons Ratio (y) = -0.18242 -0.07420
# Poissons Ratio (z) = -0.16143 -0.08298
#
# Static dielectric constant tensor:
#      x y z
#    x 1.857790 -0.017500 -0.044100 
#    y -0.017500 1.811890 0.022490 
#    z -0.044100 0.022490 1.838950 
# 
# From -- ./inp_files/433958.got.cif
#   From: 2010.05.17/outbox.cif.g08.bks.cpg/sg2_217_cif.got.tgz:433958.got - 2010.06.03 11:33:40.
