data_PCOD9046774
_publ_section_title
;
Structure prediction by ZEFSAII (Michael W. Deem and Ramdas Pophale) SiO2 
 PCOD9046774
Probable space group: P -1
;
_chemical_formula_sum "Si O2"
_cell_formula_units_Z 16
_cell_length_a 12.072756
_cell_length_b 11.490580
_cell_length_c 9.408102
_cell_angle_alpha 115.476217
_cell_angle_beta 122.973616
_cell_angle_gamma 87.967712
_cell_volume 953.825491
_symmetry_space_group_name_H-M "P -1"
_symmetry_group_IT_number 2
_symmetry_cell_setting 'triclinic'
loop_
_space_group_symop_operation_xyz
x,y,z
-x,-y,-z
loop_
_atom_site_type_symbol
_atom_site_label
_atom_site_fract_x
_atom_site_fract_y
_atom_site_fract_z
Si Si1 0.119407 0.481071 0.467552
Si Si2 0.219919 0.984137 0.664605
Si Si3 0.277622 0.696382 0.044969
Si Si4 0.299017 0.765215 0.792113
Si Si5 0.061231 0.188598 0.748953
Si Si6 0.987563 0.369558 0.019124
Si Si7 0.449723 0.215037 0.835860
Si Si8 0.757072 0.609179 0.235274
O O1 0.221992 0.627039 0.590894
O O2 0.198608 0.396314 0.573278
O O3 0.000000 0.500000 0.500000
O O4 0.056910 0.415680 0.243393
O O5 0.282593 0.889590 0.757128
O O6 0.091296 0.893656 0.442300
O O7 0.156833 0.086996 0.764874
O O8 0.335072 0.076402 0.693323
O O9 0.172552 0.698256 0.096589
O O10 0.438543 0.769456 0.203688
O O11 0.231888 0.756757 0.898923
O O12 0.268545 0.541246 0.920661
O O13 0.454429 0.770722 0.948620
O O14 0.122827 0.294448 0.722385
O O15 0.056006 0.270159 0.930568
O O16 0.000000 0.500000 0.000000
O O17 0.373254 0.331756 0.837904
#
# Coordination Sequence:
#
# PCOD9046774 Si02
#       8
#     2   2   2   2   2   2   2   2
#     4  11  18  31  56  84 108 137 174 227 276 322
#     4  10  19  37  55  78 112 144 192 212 262 322
#     4   9  19  30  55  80 106 139 172 222 271 314
#     4   9  18  31  55  84 101 143 182 220 259 321
#     4  10  22  33  58  82 109 146 175 231 270 316
#     4  12  20  35  54  85 114 136 176 226 286 319
#     4   9  19  32  57  80 103 149 184 221 255 322
#     4  10  17  34  56  83 109 134 184 223 272 320
#
# _framework density 16.774556
#
# number of rings (size 3 to 8) (size 9 to 14) (size 15 to 20)
#    0.750    1.250    3.750    2.250    0.000    0.000 
#    0.000    1.250    0.000    9.750    0.000    0.000 
#    0.000    0.000    0.000    0.000    0.000    0.000 
#
# Total GULP energy -89085.621720 kJ/mol
# GULP energy per Si atom -5567.851357 kJ/mol
# Density = 1.673638 g / cm^3
# Si number density = 16.774556 Si / 1000 Ang^3
#
#
#
# Elastic Constant Matrix: (Units=GPa)
#
#
# Indices 1 2 3 4 5 6 
#
# 1 90.0949 31.9248 38.3010 0.9881 9.5182 11.8110
# 2 31.9248 103.9384 34.9354 -13.8591 3.1012 -1.5102
# 3 38.3010 34.9354 67.7378 -2.5290 -3.2453 -6.4551
# 4 0.9881 -13.8591 -2.5290 20.6946 -0.6708 8.9517
# 5 9.5182 3.1012 -3.2453 -0.6708 30.5432 3.1711
# 6 11.8110 -1.5102 -6.4551 8.9517 3.1711 24.7828
#
#
#
# Elastic Compliance Matrix: (Units=1/GPa)
#
#
# Indices 1 2 3 4 5 6 
#
# 1 0.018391 -0.001863 -0.010742 0.001343 -0.005464 -0.011462
# 2 -0.001863 0.013442 -0.005865 0.009744 -0.000858 -0.003231
# 3 -0.010742 -0.005865 0.025107 -0.005667 0.005169 0.012687
# 4 0.001343 0.009744 -0.005667 0.065100 0.002047 -0.025299
# 5 -0.005464 -0.000858 0.005169 0.002047 0.035265 -0.001353
# 6 -0.011462 -0.003231 0.012687 -0.025299 -0.001353 0.058232
#
#
# Mechanical properties :
#
#
# Convention : Reuss Voigt Hill
#
# Bulk Modulus (GPa) = 49.99796 52.45483 51.22640
# Shear Modulus (GPa) = 19.29427 25.64481 22.46954
#
# Velocity S-wave (km/s) = 3.39515 3.91422 3.66389
# Velocity P-wave (km/s) = 6.72607 7.19489 6.96443
#
# Compressibility (1/GPa) = 0.02000082
#
# Stress axis : x y z
#
# Youngs Moduli (GPa) = 54.37333 74.39140 39.83017
#
# Poissons Ratio (x) = 0.13857 0.42787
# Poissons Ratio (y) = 0.10128 0.23359
# Poissons Ratio (z) = 0.58409 0.43629
#
# Static dielectric constant tensor:
#      x y z
#    x 1.589840 0.010990 0.030840 
#    y 0.010990 1.566970 0.001490 
#    z 0.030840 0.001490 1.558890 
# 
# From -- ./inp_files/260332.got.cif
#   From: 2010.05.17/outbox.cif.g08.bks.cpg/sg2_131_cif.got.tgz:260332.got - 2010.06.03 11:33:40.
