data_PCOD9046090
_publ_section_title
;
Structure prediction by ZEFSAII (Michael W. Deem and Ramdas Pophale) SiO2 
 PCOD9046090
Probable space group: P -1
;
_chemical_formula_sum "Si O2"
_cell_formula_units_Z 13
_cell_length_a 11.244722
_cell_length_b 6.519683
_cell_length_c 12.892221
_cell_angle_alpha 129.285214
_cell_angle_beta 130.602482
_cell_angle_gamma 57.439328
_cell_volume 542.485947
_symmetry_space_group_name_H-M "P -1"
_symmetry_group_IT_number 2
_symmetry_cell_setting 'triclinic'
loop_
_space_group_symop_operation_xyz
x,y,z
-x,-y,-z
loop_
_atom_site_type_symbol
_atom_site_label
_atom_site_fract_x
_atom_site_fract_y
_atom_site_fract_z
Si Si1 0.615875 0.656334 0.767990
Si Si2 0.731088 0.058040 0.612805
Si Si3 0.052309 0.941474 0.628570
Si Si4 0.654470 0.520572 0.326879
Si Si5 0.287000 0.325058 0.936491
Si Si6 0.500000 0.500000 0.000000
Si Si7 0.194944 0.936551 0.100252
O O1 0.657846 0.367007 0.639595
O O2 0.437076 0.650431 0.703295
O O3 0.702478 0.859164 0.820624
O O4 0.701748 0.652301 0.927872
O O5 0.637036 0.825577 0.456234
O O6 0.764540 0.072335 0.758544
O O7 0.898960 0.974920 0.623713
O O8 0.164799 0.649020 0.620074
O O9 0.150888 0.170508 0.785171
O O10 0.000000 0.000000 0.500000
O O11 0.584963 0.536786 0.176473
O O12 0.447789 0.221970 0.930154
O O13 0.264215 0.644317 0.988363
O O14 0.000000 0.000000 0.000000
#
# Coordination Sequence:
#
# PCOD9046090 Si02
#       7
#     2   2   2   2   2   1   2
#     4  10  24  47  73 103 139 190 243 299 356 421
#     4  11  25  47  70 104 145 185 245 297 357 429
#     4  12  27  45  73 106 148 191 235 294 367 432
#     4  11  26  46  75 105 146 189 240 300 358 428
#     4  10  24  42  67 104 139 181 241 289 350 431
#     4  10  24  44  70 100 144 182 234 294 360 414
#     4  11  24  41  74 100 141 190 237 296 354 424
#
# _framework density 23.963753000000001
#
# number of rings (size 3 to 8) (size 9 to 14) (size 15 to 20)
#    0.000    1.231    0.000    3.692   10.769    4.308 
#    2.769    0.000    0.000    0.000    0.000    0.000 
#    0.000    0.000    0.000    0.000    0.000    0.000 
#
# Total GULP energy -72492.915636 kJ/mol
# GULP energy per Si atom -5576.378126 kJ/mol
# Density = 2.390921 g / cm^3
# Si number density = 23.963753 Si / 1000 Ang^3
#
#
#
# Elastic Constant Matrix: (Units=GPa)
#
#
# Indices 1 2 3 4 5 6 
#
# 1 121.5278 37.5301 45.5417 11.5291 -8.3998 22.1717
# 2 37.5301 84.1390 30.2756 18.4151 -8.5056 13.4816
# 3 45.5417 30.2756 101.8563 6.7078 4.4962 11.9788
# 4 11.5291 18.4151 6.7078 46.2049 12.0513 12.7249
# 5 -8.3998 -8.5056 4.4962 12.0513 34.6469 4.0475
# 6 22.1717 13.4816 11.9788 12.7249 4.0475 45.6869
#
#
#
# Elastic Compliance Matrix: (Units=1/GPa)
#
#
# Indices 1 2 3 4 5 6 
#
# 1 0.011572 -0.002458 -0.004075 -0.001206 0.003595 -0.003804
# 2 -0.002458 0.016618 -0.003506 -0.006782 0.006470 -0.001476
# 3 -0.004075 -0.003506 0.012802 0.001745 -0.004062 -0.000470
# 4 -0.001206 -0.006782 0.001745 0.028760 -0.011621 -0.004852
# 5 0.003595 0.006470 -0.004062 -0.011621 0.036190 -0.002558
# 6 -0.003804 -0.001476 -0.000470 -0.004852 -0.002558 0.025871
#
#
# Mechanical properties :
#
#
# Convention : Reuss Voigt Hill
#
# Bulk Modulus (GPa) = 47.81726 59.35755 53.58741
# Shear Modulus (GPa) = 31.47371 38.25277 34.86324
#
# Velocity S-wave (km/s) = 3.62800 3.99968 3.81836
# Velocity P-wave (km/s) = 6.12757 6.79363 6.46918
#
# Compressibility (1/GPa) = 0.02091295
#
# Stress axis : x y z
#
# Youngs Moduli (GPa) = 86.41680 60.17605 78.11544
#
# Poissons Ratio (x) = 0.14793 0.31833
# Poissons Ratio (y) = 0.21244 0.27385
# Poissons Ratio (z) = 0.35216 0.21096
#
# Static dielectric constant tensor:
#      x y z
#    x 2.551370 0.417620 -0.230450 
#    y 0.417620 2.134220 -0.068100 
#    z -0.230450 -0.068100 1.934050 
# 
# From -- ./inp_files/72491.got.cif
#   From: 2010.05.17/outbox.cif.g08.bks.cpg/sg2_37_cif.got.tgz:72491.got - 2010.06.03 11:33:40.
