data_PCOD9046296
_publ_section_title
;
Structure prediction by ZEFSAII (Michael W. Deem and Ramdas Pophale) SiO2 
 PCOD9046296
Probable space group: P -1
;
_chemical_formula_sum "Si O2"
_cell_formula_units_Z 10
_cell_length_a 8.744971
_cell_length_b 14.858691
_cell_length_c 15.224198
_cell_angle_alpha 160.001221
_cell_angle_beta 139.678274
_cell_angle_gamma 41.162733
_cell_volume 431.820294
_symmetry_space_group_name_H-M "P -1"
_symmetry_group_IT_number 2
_symmetry_cell_setting 'triclinic'
loop_
_space_group_symop_operation_xyz
x,y,z
-x,-y,-z
loop_
_atom_site_type_symbol
_atom_site_label
_atom_site_fract_x
_atom_site_fract_y
_atom_site_fract_z
Si Si1 0.268095 0.496259 0.009861
Si Si2 0.862741 0.884116 0.255530
Si Si3 0.110769 0.624921 0.578481
Si Si4 0.410403 0.087129 0.139188
Si Si5 0.299338 0.249274 0.619010
O O1 0.538896 0.538998 0.152373
O O2 0.070664 0.760537 0.167346
O O3 0.248474 0.351283 0.960573
O O4 0.192629 0.341007 0.750508
O O5 0.647790 0.073937 0.290156
O O6 0.000000 0.000000 0.500000
O O7 0.254457 0.378163 0.357163
O O8 0.000000 0.500000 0.500000
O O9 0.898775 0.775800 0.562344
O O10 0.266211 0.847445 0.880720
O O11 0.500000 0.000000 0.000000
O O12 0.500000 0.000000 0.500000
#
# Coordination Sequence:
#
# PCOD9046296 Si02
#       5
#     2   2   2   2   2
#     4  10  24  42  70 104 138 182 246 294 354 420
#     4  11  25  43  74 101 143 186 246 292 359 430
#     4  12  29  49  76 108 153 195 245 304 377 437
#     4  12  29  49  76 108 153 195 245 304 377 437
#     4  11  25  43  74 101 143 186 246 292 359 430
#
# _framework density 23.157782999999998
#
# number of rings (size 3 to 8) (size 9 to 14) (size 15 to 20)
#    0.000    0.800    0.000    4.800   22.400    0.000 
#    0.000    0.000    0.000    0.000    0.000    0.000 
#    0.000    0.000    0.000    0.000    0.000    0.000 
#
# Total GULP energy -55941.663124 kJ/mol
# GULP energy per Si atom -5594.166312 kJ/mol
# Density = 2.310507 g / cm^3
# Si number density = 23.157783 Si / 1000 Ang^3
#
#
#
# Elastic Constant Matrix: (Units=GPa)
#
#
# Indices 1 2 3 4 5 6 
#
# 1 83.8671 21.7454 9.7715 1.6763 -13.3095 -4.9517
# 2 21.7454 164.1485 36.0763 -18.0574 -19.6691 -14.6768
# 3 9.7715 36.0763 98.2503 -2.6073 -15.3615 -16.5010
# 4 1.6763 -18.0574 -2.6073 41.0226 -4.7688 -2.0738
# 5 -13.3095 -19.6691 -15.3615 -4.7688 46.1230 5.0655
# 6 -4.9517 -14.6768 -16.5010 -2.0738 5.0655 23.2220
#
#
#
# Elastic Compliance Matrix: (Units=1/GPa)
#
#
# Indices 1 2 3 4 5 6 
#
# 1 0.012818 -0.001292 -0.000184 -0.000713 0.002893 0.001091
# 2 -0.001292 0.007604 -0.001665 0.003728 0.002353 0.003167
# 3 -0.000184 -0.001665 0.012462 0.000743 0.002668 0.007248
# 4 -0.000713 0.003728 0.000743 0.026767 0.003931 0.004265
# 5 0.002893 0.002353 0.002668 0.003931 0.024934 -0.001088
# 6 0.001091 0.003167 0.007248 0.004265 -0.001088 0.051065
#
#
# Mechanical properties :
#
#
# Convention : Reuss Voigt Hill
#
# Bulk Modulus (GPa) = 37.58956 53.49470 45.54213
# Shear Modulus (GPa) = 33.15671 40.65169 36.90420
#
# Velocity S-wave (km/s) = 3.78798 4.19432 3.99632
# Velocity P-wave (km/s) = 5.94970 6.82691 6.40334
#
# Compressibility (1/GPa) = 0.02660313
#
# Stress axis : x y z
#
# Youngs Moduli (GPa) = 78.01652 131.50371 80.24446
#
# Poissons Ratio (x) = 0.16987 0.01474
# Poissons Ratio (y) = 0.10078 0.13361
# Poissons Ratio (z) = 0.01433 0.21895
#
# Static dielectric constant tensor:
#      x y z
#    x 1.888310 0.013360 0.011230 
#    y 0.013360 1.886510 0.089830 
#    z 0.011230 0.089830 1.821750 
# 
# From -- ./inp_files/15468.got.cif
#   From: 2010.05.17/outbox.cif.g08.bks.cpg/sg2_8_cif.got.tgz:15468.got - 2010.06.03 11:33:40.
