data_PCOD9046256
_publ_section_title
;
Structure prediction by ZEFSAII (Michael W. Deem and Ramdas Pophale) SiO2 
 PCOD9046256
Probable space group: P -1
;
_chemical_formula_sum "Si O2"
_cell_formula_units_Z 16
_cell_length_a 5.586848
_cell_length_b 19.229913
_cell_length_c 8.898579
_cell_angle_alpha 50.124814
_cell_angle_beta 122.418353
_cell_angle_gamma 108.112254
_cell_volume 618.551213
_symmetry_space_group_name_H-M "P -1"
_symmetry_group_IT_number 2
_symmetry_cell_setting 'triclinic'
loop_
_space_group_symop_operation_xyz
x,y,z
-x,-y,-z
loop_
_atom_site_type_symbol
_atom_site_label
_atom_site_fract_x
_atom_site_fract_y
_atom_site_fract_z
Si Si1 0.363321 0.300981 0.015888
Si Si2 0.945822 0.000245 0.662614
Si Si3 0.837324 0.506282 0.594243
Si Si4 0.977243 0.301449 0.614443
Si Si5 0.890927 0.406242 0.031477
Si Si6 0.485034 0.121966 0.200813
Si Si7 0.366839 0.262135 0.409516
Si Si8 0.285502 0.122232 0.818658
O O1 0.545041 0.227360 0.076227
O O2 0.351606 0.252738 0.238848
O O3 0.079366 0.302968 0.819313
O O4 0.560591 0.387034 0.972377
O O5 0.684705 0.075553 0.458361
O O6 0.136848 0.039278 0.805388
O O7 0.824658 0.906682 0.808432
O O8 0.000000 0.000000 0.500000
O O9 0.500000 0.500000 0.500000
O O10 0.889700 0.607651 0.529220
O O11 0.000000 0.500000 0.500000
O O12 0.952209 0.423970 0.851989
O O13 0.085823 0.205249 0.710290
O O14 0.642502 0.316870 0.462369
O O15 0.078219 0.319611 0.269316
O O16 0.000000 0.500000 0.000000
O O17 0.492490 0.092496 0.068110
O O18 0.410747 0.172408 0.647212
#
# Coordination Sequence:
#
# PCOD9046256 Si02
#       8
#     2   2   2   2   2   2   2   2
#     4  11  24  47  68  99 136 188 235 305 364 447
#     4  11  23  43  69 102 138 181 228 291 361 442
#     4  12  27  47  75 106 148 198 258 313 380 450
#     4  11  26  45  72 101 141 191 247 304 372 439
#     4  12  27  45  68 100 147 188 248 308 378 439
#     4  10  24  42  69  97 137 177 232 288 361 433
#     4  12  25  42  69 101 137 184 245 298 369 436
#     4  11  25  44  68 102 142 181 238 296 363 442
#
# _framework density 25.866897000000002
#
# number of rings (size 3 to 8) (size 9 to 14) (size 15 to 20)
#    0.000    0.750    1.250    5.625    3.500    7.500 
#    0.000    0.000    0.000    0.000    0.000    0.000 
#    0.000    0.000    0.000    0.000    0.000    0.000 
#
# Total GULP energy -89358.777801 kJ/mol
# GULP energy per Si atom -5584.923613 kJ/mol
# Density = 2.580802 g / cm^3
# Si number density = 25.866897 Si / 1000 Ang^3
#
#
#
# Elastic Constant Matrix: (Units=GPa)
#
#
# Indices 1 2 3 4 5 6 
#
# 1 60.1168 18.8869 1.9991 21.2664 -16.8358 -3.8342
# 2 18.8869 136.3077 15.0308 23.6249 -4.6212 -1.4542
# 3 1.9991 15.0308 147.5337 27.4765 -23.6676 3.8340
# 4 21.2664 23.6249 27.4765 52.7913 -3.0837 -2.5314
# 5 -16.8358 -4.6212 -23.6676 -3.0837 50.0363 6.6704
# 6 -3.8342 -1.4542 3.8340 -2.5314 6.6704 38.5984
#
#
#
# Elastic Compliance Matrix: (Units=1/GPa)
#
#
# Indices 1 2 3 4 5 6 
#
# 1 0.022714 -0.001543 0.002965 -0.009523 0.008337 -0.000162
# 2 -0.001543 0.008072 -0.000285 -0.002847 -0.000085 0.000007
# 3 0.002965 -0.000285 0.008601 -0.005340 0.004947 -0.001776
# 4 -0.009523 -0.002847 -0.005340 0.026659 -0.004620 0.002024
# 5 0.008337 -0.000085 0.004947 -0.004620 0.025420 -0.004362
# 6 -0.000162 0.000007 -0.001776 0.002024 -0.004362 0.026955
#
#
# Mechanical properties :
#
#
# Convention : Reuss Voigt Hill
#
# Bulk Modulus (GPa) = 24.00311 46.19909 35.10110
# Shear Modulus (GPa) = 38.45135 48.82131 43.63633
#
# Velocity S-wave (km/s) = 3.85971 4.34914 4.11171
# Velocity P-wave (km/s) = 5.40025 6.56652 6.01173
#
# Compressibility (1/GPa) = 0.04166127
#
# Stress axis : x y z
#
# Youngs Moduli (GPa) = 44.02615 123.88182 116.26259
#
# Poissons Ratio (x) = 0.19110 -0.34468
# Poissons Ratio (y) = 0.06792 0.03314
# Poissons Ratio (z) = -0.13052 0.03531
#
# Static dielectric constant tensor:
#      x y z
#    x 2.369270 0.077690 0.127550 
#    y 0.077690 2.178370 0.053830 
#    z 0.127550 0.053830 2.118930 
# 
# From -- ./inp_files/141202.got.cif
#   From: 2010.05.17/outbox.cif.g08.bks.cpg/sg2_71_cif.got.tgz:141202.got - 2010.06.03 11:33:40.
