data_PCOD9046432
_publ_section_title
;
Structure prediction by ZEFSAII (Michael W. Deem and Ramdas Pophale) SiO2 
 PCOD9046432
Probable space group: P -1
;
_chemical_formula_sum "Si O2"
_cell_formula_units_Z 13
_cell_length_a 21.731785
_cell_length_b 5.094562
_cell_length_c 21.727496
_cell_angle_alpha 115.514152
_cell_angle_beta 12.659912
_cell_angle_gamma 115.272051
_cell_volume 475.522939
_symmetry_space_group_name_H-M "P -1"
_symmetry_group_IT_number 2
_symmetry_cell_setting 'triclinic'
loop_
_space_group_symop_operation_xyz
x,y,z
-x,-y,-z
loop_
_atom_site_type_symbol
_atom_site_label
_atom_site_fract_x
_atom_site_fract_y
_atom_site_fract_z
Si Si1 0.640309 0.369220 0.671654
Si Si2 0.891317 0.779368 0.887798
Si Si3 0.000000 0.000000 0.000000
Si Si4 0.956677 0.742323 0.618668
Si Si5 0.784671 0.699005 0.307388
Si Si6 0.557849 0.953284 0.867219
Si Si7 0.724749 0.620891 0.165772
O O1 0.377366 0.161502 0.887028
O O2 0.482745 0.653875 0.877234
O O3 0.855409 0.290031 0.507983
O O4 0.859877 0.400153 0.404070
O O5 0.759415 0.609302 0.058027
O O6 0.049612 0.073203 0.786242
O O7 0.170095 0.174743 0.790927
O O8 0.290054 0.047265 0.766747
O O9 0.000000 0.500000 0.500000
O O10 0.109492 0.020790 0.465823
O O11 0.632724 0.798363 0.950969
O O12 0.492716 0.600678 0.613770
O O13 0.959348 0.397727 0.113673
O O14 0.500000 0.000000 0.000000
#
# Coordination Sequence:
#
# PCOD9046432 Si02
#       7
#     2   2   1   2   2   2   2
#     4  12  26  46  72 101 144 186 248 308 368 443
#     4  11  26  45  68 100 142 196 246 302 360 436
#     4  10  24  42  72 116 144 190 236 302 358 416
#     4  12  26  44  73 103 138 182 232 301 380 449
#     4  11  24  44  72 103 148 191 244 294 358 428
#     4  12  26  44  73 103 138 182 232 301 380 449
#     4  11  24  44  72 103 148 191 244 294 358 428
#
# _framework density 27.338322000000002
#
# number of rings (size 3 to 8) (size 9 to 14) (size 15 to 20)
#    0.000    0.615    1.538    5.538    2.154    9.846 
#    0.000    0.000    0.000    0.000    0.000    0.000 
#    0.000    0.000    0.000    0.000    0.000    0.000 
#
# Total GULP energy -72574.895732 kJ/mol
# GULP energy per Si atom -5582.684287 kJ/mol
# Density = 2.727610 g / cm^3
# Si number density = 27.338322 Si / 1000 Ang^3
#
#
#
# Elastic Constant Matrix: (Units=GPa)
#
#
# Indices 1 2 3 4 5 6 
#
# 1 167.5150 50.9283 72.8503 -7.3160 16.2959 14.2718
# 2 50.9283 99.5373 49.3509 -16.9754 12.5718 8.9258
# 3 72.8503 49.3509 163.5978 -4.9820 18.9479 -3.4198
# 4 -7.3160 -16.9754 -4.9820 58.7323 -6.4896 0.5520
# 5 16.2959 12.5718 18.9479 -6.4896 35.7918 -7.5232
# 6 14.2718 8.9258 -3.4198 0.5520 -7.5232 46.4916
#
#
#
# Elastic Compliance Matrix: (Units=1/GPa)
#
#
# Indices 1 2 3 4 5 6 
#
# 1 0.008340 -0.002394 -0.002813 -0.000092 -0.002038 -0.002636
# 2 -0.002394 0.013689 -0.002763 0.003204 -0.002198 -0.002490
# 3 -0.002813 -0.002763 0.008444 -0.000668 -0.001982 0.001702
# 4 -0.000092 0.003204 -0.000668 0.018161 0.002468 -0.000452
# 5 -0.002038 -0.002198 -0.001982 0.002468 0.032422 0.006119
# 6 -0.002636 -0.002490 0.001702 -0.000452 0.006119 0.023917
#
#
# Mechanical properties :
#
#
# Convention : Reuss Voigt Hill
#
# Bulk Modulus (GPa) = 68.81932 86.32323 77.57127
# Shear Modulus (GPa) = 39.75901 45.37119 42.56510
#
# Velocity S-wave (km/s) = 3.81771 4.07826 3.95013
# Velocity P-wave (km/s) = 6.68289 7.33626 7.01719
#
# Compressibility (1/GPa) = 0.01453080
#
# Stress axis : x y z
#
# Youngs Moduli (GPa) = 119.90724 73.05246 118.43164
#
# Poissons Ratio (x) = 0.17490 0.33320
# Poissons Ratio (y) = 0.28707 0.32725
# Poissons Ratio (z) = 0.33735 0.20186
#
# Static dielectric constant tensor:
#      x y z
#    x 2.159670 0.138850 0.021700 
#    y 0.138850 2.631850 0.169670 
#    z 0.021700 0.169670 2.159420 
# 
# From -- ./inp_files/613910.got.cif
#   From: 2010.05.17/outbox.cif.g08.bks.cpg/sg2_307_cif.got.tgz:613910.got - 2010.06.03 11:33:40.
