data_PCOD9046714
_publ_section_title
;
Structure prediction by ZEFSAII (Michael W. Deem and Ramdas Pophale) SiO2 
 PCOD9046714
Probable space group: P -1
;
_chemical_formula_sum "Si O2"
_cell_formula_units_Z 12
_cell_length_a 14.539658
_cell_length_b 5.213327
_cell_length_c 9.226358
_cell_angle_alpha 52.307394
_cell_angle_beta 59.583448
_cell_angle_gamma 70.546396
_cell_volume 476.954416
_symmetry_space_group_name_H-M "P -1"
_symmetry_group_IT_number 2
_symmetry_cell_setting 'triclinic'
loop_
_space_group_symop_operation_xyz
x,y,z
-x,-y,-z
loop_
_atom_site_type_symbol
_atom_site_label
_atom_site_fract_x
_atom_site_fract_y
_atom_site_fract_z
Si Si1 0.384815 0.703454 0.139961
Si Si2 0.440845 0.368505 0.733652
Si Si3 0.027743 0.127031 0.589636
Si Si4 0.903360 0.839558 0.042339
Si Si5 0.790707 0.349998 0.121002
Si Si6 0.754577 0.812513 0.722666
O O1 0.484865 0.594311 0.196819
O O2 0.334211 0.399179 0.209529
O O3 0.299701 0.884046 0.254362
O O4 0.413807 0.985529 0.903857
O O5 0.500000 0.500000 0.500000
O O6 0.329121 0.568148 0.763658
O O7 0.156666 0.099701 0.495914
O O8 0.000000 0.500000 0.500000
O O9 0.940450 0.976867 0.813746
O O10 0.000000 0.000000 0.500000
O O11 0.808368 0.993040 0.162470
O O12 0.870470 0.482825 0.137190
O O13 0.000000 0.000000 0.000000
O O14 0.805388 0.573637 0.887924
#
# Coordination Sequence:
#
# PCOD9046714 Si02
#       6
#     2   2   2   2   2   2
#     4  10  24  43  67 104 132 176 226 286 337 402
#     4  10  24  45  71  97 138 179 233 283 346 410
#     4  12  22  39  67  97 124 176 227 257 323 414
#     4  12  25  42  63  99 137 170 219 278 335 402
#     4  11  23  42  66  92 132 182 211 275 346 392
#     4  11  21  41  70  96 138 171 226 277 333 405
#
# _framework density 25.159635000000002
#
# number of rings (size 3 to 8) (size 9 to 14) (size 15 to 20)
#    0.000    1.000    3.333    3.500    0.000   10.000 
#    0.000   11.667    0.000    0.000    0.000    0.000 
#    0.000    0.000    0.000    0.000    0.000    0.000 
#
# Total GULP energy -67039.351589 kJ/mol
# GULP energy per Si atom -5586.612632 kJ/mol
# Density = 2.510237 g / cm^3
# Si number density = 25.159635 Si / 1000 Ang^3
#
#
#
# Elastic Constant Matrix: (Units=GPa)
#
#
# Indices 1 2 3 4 5 6 
#
# 1 80.7242 22.1259 10.3203 2.2900 -9.0634 23.1829
# 2 22.1259 141.9697 54.9559 32.3694 -2.0072 13.4722
# 3 10.3203 54.9559 178.4361 10.9881 -24.0824 -1.7829
# 4 2.2900 32.3694 10.9881 32.4489 1.4618 -3.8895
# 5 -9.0634 -2.0072 -24.0824 1.4618 29.9747 13.7318
# 6 23.1829 13.4722 -1.7829 -3.8895 13.7318 42.9780
#
#
#
# Elastic Compliance Matrix: (Units=1/GPa)
#
#
# Indices 1 2 3 4 5 6 
#
# 1 0.017919 -0.001122 0.001023 -0.002673 0.012480 -0.013501
# 2 -0.001122 0.011057 -0.002635 -0.010587 0.000703 -0.004153
# 3 0.001023 -0.002635 0.007274 -0.000404 0.006736 -0.001613
# 4 -0.002673 -0.010587 -0.000404 0.043521 -0.009303 0.011655
# 5 0.012480 0.000703 0.006736 -0.009303 0.054462 -0.024916
# 6 -0.013501 -0.004153 -0.001613 0.011655 -0.024916 0.040801
#
#
# Mechanical properties :
#
#
# Convention : Reuss Voigt Hill
#
# Bulk Modulus (GPa) = 32.48573 63.99271 48.23922
# Shear Modulus (GPa) = 26.21072 41.99550 34.10311
#
# Velocity S-wave (km/s) = 3.23116 4.08997 3.68566
# Velocity P-wave (km/s) = 5.18270 6.91330 6.10959
#
# Compressibility (1/GPa) = 0.03078274
#
# Stress axis : x y z
#
# Youngs Moduli (GPa) = 55.80711 90.44376 137.46667
#
# Poissons Ratio (x) = 0.10145 -0.14065
# Poissons Ratio (y) = 0.06260 0.36223
# Poissons Ratio (z) = -0.05710 0.23832
#
# Static dielectric constant tensor:
#      x y z
#    x 2.188400 -0.062740 0.025950 
#    y -0.062740 1.718200 -0.002910 
#    z 0.025950 -0.002910 2.053280 
# 
# From -- ./inp_files/286155.got.cif
#   From: 2010.05.17/outbox.cif.g08.bks.cpg/sg2_144_cif.got.tgz:286155.got - 2010.06.03 11:33:40.
