data_PCOD9046531
_publ_section_title
;
Structure prediction by ZEFSAII (Michael W. Deem and Ramdas Pophale) SiO2 
 PCOD9046531
Probable space group: P -1
;
_chemical_formula_sum "Si O2"
_cell_formula_units_Z 16
_cell_length_a 13.493497
_cell_length_b 9.881543
_cell_length_c 9.094448
_cell_angle_alpha 136.874470
_cell_angle_beta 114.038876
_cell_angle_gamma 60.926837
_cell_volume 721.676280
_symmetry_space_group_name_H-M "P -1"
_symmetry_group_IT_number 2
_symmetry_cell_setting 'triclinic'
loop_
_space_group_symop_operation_xyz
x,y,z
-x,-y,-z
loop_
_atom_site_type_symbol
_atom_site_label
_atom_site_fract_x
_atom_site_fract_y
_atom_site_fract_z
Si Si1 0.160332 0.733241 0.528907
Si Si2 0.323325 0.819729 0.920277
Si Si3 0.313647 0.853666 0.485196
Si Si4 0.737119 0.353020 0.958581
Si Si5 0.048827 0.042296 0.220906
Si Si6 0.233977 0.252402 0.549378
Si Si7 0.497380 0.272974 0.272851
Si Si8 0.739606 0.717269 0.742043
O O1 0.261732 0.698048 0.681331
O O2 0.206094 0.842130 0.509743
O O3 0.163307 0.493023 0.318474
O O4 0.047769 0.877303 0.651131
O O5 0.446146 0.791731 0.902753
O O6 0.322086 0.735202 0.014848
O O7 0.243660 0.057796 0.048414
O O8 0.336147 0.648431 0.233026
O O9 0.413269 0.862093 0.661630
O O10 0.291176 0.046675 0.514855
O O11 0.856785 0.175688 0.860478
O O12 0.764042 0.555790 0.194761
O O13 0.113658 0.219481 0.401124
O O14 0.000000 0.000000 0.000000
O O15 0.289487 0.274380 0.443508
O O16 0.500000 0.500000 0.500000
O O17 0.370814 0.270674 0.218724
#
# Coordination Sequence:
#
# PCOD9046531 Si02
#       8
#     2   2   2   2   2   2   2   2
#     4  11  23  41  67  94 130 168 217 267 313 380
#     4  11  21  41  63  94 128 166 213 265 312 385
#     4  10  24  43  62  93 134 165 212 265 325 379
#     4  11  22  43  62  93 139 168 208 269 321 378
#     4  11  21  40  68  99 127 171 218 262 316 380
#     4  11  23  41  65  94 136 169 210 265 324 379
#     4  11  22  43  68  92 129 169 212 268 321 379
#     4  12  21  41  67  93 126 170 216 265 318 376
#
# _framework density 22.170604999999998
#
# number of rings (size 3 to 8) (size 9 to 14) (size 15 to 20)
#    0.000    1.000    7.500    0.375    0.000    7.500 
#    2.250    2.500    0.000    0.000    0.000    0.000 
#    0.000    0.000    0.000    0.000    0.000    0.000 
#
# Total GULP energy -89283.413726 kJ/mol
# GULP energy per Si atom -5580.213358 kJ/mol
# Density = 2.212014 g / cm^3
# Si number density = 22.170605 Si / 1000 Ang^3
#
#
#
# Elastic Constant Matrix: (Units=GPa)
#
#
# Indices 1 2 3 4 5 6 
#
# 1 74.7028 19.1960 34.4378 -8.2126 -22.7335 10.2255
# 2 19.1960 78.0844 19.6738 9.0524 -10.4723 13.4095
# 3 34.4378 19.6738 112.0684 19.5907 -4.3479 8.0739
# 4 -8.2126 9.0524 19.5907 44.8555 7.7166 -0.3208
# 5 -22.7335 -10.4723 -4.3479 7.7166 38.3900 1.3608
# 6 10.2255 13.4095 8.0739 -0.3208 1.3608 23.5773
#
#
#
# Elastic Compliance Matrix: (Units=1/GPa)
#
#
# Indices 1 2 3 4 5 6 
#
# 1 0.021485 -0.001687 -0.006298 0.005126 0.010759 -0.006753
# 2 -0.001687 0.015900 -0.000810 -0.003970 0.004340 -0.008339
# 3 -0.006298 -0.000810 0.012073 -0.006040 -0.001336 -0.000947
# 4 0.005126 -0.003970 -0.006040 0.027438 -0.004344 0.002727
# 5 0.010759 0.004340 -0.001336 -0.004344 0.034635 -0.008735
# 6 -0.006753 -0.008339 -0.000947 0.002727 -0.008735 0.050951
#
#
# Mechanical properties :
#
#
# Convention : Reuss Voigt Hill
#
# Bulk Modulus (GPa) = 31.37879 45.71898 38.54888
# Shear Modulus (GPa) = 26.22005 34.13444 30.17725
#
# Velocity S-wave (km/s) = 3.44270 3.92806 3.69336
# Velocity P-wave (km/s) = 5.47603 6.42177 5.96767
#
# Compressibility (1/GPa) = 0.03186866
#
# Stress axis : x y z
#
# Youngs Moduli (GPa) = 46.54354 62.89435 82.83024
#
# Poissons Ratio (x) = 0.10607 0.52169
# Poissons Ratio (y) = 0.07850 0.06707
# Poissons Ratio (z) = 0.29314 0.05093
#
# Static dielectric constant tensor:
#      x y z
#    x 1.841420 -0.001630 0.008300 
#    y -0.001630 1.842190 0.012480 
#    z 0.008300 0.012480 1.862760 
# 
# From -- ./inp_files/299710.got.cif
#   From: 2010.05.17/outbox.cif.g08.bks.cpg/sg2_150_cif.got.tgz:299710.got - 2010.06.03 11:33:40.
