data_PCOD9046062
_publ_section_title
;
Structure prediction by ZEFSAII (Michael W. Deem and Ramdas Pophale) SiO2 
 PCOD9046062
Probable space group: P -1
;
_chemical_formula_sum "Si O2"
_cell_formula_units_Z 16
_cell_length_a 15.766107
_cell_length_b 8.659169
_cell_length_c 9.252722
_cell_angle_alpha 75.568041
_cell_angle_beta 107.681981
_cell_angle_gamma 142.550186
_cell_volume 731.746816
_symmetry_space_group_name_H-M "P -1"
_symmetry_group_IT_number 2
_symmetry_cell_setting 'triclinic'
loop_
_space_group_symop_operation_xyz
x,y,z
-x,-y,-z
loop_
_atom_site_type_symbol
_atom_site_label
_atom_site_fract_x
_atom_site_fract_y
_atom_site_fract_z
Si Si1 0.855950 0.266987 0.894031
Si Si2 0.864746 0.226123 0.567540
Si Si3 0.356513 0.235934 0.912028
Si Si4 0.248796 0.536587 0.277497
Si Si5 0.455931 0.769387 0.099487
Si Si6 0.959797 0.015454 0.632444
Si Si7 0.262246 0.440565 0.814530
Si Si8 0.647344 0.194308 0.447263
O O1 0.881142 0.255801 0.743062
O O2 0.779039 0.330920 0.838331
O O3 0.000000 0.500000 0.000000
O O4 0.756355 0.998443 0.981969
O O5 0.867895 0.047780 0.561088
O O6 0.722812 0.129373 0.481345
O O7 0.000000 0.500000 0.500000
O O8 0.414376 0.172649 0.859728
O O9 0.289062 0.301367 0.796318
O O10 0.500000 0.500000 0.000000
O O11 0.396842 0.690010 0.249305
O O12 0.251388 0.572168 0.441281
O O13 0.127401 0.237843 0.264343
O O14 0.321351 0.524040 0.988597
O O15 0.500000 0.000000 0.000000
O O16 0.100008 0.254376 0.741325
O O17 0.000000 0.000000 0.500000
O O18 0.354459 0.702096 0.719786
O O19 0.500000 0.000000 0.500000
#
# Coordination Sequence:
#
# PCOD9046062 Si02
#       8
#     2   2   2   2   2   2   2   2
#     4  11  24  44  69 100 137 179 230 282 350 421
#     4  11  25  45  73 100 137 185 230 293 351 408
#     4  10  24  42  66  98 142 179 222 284 350 413
#     4  11  24  42  68  99 137 175 224 293 339 403
#     4  11  23  43  67 101 136 175 229 283 343 418
#     4  12  24  46  67 102 143 174 233 292 344 412
#     4  11  24  43  69  95 137 185 224 281 350 411
#     4  11  24  46  69 100 139 185 232 280 348 421
#
# _framework density 21.865485
#
# number of rings (size 3 to 8) (size 9 to 14) (size 15 to 20)
#    0.000    1.000    3.750    2.250   10.500    0.500 
#    6.750    1.250    0.000    0.000    0.000    0.000 
#    0.000    0.000    0.000    0.000    0.000    0.000 
#
# Total GULP energy -89398.891637 kJ/mol
# GULP energy per Si atom -5587.430727 kJ/mol
# Density = 2.181572 g / cm^3
# Si number density = 21.865485 Si / 1000 Ang^3
#
#
#
# Elastic Constant Matrix: (Units=GPa)
#
#
# Indices 1 2 3 4 5 6 
#
# 1 168.4917 25.8600 38.8360 -16.4191 4.4875 -5.6844
# 2 25.8600 110.6945 16.1595 -14.6497 0.1340 5.6869
# 3 38.8360 16.1595 74.5696 -1.4919 -2.2561 -0.9369
# 4 -16.4191 -14.6497 -1.4919 22.8197 -2.7942 -0.5723
# 5 4.4875 0.1340 -2.2561 -2.7942 32.4808 -3.8165
# 6 -5.6844 5.6869 -0.9369 -0.5723 -3.8165 34.3442
#
#
#
# Elastic Compliance Matrix: (Units=1/GPa)
#
#
# Indices 1 2 3 4 5 6 
#
# 1 0.007377 -0.000649 -0.003616 0.004596 -0.000728 0.001225
# 2 -0.000649 0.010336 -0.001796 0.006036 0.000237 -0.001741
# 3 -0.003616 -0.001796 0.015677 -0.002551 0.001405 0.000240
# 4 0.004596 0.006036 -0.002551 0.051312 0.003689 0.000957
# 5 -0.000728 0.000237 0.001405 0.003689 0.031709 0.003464
# 6 0.001225 -0.001741 0.000240 0.000957 0.003464 0.030015
#
#
# Mechanical properties :
#
#
# Convention : Reuss Voigt Hill
#
# Bulk Modulus (GPa) = 47.01889 57.27409 52.14649
# Shear Modulus (GPa) = 30.18652 36.12230 33.15441
#
# Velocity S-wave (km/s) = 3.71961 4.06892 3.89818
# Velocity P-wave (km/s) = 6.32438 6.95165 6.64542
#
# Compressibility (1/GPa) = 0.02126805
#
# Stress axis : x y z
#
# Youngs Moduli (GPa) = 135.56246 96.75234 63.78791
#
# Poissons Ratio (x) = 0.06282 0.23064
# Poissons Ratio (y) = 0.08802 0.11453
# Poissons Ratio (z) = 0.49016 0.17372
#
# Static dielectric constant tensor:
#      x y z
#    x 1.828320 -0.048470 -0.018230 
#    y -0.048470 1.763550 0.015330 
#    z -0.018230 0.015330 1.783680 
# 
# From -- ./inp_files/297969.got.cif
#   From: 2010.05.17/outbox.cif.g08.bks.cpg/sg2_149_cif.got.tgz:297969.got - 2010.06.03 11:33:40.
