data_PCOD9046882
_publ_section_title
;
Structure prediction by ZEFSAII (Michael W. Deem and Ramdas Pophale) SiO2 
 PCOD9046882
Probable space group: P -1
;
_chemical_formula_sum "Si O2"
_cell_formula_units_Z 16
_cell_length_a 20.155577
_cell_length_b 11.347263
_cell_length_c 9.387132
_cell_angle_alpha 80.645654
_cell_angle_beta 66.516002
_cell_angle_gamma 137.332689
_cell_volume 907.988622
_symmetry_space_group_name_H-M "P -1"
_symmetry_group_IT_number 2
_symmetry_cell_setting 'triclinic'
loop_
_space_group_symop_operation_xyz
x,y,z
-x,-y,-z
loop_
_atom_site_type_symbol
_atom_site_label
_atom_site_fract_x
_atom_site_fract_y
_atom_site_fract_z
Si Si1 0.898368 0.964975 0.644207
Si Si2 0.327680 0.556758 0.044083
Si Si3 0.547600 0.182710 0.827442
Si Si4 0.932622 0.528440 0.100717
Si Si5 0.001680 0.678387 0.330046
Si Si6 0.584716 0.073486 0.554939
Si Si7 0.943292 0.656568 0.777083
Si Si8 0.204513 0.757951 0.202109
O O1 0.737150 0.670132 0.884719
O O2 0.977045 0.157130 0.663606
O O3 0.000000 0.000000 0.500000
O O4 0.908773 0.072626 0.482637
O O5 0.347636 0.594764 0.191479
O O6 0.199465 0.465271 0.118334
O O7 0.479860 0.822702 0.777535
O O8 0.609121 0.217861 0.619808
O O9 0.500000 0.000000 0.000000
O O10 0.386390 0.015663 0.970247
O O11 0.747737 0.256478 0.333700
O O12 0.002487 0.669297 0.163274
O O13 0.965382 0.671602 0.920918
O O14 0.000000 0.500000 0.000000
O O15 0.137565 0.792892 0.254881
O O16 0.846343 0.390335 0.584259
O O17 0.500000 0.000000 0.500000
O O18 0.890086 0.452115 0.797253
#
# Coordination Sequence:
#
# PCOD9046882 Si02
#       8
#     2   2   2   2   2   2   2   2
#     4   9  21  37  59  77 113 157 191 236 274 342
#     4  10  19  37  58  83 114 146 193 234 284 338
#     4  10  18  31  58  80 111 142 192 237 281 332
#     4  12  23  35  57  90 119 148 182 241 297 342
#     4  10  21  33  57  84 115 150 194 226 297 331
#     4  11  21  34  58  87 117 142 187 243 292 328
#     4  10  18  36  55  84 118 144 185 241 280 331
#     4  10  17  34  56  85 111 145 188 251 278 329
#
# _framework density 17.621365999999998
#
# number of rings (size 3 to 8) (size 9 to 14) (size 15 to 20)
#    0.000    1.750    5.000    1.500    3.500    0.000 
#    0.000    4.375    0.000    0.750    0.000    0.000 
#    0.000    0.000    0.000    0.000    0.000    0.000 
#
# Total GULP energy -89140.087939 kJ/mol
# GULP energy per Si atom -5571.255496 kJ/mol
# Density = 1.758126 g / cm^3
# Si number density = 17.621366 Si / 1000 Ang^3
#
#
#
# Elastic Constant Matrix: (Units=GPa)
#
#
# Indices 1 2 3 4 5 6 
#
# 1 69.2982 48.1585 38.8418 4.8096 -11.5720 -1.0876
# 2 48.1585 102.5643 41.2796 23.2507 14.7377 -2.5137
# 3 38.8418 41.2796 95.3445 11.0844 2.0978 2.1683
# 4 4.8096 23.2507 11.0844 34.1259 3.6320 6.5579
# 5 -11.5720 14.7377 2.0978 3.6320 34.3681 6.8239
# 6 -1.0876 -2.5137 2.1683 6.5579 6.8239 22.5777
#
#
#
# Elastic Compliance Matrix: (Units=1/GPa)
#
#
# Indices 1 2 3 4 5 6 
#
# 1 0.033730 -0.018219 -0.007208 0.009492 0.020316 -0.008609
# 2 -0.018219 0.024992 -0.001614 -0.014281 -0.017528 0.011506
# 3 -0.007208 -0.001614 0.014445 -0.002223 -0.002266 -0.000584
# 4 0.009492 -0.014281 -0.002223 0.040457 0.008188 -0.015145
# 5 0.020316 -0.017528 -0.002266 0.008188 0.046117 -0.017072
# 6 -0.008609 0.011506 -0.000584 -0.015145 -0.017072 0.054772
#
#
# Mechanical properties :
#
#
# Convention : Reuss Voigt Hill
#
# Bulk Modulus (GPa) = 52.39534 58.19629 55.29581
# Shear Modulus (GPa) = 18.18463 27.47615 22.83039
#
# Velocity S-wave (km/s) = 3.21591 3.95302 3.60336
# Velocity P-wave (km/s) = 6.60212 7.34390 6.98286
#
# Compressibility (1/GPa) = 0.01908567
#
# Stress axis : x y z
#
# Youngs Moduli (GPa) = 29.64696 40.01212 69.22757
#
# Poissons Ratio (x) = 0.72898 0.49899
# Poissons Ratio (y) = 0.54014 0.11174
# Poissons Ratio (z) = 0.21370 0.06458
#
# Static dielectric constant tensor:
#      x y z
#    x 1.620780 0.018100 -0.017080 
#    y 0.018100 1.663540 -0.001540 
#    z -0.017080 -0.001540 1.653370 
# 
# From -- ./inp_files/254258.got.cif
#   From: 2010.05.17/outbox.cif.g08.bks.cpg/sg2_128_cif.got.tgz:254258.got - 2010.06.03 11:33:40.
