data_PCOD9046397
_publ_section_title
;
Structure prediction by ZEFSAII (Michael W. Deem and Ramdas Pophale) SiO2 
 PCOD9046397
Probable space group: P -1
;
_chemical_formula_sum "Si O2"
_cell_formula_units_Z 14
_cell_length_a 15.541543
_cell_length_b 7.650658
_cell_length_c 5.241099
_cell_angle_alpha 117.553168
_cell_angle_beta 87.406733
_cell_angle_gamma 110.517857
_cell_volume 512.300823
_symmetry_space_group_name_H-M "P -1"
_symmetry_group_IT_number 2
_symmetry_cell_setting 'triclinic'
loop_
_space_group_symop_operation_xyz
x,y,z
-x,-y,-z
loop_
_atom_site_type_symbol
_atom_site_label
_atom_site_fract_x
_atom_site_fract_y
_atom_site_fract_z
Si Si1 0.000000 0.000000 0.500000
Si Si2 0.483040 0.251236 0.910753
Si Si3 0.169331 0.382380 0.907617
Si Si4 0.165743 0.838128 0.118014
Si Si5 0.500000 0.500000 0.500000
Si Si6 0.721868 0.061017 0.320420
Si Si7 0.009531 0.290778 0.236372
Si Si8 0.344899 0.582256 0.304259
O O1 0.892686 0.807755 0.387598
O O2 0.025930 0.890656 0.675839
O O3 0.490901 0.267750 0.223537
O O4 0.500000 0.500000 0.000000
O O5 0.571224 0.241484 0.748401
O O6 0.381512 0.108988 0.748513
O O7 0.165050 0.599826 0.945030
O O8 0.111391 0.348909 0.156143
O O9 0.274459 0.427617 0.004138
O O10 0.217195 0.927219 0.431596
O O11 0.224132 0.961870 0.953231
O O12 0.056419 0.800336 0.072248
O O13 0.392762 0.463872 0.401011
O O14 0.707009 0.285435 0.458585
O O15 0.000000 0.500000 0.500000
#
# Coordination Sequence:
#
# PCOD9046397 Si02
#       8
#     1   2   2   2   1   2   2   2
#     4  12  28  44  80 114 156 204 272 320 396 468
#     4  10  24  46  69 109 148 202 253 326 387 463
#     4  11  26  49  73 116 157 208 259 328 399 466
#     4  11  26  47  82 116 157 209 265 325 397 475
#     4  10  24  42  72 100 152 192 250 322 386 456
#     4  11  26  46  80 118 148 212 268 319 395 479
#     4  12  25  50  80 113 160 209 262 330 391 474
#     4  10  24  45  73 106 153 202 259 321 391 467
#
# _framework density 27.327693
#
# number of rings (size 3 to 8) (size 9 to 14) (size 15 to 20)
#    0.000    1.143    1.429    3.000   10.000    2.857 
#    0.000    0.000    0.000    0.000    0.000    0.000 
#    0.000    0.000    0.000    0.000    0.000    0.000 
#
# Total GULP energy -78024.420695 kJ/mol
# GULP energy per Si atom -5573.172907 kJ/mol
# Density = 2.726549 g / cm^3
# Si number density = 27.327693 Si / 1000 Ang^3
#
#
#
# Elastic Constant Matrix: (Units=GPa)
#
#
# Indices 1 2 3 4 5 6 
#
# 1 153.9686 30.6652 41.5619 5.0773 40.6850 25.9984
# 2 30.6652 129.8700 42.7395 5.2292 21.7052 27.1924
# 3 41.5619 42.7395 84.4727 1.4321 37.4620 10.8108
# 4 5.0773 5.2292 1.4321 58.2848 15.7898 0.7599
# 5 40.6850 21.7052 37.4620 15.7898 67.2296 8.6422
# 6 25.9984 27.1924 10.8108 0.7599 8.6422 50.0406
#
#
#
# Elastic Compliance Matrix: (Units=1/GPa)
#
#
# Indices 1 2 3 4 5 6 
#
# 1 0.008606 -0.000012 -0.002195 0.000332 -0.003626 -0.003369
# 2 -0.000012 0.010179 -0.004561 -0.000747 0.000020 -0.004532
# 3 -0.002195 -0.004561 0.018758 0.002385 -0.008337 0.000970
# 4 0.000332 -0.000747 0.002385 0.018684 -0.005731 0.000424
# 5 -0.003626 0.000020 -0.008337 -0.005731 0.023083 -0.000225
# 6 -0.003369 -0.004532 0.000970 0.000424 -0.000225 0.024020
#
#
# Mechanical properties :
#
#
# Convention : Reuss Voigt Hill
#
# Bulk Modulus (GPa) = 41.65055 66.47162 54.06109
# Shear Modulus (GPa) = 40.04257 52.00066 46.02162
#
# Velocity S-wave (km/s) = 3.83204 4.36691 4.10819
# Velocity P-wave (km/s) = 5.90370 7.05714 6.50603
#
# Compressibility (1/GPa) = 0.02400929
#
# Stress axis : x y z
#
# Youngs Moduli (GPa) = 116.20205 98.23784 53.31014
#
# Poissons Ratio (x) = 0.00114 0.11700
# Poissons Ratio (y) = 0.00135 0.24313
# Poissons Ratio (z) = 0.25502 0.44804
#
# Static dielectric constant tensor:
#      x y z
#    x 2.097640 -0.083910 0.058170 
#    y -0.083910 2.126180 -0.016110 
#    z 0.058170 -0.016110 2.039760 
# 
# From -- ./inp_files/87983.got.cif
#   From: 2010.05.17/outbox.cif.g08.bks.cpg/sg2_44_cif.got.tgz:87983.got - 2010.06.03 11:33:40.
