data_PCOD9046453
_publ_section_title
;
Structure prediction by ZEFSAII (Michael W. Deem and Ramdas Pophale) SiO2 
 PCOD9046453
Probable space group: P -1
;
_chemical_formula_sum "Si O2"
_cell_formula_units_Z 14
_cell_length_a 18.103141
_cell_length_b 9.451582
_cell_length_c 9.290224
_cell_angle_alpha 59.622388
_cell_angle_beta 150.493161
_cell_angle_gamma 119.956918
_cell_volume 668.833286
_symmetry_space_group_name_H-M "P -1"
_symmetry_group_IT_number 2
_symmetry_cell_setting 'triclinic'
loop_
_space_group_symop_operation_xyz
x,y,z
-x,-y,-z
loop_
_atom_site_type_symbol
_atom_site_label
_atom_site_fract_x
_atom_site_fract_y
_atom_site_fract_z
Si Si1 0.568627 0.832466 0.726770
Si Si2 0.913046 0.386951 0.632803
Si Si3 0.170452 0.273746 0.316554
Si Si4 0.656430 0.619356 0.723341
Si Si5 0.874308 0.339442 0.267617
Si Si6 0.647934 0.433384 0.344300
Si Si7 0.163651 0.022372 0.687820
O O1 0.638414 0.748262 0.752412
O O2 0.423741 0.707763 0.597637
O O3 0.500000 0.000000 0.500000
O O4 0.703926 0.870075 0.052662
O O5 0.922033 0.312748 0.526683
O O6 0.742861 0.370962 0.407514
O O7 0.984217 0.579948 0.631253
O O8 0.013475 0.306352 0.960764
O O9 0.286534 0.281890 0.375185
O O10 0.238367 0.428818 0.450912
O O11 0.153967 0.112860 0.471424
O O12 0.500000 0.500000 0.500000
O O13 0.771921 0.487366 0.019424
O O14 0.798473 0.164589 0.169878
O O15 0.500000 0.500000 0.000000
O O16 0.000000 0.000000 0.500000
#
# Coordination Sequence:
#
# PCOD9046453 Si02
#       7
#     2   2   2   2   2   2   2
#     4  12  28  46  70 106 141 183 230 295 358 409
#     4  10  24  42  73 100 138 188 240 282 351 427
#     4  11  25  43  73 104 138 187 237 287 354 417
#     4  11  23  47  75 101 143 183 238 287 350 426
#     4  10  24  45  72 103 140 191 233 287 356 418
#     4  12  23  44  69 104 139 184 232 289 351 423
#     4  12  28  45  70 105 148 180 235 296 352 412
#
# _framework density 20.931971999999998
#
# number of rings (size 3 to 8) (size 9 to 14) (size 15 to 20)
#    0.000    0.857    2.857    3.000   10.000    1.714 
#    0.000    2.143    0.000    0.000    0.000    0.000 
#    0.000    0.000    0.000    0.000    0.000    0.000 
#
# Total GULP energy -78274.252770 kJ/mol
# GULP energy per Si atom -5591.018055 kJ/mol
# Density = 2.088433 g / cm^3
# Si number density = 20.931972 Si / 1000 Ang^3
#
#
#
# Elastic Constant Matrix: (Units=GPa)
#
#
# Indices 1 2 3 4 5 6 
#
# 1 142.6947 49.7329 42.7233 -16.1152 2.6230 13.9392
# 2 49.7329 92.6030 4.4304 -15.2513 -6.0905 -2.8247
# 3 42.7233 4.4304 100.6986 -6.6117 0.2206 -1.5280
# 4 -16.1152 -15.2513 -6.6117 35.1947 4.2663 -5.2610
# 5 2.6230 -6.0905 0.2206 4.2663 37.0826 3.4872
# 6 13.9392 -2.8247 -1.5280 -5.2610 3.4872 34.9347
#
#
#
# Elastic Compliance Matrix: (Units=1/GPa)
#
#
# Indices 1 2 3 4 5 6 
#
# 1 0.010919 -0.005695 -0.004373 0.001175 -0.001375 -0.004694
# 2 -0.005695 0.014756 0.002124 0.004561 0.001908 0.004055
# 3 -0.004373 0.002124 0.011832 0.001516 0.000164 0.002646
# 4 0.001175 0.004561 0.001516 0.032423 -0.003563 0.005204
# 5 -0.001375 0.001908 0.000164 -0.003563 0.028033 -0.002625
# 6 -0.004694 0.004055 0.002646 0.005204 -0.002625 0.031987
#
#
# Mechanical properties :
#
#
# Convention : Reuss Voigt Hill
#
# Bulk Modulus (GPa) = 46.25715 58.86326 52.56021
# Shear Modulus (GPa) = 32.67057 37.38304 35.02681
#
# Velocity S-wave (km/s) = 3.95498 4.23061 4.09511
# Velocity P-wave (km/s) = 6.55764 7.21432 6.89380
#
# Compressibility (1/GPa) = 0.02161828
#
# Stress axis : x y z
#
# Youngs Moduli (GPa) = 91.58736 67.76984 84.51784
#
# Poissons Ratio (x) = 0.38593 0.36959
# Poissons Ratio (y) = 0.52157 -0.17949
# Poissons Ratio (z) = 0.40050 -0.14392
#
# Static dielectric constant tensor:
#      x y z
#    x 1.760830 -0.038480 0.042390 
#    y -0.038480 1.637410 0.070410 
#    z 0.042390 0.070410 1.736390 
# 
# From -- ./inp_files/186477.got.cif
#   From: 2010.05.17/outbox.cif.g08.bks.cpg/sg2_94_cif.got.tgz:186477.got - 2010.06.03 11:33:40.
