data_PCOD9046720
_publ_section_title
;
Structure prediction by ZEFSAII (Michael W. Deem and Ramdas Pophale) SiO2 
 PCOD9046720
Probable space group: P -1
;
_chemical_formula_sum "Si O2"
_cell_formula_units_Z 14
_cell_length_a 14.705574
_cell_length_b 11.526634
_cell_length_c 9.845755
_cell_angle_alpha 109.882768
_cell_angle_beta 147.237231
_cell_angle_gamma 47.452530
_cell_volume 545.203504
_symmetry_space_group_name_H-M "P -1"
_symmetry_group_IT_number 2
_symmetry_cell_setting 'triclinic'
loop_
_space_group_symop_operation_xyz
x,y,z
-x,-y,-z
loop_
_atom_site_type_symbol
_atom_site_label
_atom_site_fract_x
_atom_site_fract_y
_atom_site_fract_z
Si Si1 0.466389 0.202897 0.956073
Si Si2 0.176588 0.609233 0.736153
Si Si3 0.061730 0.168095 0.201337
Si Si4 0.766081 0.821586 0.096626
Si Si5 0.576708 0.267734 0.537964
Si Si6 0.667643 0.307923 0.376806
Si Si7 0.968905 0.347039 0.891274
O O1 0.249710 0.424371 0.729829
O O2 0.361178 0.192152 0.952887
O O3 0.703150 0.159743 0.284086
O O4 0.566768 0.046441 0.913727
O O5 0.988185 0.742926 0.680035
O O6 0.020728 0.735823 0.458580
O O7 0.458625 0.500428 0.098371
O O8 0.299486 0.937414 0.402189
O O9 0.806210 0.226829 0.869612
O O10 0.087934 0.255404 0.151112
O O11 0.856007 0.698574 0.027390
O O12 0.518594 0.351970 0.346977
O O13 0.315816 0.432373 0.363616
O O14 0.911455 0.242868 0.715543
#
# Coordination Sequence:
#
# PCOD9046720 Si02
#       7
#     2   2   2   2   2   2   2
#     4   9  21  41  53  78 107 153 184 219 262 343
#     4  10  19  37  58  79 104 153 180 218 262 338
#     4  10  19  33  59  79 112 148 179 213 281 320
#     4  11  23  35  60  78 113 142 186 222 281 305
#     4  10  17  34  56  82 111 148 177 218 269 337
#     4   9  18  36  59  77 114 138 186 217 269 320
#     4  11  20  36  53  91 112 136 174 243 261 319
#
# _framework density 25.678484000000001
#
# number of rings (size 3 to 8) (size 9 to 14) (size 15 to 20)
#    0.857    1.143    2.857    2.143    0.000    2.286 
#    0.000    2.857    0.000    5.143    0.000    0.000 
#    0.000    0.000    0.000    0.000    0.000    0.000 
#
# Total GULP energy -78229.762413 kJ/mol
# GULP energy per Si atom -5587.840172 kJ/mol
# Density = 2.562004 g / cm^3
# Si number density = 25.678484 Si / 1000 Ang^3
#
#
#
# Elastic Constant Matrix: (Units=GPa)
#
#
# Indices 1 2 3 4 5 6 
#
# 1 62.6839 44.9332 23.0265 -11.8049 -9.6790 -35.2879
# 2 44.9332 113.4780 36.1236 -37.0038 -12.5399 -16.7272
# 3 23.0265 36.1236 94.5799 -8.8850 -2.3726 -11.5271
# 4 -11.8049 -37.0038 -8.8850 48.1108 3.0354 1.6203
# 5 -9.6790 -12.5399 -2.3726 3.0354 37.6806 9.2894
# 6 -35.2879 -16.7272 -11.5271 1.6203 9.2894 42.3257
#
#
#
# Elastic Compliance Matrix: (Units=1/GPa)
#
#
# Indices 1 2 3 4 5 6 
#
# 1 0.041580 -0.011464 -0.002139 0.000027 -0.000589 0.029681
# 2 -0.011464 0.017263 -0.003377 0.009812 0.002950 -0.004678
# 3 -0.002139 -0.003377 0.012344 -0.000799 -0.000951 0.000483
# 4 0.000027 0.009812 -0.000799 0.028085 0.000335 0.002534
# 5 -0.000589 0.002950 -0.000951 0.000335 0.028738 -0.005904
# 6 0.029681 -0.004678 0.000483 0.002534 -0.005904 0.047853
#
#
# Mechanical properties :
#
#
# Convention : Reuss Voigt Hill
#
# Bulk Modulus (GPa) = 26.86300 53.21206 40.03753
# Shear Modulus (GPa) = 22.49915 36.73401 29.61658
#
# Velocity S-wave (km/s) = 2.96326 3.78635 3.39980
# Velocity P-wave (km/s) = 4.71082 6.31527 5.57111
#
# Compressibility (1/GPa) = 0.03722592
#
# Stress axis : x y z
#
# Youngs Moduli (GPa) = 24.05020 57.92886 81.01425
#
# Poissons Ratio (x) = 0.66410 0.17331
# Poissons Ratio (y) = 0.27571 0.27355
# Poissons Ratio (z) = 0.05145 0.19560
#
# Static dielectric constant tensor:
#      x y z
#    x 2.132110 0.014310 0.117380 
#    y 0.014310 1.966050 0.009960 
#    z 0.117380 0.009960 2.049050 
# 
# From -- ./inp_files/315498.got.cif
#   From: 2010.05.17/outbox.cif.g08.bks.cpg/sg2_158_cif.got.tgz:315498.got - 2010.06.03 11:33:40.
