data_PCOD9046772
_publ_section_title
;
Structure prediction by ZEFSAII (Michael W. Deem and Ramdas Pophale) SiO2 
 PCOD9046772
Probable space group: P -1
;
_chemical_formula_sum "Si O2"
_cell_formula_units_Z 16
_cell_length_a 17.882077
_cell_length_b 7.419197
_cell_length_c 18.298353
_cell_angle_alpha 118.453958
_cell_angle_beta 22.676247
_cell_angle_gamma 105.941652
_cell_volume 718.830980
_symmetry_space_group_name_H-M "P -1"
_symmetry_group_IT_number 2
_symmetry_cell_setting 'triclinic'
loop_
_space_group_symop_operation_xyz
x,y,z
-x,-y,-z
loop_
_atom_site_type_symbol
_atom_site_label
_atom_site_fract_x
_atom_site_fract_y
_atom_site_fract_z
Si Si1 0.528991 0.256654 0.274100
Si Si2 0.515589 0.148573 0.713239
Si Si3 0.414217 0.654949 0.919170
Si Si4 0.698697 0.933606 0.251813
Si Si5 0.170998 0.685579 0.757348
Si Si6 0.093092 0.179628 0.287720
Si Si7 0.339272 0.431408 0.175114
Si Si8 0.026826 0.920151 0.772578
O O1 0.488150 0.035224 0.262407
O O2 0.478892 0.380339 0.264602
O O3 0.365218 0.426755 0.516099
O O4 0.789567 0.158326 0.036871
O O5 0.410100 0.413161 0.888491
O O6 0.373838 0.137133 0.770863
O O7 0.764349 0.060011 0.442381
O O8 0.550415 0.678210 0.867708
O O9 0.191482 0.903044 0.160606
O O10 0.500000 0.000000 0.500000
O O11 0.733995 0.160202 0.260705
O O12 0.947024 0.726166 0.007073
O O13 0.088257 0.800587 0.773191
O O14 0.272666 0.261320 0.159311
O O15 0.017010 0.222015 0.280016
O O16 0.885750 0.332684 0.556008
O O17 0.500000 0.500000 0.000000
#
# Coordination Sequence:
#
# PCOD9046772 Si02
#       8
#     2   2   2   2   2   2   2   2
#     4  11  25  44  72  99 135 184 228 284 345 392
#     4  12  24  44  71 101 133 185 232 279 335 416
#     4  11  24  45  70 100 140 173 229 278 334 405
#     4  11  23  42  69  98 140 179 228 282 345 401
#     4  11  23  44  68  97 138 182 220 295 341 391
#     4  10  24  43  68 100 137 176 216 286 332 391
#     4  11  24  44  70 103 136 175 227 270 336 414
#     4  11  22  45  68 100 138 170 238 278 328 418
#
# _framework density 22.258362000000002
#
# number of rings (size 3 to 8) (size 9 to 14) (size 15 to 20)
#    0.000    1.000    5.000    0.375    3.500    4.000 
#    0.000    7.500    0.000    0.000    0.000    0.000 
#    0.000    0.000    0.000    0.000    0.000    0.000 
#
# Total GULP energy -89426.874092 kJ/mol
# GULP energy per Si atom -5589.179631 kJ/mol
# Density = 2.220770 g / cm^3
# Si number density = 22.258362 Si / 1000 Ang^3
#
#
#
# Elastic Constant Matrix: (Units=GPa)
#
#
# Indices 1 2 3 4 5 6 
#
# 1 80.7957 26.6140 16.7488 -5.0370 -17.1858 29.4318
# 2 26.6140 94.5384 42.1497 5.8131 -6.9967 19.2794
# 3 16.7488 42.1497 149.5621 -1.8424 6.3300 5.7872
# 4 -5.0370 5.8131 -1.8424 44.9420 7.4118 -1.4001
# 5 -17.1858 -6.9967 6.3300 7.4118 32.5075 1.5661
# 6 29.4318 19.2794 5.7872 -1.4001 1.5661 37.0699
#
#
#
# Elastic Compliance Matrix: (Units=1/GPa)
#
#
# Indices 1 2 3 4 5 6 
#
# 1 0.022118 -0.000775 -0.002131 -0.000163 0.012815 -0.017372
# 2 -0.000775 0.014415 -0.003949 -0.003056 0.004475 -0.006570
# 3 -0.002131 -0.003949 0.008119 0.001348 -0.003994 0.002697
# 4 -0.000163 -0.003056 0.001348 0.023851 -0.006574 0.002687
# 5 0.012815 0.004475 -0.003994 -0.006574 0.041446 -0.013878
# 6 -0.017372 -0.006570 0.002697 0.002687 -0.013878 0.044452
#
#
# Mechanical properties :
#
#
# Convention : Reuss Voigt Hill
#
# Bulk Modulus (GPa) = 32.31731 55.10235 43.70983
# Shear Modulus (GPa) = 28.02306 38.86279 33.44292
#
# Velocity S-wave (km/s) = 3.55207 4.18303 3.88040
# Velocity P-wave (km/s) = 5.60122 6.93829 6.30530
#
# Compressibility (1/GPa) = 0.03094317
#
# Stress axis : x y z
#
# Youngs Moduli (GPa) = 45.21200 69.37083 123.17032
#
# Poissons Ratio (x) = 0.05379 0.26242
# Poissons Ratio (y) = 0.03506 0.48634
# Poissons Ratio (z) = 0.09633 0.27391
#
# Static dielectric constant tensor:
#      x y z
#    x 1.833140 -0.013600 0.011860 
#    y -0.013600 1.809830 0.015500 
#    z 0.011860 0.015500 1.877750 
# 
# From -- ./inp_files/599547.got.cif
#   From: 2010.05.17/outbox.cif.g08.bks.cpg/sg2_300_cif.got.tgz:599547.got - 2010.06.03 11:33:40.
