data_PCOD9046853
_publ_section_title
;
Structure prediction by ZEFSAII (Michael W. Deem and Ramdas Pophale) SiO2 
 PCOD9046853
Probable space group: P -1
;
_chemical_formula_sum "Si O2"
_cell_formula_units_Z 16
_cell_length_a 9.495381
_cell_length_b 11.509652
_cell_length_c 13.736995
_cell_angle_alpha 67.641441
_cell_angle_beta 63.757091
_cell_angle_gamma 120.713745
_cell_volume 715.423224
_symmetry_space_group_name_H-M "P -1"
_symmetry_group_IT_number 2
_symmetry_cell_setting 'triclinic'
loop_
_space_group_symop_operation_xyz
x,y,z
-x,-y,-z
loop_
_atom_site_type_symbol
_atom_site_label
_atom_site_fract_x
_atom_site_fract_y
_atom_site_fract_z
Si Si1 0.774560 0.649993 0.668761
Si Si2 0.495739 0.628405 0.899637
Si Si3 0.681606 0.768034 0.155577
Si Si4 0.163450 0.915488 0.273852
Si Si5 0.923586 0.240726 0.264499
Si Si6 0.405822 0.780211 0.521116
Si Si7 0.250638 0.393980 0.669307
Si Si8 0.692712 0.249470 0.653511
O O1 0.651128 0.700996 0.728174
O O2 0.515930 0.384853 0.826661
O O3 0.936902 0.758852 0.481570
O O4 0.961392 0.724651 0.676444
O O5 0.652475 0.843541 0.836644
O O6 0.500000 0.500000 0.000000
O O7 0.171957 0.439033 0.054898
O O8 0.690776 0.633137 0.238491
O O9 0.520879 0.777960 0.252881
O O10 0.000000 0.000000 0.000000
O O11 0.334418 0.897519 0.232376
O O12 0.013255 0.818399 0.245856
O O13 0.732406 0.235716 0.343396
O O14 0.732115 0.002161 0.362256
O O15 0.280635 0.561312 0.616885
O O16 0.339442 0.804391 0.432255
O O17 0.500000 0.500000 0.500000
O O18 0.000000 0.500000 0.500000
#
# Coordination Sequence:
#
# PCOD9046853 Si02
#       8
#     2   2   2   2   2   2   2   2
#     4  11  22  43  68  97 136 181 233 271 351 410
#     4  10  26  41  66  95 139 174 227 288 335 405
#     4  12  28  42  69 108 141 174 224 299 351 405
#     4  12  24  44  74 102 130 191 234 278 346 424
#     4  10  24  43  68  97 134 187 227 285 344 406
#     4  11  22  42  72  97 138 179 235 283 344 414
#     4  12  24  41  71 103 135 174 233 285 349 410
#     4  12  21  46  72 101 137 181 230 286 340 421
#
# _framework density 22.364384999999999
#
# number of rings (size 3 to 8) (size 9 to 14) (size 15 to 20)
#    0.000    0.750    6.250    0.375    8.750    2.000 
#    0.000    1.875    0.000    0.000    0.000    0.000 
#    0.000    0.000    0.000    0.000    0.000    0.000 
#
# Total GULP energy -89228.539775 kJ/mol
# GULP energy per Si atom -5576.783736 kJ/mol
# Density = 2.231348 g / cm^3
# Si number density = 22.364385 Si / 1000 Ang^3
#
#
#
# Elastic Constant Matrix: (Units=GPa)
#
#
# Indices 1 2 3 4 5 6 
#
# 1 81.2056 23.2275 23.4419 -5.9122 -12.0581 -3.0091
# 2 23.2275 111.4703 30.0949 -27.6373 -11.9685 -0.8096
# 3 23.4419 30.0949 69.3746 -25.1730 -28.0584 -1.1663
# 4 -5.9122 -27.6373 -25.1730 41.5378 0.9653 -1.9135
# 5 -12.0581 -11.9685 -28.0584 0.9653 33.1561 -2.8029
# 6 -3.0091 -0.8096 -1.1663 -1.9135 -2.8029 43.8787
#
#
#
# Elastic Compliance Matrix: (Units=1/GPa)
#
#
# Indices 1 2 3 4 5 6 
#
# 1 0.014171 -0.002208 -0.004114 -0.001931 0.000999 0.000801
# 2 -0.002208 0.011634 -0.000689 0.006971 0.002654 0.000518
# 3 -0.004114 -0.000689 0.033765 0.018946 0.026542 0.003124
# 4 -0.001931 0.006971 0.018946 0.039678 0.016972 0.003314
# 5 0.000999 0.002654 0.026542 0.016972 0.053872 0.005004
# 6 0.000801 0.000518 0.003124 0.003314 0.005004 0.023402
#
#
# Mechanical properties :
#
#
# Convention : Reuss Voigt Hill
#
# Bulk Modulus (GPa) = 21.95439 46.17545 34.06492
# Shear Modulus (GPa) = 24.30411 36.06696 30.18554
#
# Velocity S-wave (km/s) = 3.30014 4.02020 3.67783
# Velocity P-wave (km/s) = 4.93551 6.49931 5.77062
#
# Compressibility (1/GPa) = 0.04554899
#
# Stress axis : x y z
#
# Youngs Moduli (GPa) = 70.56680 85.95275 29.61623
#
# Poissons Ratio (x) = 0.18978 0.12183
# Poissons Ratio (y) = 0.15581 0.02041
# Poissons Ratio (z) = 0.29030 0.05922
#
# Static dielectric constant tensor:
#      x y z
#    x 1.823450 -0.006110 -0.048810 
#    y -0.006110 1.845000 0.018800 
#    z -0.048810 0.018800 1.852180 
# 
# From -- ./inp_files/356595.got.cif
#   From: 2010.05.17/outbox.cif.g08.bks.cpg/sg2_179_cif.got.tgz:356595.got - 2010.06.03 11:33:40.
