data_PCOD9046475
_publ_section_title
;
Structure prediction by ZEFSAII (Michael W. Deem and Ramdas Pophale) SiO2 
 PCOD9046475
Probable space group: P -1
;
_chemical_formula_sum "Si O2"
_cell_formula_units_Z 15
_cell_length_a 7.598251
_cell_length_b 9.169544
_cell_length_c 17.485458
_cell_angle_alpha 35.520083
_cell_angle_beta 82.146525
_cell_angle_gamma 65.101112
_cell_volume 590.905381
_symmetry_space_group_name_H-M "P -1"
_symmetry_group_IT_number 2
_symmetry_cell_setting 'triclinic'
loop_
_space_group_symop_operation_xyz
x,y,z
-x,-y,-z
loop_
_atom_site_type_symbol
_atom_site_label
_atom_site_fract_x
_atom_site_fract_y
_atom_site_fract_z
Si Si1 0.099358 0.266217 0.523514
Si Si2 0.959507 0.150178 0.202023
Si Si3 0.439128 0.151064 0.268085
Si Si4 0.797808 0.673249 0.086862
Si Si5 0.474038 0.644450 0.211656
Si Si6 0.428902 0.726413 0.337902
Si Si7 0.500000 0.500000 0.000000
Si Si8 0.869302 0.520897 0.732497
O O1 0.063252 0.404539 0.382842
O O2 0.000000 0.500000 0.500000
O O3 0.029241 0.038559 0.643564
O O4 0.349638 0.068674 0.605108
O O5 0.938872 0.449499 0.106758
O O6 0.749742 0.263201 0.116554
O O7 0.180594 0.907167 0.254370
O O8 0.416158 0.448440 0.109331
O O9 0.255202 0.215889 0.309704
O O10 0.457934 0.984083 0.258463
O O11 0.660457 0.548797 0.182262
O O12 0.925435 0.705061 0.134467
O O13 0.636252 0.999963 0.926705
O O14 0.557702 0.540844 0.336261
O O15 0.301954 0.566237 0.235643
O O16 0.500000 0.500000 0.500000
#
# Coordination Sequence:
#
# PCOD9046475 Si02
#       8
#     2   2   2   2   2   2   1   2
#     4  11  25  45  70 108 143 189 246 303 369 431
#     4  11  24  47  71 106 145 192 245 299 367 438
#     4  11  24  45  71 103 143 187 241 296 364 436
#     4  11  26  47  73 107 142 192 244 303 368 437
#     4  11  26  47  70 105 150 184 243 303 368 436
#     4  12  26  44  72 106 145 188 241 303 362 435
#     4  10  24  42  74 102 142 186 236 302 354 428
#     4  12  25  47  74 104 145 195 242 300 369 442
#
# _framework density 25.384775999999999
#
# number of rings (size 3 to 8) (size 9 to 14) (size 15 to 20)
#    0.000    0.800    1.333    5.600    5.600    3.733 
#    9.600    0.000    0.000    0.000    0.000    0.000 
#    0.000    0.000    0.000    0.000    0.000    0.000 
#
# Total GULP energy -83633.597721 kJ/mol
# GULP energy per Si atom -5575.573181 kJ/mol
# Density = 2.532700 g / cm^3
# Si number density = 25.384776 Si / 1000 Ang^3
#
#
#
# Elastic Constant Matrix: (Units=GPa)
#
#
# Indices 1 2 3 4 5 6 
#
# 1 79.9033 15.3991 -0.3213 17.6021 9.0273 -1.7716
# 2 15.3991 89.4928 48.3830 15.3283 -12.2575 -2.2019
# 3 -0.3213 48.3830 90.3624 30.5926 12.8120 -14.3094
# 4 17.6021 15.3283 30.5926 45.0966 -5.4279 1.1163
# 5 9.0273 -12.2575 12.8120 -5.4279 30.6123 1.8117
# 6 -1.7716 -2.2019 -14.3094 1.1163 1.8117 37.1966
#
#
#
# Elastic Compliance Matrix: (Units=1/GPa)
#
#
# Indices 1 2 3 4 5 6 
#
# 1 0.023086 -0.014452 0.020077 -0.021007 -0.025304 0.009830
# 2 -0.014452 0.030700 -0.029927 0.019833 0.033342 -0.012603
# 3 0.020077 -0.029927 0.050068 -0.037811 -0.046857 0.021863
# 4 -0.021007 0.019833 -0.037811 0.054628 0.040712 -0.017994
# 5 -0.025304 0.033342 -0.046857 0.040712 0.081637 -0.022455
# 6 0.009830 -0.012603 0.021863 -0.017994 -0.022455 0.036651
#
#
# Mechanical properties :
#
#
# Convention : Reuss Voigt Hill
#
# Bulk Modulus (GPa) = 18.09993 42.96447 30.53220
# Shear Modulus (GPa) = 14.54366 35.66762 25.10564
#
# Velocity S-wave (km/s) = 2.39619 3.75250 3.14825
# Velocity P-wave (km/s) = 3.84725 5.97805 5.02685
#
# Compressibility (1/GPa) = 0.05524884
#
# Stress axis : x y z
#
# Youngs Moduli (GPa) = 43.31703 32.57296 19.97265
#
# Poissons Ratio (x) = 0.47076 -0.40099
# Poissons Ratio (y) = 0.62604 0.59772
# Poissons Ratio (z) = -0.86967 0.97482
#
# Static dielectric constant tensor:
#      x y z
#    x 2.097400 0.031630 -0.063930 
#    y 0.031630 2.021440 -0.010210 
#    z -0.063930 -0.010210 1.978830 
# 
# From -- ./inp_files/494231.got.cif
#   From: 2010.05.17/outbox.cif.g08.bks.cpg/sg2_248_cif.got.tgz:494231.got - 2010.06.03 11:33:40.
