data_PCOD9046635
_publ_section_title
;
Structure prediction by ZEFSAII (Michael W. Deem and Ramdas Pophale) SiO2 
 PCOD9046635
Probable space group: P -1
;
_chemical_formula_sum "Si O2"
_cell_formula_units_Z 16
_cell_length_a 14.078574
_cell_length_b 4.879521
_cell_length_c 11.352076
_cell_angle_alpha 118.946386
_cell_angle_beta 118.098435
_cell_angle_gamma 70.049984
_cell_volume 595.481547
_symmetry_space_group_name_H-M "P -1"
_symmetry_group_IT_number 2
_symmetry_cell_setting 'triclinic'
loop_
_space_group_symop_operation_xyz
x,y,z
-x,-y,-z
loop_
_atom_site_type_symbol
_atom_site_label
_atom_site_fract_x
_atom_site_fract_y
_atom_site_fract_z
Si Si1 0.156822 0.619685 0.908819
Si Si2 0.453247 0.700283 0.856513
Si Si3 0.784582 0.559875 0.502858
Si Si4 0.647100 0.150175 0.793619
Si Si5 0.064140 0.523647 0.233808
Si Si6 0.702258 0.463542 0.677984
Si Si7 0.941862 0.196843 0.363755
Si Si8 0.694239 0.789134 0.251726
O O1 0.112153 0.769705 0.789711
O O2 0.226047 0.297396 0.831699
O O3 0.043416 0.591948 0.902411
O O4 0.241126 0.785589 0.066305
O O5 0.549048 0.419204 0.823859
O O6 0.373765 0.514066 0.848929
O O7 0.382469 0.884832 0.750053
O O8 0.500000 0.000000 0.000000
O O9 0.982293 0.137599 0.664660
O O10 0.703479 0.484447 0.542355
O O11 0.844011 0.239242 0.409881
O O12 0.743765 0.765110 0.408196
O O13 0.662434 0.184441 0.668705
O O14 0.634590 0.796151 0.748043
O O15 0.169004 0.540356 0.218497
O O16 0.122747 0.316189 0.334262
O O17 0.000000 0.500000 0.500000
#
# Coordination Sequence:
#
# PCOD9046635 Si02
#       8
#     2   2   2   2   2   2   2   2
#     4  11  26  39  72 106 143 186 237 284 358 424
#     4  12  26  49  75 105 138 179 237 312 361 406
#     4   9  23  43  68 102 145 180 235 281 352 412
#     4  12  27  48  70  99 144 189 245 285 355 420
#     4  10  24  43  66 105 150 189 228 283 353 410
#     4  10  27  46  70  99 150 195 226 285 345 435
#     4  11  21  38  68 102 141 185 236 292 337 405
#     4  11  26  44  77 111 133 176 239 305 365 408
#
# _framework density 26.869009999999999
#
# number of rings (size 3 to 8) (size 9 to 14) (size 15 to 20)
#    0.750    0.500    2.500    1.500   10.500    3.000 
#    0.000    3.750    0.000    0.000    0.000    0.000 
#    0.000    0.000    0.000    0.000    0.000    0.000 
#
# Total GULP energy -89432.382567 kJ/mol
# GULP energy per Si atom -5589.523910 kJ/mol
# Density = 2.680786 g / cm^3
# Si number density = 26.869010 Si / 1000 Ang^3
#
#
#
# Elastic Constant Matrix: (Units=GPa)
#
#
# Indices 1 2 3 4 5 6 
#
# 1 74.1704 22.0406 -6.6481 4.1802 -3.1484 -12.0139
# 2 22.0406 154.6083 37.0182 4.0564 5.0028 -20.2218
# 3 -6.6481 37.0182 70.0111 -10.9294 3.1156 -5.2486
# 4 4.1802 4.0564 -10.9294 42.4523 0.8135 -1.9775
# 5 -3.1484 5.0028 3.1156 0.8135 32.4475 -2.6190
# 6 -12.0139 -20.2218 -5.2486 -1.9775 -2.6190 45.6111
#
#
#
# Elastic Compliance Matrix: (Units=1/GPa)
#
#
# Indices 1 2 3 4 5 6 
#
# 1 0.015100 -0.002447 0.002830 -0.000406 0.001848 0.003307
# 2 -0.002447 0.008316 -0.004668 -0.001628 -0.000838 0.002387
# 3 0.002830 -0.004668 0.017875 0.004826 -0.000771 0.000898
# 4 -0.000406 -0.001628 0.004826 0.025045 -0.000818 0.000765
# 5 0.001848 -0.000838 -0.000771 -0.000818 0.031367 0.001792
# 6 0.003307 0.002387 0.000898 0.000765 0.001792 0.024093
#
#
# Mechanical properties :
#
#
# Convention : Reuss Voigt Hill
#
# Bulk Modulus (GPa) = 30.55981 44.84569 37.70275
# Shear Modulus (GPa) = 35.39247 40.52745 37.95996
#
# Velocity S-wave (km/s) = 3.63329 3.88794 3.76277
# Velocity P-wave (km/s) = 5.38511 6.07301 5.73938
#
# Compressibility (1/GPa) = 0.03272271
#
# Stress axis : x y z
#
# Youngs Moduli (GPa) = 66.22441 120.24506 55.94373
#
# Poissons Ratio (x) = 0.29422 -0.15832
# Poissons Ratio (y) = 0.16204 0.26112
# Poissons Ratio (z) = -0.18741 0.56125
#
# Static dielectric constant tensor:
#      x y z
#    x 2.262330 0.005900 0.056860 
#    y 0.005900 2.056440 0.022790 
#    z 0.056860 0.022790 2.147790 
# 
# From -- ./inp_files/441433.got.cif
#   From: 2010.05.17/outbox.cif.g08.bks.cpg/sg2_221_cif.got.tgz:441433.got - 2010.06.03 11:33:40.
