data_PCOD9046007
_publ_section_title
;
Structure prediction by ZEFSAII (Michael W. Deem and Ramdas Pophale) SiO2 
 PCOD9046007
Probable space group: P -1
;
_chemical_formula_sum "Si O2"
_cell_formula_units_Z 15
_cell_length_a 9.517946
_cell_length_b 8.397767
_cell_length_c 11.748247
_cell_angle_alpha 50.883540
_cell_angle_beta 114.842857
_cell_angle_gamma 99.590838
_cell_volume 654.647969
_symmetry_space_group_name_H-M "P -1"
_symmetry_group_IT_number 2
_symmetry_cell_setting 'triclinic'
loop_
_space_group_symop_operation_xyz
x,y,z
-x,-y,-z
loop_
_atom_site_type_symbol
_atom_site_label
_atom_site_fract_x
_atom_site_fract_y
_atom_site_fract_z
Si Si1 0.915466 0.336545 0.779156
Si Si2 0.204293 0.550833 0.720607
Si Si3 0.553086 0.584796 0.301595
Si Si4 0.627514 0.689833 0.513202
Si Si5 0.137948 0.017780 0.448685
Si Si6 0.604141 0.138466 0.048107
Si Si7 0.500000 0.500000 0.000000
Si Si8 0.958659 0.066917 0.142338
O O1 0.039466 0.493649 0.726974
O O2 0.747066 0.472509 0.644222
O O3 0.960781 0.145971 0.793329
O O4 0.937055 0.236304 0.957455
O O5 0.283713 0.412792 0.707045
O O6 0.202354 0.777738 0.567143
O O7 0.324665 0.513809 0.882092
O O8 0.557627 0.732638 0.344704
O O9 0.512105 0.366093 0.430804
O O10 0.421787 0.649956 0.132792
O O11 0.729032 0.856495 0.517479
O O12 0.065271 0.113807 0.263271
O O13 0.000000 0.000000 0.500000
O O14 0.537073 0.241440 0.095902
O O15 0.786431 0.051751 0.142249
O O16 0.500000 0.000000 0.000000
#
# Coordination Sequence:
#
# PCOD9046007 Si02
#       8
#     2   2   2   2   2   2   1   2
#     4  11  24  45  70 101 140 186 237 290 354 425
#     4  11  24  44  69 102 134 184 233 292 349 424
#     4  10  24  44  68  95 138 183 231 289 353 413
#     4  11  24  45  67 100 139 184 232 291 352 425
#     4  12  26  41  69 105 138 182 234 292 356 418
#     4  11  23  41  69 100 137 188 232 293 353 428
#     4  10  24  42  66 102 140 172 236 286 362 410
#     4  11  25  43  68 104 140 184 238 293 355 421
#
# _framework density 22.913079
#
# number of rings (size 3 to 8) (size 9 to 14) (size 15 to 20)
#    0.000    1.067    2.667    3.200    5.600    4.267 
#    0.000    0.000    0.000    0.000    0.000    0.000 
#    0.000    0.000    0.000    0.000    0.000    0.000 
#
# Total GULP energy -83510.243509 kJ/mol
# GULP energy per Si atom -5567.349567 kJ/mol
# Density = 2.286093 g / cm^3
# Si number density = 22.913079 Si / 1000 Ang^3
#
#
#
# Elastic Constant Matrix: (Units=GPa)
#
#
# Indices 1 2 3 4 5 6 
#
# 1 91.7947 17.2550 -0.5965 -3.2259 8.8200 10.4675
# 2 17.2550 77.0470 -8.7333 -11.5288 -4.9374 21.3888
# 3 -0.5965 -8.7333 52.3698 2.4725 12.6441 3.3441
# 4 -3.2259 -11.5288 2.4725 34.1181 -1.4258 12.5148
# 5 8.8200 -4.9374 12.6441 -1.4258 14.6800 -7.0271
# 6 10.4675 21.3888 3.3441 12.5148 -7.0271 40.4693
#
#
#
# Elastic Compliance Matrix: (Units=1/GPa)
#
#
# Indices 1 2 3 4 5 6 
#
# 1 0.013358 -0.001467 0.003682 0.002155 -0.014428 -0.006155
# 2 -0.001467 0.019101 0.003897 0.010996 -0.001544 -0.013706
# 3 0.003682 0.003897 0.027579 0.002549 -0.029795 -0.011253
# 4 0.002155 0.010996 0.002549 0.040129 -0.005436 -0.019933
# 5 -0.014428 -0.001544 -0.029795 -0.005436 0.115134 0.028683
# 6 -0.006155 -0.013706 -0.011253 -0.019933 0.028683 0.045621
#
#
# Mechanical properties :
#
#
# Convention : Reuss Voigt Hill
#
# Bulk Modulus (GPa) = 13.83864 26.34021 20.08943
# Shear Modulus (GPa) = 18.32953 32.07257 25.20105
#
# Velocity S-wave (km/s) = 2.83142 3.74538 3.32000
# Velocity P-wave (km/s) = 4.09170 5.49768 4.84595
#
# Compressibility (1/GPa) = 0.07226141
#
# Stress axis : x y z
#
# Youngs Moduli (GPa) = 74.86398 52.35352 36.25995
#
# Poissons Ratio (x) = 0.07682 -0.13351
# Poissons Ratio (y) = 0.10986 -0.14132
# Poissons Ratio (z) = -0.27566 -0.20404
#
# Static dielectric constant tensor:
#      x y z
#    x 1.896090 -0.131050 -0.031320 
#    y -0.131050 1.936050 -0.045980 
#    z -0.031320 -0.045980 1.931040 
# 
# From -- ./inp_files/276734.got.cif
#   From: 2010.05.17/outbox.cif.g08.bks.cpg/sg2_139_cif.got.tgz:276734.got - 2010.06.03 11:33:40.
