data_PCOD9046993
_publ_section_title
;
Structure prediction by ZEFSAII (Michael W. Deem and Ramdas Pophale) SiO2 
 PCOD9046993
Probable space group: P -1
;
_chemical_formula_sum "Si O2"
_cell_formula_units_Z 8
_cell_length_a 5.017278
_cell_length_b 7.446364
_cell_length_c 10.293183
_cell_angle_alpha 118.459816
_cell_angle_beta 109.690167
_cell_angle_gamma 104.494802
_cell_volume 276.337026
_symmetry_space_group_name_H-M "P -1"
_symmetry_group_IT_number 2
_symmetry_cell_setting 'triclinic'
loop_
_space_group_symop_operation_xyz
x,y,z
-x,-y,-z
loop_
_atom_site_type_symbol
_atom_site_label
_atom_site_fract_x
_atom_site_fract_y
_atom_site_fract_z
Si Si1 0.619445 0.823434 0.593824
Si Si2 0.413260 0.567469 0.715846
Si Si3 0.747504 0.929597 0.080460
Si Si4 0.049738 0.356371 0.841114
O O1 0.365881 0.689879 0.622039
O O2 0.565335 0.655880 0.407387
O O3 0.723257 0.095302 0.686613
O O4 0.948437 0.856163 0.728850
O O5 0.155358 0.482069 0.762275
O O6 0.750795 0.767837 0.907025
O O7 0.689561 0.736055 0.116101
O O8 0.500000 0.000000 0.000000
O O9 0.000000 0.500000 0.000000
#
# Coordination Sequence:
#
# PCOD9046993 Si02
#       4
#     2   2   2   2
#     4   9  24  42  73 106 137 187 239 291 358 420
#     4  11  21  45  73 102 142 184 238 298 349 424
#     4  10  24  43  70 102 146 187 232 290 359 426
#     4  10  24  44  72 106 140 185 238 294 355 422
#
# _framework density 28.950153
#
# number of rings (size 3 to 8) (size 9 to 14) (size 15 to 20)
#    1.500    0.500    0.000    2.250    3.500    1.000 
#    0.000    5.000    0.000    0.000    0.000    0.000 
#    0.000    0.000    0.000    0.000    0.000    0.000 
#
# Total GULP energy -44580.403674 kJ/mol
# GULP energy per Si atom -5572.550459 kJ/mol
# Density = 2.888426 g / cm^3
# Si number density = 28.950153 Si / 1000 Ang^3
#
#
#
# Elastic Constant Matrix: (Units=GPa)
#
#
# Indices 1 2 3 4 5 6 
#
# 1 143.6251 69.9439 72.5648 -7.0138 -20.0409 -9.6787
# 2 69.9439 205.3910 68.5983 12.6135 -31.2035 8.9411
# 3 72.5648 68.5983 233.5718 37.0444 -36.9311 9.5236
# 4 -7.0138 12.6135 37.0444 59.6330 0.6704 1.5525
# 5 -20.0409 -31.2035 -36.9311 0.6704 57.9435 -22.2752
# 6 -9.6787 8.9411 9.5236 1.5525 -22.2752 45.8269
#
#
#
# Elastic Compliance Matrix: (Units=1/GPa)
#
#
# Indices 1 2 3 4 5 6 
#
# 1 0.010435 -0.002703 -0.002868 0.003452 0.001869 0.004119
# 2 -0.002703 0.006356 -0.000477 -0.001369 0.001918 -0.000733
# 3 -0.002868 -0.000477 0.006440 -0.004259 0.002766 -0.000362
# 4 0.003452 -0.001369 -0.004259 0.020139 -0.002496 -0.000014
# 5 0.001869 0.001918 0.002766 -0.002496 0.025271 0.011814
# 6 0.004119 -0.000733 -0.000362 -0.000014 0.011814 0.028652
#
#
# Mechanical properties :
#
#
# Convention : Reuss Voigt Hill
#
# Bulk Modulus (GPa) = 89.80516 111.64464 100.72490
# Shear Modulus (GPa) = 44.20899 57.44606 50.82753
#
# Velocity S-wave (km/s) = 3.91202 4.45939 4.19464
# Velocity P-wave (km/s) = 7.17587 8.07236 7.63728
#
# Compressibility (1/GPa) = 0.01113522
#
# Stress axis : x y z
#
# Youngs Moduli (GPa) = 95.83280 157.33671 155.28299
#
# Poissons Ratio (x) = 0.42528 0.44535
# Poissons Ratio (y) = 0.25904 0.07402
# Poissons Ratio (z) = 0.27484 0.07500
#
# Static dielectric constant tensor:
#      x y z
#    x 2.362360 0.074620 0.116540 
#    y 0.074620 2.411810 0.006130 
#    z 0.116540 0.006130 2.266520 
# 
# From -- ./inp_files/16299.got.cif
#   From: 2010.05.17/outbox.cif.g08.bks.cpg/sg2_9_cif.got.tgz:16299.got - 2010.06.03 11:33:40.
