data_PCOD9046338
_publ_section_title
;
Structure prediction by ZEFSAII (Michael W. Deem and Ramdas Pophale) SiO2 
 PCOD9046338
Probable space group: P -1
;
_chemical_formula_sum "Si O2"
_cell_formula_units_Z 11
_cell_length_a 16.270344
_cell_length_b 8.096039
_cell_length_c 12.683496
_cell_angle_alpha 41.049234
_cell_angle_beta 154.760535
_cell_angle_gamma 143.457191
_cell_volume 421.700180
_symmetry_space_group_name_H-M "P -1"
_symmetry_group_IT_number 2
_symmetry_cell_setting 'triclinic'
loop_
_space_group_symop_operation_xyz
x,y,z
-x,-y,-z
loop_
_atom_site_type_symbol
_atom_site_label
_atom_site_fract_x
_atom_site_fract_y
_atom_site_fract_z
Si Si1 0.591679 0.315674 0.919314
Si Si2 0.500000 0.500000 0.500000
Si Si3 0.904220 0.921732 0.810297
Si Si4 0.831993 0.873380 0.177847
Si Si5 0.999405 0.542611 0.799110
Si Si6 0.588518 0.365787 0.292073
O O1 0.489049 0.359699 0.671436
O O2 0.534960 0.483341 0.861401
O O3 0.840120 0.409670 0.135307
O O4 0.500000 0.000000 0.000000
O O5 0.653785 0.813335 0.576231
O O6 0.917487 0.625199 0.942391
O O7 0.023545 0.118205 0.758485
O O8 0.000000 0.000000 0.000000
O O9 0.744414 0.591968 0.279964
O O10 0.961093 0.153992 0.260088
O O11 0.612579 0.880292 0.878104
O O12 0.757043 0.347073 0.579248
#
# Coordination Sequence:
#
# PCOD9046338 Si02
#       6
#     2   1   2   2   2   2
#     4  11  23  44  71 104 140 186 241 286 355 425
#     4  10  24  42  70  98 140 186 224 298 348 406
#     4  11  25  45  68 106 141 180 241 289 355 431
#     4  11  23  42  68  99 138 182 232 284 355 419
#     4  11  24  43  72  99 136 187 229 291 355 417
#     4  11  25  45  67 103 144 178 234 295 342 427
#
# _framework density 26.084883999999999
#
# number of rings (size 3 to 8) (size 9 to 14) (size 15 to 20)
#    0.000    1.091    1.818    4.364    2.545    5.091 
#    0.000    6.364    0.000    0.000    0.000    0.000 
#    0.000    0.000    0.000    0.000    0.000    0.000 
#
# Total GULP energy -61302.941929 kJ/mol
# GULP energy per Si atom -5572.994721 kJ/mol
# Density = 2.602551 g / cm^3
# Si number density = 26.084884 Si / 1000 Ang^3
#
#
#
# Elastic Constant Matrix: (Units=GPa)
#
#
# Indices 1 2 3 4 5 6 
#
# 1 132.5650 27.3013 6.8707 -1.0214 -14.0377 16.4360
# 2 27.3013 57.7488 12.3218 19.5044 -11.0098 15.7569
# 3 6.8707 12.3218 54.5411 5.4511 1.0797 -5.9156
# 4 -1.0214 19.5044 5.4511 47.7612 -3.4079 -11.6684
# 5 -14.0377 -11.0098 1.0797 -3.4079 39.0774 -0.4781
# 6 16.4360 15.7569 -5.9156 -11.6684 -0.4781 41.1508
#
#
#
# Elastic Compliance Matrix: (Units=1/GPa)
#
#
# Indices 1 2 3 4 5 6 
#
# 1 0.008790 -0.003571 -0.000686 0.001446 0.002274 -0.001806
# 2 -0.003571 0.031177 -0.006886 -0.015446 0.006151 -0.015810
# 3 -0.000686 -0.006886 0.020533 0.001826 -0.002517 0.006351
# 4 0.001446 -0.015446 0.001826 0.030468 -0.001052 0.014227
# 5 0.002274 0.006151 -0.002517 -0.001052 0.028074 -0.003598
# 6 -0.001806 -0.015810 0.006351 0.014227 -0.003598 0.035981
#
#
# Mechanical properties :
#
#
# Convention : Reuss Voigt Hill
#
# Bulk Modulus (GPa) = 26.16881 37.53807 31.85344
# Shear Modulus (GPa) = 26.30894 38.82196 32.56545
#
# Velocity S-wave (km/s) = 3.17928 3.86203 3.53716
# Velocity P-wave (km/s) = 4.85088 5.85739 5.37773
#
# Compressibility (1/GPa) = 0.03821342
#
# Stress axis : x y z
#
# Youngs Moduli (GPa) = 113.76041 32.07456 48.70177
#
# Poissons Ratio (x) = 0.11455 0.03340
# Poissons Ratio (y) = 0.40629 0.33538
# Poissons Ratio (z) = 0.07803 0.22088
#
# Static dielectric constant tensor:
#      x y z
#    x 2.107510 0.023100 0.125350 
#    y 0.023100 2.205490 0.084050 
#    z 0.125350 0.084050 2.383500 
# 
# From -- ./inp_files/161914.got.cif
#   From: 2010.05.17/outbox.cif.g08.bks.cpg/sg2_81_cif.got.tgz:161914.got - 2010.06.03 11:33:40.
