data_PCOD9046143
_publ_section_title
;
Structure prediction by ZEFSAII (Michael W. Deem and Ramdas Pophale) SiO2 
 PCOD9046143
Probable space group: P -1
;
_chemical_formula_sum "Si O2"
_cell_formula_units_Z 14
_cell_length_a 18.311773
_cell_length_b 8.992706
_cell_length_c 5.219314
_cell_angle_alpha 97.272420
_cell_angle_beta 81.877425
_cell_angle_gamma 137.801754
_cell_volume 571.206861
_symmetry_space_group_name_H-M "P -1"
_symmetry_group_IT_number 2
_symmetry_cell_setting 'triclinic'
loop_
_space_group_symop_operation_xyz
x,y,z
-x,-y,-z
loop_
_atom_site_type_symbol
_atom_site_label
_atom_site_fract_x
_atom_site_fract_y
_atom_site_fract_z
Si Si1 0.724922 0.573570 0.531615
Si Si2 0.247869 0.872713 0.398237
Si Si3 0.897615 0.578862 0.360840
Si Si4 0.610633 0.651003 0.320609
Si Si5 0.424921 0.879325 0.257211
Si Si6 0.980530 0.143526 0.126522
Si Si7 0.227905 0.088148 0.079234
O O1 0.801530 0.558981 0.380852
O O2 0.654364 0.552448 0.351012
O O3 0.644645 0.375399 0.730621
O O4 0.790119 0.801800 0.692652
O O5 0.156602 0.656044 0.567201
O O6 0.335537 0.876879 0.285743
O O7 0.315998 0.102532 0.557392
O O8 0.202059 0.891574 0.179459
O O9 0.957918 0.667019 0.080027
O O10 0.973066 0.751427 0.593916
O O11 0.500000 0.500000 0.500000
O O12 0.643271 0.715953 0.019505
O O13 0.500000 0.000000 0.500000
O O14 0.500000 0.000000 0.000000
O O15 0.854057 0.995893 0.127694
O O16 0.000000 0.000000 0.000000
#
# Coordination Sequence:
#
# PCOD9046143 Si02
#       7
#     2   2   2   2   2   2   2
#     4  10  24  42  68 102 134 183 238 292 344 420
#     4  10  27  44  67 107 144 181 236 295 353 423
#     4  11  26  46  74 107 141 185 233 302 351 415
#     4  11  25  44  71  98 147 188 238 288 357 420
#     4  11  26  44  71  98 136 185 238 288 350 413
#     4  12  25  45  78 104 143 186 242 285 359 421
#     4  11  26  43  71 103 142 186 241 291 348 430
#
# _framework density 24.509509999999999
#
# number of rings (size 3 to 8) (size 9 to 14) (size 15 to 20)
#    0.000    1.143    1.429    2.143   14.000    4.571 
#    0.000    0.000    0.000    0.000    0.000    0.000 
#    0.000    0.000    0.000    0.000    0.000    0.000 
#
# Total GULP energy -78387.719352 kJ/mol
# GULP energy per Si atom -5599.122811 kJ/mol
# Density = 2.445373 g / cm^3
# Si number density = 24.509510 Si / 1000 Ang^3
#
#
#
# Elastic Constant Matrix: (Units=GPa)
#
#
# Indices 1 2 3 4 5 6 
#
# 1 95.7364 51.4726 17.1359 -19.3504 14.6794 -17.1366
# 2 51.4726 119.2550 29.8716 -33.3558 -10.4956 -13.3078
# 3 17.1359 29.8716 84.8582 -27.6499 0.2690 -0.6000
# 4 -19.3504 -33.3558 -27.6499 55.5326 8.0107 -3.4196
# 5 14.6794 -10.4956 0.2690 8.0107 26.7023 -8.4920
# 6 -17.1366 -13.3078 -0.6000 -3.4196 -8.4920 41.8463
#
#
#
# Elastic Compliance Matrix: (Units=1/GPa)
#
#
# Indices 1 2 3 4 5 6 
#
# 1 0.017626 -0.007486 0.000397 0.003873 -0.012996 0.002522
# 2 -0.007486 0.014576 -0.002402 0.003750 0.009973 0.003866
# 3 0.000397 -0.002402 0.014660 0.006454 -0.003424 -0.000558
# 4 0.003873 0.003750 0.006454 0.026112 -0.007442 0.003495
# 5 -0.012996 0.009973 -0.003424 -0.007442 0.053331 0.008015
# 6 0.002522 0.003866 -0.000558 0.003495 0.008015 0.028063
#
#
# Mechanical properties :
#
#
# Convention : Reuss Voigt Hill
#
# Bulk Modulus (GPa) = 35.86804 55.20111 45.53457
# Shear Modulus (GPa) = 27.37572 38.24087 32.80829
#
# Velocity S-wave (km/s) = 3.34569 3.95428 3.66265
# Velocity P-wave (km/s) = 5.43976 6.58936 6.04196
#
# Compressibility (1/GPa) = 0.02787998
#
# Stress axis : x y z
#
# Youngs Moduli (GPa) = 56.73333 68.60465 68.21464
#
# Poissons Ratio (x) = 0.51360 -0.02707
# Poissons Ratio (y) = 0.42472 0.16383
# Poissons Ratio (z) = -0.02252 0.16477
#
# Static dielectric constant tensor:
#      x y z
#    x 1.896780 0.031650 0.001910 
#    y 0.031650 1.972960 -0.011740 
#    z 0.001910 -0.011740 2.056430 
# 
# From -- ./inp_files/36899.got.cif
#   From: 2010.05.17/outbox.cif.g08.bks.cpg/sg2_19_cif.got.tgz:36899.got - 2010.06.03 11:33:40.
