data_PCOD9046304
_publ_section_title
;
Structure prediction by ZEFSAII (Michael W. Deem and Ramdas Pophale) SiO2 
 PCOD9046304
Probable space group: P -1
;
_chemical_formula_sum "Si O2"
_cell_formula_units_Z 16
_cell_length_a 12.193923
_cell_length_b 9.179159
_cell_length_c 21.950087
_cell_angle_alpha 69.806442
_cell_angle_beta 152.485764
_cell_angle_gamma 92.529735
_cell_volume 848.723430
_symmetry_space_group_name_H-M "P -1"
_symmetry_group_IT_number 2
_symmetry_cell_setting 'triclinic'
loop_
_space_group_symop_operation_xyz
x,y,z
-x,-y,-z
loop_
_atom_site_type_symbol
_atom_site_label
_atom_site_fract_x
_atom_site_fract_y
_atom_site_fract_z
Si Si1 0.802172 0.361023 0.457312
Si Si2 0.887935 0.164694 0.653905
Si Si3 0.571323 0.063392 0.682969
Si Si4 0.579463 0.795535 0.273702
Si Si5 0.714954 0.653183 0.799886
Si Si6 0.923708 0.893385 0.113821
Si Si7 0.800569 0.542177 0.719876
Si Si8 0.791457 0.857571 0.620461
O O1 0.898443 0.280847 0.586019
O O2 0.613319 0.595286 0.325887
O O3 0.594634 0.303425 0.339165
O O4 0.097936 0.268749 0.577392
O O5 0.550083 0.319841 0.492565
O O6 0.106956 0.087495 0.830620
O O7 0.924113 0.977590 0.670050
O O8 0.507787 0.108475 0.716362
O O9 0.291730 0.169285 0.483983
O O10 0.803085 0.102231 0.770804
O O11 0.699642 0.843212 0.764442
O O12 0.347507 0.941695 0.086207
O O13 0.767143 0.562717 0.772412
O O14 0.000000 0.500000 0.000000
O O15 0.020229 0.679223 0.178628
O O16 0.948039 0.646532 0.757394
O O17 0.500000 0.000000 0.500000
#
# Coordination Sequence:
#
# PCOD9046304 Si02
#       8
#     2   2   2   2   2   2   2   2
#     4  10  23  45  58  81 120 160 201 229 300 358
#     4  10  19  37  62  85 114 158 195 243 292 343
#     4  12  20  35  60  88 118 148 196 244 290 343
#     4  11  26  40  57  85 121 164 193 239 292 352
#     4  11  20  35  61  87 115 150 191 245 293 345
#     4  12  22  35  61  93 121 146 201 250 285 344
#     4  10  19  33  54  92 122 144 184 243 306 338
#     4  10  17  34  55  87 115 150 189 241 298 342
#
# _framework density 18.851844
#
# number of rings (size 3 to 8) (size 9 to 14) (size 15 to 20)
#    0.000    1.250    6.250    3.750    1.750    1.000 
#    0.000    0.000    0.000    0.750    0.000    0.000 
#    0.000    0.000    0.000    0.000    0.000    0.000 
#
# Total GULP energy -89176.246173 kJ/mol
# GULP energy per Si atom -5573.515386 kJ/mol
# Density = 1.880894 g / cm^3
# Si number density = 18.851844 Si / 1000 Ang^3
#
#
#
# Elastic Constant Matrix: (Units=GPa)
#
#
# Indices 1 2 3 4 5 6 
#
# 1 58.5796 15.1127 33.3576 5.2278 -19.1271 8.4553
# 2 15.1127 101.5977 37.0141 -7.1153 -7.7383 17.1385
# 3 33.3576 37.0141 68.6798 15.3969 -19.3461 2.7207
# 4 5.2278 -7.1153 15.3969 6.0555 -9.1933 -19.8118
# 5 -19.1271 -7.7383 -19.3461 -9.1933 14.1696 -5.4836
# 6 8.4553 17.1385 2.7207 -19.8118 -5.4836 26.7057
#
#
#
# Elastic Compliance Matrix: (Units=1/GPa)
#
#
# Indices 1 2 3 4 5 6 
#
# 1 0.030413 0.000821 -0.006383 -0.007962 0.023528 -0.010581
# 2 0.000821 0.014535 -0.010353 0.001420 -0.007673 -0.009055
# 3 -0.006383 -0.010353 0.032595 -0.001313 0.033754 0.011301
# 4 -0.007962 0.001420 -0.001313 -0.042790 -0.055551 -0.041407
# 5 0.023528 -0.007673 0.033754 -0.055551 0.097692 -0.027116
# 6 -0.010581 -0.009055 0.011301 -0.041407 -0.027116 0.009169
#
#
# Mechanical properties :
#
#
# Convention : Reuss Voigt Hill
#
# Bulk Modulus (GPa) = 21.87544 44.42512 33.15028
# Shear Modulus (GPa) = 26.49973 18.94435 22.72204
#
# Velocity S-wave (km/s) = 3.75331 3.17347 3.47550
# Velocity P-wave (km/s) = 5.51473 6.08641 5.80761
#
# Compressibility (1/GPa) = 0.04571337
#
# Stress axis : x y z
#
# Youngs Moduli (GPa) = 32.88018 68.79950 30.68000
#
# Poissons Ratio (x) = -0.05646 0.19582
# Poissons Ratio (y) = -0.02698 0.31763
# Poissons Ratio (z) = 0.20986 0.71227
#
# Static dielectric constant tensor:
#      x y z
#    x 1.572950 -0.035840 0.001250 
#    y -0.035840 1.625070 0.050140 
#    z 0.001250 0.050140 1.728440 
# 
# From -- ./inp_files/321083.got.cif
#   From: 2010.05.17/outbox.cif.g08.bks.cpg/sg2_161_cif.got.tgz:321083.got - 2010.06.03 11:33:40.
