data_PCOD9046071
_publ_section_title
;
Structure prediction by ZEFSAII (Michael W. Deem and Ramdas Pophale) SiO2 
 PCOD9046071
Probable space group: P -1
;
_chemical_formula_sum "Si O2"
_cell_formula_units_Z 16
_cell_length_a 8.087703
_cell_length_b 15.060207
_cell_length_c 10.570648
_cell_angle_alpha 57.379828
_cell_angle_beta 44.624642
_cell_angle_gamma 76.743692
_cell_volume 735.392162
_symmetry_space_group_name_H-M "P -1"
_symmetry_group_IT_number 2
_symmetry_cell_setting 'triclinic'
loop_
_space_group_symop_operation_xyz
x,y,z
-x,-y,-z
loop_
_atom_site_type_symbol
_atom_site_label
_atom_site_fract_x
_atom_site_fract_y
_atom_site_fract_z
Si Si1 0.599968 0.184302 0.323380
Si Si2 0.450295 0.304606 0.824690
Si Si3 0.585341 0.546958 0.060162
Si Si4 0.048878 0.358911 0.835279
Si Si5 0.725575 0.672297 0.517710
Si Si6 0.750585 0.997490 0.504641
Si Si7 0.287239 0.045611 0.143928
Si Si8 0.037804 0.605391 0.623442
O O1 0.390140 0.230395 0.461537
O O2 0.727631 0.119684 0.400210
O O3 0.473231 0.092580 0.362806
O O4 0.793269 0.285406 0.078740
O O5 0.249909 0.359748 0.832416
O O6 0.682421 0.329652 0.586265
O O7 0.520723 0.362994 0.878941
O O8 0.347330 0.175385 0.989867
O O9 0.870928 0.604253 0.838548
O O10 0.500000 0.500000 0.000000
O O11 0.495255 0.439165 0.277275
O O12 0.137112 0.307422 0.703927
O O13 0.034194 0.478537 0.710180
O O14 0.906476 0.650161 0.544762
O O15 0.003712 0.991494 0.303990
O O16 0.730548 0.975084 0.680858
O O17 0.500000 0.000000 0.000000
#
# Coordination Sequence:
#
# PCOD9046071 Si02
#       8
#     2   2   2   2   2   2   2   2
#     4  11  25  46  73 100 141 185 234 296 345 403
#     4  12  27  44  69 104 144 188 223 291 354 411
#     4  10  24  42  67 101 138 183 230 274 346 423
#     4  12  25  44  67 104 146 182 232 286 347 426
#     4  11  25  40  71 102 138 187 235 278 347 421
#     4  10  26  49  71 102 137 184 241 295 346 407
#     4  11  27  47  74 104 141 181 241 288 351 412
#     4  11  25  41  68 101 143 181 230 280 345 425
#
# _framework density 21.757100999999999
#
# number of rings (size 3 to 8) (size 9 to 14) (size 15 to 20)
#    0.000    1.000    3.750    0.750   10.500    2.500 
#    0.000    2.500    0.000    0.000    0.000    0.000 
#    0.000    0.000    0.000    0.000    0.000    0.000 
#
# Total GULP energy -89390.176882 kJ/mol
# GULP energy per Si atom -5586.886055 kJ/mol
# Density = 2.170758 g / cm^3
# Si number density = 21.757101 Si / 1000 Ang^3
#
#
#
# Elastic Constant Matrix: (Units=GPa)
#
#
# Indices 1 2 3 4 5 6 
#
# 1 761.6791 648.3860 752.2961 -187.5094 246.5977 170.4024
# 2 648.3860 627.1390 672.4237 -153.9114 228.9163 148.7524
# 3 752.2961 672.4237 853.8514 -185.0952 245.3890 186.7017
# 4 -187.5094 -153.9114 -185.0952 85.2492 -65.5028 -57.3611
# 5 246.5977 228.9163 245.3890 -65.5028 112.1715 70.2648
# 6 170.4024 148.7524 186.7017 -57.3611 70.2648 75.7599
#
#
#
# Elastic Compliance Matrix: (Units=1/GPa)
#
#
# Indices 1 2 3 4 5 6 
#
# 1 0.018004 -0.007557 -0.007327 0.008336 -0.005856 0.004142
# 2 -0.007557 0.019486 -0.006393 -0.002202 -0.014222 0.006014
# 3 -0.007327 -0.006393 0.012225 -0.001734 0.006934 -0.008840
# 4 0.008336 -0.002202 -0.001734 0.031421 -0.000556 0.014153
# 5 -0.005856 -0.014222 0.006934 -0.000556 0.049026 -0.021885
# 6 0.004142 0.006014 -0.008840 0.014153 -0.021885 0.044873
#
#
# Mechanical properties :
#
#
# Convention : Reuss Voigt Hill
#
# Bulk Modulus (GPa) = 139.62821 709.87567 424.75194
# Shear Modulus (GPa) = 22.72972 65.94035 44.33503
#
# Velocity S-wave (km/s) = 3.23569 5.51120 4.51902
# Velocity P-wave (km/s) = 8.84731 19.16975 14.92907
#
# Compressibility (1/GPa) = 0.00716188
#
# Stress axis : x y z
#
# Youngs Moduli (GPa) = 55.54301 51.31879 81.79640
#
# Poissons Ratio (x) = 0.38781 0.59935
# Poissons Ratio (y) = 0.41973 0.52290
# Poissons Ratio (z) = 0.40698 0.32806
#
# Static dielectric constant tensor:
#      x y z
#    x 1.905110 -0.003910 -0.027880 
#    y -0.003910 1.786890 0.010700 
#    z -0.027880 0.010700 1.764640 
# 
# From -- ./inp_files/398527.got.cif
#   From: 2010.05.17/outbox.cif.g08.bks.cpg/sg2_200_cif.got.tgz:398527.got - 2010.06.03 11:33:40.
