data_PCOD9046040
_publ_section_title
;
Structure prediction by ZEFSAII (Michael W. Deem and Ramdas Pophale) SiO2 
 PCOD9046040
Probable space group: P -1
;
_chemical_formula_sum "Si O2"
_cell_formula_units_Z 14
_cell_length_a 9.225661
_cell_length_b 21.211154
_cell_length_c 9.071977
_cell_angle_alpha 102.295636
_cell_angle_beta 55.927682
_cell_angle_gamma 54.695621
_cell_volume 729.571680
_symmetry_space_group_name_H-M "P -1"
_symmetry_group_IT_number 2
_symmetry_cell_setting 'triclinic'
loop_
_space_group_symop_operation_xyz
x,y,z
-x,-y,-z
loop_
_atom_site_type_symbol
_atom_site_label
_atom_site_fract_x
_atom_site_fract_y
_atom_site_fract_z
Si Si1 0.657335 0.138958 0.695236
Si Si2 0.975156 0.964419 0.853096
Si Si3 0.297190 0.513839 0.224935
Si Si4 0.437391 0.449068 0.446974
Si Si5 0.743196 0.787343 0.785411
Si Si6 0.224398 0.742608 0.604904
Si Si7 0.699991 0.620998 0.015556
O O1 0.591222 0.236276 0.807226
O O2 0.720394 0.112060 0.472312
O O3 0.357107 0.197888 0.981683
O O4 0.000000 0.000000 0.500000
O O5 0.036103 0.869792 0.802353
O O6 0.605840 0.089303 0.044983
O O7 0.000000 0.000000 0.000000
O O8 0.469729 0.443819 0.249827
O O9 0.942027 0.663135 0.541849
O O10 0.500000 0.500000 0.000000
O O11 0.263896 0.456997 0.131437
O O12 0.500000 0.500000 0.500000
O O13 0.688646 0.320482 0.324336
O O14 0.055616 0.546125 0.756692
O O15 0.995751 0.768222 0.644366
O O16 0.573740 0.645516 0.265029
#
# Coordination Sequence:
#
# PCOD9046040 Si02
#       7
#     2   2   2   2   2   2   2
#     4   9  20  39  66  87 126 168 214 259 319 378
#     4  10  24  42  66  95 123 166 223 271 318 381
#     4  12  24  41  65  98 133 168 218 265 320 388
#     4  12  23  40  63  94 133 167 215 264 322 386
#     4  11  21  44  64  89 135 172 213 261 326 383
#     4  11  23  42  64  94 129 173 212 263 331 385
#     4  11  22  40  63  97 127 176 212 264 327 378
#
# _framework density 19.189340999999999
#
# number of rings (size 3 to 8) (size 9 to 14) (size 15 to 20)
#    0.000    1.143    4.286    1.286    2.000    1.143 
#    5.143    0.714    0.000    0.000    0.000    0.000 
#    0.000    0.000    0.000    0.000    0.000    0.000 
#
# Total GULP energy -78122.756528 kJ/mol
# GULP energy per Si atom -5580.196895 kJ/mol
# Density = 1.914567 g / cm^3
# Si number density = 19.189341 Si / 1000 Ang^3
#
#
#
# Elastic Constant Matrix: (Units=GPa)
#
#
# Indices 1 2 3 4 5 6 
#
# 1 114.3136 66.3767 53.8522 5.1307 13.4123 17.8932
# 2 66.3767 157.3836 56.0472 6.5994 13.8645 -0.9973
# 3 53.8522 56.0472 112.6816 -4.0088 10.3310 7.3377
# 4 5.1307 6.5994 -4.0088 44.2597 10.0778 3.3468
# 5 13.4123 13.8645 10.3310 10.0778 32.6999 3.0531
# 6 17.8932 -0.9973 7.3377 3.3468 3.0531 32.8599
#
#
#
# Elastic Compliance Matrix: (Units=1/GPa)
#
#
# Indices 1 2 3 4 5 6 
#
# 1 0.014698 -0.004582 -0.004121 -0.000408 -0.002005 -0.006995
# 2 -0.004582 0.009410 -0.002647 -0.001094 -0.001273 0.003602
# 3 -0.004121 -0.002647 0.012461 0.002468 -0.001820 -0.000702
# 4 -0.000408 -0.001094 0.002468 0.024930 -0.007627 -0.002193
# 5 -0.002005 -0.001273 -0.001820 -0.007627 0.034963 -0.001012
# 6 -0.006995 0.003602 -0.000702 -0.002193 -0.001012 0.034824
#
#
# Mechanical properties :
#
#
# Convention : Reuss Voigt Hill
#
# Bulk Modulus (GPa) = 72.10317 81.88120 76.99219
# Shear Modulus (GPa) = 31.52386 35.83741 33.68063
#
# Velocity S-wave (km/s) = 4.05752 4.32623 4.19402
# Velocity P-wave (km/s) = 7.72059 8.22908 7.97888
#
# Compressibility (1/GPa) = 0.01386902
#
# Stress axis : x y z
#
# Youngs Moduli (GPa) = 68.03629 106.26955 80.25084
#
# Poissons Ratio (x) = 0.48694 0.33067
# Poissons Ratio (y) = 0.31175 0.21246
# Poissons Ratio (z) = 0.28034 0.28134
#
# Static dielectric constant tensor:
#      x y z
#    x 1.627470 -0.012730 -0.013260 
#    y -0.012730 1.694080 -0.011010 
#    z -0.013260 -0.011010 1.697060 
# 
# From -- ./inp_files/175931.got.cif
#   From: 2010.05.17/outbox.cif.g08.bks.cpg/sg2_88_cif.got.tgz:175931.got - 2010.06.03 11:33:40.
