data_PCOD9046851
_publ_section_title
;
Structure prediction by ZEFSAII (Michael W. Deem and Ramdas Pophale) SiO2 
 PCOD9046851
Probable space group: P -1
;
_chemical_formula_sum "Si O2"
_cell_formula_units_Z 14
_cell_length_a 23.822348
_cell_length_b 5.204820
_cell_length_c 5.397879
_cell_angle_alpha 118.856376
_cell_angle_beta 105.803645
_cell_angle_gamma 89.177157
_cell_volume 558.557750
_symmetry_space_group_name_H-M "P -1"
_symmetry_group_IT_number 2
_symmetry_cell_setting 'triclinic'
loop_
_space_group_symop_operation_xyz
x,y,z
-x,-y,-z
loop_
_atom_site_type_symbol
_atom_site_label
_atom_site_fract_x
_atom_site_fract_y
_atom_site_fract_z
Si Si1 0.342137 0.012305 0.891790
Si Si2 0.727397 0.488652 0.131995
Si Si3 0.864474 0.920839 0.202271
Si Si4 0.068560 0.489465 0.592881
Si Si5 0.167485 0.529353 0.406683
Si Si6 0.478870 0.645511 0.293658
Si Si7 0.368007 0.886009 0.362073
O O1 0.311269 0.678195 0.765026
O O2 0.385257 0.998668 0.706660
O O3 0.294164 0.211744 0.839434
O O4 0.370626 0.108714 0.237369
O O5 0.792472 0.504747 0.321898
O O6 0.701374 0.252165 0.780869
O O7 0.912745 0.744877 0.300948
O O8 0.895738 0.179483 0.177656
O O9 0.834643 0.121541 0.458745
O O10 0.818337 0.678832 0.894638
O O11 0.099199 0.410828 0.336312
O O12 0.000000 0.500000 0.500000
O O13 0.500000 0.500000 0.500000
O O14 0.408208 0.641747 0.215526
O O15 0.500000 0.000000 0.500000
O O16 0.500000 0.500000 0.000000
#
# Coordination Sequence:
#
# PCOD9046851 Si02
#       7
#     2   2   2   2   2   2   2
#     4  10  25  40  70  97 139 180 237 286 356 416
#     4  10  26  40  70  94 139 180 234 284 354 417
#     4  10  25  40  67  93 138 167 229 272 346 402
#     4  10  24  43  68  97 133 177 224 279 342 410
#     4  10  26  43  67  99 134 178 224 286 342 415
#     4  12  28  46  77 106 148 189 242 297 359 424
#     4  10  26  45  70 102 142 183 238 288 356 418
#
# _framework density 25.064551999999999
#
# number of rings (size 3 to 8) (size 9 to 14) (size 15 to 20)
#    1.714    0.000    0.000    1.714   12.000    2.286 
#    0.000    0.000    0.000    0.000    0.000    0.000 
#    0.000    0.000    0.000    0.000    0.000    0.000 
#
# Total GULP energy -78060.970496 kJ/mol
# GULP energy per Si atom -5575.783607 kJ/mol
# Density = 2.500750 g / cm^3
# Si number density = 25.064552 Si / 1000 Ang^3
#
#
#
# Elastic Constant Matrix: (Units=GPa)
#
#
# Indices 1 2 3 4 5 6 
#
# 1 84.1093 43.4491 15.5290 0.0320 5.6338 -10.4225
# 2 43.4491 203.3910 58.7727 -9.7608 -2.2704 -32.4845
# 3 15.5290 58.7727 123.3210 4.9235 -18.3735 3.9582
# 4 0.0320 -9.7608 4.9235 43.2523 5.6183 0.4907
# 5 5.6338 -2.2704 -18.3735 5.6183 31.0596 -4.9645
# 6 -10.4225 -32.4845 3.9582 0.4907 -4.9645 38.8529
#
#
#
# Elastic Compliance Matrix: (Units=1/GPa)
#
#
# Indices 1 2 3 4 5 6 
#
# 1 0.013722 -0.002446 -0.001060 -0.000058 -0.003068 0.001353
# 2 -0.002446 0.007532 -0.003646 0.002128 -0.000603 0.005909
# 3 -0.001060 -0.003646 0.011178 -0.002896 0.006486 -0.003606
# 4 -0.000058 0.002128 -0.002896 0.024679 -0.005851 0.000999
# 5 -0.003068 -0.000603 0.006486 -0.005851 0.038075 0.002951
# 6 0.001353 0.005909 -0.003606 0.000999 0.002951 0.031773
#
#
# Mechanical properties :
#
#
# Convention : Reuss Voigt Hill
#
# Bulk Modulus (GPa) = 55.16756 71.81366 63.49061
# Shear Modulus (GPa) = 33.94316 42.17099 38.05708
#
# Velocity S-wave (km/s) = 3.68398 4.10627 3.90084
# Velocity P-wave (km/s) = 6.33668 7.15511 6.75830
#
# Compressibility (1/GPa) = 0.01812660
#
# Stress axis : x y z
#
# Youngs Moduli (GPa) = 72.87708 132.77117 89.46377
#
# Poissons Ratio (x) = 0.32474 0.09488
# Poissons Ratio (y) = 0.17825 0.32618
# Poissons Ratio (z) = 0.07729 0.48408
#
# Static dielectric constant tensor:
#      x y z
#    x 2.088890 0.103080 0.000030 
#    y 0.103080 1.991510 0.023150 
#    z 0.000030 0.023150 2.096580 
# 
# From -- ./inp_files/121929.got.cif
#   From: 2010.05.17/outbox.cif.g08.bks.cpg/sg2_61_cif.got.tgz:121929.got - 2010.06.03 11:33:40.
