data_PCOD9046532
_publ_section_title
;
Structure prediction by ZEFSAII (Michael W. Deem and Ramdas Pophale) SiO2 
 PCOD9046532
Probable space group: P -1
;
_chemical_formula_sum "Si O2"
_cell_formula_units_Z 10
_cell_length_a 8.066275
_cell_length_b 10.475477
_cell_length_c 9.801229
_cell_angle_alpha 43.018521
_cell_angle_beta 88.753504
_cell_angle_gamma 112.158394
_cell_volume 461.647149
_symmetry_space_group_name_H-M "P -1"
_symmetry_group_IT_number 2
_symmetry_cell_setting 'triclinic'
loop_
_space_group_symop_operation_xyz
x,y,z
-x,-y,-z
loop_
_atom_site_type_symbol
_atom_site_label
_atom_site_fract_x
_atom_site_fract_y
_atom_site_fract_z
Si Si1 0.222600 0.153637 0.810747
Si Si2 0.899714 0.577749 0.543918
Si Si3 0.536466 0.352527 0.888847
Si Si4 0.713202 0.052468 0.592023
Si Si5 0.611862 0.843019 0.476386
O O1 0.237993 0.376431 0.582538
O O2 0.379093 0.208289 0.883004
O O3 0.271689 0.071808 0.736459
O O4 0.000000 0.000000 0.000000
O O5 0.750206 0.403113 0.798700
O O6 0.000000 0.500000 0.500000
O O7 0.078054 0.805564 0.439443
O O8 0.568792 0.597326 0.703822
O O9 0.439939 0.198717 0.143895
O O10 0.596867 0.174956 0.512301
O O11 0.738671 0.016665 0.461707
#
# Coordination Sequence:
#
# PCOD9046532 Si02
#       5
#     2   2   2   2   2
#     4  11  22  40  63  92 125 165 204 259 309 362
#     4  11  23  39  66  96 124 162 217 255 305 381
#     4  11  23  42  65  93 124 168 210 253 315 370
#     4  11  23  44  65  92 129 166 203 264 313 362
#     4  10  24  43  62  94 132 159 211 260 307 376
#
# _framework density 21.661563999999998
#
# number of rings (size 3 to 8) (size 9 to 14) (size 15 to 20)
#    0.000    1.200    2.000    5.400    2.800    4.800 
#    3.600    2.000    0.000    0.000    0.000    0.000 
#    0.000    0.000    0.000    0.000    0.000    0.000 
#
# Total GULP energy -55895.889267 kJ/mol
# GULP energy per Si atom -5589.588927 kJ/mol
# Density = 2.161226 g / cm^3
# Si number density = 21.661564 Si / 1000 Ang^3
#
#
#
# Elastic Constant Matrix: (Units=GPa)
#
#
# Indices 1 2 3 4 5 6 
#
# 1 61.5414 31.3727 15.2118 2.1821 -9.1528 -15.6136
# 2 31.3727 116.0930 23.5793 27.8704 -17.6828 -21.4579
# 3 15.2118 23.5793 59.4756 2.3594 -16.9480 -10.2027
# 4 2.1821 27.8704 2.3594 29.0451 0.3626 -5.3635
# 5 -9.1528 -17.6828 -16.9480 0.3626 42.1732 -0.7227
# 6 -15.6136 -21.4579 -10.2027 -5.3635 -0.7227 33.8102
#
#
#
# Elastic Compliance Matrix: (Units=1/GPa)
#
#
# Indices 1 2 3 4 5 6 
#
# 1 0.021029 -0.004810 -0.001955 0.004429 0.001840 0.006811
# 2 -0.004810 0.015064 -0.002093 -0.013108 0.004625 0.004727
# 3 -0.001955 -0.002093 0.020894 0.001184 0.007160 0.004415
# 4 0.004429 -0.013108 0.001184 0.046897 -0.004438 0.001428
# 5 0.001840 0.004625 0.007160 -0.004438 0.029066 0.005863
# 6 0.006811 0.004727 0.004415 0.001428 0.005863 0.037406
#
#
# Mechanical properties :
#
#
# Convention : Reuss Voigt Hill
#
# Bulk Modulus (GPa) = 25.46373 41.93751 33.70062
# Shear Modulus (GPa) = 24.85556 32.13544 28.49550
#
# Velocity S-wave (km/s) = 3.39108 3.85583 3.63090
# Velocity P-wave (km/s) = 5.20705 6.26304 5.75929
#
# Compressibility (1/GPa) = 0.03927155
#
# Stress axis : x y z
#
# Youngs Moduli (GPa) = 47.55341 66.38491 47.86034
#
# Poissons Ratio (x) = 0.31931 0.09354
# Poissons Ratio (y) = 0.22873 0.10018
# Poissons Ratio (z) = 0.09294 0.13895
#
# Static dielectric constant tensor:
#      x y z
#    x 1.800620 -0.017300 0.010880 
#    y -0.017300 1.788630 0.029370 
#    z 0.010880 0.029370 1.871160 
# 
# From -- ./inp_files/143965.got.cif
#   From: 2010.05.17/outbox.cif.g08.bks.cpg/sg2_72_cif.got.tgz:143965.got - 2010.06.03 11:33:40.
