data_PCOD9046990
_publ_section_title
;
Structure prediction by ZEFSAII (Michael W. Deem and Ramdas Pophale) SiO2 
 PCOD9046990
Probable space group: P -1
;
_chemical_formula_sum "Si O2"
_cell_formula_units_Z 14
_cell_length_a 9.405006
_cell_length_b 22.443304
_cell_length_c 22.152369
_cell_angle_alpha 19.005505
_cell_angle_beta 153.300886
_cell_angle_gamma 153.228587
_cell_volume 646.102616
_symmetry_space_group_name_H-M "P -1"
_symmetry_group_IT_number 2
_symmetry_cell_setting 'triclinic'
loop_
_space_group_symop_operation_xyz
x,y,z
-x,-y,-z
loop_
_atom_site_type_symbol
_atom_site_label
_atom_site_fract_x
_atom_site_fract_y
_atom_site_fract_z
Si Si1 0.225068 0.414399 0.124152
Si Si2 0.707393 0.587174 0.553572
Si Si3 0.343196 0.151090 0.511991
Si Si4 0.313043 0.990156 0.873599
Si Si5 0.627112 0.508330 0.355396
Si Si6 0.270751 0.399842 0.953997
Si Si7 0.441973 0.862624 0.915571
O O1 0.441851 0.298944 0.351304
O O2 0.482453 0.587871 0.019675
O O3 0.953712 0.261408 0.124996
O O4 0.000000 0.500000 0.000000
O O5 0.500000 0.500000 0.500000
O O6 0.493506 0.486955 0.626763
O O7 0.039462 0.531657 0.729566
O O8 0.759687 0.812972 0.356032
O O9 0.357002 0.312699 0.413294
O O10 0.525146 0.019364 0.742508
O O11 0.000000 0.000000 0.500000
O O12 0.492910 0.951754 0.917004
O O13 0.971831 0.812946 0.920715
O O14 0.500000 0.000000 0.000000
O O15 0.000000 0.500000 0.500000
O O16 0.619908 0.700828 0.134372
O O17 0.500000 0.500000 0.000000
#
# Coordination Sequence:
#
# PCOD9046990 Si02
#       7
#     2   2   2   2   2   2   2
#     4  11  23  46  75 106 147 184 233 302 362 425
#     4  12  26  48  72 103 151 189 242 303 364 435
#     4  10  24  43  70 102 143 187 234 290 367 425
#     4  12  24  47  75 103 145 197 244 296 369 435
#     4  12  25  43  74 101 143 189 237 297 356 421
#     4  12  26  47  76 106 146 191 245 302 364 427
#     4  11  22  47  70 103 145 183 237 302 355 433
#
# _framework density 21.668385000000001
#
# number of rings (size 3 to 8) (size 9 to 14) (size 15 to 20)
#    0.000    0.571    7.143    0.000    2.000    1.143 
#    7.714    0.000    0.000    0.000    0.000    0.000 
#    0.000    0.000    0.000    0.000    0.000    0.000 
#
# Total GULP energy -78132.465839 kJ/mol
# GULP energy per Si atom -5580.890417 kJ/mol
# Density = 2.161907 g / cm^3
# Si number density = 21.668385 Si / 1000 Ang^3
#
#
#
# Elastic Constant Matrix: (Units=GPa)
#
#
# Indices 1 2 3 4 5 6 
#
# 1 95.1151 32.8210 29.7853 13.6826 -1.5488 -0.4439
# 2 32.8210 100.6717 37.3614 4.2266 -0.6682 -23.0510
# 3 29.7853 37.3614 184.8734 -1.9401 -5.1340 1.9777
# 4 13.6826 4.2266 -1.9401 46.3252 -3.7784 -4.4766
# 5 -1.5488 -0.6682 -5.1340 -3.7784 33.8042 -0.4530
# 6 -0.4439 -23.0510 1.9777 -4.4766 -0.4530 38.5064
#
#
#
# Elastic Compliance Matrix: (Units=1/GPa)
#
#
# Indices 1 2 3 4 5 6 
#
# 1 0.012879 -0.004212 -0.001237 -0.003748 -0.000137 -0.002747
# 2 -0.004212 0.014076 -0.002252 0.000689 -0.000065 0.008573
# 3 -0.001237 -0.002252 0.006113 0.000747 0.000890 -0.001579
# 4 -0.003748 0.000689 0.000747 0.023168 0.002586 0.003054
# 5 -0.000137 -0.000065 0.000890 0.002586 0.030006 0.000567
# 6 -0.002747 0.008573 -0.001579 0.003054 0.000567 0.031513
#
#
# Mechanical properties :
#
#
# Convention : Reuss Voigt Hill
#
# Bulk Modulus (GPa) = 56.61166 64.51064 60.56115
# Shear Modulus (GPa) = 35.95934 42.44000 39.19967
#
# Velocity S-wave (km/s) = 4.07815 4.43042 4.25793
# Velocity P-wave (km/s) = 6.95401 7.48385 7.22379
#
# Compressibility (1/GPa) = 0.01766420
#
# Stress axis : x y z
#
# Youngs Moduli (GPa) = 77.64835 71.04356 163.58350
#
# Poissons Ratio (x) = 0.29923 0.20243
# Poissons Ratio (y) = 0.32705 0.36844
# Poissons Ratio (z) = 0.09609 0.16001
#
# Static dielectric constant tensor:
#      x y z
#    x 1.790740 -0.045050 -0.024420 
#    y -0.045050 1.782940 -0.007160 
#    z -0.024420 -0.007160 1.831420 
# 
# From -- ./inp_files/591485.got.cif
#   From: 2010.05.17/outbox.cif.g08.bks.cpg/sg2_296_cif.got.tgz:591485.got - 2010.06.03 11:33:40.
