data_PCOD9046488
_publ_section_title
;
Structure prediction by ZEFSAII (Michael W. Deem and Ramdas Pophale) SiO2 
 PCOD9046488
Probable space group: P -1
;
_chemical_formula_sum "Si O2"
_cell_formula_units_Z 13
_cell_length_a 5.139892
_cell_length_b 6.661870
_cell_length_c 22.940808
_cell_angle_alpha 130.407604
_cell_angle_beta 108.803488
_cell_angle_gamma 71.615609
_cell_volume 560.006446
_symmetry_space_group_name_H-M "P -1"
_symmetry_group_IT_number 2
_symmetry_cell_setting 'triclinic'
loop_
_space_group_symop_operation_xyz
x,y,z
-x,-y,-z
loop_
_atom_site_type_symbol
_atom_site_label
_atom_site_fract_x
_atom_site_fract_y
_atom_site_fract_z
Si Si1 0.214313 0.195081 0.071591
Si Si2 0.517664 0.348815 0.607981
Si Si3 0.359584 0.251929 0.962104
Si Si4 0.136075 0.041904 0.602697
Si Si5 0.500000 0.500000 0.500000
Si Si6 0.921119 0.228017 0.833364
Si Si7 0.615736 0.036845 0.265213
O O1 0.088788 0.478979 0.141131
O O2 0.447400 0.020864 0.093246
O O3 0.348610 0.261768 0.032597
O O4 0.000000 0.000000 0.000000
O O5 0.286568 0.221043 0.602889
O O6 0.461386 0.387097 0.542505
O O7 0.514868 0.652846 0.686791
O O8 0.812202 0.161259 0.604133
O O9 0.065277 0.250945 0.910631
O O10 0.500000 0.500000 0.000000
O O11 0.225425 0.735498 0.532996
O O12 0.271721 0.045285 0.677460
O O13 0.124742 0.022592 0.770622
O O14 0.621739 0.141023 0.800006
#
# Coordination Sequence:
#
# PCOD9046488 Si02
#       7
#     2   2   2   2   1   2   2
#     4  11  25  42  67  96 126 167 223 284 347 414
#     4  11  24  45  70  99 140 181 225 271 331 386
#     4  11  24  44  66  95 130 168 219 287 349 413
#     4  11  24  45  70 100 143 178 224 272 330 388
#     4  10  24  42  74 110 136 176 228 276 324 386
#     4  12  25  45  69  94 135 174 225 280 344 399
#     4  11  27  44  63 100 134 180 227 274 322 415
#
# _framework density 23.214017999999999
#
# number of rings (size 3 to 8) (size 9 to 14) (size 15 to 20)
#    0.000    0.923    1.538    4.154    4.308    8.615 
#    0.000    0.000    0.000    0.000    0.000    0.000 
#    0.000    0.000    0.000    0.000    0.000    0.000 
#
# Total GULP energy -72524.017197 kJ/mol
# GULP energy per Si atom -5578.770554 kJ/mol
# Density = 2.316118 g / cm^3
# Si number density = 23.214018 Si / 1000 Ang^3
#
#
#
# Elastic Constant Matrix: (Units=GPa)
#
#
# Indices 1 2 3 4 5 6 
#
# 1 87.2294 26.1719 8.9852 3.7729 1.1193 -6.4528
# 2 26.1719 122.8570 27.8179 14.9912 -0.7493 -24.7174
# 3 8.9852 27.8179 49.9734 12.1015 -9.4405 -5.9465
# 4 3.7729 14.9912 12.1015 45.2542 -2.5857 -15.1459
# 5 1.1193 -0.7493 -9.4405 -2.5857 36.7030 3.3650
# 6 -6.4528 -24.7174 -5.9465 -15.1459 3.3650 49.8840
#
#
#
# Elastic Compliance Matrix: (Units=1/GPa)
#
#
# Indices 1 2 3 4 5 6 
#
# 1 0.012302 -0.002325 -0.001033 0.000113 -0.000717 0.000399
# 2 -0.002325 0.010742 -0.005178 -0.000620 -0.001481 0.004316
# 3 -0.001033 -0.005178 0.025307 -0.005170 0.006224 -0.001672
# 4 0.000113 -0.000620 -0.005170 0.026009 -0.000155 0.006999
# 5 -0.000717 -0.001481 0.006224 -0.000155 0.029019 -0.002089
# 6 0.000399 0.004316 -0.001672 0.006999 -0.002089 0.024303
#
#
# Mechanical properties :
#
#
# Convention : Reuss Voigt Hill
#
# Bulk Modulus (GPa) = 31.96902 42.88999 37.42950
# Shear Modulus (GPa) = 32.22047 39.50723 35.86385
#
# Velocity S-wave (km/s) = 3.72959 4.12985 3.93481
# Velocity P-wave (km/s) = 5.68752 6.42315 6.06649
#
# Compressibility (1/GPa) = 0.03128028
#
# Stress axis : x y z
#
# Youngs Moduli (GPa) = 81.28941 93.09131 39.51403
#
# Poissons Ratio (x) = 0.21640 0.04083
# Poissons Ratio (y) = 0.18896 0.20459
# Poissons Ratio (z) = 0.08400 0.48200
#
# Static dielectric constant tensor:
#      x y z
#    x 1.856030 -0.036740 -0.038330 
#    y -0.036740 1.884980 0.035840 
#    z -0.038330 0.035840 1.916400 
# 
# From -- ./inp_files/5292.got.cif
#   From: 2010.05.17/outbox.cif.g08.bks.cpg/sg2_3_cif.got.tgz:5292.got - 2010.06.03 11:33:40.
