data_PCOD9046314
_publ_section_title
;
Structure prediction by ZEFSAII (Michael W. Deem and Ramdas Pophale) SiO2 
 PCOD9046314
Probable space group: P -1
;
_chemical_formula_sum "Si O2"
_cell_formula_units_Z 14
_cell_length_a 10.822411
_cell_length_b 18.818456
_cell_length_c 21.970991
_cell_angle_alpha 159.969094
_cell_angle_beta 155.126373
_cell_angle_gamma 25.429937
_cell_volume 603.347696
_symmetry_space_group_name_H-M "P -1"
_symmetry_group_IT_number 2
_symmetry_cell_setting 'triclinic'
loop_
_space_group_symop_operation_xyz
x,y,z
-x,-y,-z
loop_
_atom_site_type_symbol
_atom_site_label
_atom_site_fract_x
_atom_site_fract_y
_atom_site_fract_z
Si Si1 0.718357 0.055006 0.091933
Si Si2 0.318439 0.538774 0.324991
Si Si3 0.822477 0.672602 0.112348
Si Si4 0.739535 0.479489 0.239162
Si Si5 0.396918 0.040234 0.415694
Si Si6 0.359199 0.135717 0.226815
Si Si7 0.210658 0.420490 0.794857
O O1 0.572423 0.322105 0.234875
O O2 0.072458 0.000087 0.228528
O O3 0.500000 0.000000 0.000000
O O4 0.707553 0.936418 0.928166
O O5 0.474870 0.682149 0.548684
O O6 0.090716 0.677306 0.282079
O O7 0.094042 0.463194 0.208447
O O8 0.602520 0.913011 0.185120
O O9 0.577017 0.571898 0.951591
O O10 0.000000 0.500000 0.000000
O O11 0.654820 0.707812 0.422549
O O12 0.854715 0.539121 0.273443
O O13 0.024412 0.260836 0.211614
O O14 0.500000 0.000000 0.500000
O O15 0.669728 0.840873 0.345207
O O16 0.500000 0.500000 0.000000
#
# Coordination Sequence:
#
# PCOD9046314 Si02
#       7
#     2   2   2   2   2   2   2
#     4  12  26  44  73 110 150 182 235 302 360 429
#     4  12  26  47  74 109 147 187 245 295 359 434
#     4  12  27  49  74 102 144 197 245 297 353 426
#     4  11  24  46  72 104 144 185 241 295 362 428
#     4  10  24  42  70 107 144 183 236 289 363 431
#     4  12  27  48  73 105 148 196 239 295 363 424
#     4  11  22  42  73 105 141 188 230 296 367 417
#
# _framework density 23.203866000000001
#
# number of rings (size 3 to 8) (size 9 to 14) (size 15 to 20)
#    0.000    0.571    4.286    3.429    8.000    1.143 
#    0.000    1.429    0.000    0.000    0.000    0.000 
#    0.000    0.000    0.000    0.000    0.000    0.000 
#
# Total GULP energy -78320.590871 kJ/mol
# GULP energy per Si atom -5594.327919 kJ/mol
# Density = 2.315105 g / cm^3
# Si number density = 23.203866 Si / 1000 Ang^3
#
#
#
# Elastic Constant Matrix: (Units=GPa)
#
#
# Indices 1 2 3 4 5 6 
#
# 1 42.0920 24.3095 19.7600 -2.8094 -9.3682 -9.1115
# 2 24.3095 185.5489 52.2210 14.2290 -14.6035 -13.5079
# 3 19.7600 52.2210 154.2170 -6.4837 -18.4032 -1.0951
# 4 -2.8094 14.2290 -6.4837 57.0980 -3.2952 -7.8135
# 5 -9.3682 -14.6035 -18.4032 -3.2952 25.4311 -1.4765
# 6 -9.1115 -13.5079 -1.0951 -7.8135 -1.4765 34.3944
#
#
#
# Elastic Compliance Matrix: (Units=1/GPa)
#
#
# Indices 1 2 3 4 5 6 
#
# 1 0.030036 -0.002391 -0.001712 0.003539 0.009385 0.008170
# 2 -0.002391 0.006567 -0.001801 -0.001659 0.001463 0.001574
# 3 -0.001712 -0.001801 0.007872 0.001446 0.004196 -0.000402
# 4 0.003539 -0.001659 0.001446 0.019172 0.004164 0.004866
# 5 0.009385 0.001463 0.004196 0.004164 0.047554 0.006182
# 6 0.008170 0.001574 -0.000402 0.004866 0.006182 0.033215
#
#
# Mechanical properties :
#
#
# Convention : Reuss Voigt Hill
#
# Bulk Modulus (GPa) = 30.61303 63.82656 47.21979
# Shear Modulus (GPa) = 29.91989 42.42251 36.17120
#
# Velocity S-wave (km/s) = 3.59477 4.28044 3.95250
# Velocity P-wave (km/s) = 5.51829 7.21084 6.42058
#
# Compressibility (1/GPa) = 0.03266583
#
# Stress axis : x y z
#
# Youngs Moduli (GPa) = 33.29356 152.28684 127.02824
#
# Poissons Ratio (x) = 0.36415 0.21748
# Poissons Ratio (y) = 0.07961 0.22880
# Poissons Ratio (z) = 0.05700 0.27429
#
# Static dielectric constant tensor:
#      x y z
#    x 1.855010 0.042280 -0.001800 
#    y 0.042280 1.928590 0.049040 
#    z -0.001800 0.049040 1.862140 
# 
# From -- ./inp_files/299437.got.cif
#   From: 2010.05.17/outbox.cif.g08.bks.cpg/sg2_150_cif.got.tgz:299437.got - 2010.06.03 11:33:40.
