data_PCOD9046534
_publ_section_title
;
Structure prediction by ZEFSAII (Michael W. Deem and Ramdas Pophale) SiO2 
 PCOD9046534
Probable space group: P -1
;
_chemical_formula_sum "Si O2"
_cell_formula_units_Z 16
_cell_length_a 9.384340
_cell_length_b 17.740268
_cell_length_c 11.235546
_cell_angle_alpha 138.735059
_cell_angle_beta 96.862258
_cell_angle_gamma 52.967436
_cell_volume 762.496858
_symmetry_space_group_name_H-M "P -1"
_symmetry_group_IT_number 2
_symmetry_cell_setting 'triclinic'
loop_
_space_group_symop_operation_xyz
x,y,z
-x,-y,-z
loop_
_atom_site_type_symbol
_atom_site_label
_atom_site_fract_x
_atom_site_fract_y
_atom_site_fract_z
Si Si1 0.613411 0.471819 0.100849
Si Si2 0.597008 0.960000 0.180274
Si Si3 0.098018 0.331868 0.660083
Si Si4 0.926224 0.697570 0.106003
Si Si5 0.644715 0.510205 0.703268
Si Si6 0.966135 0.126054 0.233871
Si Si7 0.476230 0.818079 0.883555
Si Si8 0.654497 0.169483 0.377552
O O1 0.533739 0.437116 0.159490
O O2 0.512642 0.659680 0.348015
O O3 0.500000 0.500000 0.000000
O O4 0.884343 0.324625 0.934598
O O5 0.703184 0.847148 0.178731
O O6 0.333745 0.165128 0.414287
O O7 0.728697 0.995204 0.206736
O O8 0.621618 0.843392 0.947465
O O9 0.133157 0.261683 0.712832
O O10 0.870724 0.412759 0.681175
O O11 0.036663 0.503873 0.865127
O O12 0.762497 0.338538 0.429686
O O13 0.548502 0.673527 0.809913
O O14 0.869482 0.122744 0.336081
O O15 0.000000 0.000000 0.000000
O O16 0.219523 0.017830 0.133675
O O17 0.465847 0.773205 0.696471
#
# Coordination Sequence:
#
# PCOD9046534 Si02
#       8
#     2   2   2   2   2   2   2   2
#     4  11  23  44  67  94 133 170 213 273 320 375
#     4  12  23  42  67  98 129 170 216 264 328 385
#     4  11  22  43  65  93 134 167 217 267 313 391
#     4  11  24  42  66  95 130 174 212 265 329 376
#     4  11  22  41  69  95 127 171 218 258 325 385
#     4   9  21  40  61  88 128 171 211 261 308 374
#     4  11  23  42  67  96 130 174 215 262 326 386
#     4  10  24  43  62  97 136 166 216 271 314 384
#
# _framework density 20.983692999999999
#
# number of rings (size 3 to 8) (size 9 to 14) (size 15 to 20)
#    0.000    1.250    5.000    0.750    1.750    4.500 
#    4.500    1.875    0.000    0.000    0.000    0.000 
#    0.000    0.000    0.000    0.000    0.000    0.000 
#
# Total GULP energy -89231.193187 kJ/mol
# GULP energy per Si atom -5576.949574 kJ/mol
# Density = 2.093593 g / cm^3
# Si number density = 20.983693 Si / 1000 Ang^3
#
#
#
# Elastic Constant Matrix: (Units=GPa)
#
#
# Indices 1 2 3 4 5 6 
#
# 1 61.3530 1.5287 11.8235 0.9766 9.2531 -2.5813
# 2 1.5287 82.9043 14.6548 2.7897 19.7445 4.5025
# 3 11.8235 14.6548 63.2675 -3.2553 13.0261 7.7346
# 4 0.9766 2.7897 -3.2553 22.6360 -8.2015 8.3932
# 5 9.2531 19.7445 13.0261 -8.2015 26.8426 3.4191
# 6 -2.5813 4.5025 7.7346 8.3932 3.4191 27.7804
#
#
#
# Elastic Compliance Matrix: (Units=1/GPa)
#
#
# Indices 1 2 3 4 5 6 
#
# 1 0.018622 0.002417 -0.003111 -0.007049 -0.009543 0.005509
# 2 0.002417 0.015986 -0.001899 -0.008594 -0.014622 0.002559
# 3 -0.003111 -0.001899 0.018685 0.003376 -0.004853 -0.005607
# 4 -0.007049 -0.008594 0.003376 0.065818 0.030256 -0.023811
# 5 -0.009543 -0.014622 -0.004853 0.030256 0.064716 -0.014272
# 6 0.005509 0.002559 -0.005607 -0.023811 -0.014272 0.046605
#
#
# Mechanical properties :
#
#
# Convention : Reuss Voigt Hill
#
# Bulk Modulus (GPa) = 20.78703 29.28210 25.03457
# Shear Modulus (GPa) = 19.86855 27.41968 23.64412
#
# Velocity S-wave (km/s) = 3.08044 3.61877 3.36040
# Velocity P-wave (km/s) = 4.75184 5.60764 5.19738
#
# Compressibility (1/GPa) = 0.04810692
#
# Stress axis : x y z
#
# Youngs Moduli (GPa) = 53.70071 62.55526 53.51759
#
# Poissons Ratio (x) = -0.15122 0.16651
# Poissons Ratio (y) = -0.12981 0.10163
# Poissons Ratio (z) = 0.16708 0.11880
#
# Static dielectric constant tensor:
#      x y z
#    x 1.896640 -0.023530 -0.001840 
#    y -0.023530 1.765340 -0.062760 
#    z -0.001840 -0.062760 1.875950 
# 
# From -- ./inp_files/70891.got.cif
#   From: 2010.05.17/outbox.cif.g08.bks.cpg/sg2_36_cif.got.tgz:70891.got - 2010.06.03 11:33:40.
