data_PCOD9046764
_publ_section_title
;
Structure prediction by ZEFSAII (Michael W. Deem and Ramdas Pophale) SiO2 
 PCOD9046764
Probable space group: P -1
;
_chemical_formula_sum "Si O2"
_cell_formula_units_Z 14
_cell_length_a 7.457097
_cell_length_b 5.179240
_cell_length_c 14.565711
_cell_angle_alpha 99.853867
_cell_angle_beta 66.977095
_cell_angle_gamma 99.539793
_cell_volume 507.074457
_symmetry_space_group_name_H-M "P -1"
_symmetry_group_IT_number 2
_symmetry_cell_setting 'triclinic'
loop_
_space_group_symop_operation_xyz
x,y,z
-x,-y,-z
loop_
_atom_site_type_symbol
_atom_site_label
_atom_site_fract_x
_atom_site_fract_y
_atom_site_fract_z
Si Si1 0.262062 0.893748 0.610391
Si Si2 0.388698 0.640534 0.404193
Si Si3 0.929613 0.174786 0.647394
Si Si4 0.212155 0.903356 0.931671
Si Si5 0.527276 0.837351 0.754434
Si Si6 0.047380 0.574499 0.798079
Si Si7 0.622800 0.727272 0.932592
O O1 0.325574 0.649456 0.523257
O O2 0.136271 0.780381 0.715081
O O3 0.451801 0.094790 0.614715
O O4 0.119608 0.029627 0.574808
O O5 0.184340 0.641707 0.386753
O O6 0.496944 0.401407 0.328012
O O7 0.017229 0.308386 0.731517
O O8 0.739673 0.979921 0.699132
O O9 0.359454 0.027246 0.827932
O O10 0.161984 0.619087 0.874160
O O11 0.323139 0.990630 0.008913
O O12 0.000000 0.000000 0.000000
O O13 0.545255 0.722489 0.845200
O O14 0.834048 0.630366 0.871759
O O15 0.500000 0.500000 0.000000
#
# Coordination Sequence:
#
# PCOD9046764 Si02
#       7
#     2   2   2   2   2   2   2
#     4  11  25  45  71 106 145 183 236 288 354 416
#     4  11  26  45  73 106 141 189 234 288 352 426
#     4  12  23  44  73 100 147 186 231 284 355 411
#     4  10  24  43  67  99 137 181 234 289 348 412
#     4  12  24  46  71 101 141 185 233 295 351 419
#     4  11  23  45  67 103 143 178 235 291 340 424
#     4  11  23  44  69 100 135 183 237 286 350 422
#
# _framework density 27.609355999999998
#
# number of rings (size 3 to 8) (size 9 to 14) (size 15 to 20)
#    0.000    0.857    2.857    3.429    2.000    3.429 
#    0.000    5.714    0.000    0.000    0.000    0.000 
#    0.000    0.000    0.000    0.000    0.000    0.000 
#
# Total GULP energy -78150.953948 kJ/mol
# GULP energy per Si atom -5582.210996 kJ/mol
# Density = 2.754652 g / cm^3
# Si number density = 27.609356 Si / 1000 Ang^3
#
#
#
# Elastic Constant Matrix: (Units=GPa)
#
#
# Indices 1 2 3 4 5 6 
#
# 1 198.2225 22.0565 44.2607 15.3885 5.1770 22.8633
# 2 22.0565 102.9094 38.0854 19.1851 13.3211 20.5282
# 3 44.2607 38.0854 99.6805 10.7239 7.9717 22.2066
# 4 15.3885 19.1851 10.7239 53.3497 9.5528 3.2112
# 5 5.1770 13.3211 7.9717 9.5528 43.8632 1.5599
# 6 22.8633 20.5282 22.2066 3.2112 1.5599 31.5767
#
#
#
# Elastic Compliance Matrix: (Units=1/GPa)
#
#
# Indices 1 2 3 4 5 6 
#
# 1 0.005881 0.000276 -0.001921 -0.001221 -0.000058 -0.002959
# 2 0.000276 0.012956 -0.003204 -0.003299 -0.002456 -0.005913
# 3 -0.001921 -0.003204 0.013568 -0.000492 -0.000946 -0.005971
# 4 -0.001221 -0.003299 -0.000492 0.020899 -0.003366 0.001416
# 5 -0.000058 -0.002456 -0.000946 -0.003366 0.024405 0.001441
# 6 -0.002959 -0.005913 -0.005971 0.001416 0.001441 0.041639
#
#
# Mechanical properties :
#
#
# Convention : Reuss Voigt Hill
#
# Bulk Modulus (GPa) = 44.04133 67.73526 55.88829
# Shear Modulus (GPa) = 36.59865 45.51858 41.05861
#
# Velocity S-wave (km/s) = 3.64481 4.06478 3.86051
# Velocity P-wave (km/s) = 5.80509 6.82764 6.33702
#
# Compressibility (1/GPa) = 0.02270595
#
# Stress axis : x y z
#
# Youngs Moduli (GPa) = 170.04591 77.18175 73.70103
#
# Poissons Ratio (x) = -0.02131 0.14162
# Poissons Ratio (y) = -0.04694 0.23616
# Poissons Ratio (z) = 0.32674 0.24732
#
# Static dielectric constant tensor:
#      x y z
#    x 2.663160 -0.107750 -0.368660 
#    y -0.107750 2.247870 0.073380 
#    z -0.368660 0.073380 2.498760 
# 
# From -- ./inp_files/107443.got.cif
#   From: 2010.05.17/outbox.cif.g08.bks.cpg/sg2_54_cif.got.tgz:107443.got - 2010.06.03 11:33:40.
