data_PCOD9046223
_publ_section_title
;
Structure prediction by ZEFSAII (Michael W. Deem and Ramdas Pophale) SiO2 
 PCOD9046223
Probable space group: P -1
;
_chemical_formula_sum "Si O2"
_cell_formula_units_Z 10
_cell_length_a 8.421494
_cell_length_b 12.563322
_cell_length_c 5.108432
_cell_angle_alpha 130.633803
_cell_angle_beta 105.936191
_cell_angle_gamma 63.163322
_cell_volume 365.838272
_symmetry_space_group_name_H-M "P -1"
_symmetry_group_IT_number 2
_symmetry_cell_setting 'triclinic'
loop_
_space_group_symop_operation_xyz
x,y,z
-x,-y,-z
loop_
_atom_site_type_symbol
_atom_site_label
_atom_site_fract_x
_atom_site_fract_y
_atom_site_fract_z
Si Si1 0.908566 0.889507 0.547217
Si Si2 0.211086 0.785256 0.150799
Si Si3 0.552125 0.577509 0.902875
Si Si4 0.313423 0.144306 0.116921
Si Si5 0.807914 0.523977 0.555149
O O1 0.816414 0.849779 0.689992
O O2 0.114900 0.803693 0.417803
O O3 0.884858 0.064448 0.813658
O O4 0.792222 0.874030 0.219144
O O5 0.421378 0.750255 0.160253
O O6 0.196607 0.636454 0.787108
O O7 0.500000 0.500000 0.500000
O O8 0.755213 0.547754 0.877611
O O9 0.500000 0.500000 0.000000
O O10 0.321102 0.311755 0.356373
O O11 0.500000 0.000000 0.000000
O O12 0.000000 0.500000 0.500000
#
# Coordination Sequence:
#
# PCOD9046223 Si02
#       5
#     2   2   2   2   2
#     4  11  26  45  73 104 148 198 239 300 367 449
#     4  10  24  46  73 106 146 195 249 292 367 443
#     4  10  24  42  69 101 142 187 240 293 354 432
#     4  12  27  48  73 109 151 188 243 309 376 422
#     4  11  24  47  77 110 148 190 250 307 364 431
#
# _framework density 27.334485000000001
#
# number of rings (size 3 to 8) (size 9 to 14) (size 15 to 20)
#    0.000    1.200    2.000    1.800    2.800   13.600 
#    0.000    0.000    0.000    0.000    0.000    0.000 
#    0.000    0.000    0.000    0.000    0.000    0.000 
#
# Total GULP energy -55932.889569 kJ/mol
# GULP energy per Si atom -5593.288957 kJ/mol
# Density = 2.727227 g / cm^3
# Si number density = 27.334485 Si / 1000 Ang^3
#
#
#
# Elastic Constant Matrix: (Units=GPa)
#
#
# Indices 1 2 3 4 5 6 
#
# 1 144.8797 38.8498 74.4978 -2.9046 -62.2162 21.6881
# 2 38.8498 143.8919 79.7649 7.7256 -20.6433 34.8813
# 3 74.4978 79.7649 170.9011 15.6320 -33.9787 23.4257
# 4 -2.9046 7.7256 15.6320 76.0615 9.0498 -4.8228
# 5 -62.2162 -20.6433 -33.9787 9.0498 84.2403 -1.5795
# 6 21.6881 34.8813 23.4257 -4.8228 -1.5795 60.5029
#
#
#
# Elastic Compliance Matrix: (Units=1/GPa)
#
#
# Indices 1 2 3 4 5 6 
#
# 1 0.012489 0.000580 -0.003738 0.000059 0.007793 -0.003156
# 2 0.000580 0.010453 -0.004185 -0.000626 0.001282 -0.004630
# 3 -0.003738 -0.004185 0.009670 -0.001749 0.000300 -0.000123
# 4 0.000059 -0.000626 -0.001749 0.013975 -0.002278 0.002071
# 5 0.007793 0.001282 0.000300 -0.002278 0.018243 -0.003354
# 6 -0.003156 -0.004630 -0.000123 0.002071 -0.003354 0.020454
#
#
# Mechanical properties :
#
#
# Convention : Reuss Voigt Hill
#
# Bulk Modulus (GPa) = 55.78317 93.98863 74.88590
# Shear Modulus (GPa) = 47.19413 61.93159 54.56286
#
# Velocity S-wave (km/s) = 4.15968 4.76510 4.47264
# Velocity P-wave (km/s) = 6.59715 8.04575 7.35719
#
# Compressibility (1/GPa) = 0.01792655
#
# Stress axis : x y z
#
# Youngs Moduli (GPa) = 80.07051 95.66830 103.40756
#
# Poissons Ratio (x) = -0.05551 0.38658
# Poissons Ratio (y) = -0.04646 0.43272
# Poissons Ratio (z) = 0.29934 0.40034
#
# Static dielectric constant tensor:
#      x y z
#    x 2.634690 -0.234970 0.149230 
#    y -0.234970 2.355280 -0.135130 
#    z 0.149230 -0.135130 2.199000 
# 
# From -- ./inp_files/15531.got.cif
#   From: 2010.05.17/outbox.cif.g08.bks.cpg/sg2_8_cif.got.tgz:15531.got - 2010.06.03 11:33:40.
