data_PCOD9046124
_publ_section_title
;
Structure prediction by ZEFSAII (Michael W. Deem and Ramdas Pophale) SiO2 
 PCOD9046124
Probable space group: P -1
;
_chemical_formula_sum "Si O2"
_cell_formula_units_Z 16
_cell_length_a 5.289918
_cell_length_b 29.775516
_cell_length_c 16.551086
_cell_angle_alpha 162.755936
_cell_angle_beta 104.390959
_cell_angle_gamma 83.452909
_cell_volume 675.981718
_symmetry_space_group_name_H-M "P -1"
_symmetry_group_IT_number 2
_symmetry_cell_setting 'triclinic'
loop_
_space_group_symop_operation_xyz
x,y,z
-x,-y,-z
loop_
_atom_site_type_symbol
_atom_site_label
_atom_site_fract_x
_atom_site_fract_y
_atom_site_fract_z
Si Si1 0.213149 0.341687 0.416190
Si Si2 0.877843 0.152347 0.538776
Si Si3 0.159782 0.693863 0.368391
Si Si4 0.440587 0.768645 0.874412
Si Si5 0.164105 0.667364 0.003704
Si Si6 0.804106 0.748131 0.007067
Si Si7 0.179300 0.197747 0.343620
Si Si8 0.272770 0.060968 0.514083
O O1 0.426403 0.301608 0.307164
O O2 0.302686 0.538281 0.779295
O O3 0.188259 0.251025 0.343396
O O4 0.893429 0.276261 0.240760
O O5 0.859217 0.197846 0.523527
O O6 0.159574 0.124787 0.537109
O O7 0.898052 0.305168 0.861463
O O8 0.617525 0.972557 0.232636
O O9 0.493747 0.745457 0.503128
O O10 0.990802 0.722414 0.479400
O O11 0.000000 0.500000 0.000000
O O12 0.525891 0.705022 0.855483
O O13 0.385166 0.858104 0.325288
O O14 0.899983 0.618566 0.836096
O O15 0.779969 0.851634 0.260259
O O16 0.069034 0.866483 0.174019
O O17 0.000000 0.000000 0.000000
#
# Coordination Sequence:
#
# PCOD9046124 Si02
#       8
#     2   2   2   2   2   2   2   2
#     4  12  28  45  67 100 138 178 220 282 342 395
#     4  10  24  42  68 100 129 178 226 276 332 404
#     4  12  26  43  74 106 137 171 234 296 338 401
#     4  11  26  45  68  96 136 177 231 272 325 406
#     4  11  24  39  71  93 140 172 220 278 343 393
#     4   9  21  40  63  98 127 178 225 271 326 398
#     4  12  26  48  72  97 142 189 227 273 352 424
#     4   9  20  38  66  94 134 171 223 271 336 398
#
# _framework density 23.669281999999999
#
# number of rings (size 3 to 8) (size 9 to 14) (size 15 to 20)
#    0.000    1.250    0.000    4.875   12.250    1.000 
#    0.000    0.000    0.000    0.000    0.000    0.000 
#    0.000    0.000    0.000    0.000    0.000    0.000 
#
# Total GULP energy -89563.124454 kJ/mol
# GULP energy per Si atom -5597.695278 kJ/mol
# Density = 2.361541 g / cm^3
# Si number density = 23.669282 Si / 1000 Ang^3
#
#
#
# Elastic Constant Matrix: (Units=GPa)
#
#
# Indices 1 2 3 4 5 6 
#
# 1 159.8154 93.3017 42.6850 -32.5082 -2.0127 -8.4324
# 2 93.3017 199.4423 9.8641 -39.8828 -7.3814 -24.0540
# 3 42.6850 9.8641 118.0473 7.0099 1.4632 1.0263
# 4 -32.5082 -39.8828 7.0099 39.7516 1.6182 9.2373
# 5 -2.0127 -7.3814 1.4632 1.6182 60.8925 -10.6424
# 6 -8.4324 -24.0540 1.0263 9.2373 -10.6424 29.5226
#
#
#
# Elastic Compliance Matrix: (Units=1/GPa)
#
#
# Indices 1 2 3 4 5 6 
#
# 1 0.010648 -0.003853 -0.003861 0.006019 -0.000539 -0.002041
# 2 -0.003853 0.008215 0.000418 0.003795 0.001628 0.004978
# 3 -0.003861 0.000418 0.010104 -0.004575 -0.000152 0.000263
# 4 0.006019 0.003795 -0.004575 0.036356 -0.001405 -0.006912
# 5 -0.000539 0.001628 -0.000152 -0.001405 0.018064 0.008129
# 6 -0.002041 0.004978 0.000263 -0.006912 0.008129 0.042429
#
#
# Mechanical properties :
#
#
# Convention : Reuss Voigt Hill
#
# Bulk Modulus (GPa) = 69.56764 85.44517 77.50640
# Shear Modulus (GPa) = 34.43570 48.13030 41.28300
#
# Velocity S-wave (km/s) = 3.81841 4.51427 4.18084
# Velocity P-wave (km/s) = 6.99255 7.95924 7.49150
#
# Compressibility (1/GPa) = 0.01437450
#
# Stress axis : x y z
#
# Youngs Moduli (GPa) = 93.91850 121.72769 98.97354
#
# Poissons Ratio (x) = 0.46896 0.38215
# Poissons Ratio (y) = 0.36182 -0.04135
# Poissons Ratio (z) = 0.36263 -0.05086
#
# Static dielectric constant tensor:
#      x y z
#    x 1.862860 -0.002580 0.016600 
#    y -0.002580 1.858840 0.000330 
#    z 0.016600 0.000330 1.915970 
# 
# From -- ./inp_files/486191.got.cif
#   From: 2010.05.17/outbox.cif.g08.bks.cpg/sg2_244_cif.got.tgz:486191.got - 2010.06.03 11:33:40.
