data_PCOD9046913
_publ_section_title
;
Structure prediction by ZEFSAII (Michael W. Deem and Ramdas Pophale) SiO2 
 PCOD9046913
Probable space group: P -1
;
_chemical_formula_sum "Si O2"
_cell_formula_units_Z 14
_cell_length_a 10.790978
_cell_length_b 8.626694
_cell_length_c 9.029153
_cell_angle_alpha 53.571913
_cell_angle_beta 63.053848
_cell_angle_gamma 59.805624
_cell_volume 569.926523
_symmetry_space_group_name_H-M "P -1"
_symmetry_group_IT_number 2
_symmetry_cell_setting 'triclinic'
loop_
_space_group_symop_operation_xyz
x,y,z
-x,-y,-z
loop_
_atom_site_type_symbol
_atom_site_label
_atom_site_fract_x
_atom_site_fract_y
_atom_site_fract_z
Si Si1 0.399335 0.277014 0.610107
Si Si2 0.053141 0.282940 0.169374
Si Si3 0.676998 0.285530 0.618466
Si Si4 0.105462 0.406333 0.360395
Si Si5 0.107968 0.815431 0.952879
Si Si6 0.667668 0.951432 0.984949
Si Si7 0.302023 0.948031 0.558958
O O1 0.501975 0.325714 0.658076
O O2 0.303226 0.499441 0.487200
O O3 0.522183 0.144413 0.508285
O O4 0.309366 0.151714 0.810153
O O5 0.017909 0.311684 0.342906
O O6 0.228876 0.201410 0.101668
O O7 0.982859 0.164312 0.164421
O O8 0.000000 0.500000 0.000000
O O9 0.710020 0.152887 0.823798
O O10 0.744934 0.152774 0.510078
O O11 0.236203 0.195542 0.453444
O O12 0.000000 0.500000 0.500000
O O13 0.135434 0.596891 0.147142
O O14 0.252076 0.854680 0.784998
O O15 0.000000 0.000000 0.000000
O O16 0.500000 0.000000 0.000000
#
# Coordination Sequence:
#
# PCOD9046913 Si02
#       7
#     2   2   2   2   2   2   2
#     4   8  17  28  52  83 115 152 202 250 301 366
#     4  10  23  37  62  98 125 162 210 258 316 374
#     4   8  16  27  49  84 113 149 200 242 300 366
#     4  11  21  39  58  88 125 165 206 248 310 374
#     4  11  24  40  59  86 131 167 203 263 311 368
#     4  10  17  34  56  85 125 156 202 256 304 368
#     4  10  19  34  56  88 119 161 203 251 314 365
#
# _framework density 24.56457
#
# number of rings (size 3 to 8) (size 9 to 14) (size 15 to 20)
#    0.857    1.429    2.857    0.000    4.000    1.714 
#    0.000    0.000    0.000    0.857    0.000   10.000 
#    0.000    0.000    0.000    0.000    0.000    0.000 
#
# Total GULP energy -78003.290178 kJ/mol
# GULP energy per Si atom -5571.663584 kJ/mol
# Density = 2.450866 g / cm^3
# Si number density = 24.564570 Si / 1000 Ang^3
#
#
#
# Elastic Constant Matrix: (Units=GPa)
#
#
# Indices 1 2 3 4 5 6 
#
# 1 44.3607 41.4037 14.6386 5.2764 6.8136 -7.2335
# 2 41.4037 200.8153 106.7019 -4.2258 -7.3322 -17.3213
# 3 14.6386 106.7019 234.1348 -19.3109 -14.4906 -20.3950
# 4 5.2764 -4.2258 -19.3109 55.0083 -8.8596 10.2427
# 5 6.8136 -7.3322 -14.4906 -8.8596 11.3859 3.7476
# 6 -7.2335 -17.3213 -20.3950 10.2427 3.7476 47.3376
#
#
#
# Elastic Compliance Matrix: (Units=1/GPa)
#
#
# Indices 1 2 3 4 5 6 
#
# 1 0.042258 -0.008930 -0.001976 -0.014960 -0.048288 0.009398
# 2 -0.008930 0.008556 -0.002625 0.002223 0.009437 -0.000593
# 3 -0.001976 -0.002625 0.006609 0.004148 0.011196 -0.000199
# 4 -0.014960 0.002223 0.004148 0.029751 0.041921 -0.009442
# 5 -0.048288 0.009437 0.011196 0.041921 0.176972 -0.022183
# 6 0.009398 -0.000593 -0.000199 -0.009442 -0.022183 0.026057
#
#
# Mechanical properties :
#
#
# Convention : Reuss Voigt Hill
#
# Bulk Modulus (GPa) = 32.93803 89.42212 61.18008
# Shear Modulus (GPa) = 15.27253 43.85081 29.56167
#
# Velocity S-wave (km/s) = 2.49616 4.22966 3.47281
# Velocity P-wave (km/s) = 4.66322 7.76758 6.40628
#
# Compressibility (1/GPa) = 0.03036004
#
# Stress axis : x y z
#
# Youngs Moduli (GPa) = 23.66420 116.87888 151.31658
#
# Poissons Ratio (x) = 1.04371 0.29904
# Poissons Ratio (y) = 0.21132 0.39722
# Poissons Ratio (z) = 0.04677 0.30682
#
# Static dielectric constant tensor:
#      x y z
#    x 2.075160 0.061100 -0.013270 
#    y 0.061100 1.982580 -0.070270 
#    z -0.013270 -0.070270 2.072530 
# 
# From -- ./inp_files/236532.got.cif
#   From: 2010.05.17/outbox.cif.g08.bks.cpg/sg2_119_cif.got.tgz:236532.got - 2010.06.03 11:33:40.
