data_PCOD9046403
_publ_section_title
;
Structure prediction by ZEFSAII (Michael W. Deem and Ramdas Pophale) SiO2 
 PCOD9046403
Probable space group: P -1
;
_chemical_formula_sum "Si O2"
_cell_formula_units_Z 13
_cell_length_a 5.625779
_cell_length_b 6.564726
_cell_length_c 13.688178
_cell_angle_alpha 93.988501
_cell_angle_beta 82.749841
_cell_angle_gamma 106.611976
_cell_volume 480.257082
_symmetry_space_group_name_H-M "P -1"
_symmetry_group_IT_number 2
_symmetry_cell_setting 'triclinic'
loop_
_space_group_symop_operation_xyz
x,y,z
-x,-y,-z
loop_
_atom_site_type_symbol
_atom_site_label
_atom_site_fract_x
_atom_site_fract_y
_atom_site_fract_z
Si Si1 0.383799 0.196229 0.778148
Si Si2 0.029419 0.208872 0.245852
Si Si3 0.500000 0.500000 0.500000
Si Si4 0.585787 0.923481 0.890476
Si Si5 0.737635 0.503668 0.060100
Si Si6 0.219991 0.586010 0.359661
Si Si7 0.761623 0.935778 0.580023
O O1 0.230852 0.291261 0.867464
O O2 0.500896 0.378661 0.700363
O O3 0.590482 0.121864 0.827400
O O4 0.219631 0.978611 0.734064
O O5 0.169073 0.160027 0.139358
O O6 0.031082 0.446460 0.285291
O O7 0.207408 0.169915 0.321537
O O8 0.236160 0.482109 0.459514
O O9 0.542605 0.761277 0.530058
O O10 0.360295 0.709885 0.876915
O O11 0.500000 0.000000 0.000000
O O12 0.500000 0.500000 0.000000
O O13 0.000000 0.500000 0.000000
O O14 0.235490 0.828965 0.378747
O O15 0.000000 0.000000 0.500000
#
# Coordination Sequence:
#
# PCOD9046403 Si02
#       7
#     2   2   1   2   2   2   2
#     4  12  26  45  76 103 150 200 248 323 379 457
#     4  11  26  44  70 111 144 199 252 308 384 460
#     4  10  24  42  72 102 136 188 242 290 380 452
#     4  12  25  46  74 107 151 194 261 307 385 457
#     4  12  28  48  76 111 153 203 261 326 391 459
#     4  11  24  47  70 105 152 186 252 310 383 461
#     4  11  24  45  71 104 147 190 245 311 384 455
#
# _framework density 27.068835
#
# number of rings (size 3 to 8) (size 9 to 14) (size 15 to 20)
#    0.000    0.615    4.615    2.308    2.154    6.154 
#    0.000    0.000    0.000    0.000    0.000    0.000 
#    0.000    0.000    0.000    0.000    0.000    0.000 
#
# Total GULP energy -72378.745016 kJ/mol
# GULP energy per Si atom -5567.595770 kJ/mol
# Density = 2.700722 g / cm^3
# Si number density = 27.068835 Si / 1000 Ang^3
#
#
#
# Elastic Constant Matrix: (Units=GPa)
#
#
# Indices 1 2 3 4 5 6 
#
# 1 84.5514 20.6844 24.6887 12.7016 -11.3340 9.1677
# 2 20.6844 160.6814 18.9541 43.4983 7.9569 23.7879
# 3 24.6887 18.9541 64.2732 37.9096 -9.2483 -4.9244
# 4 12.7016 43.4983 37.9096 66.3421 8.8474 8.4063
# 5 -11.3340 7.9569 -9.2483 8.8474 33.2712 6.2545
# 6 9.1677 23.7879 -4.9244 8.4063 6.2545 50.9190
#
#
#
# Elastic Compliance Matrix: (Units=1/GPa)
#
#
# Indices 1 2 3 4 5 6 
#
# 1 0.014457 -0.001215 -0.005466 0.001024 0.004031 -0.003228
# 2 -0.001215 0.008082 0.000964 -0.005266 -0.000195 -0.002570
# 3 -0.005466 0.000964 0.030584 -0.019140 0.010490 0.005363
# 4 0.001024 -0.005266 -0.019140 0.031207 -0.011385 -0.003329
# 5 0.004031 -0.000195 0.010490 -0.011385 0.037869 -0.002392
# 6 -0.003228 -0.002570 0.005363 -0.003329 -0.002392 0.022783
#
#
# Mechanical properties :
#
#
# Convention : Reuss Voigt Hill
#
# Bulk Modulus (GPa) = 23.98762 48.68449 36.33606
# Shear Modulus (GPa) = 29.35786 46.45171 37.90478
#
# Velocity S-wave (km/s) = 3.29684 4.14703 3.74613
# Velocity P-wave (km/s) = 4.83458 6.39960 5.67134
#
# Compressibility (1/GPa) = 0.04168817
#
# Stress axis : x y z
#
# Youngs Moduli (GPa) = 69.17074 123.73463 32.69715
#
# Poissons Ratio (x) = 0.15035 0.17873
# Poissons Ratio (y) = 0.08405 -0.03152
# Poissons Ratio (z) = 0.37810 -0.11929
#
# Static dielectric constant tensor:
#      x y z
#    x 2.220850 -0.115150 0.090590 
#    y -0.115150 2.225720 -0.024790 
#    z 0.090590 -0.024790 2.685890 
# 
# From -- ./inp_files/7314.got.cif
#   From: 2010.05.17/outbox.cif.g08.bks.cpg/sg2_4_cif.got.tgz:7314.got - 2010.06.03 11:33:40.
