data_PCOD9046899
_publ_section_title
;
Structure prediction by ZEFSAII (Michael W. Deem and Ramdas Pophale) SiO2 
 PCOD9046899
Probable space group: P -1
;
_chemical_formula_sum "Si O2"
_cell_formula_units_Z 12
_cell_length_a 6.492449
_cell_length_b 12.188434
_cell_length_c 11.722989
_cell_angle_alpha 129.003007
_cell_angle_beta 101.301641
_cell_angle_gamma 111.256094
_cell_volume 544.596691
_symmetry_space_group_name_H-M "P -1"
_symmetry_group_IT_number 2
_symmetry_cell_setting 'triclinic'
loop_
_space_group_symop_operation_xyz
x,y,z
-x,-y,-z
loop_
_atom_site_type_symbol
_atom_site_label
_atom_site_fract_x
_atom_site_fract_y
_atom_site_fract_z
Si Si1 0.317464 0.123559 0.585341
Si Si2 0.656515 0.540112 0.925115
Si Si3 0.267294 0.862024 0.219109
Si Si4 0.477939 0.075953 0.162615
Si Si5 0.934162 0.637834 0.587417
Si Si6 0.367891 0.344762 0.237413
O O1 0.494165 0.339196 0.720170
O O2 0.485857 0.134047 0.717625
O O3 0.313332 0.013971 0.407738
O O4 0.000000 0.000000 0.500000
O O5 0.655274 0.659759 0.904592
O O6 0.500000 0.500000 0.000000
O O7 0.975122 0.661892 0.071362
O O8 0.281404 0.925789 0.135083
O O9 0.392601 0.198734 0.199194
O O10 0.784342 0.186269 0.317836
O O11 0.500000 0.000000 0.000000
O O12 0.657645 0.542580 0.426861
O O13 0.862474 0.668445 0.725217
O O14 0.000000 0.500000 0.500000
#
# Coordination Sequence:
#
# PCOD9046899 Si02
#       6
#     2   2   2   2   2   2
#     4  11  26  48  73 101 140 191 236 291 356 421
#     4  12  26  46  73 103 144 187 236 293 356 422
#     4  11  27  47  71 106 141 185 240 293 352 426
#     4  11  25  42  69 102 142 182 231 294 357 419
#     4   9  21  42  65  99 134 181 227 286 346 419
#     4  10  24  43  69 102 138 182 235 287 358 418
#
# _framework density 22.034652000000001
#
# number of rings (size 3 to 8) (size 9 to 14) (size 15 to 20)
#    0.000    1.333    1.667    1.500   11.667    2.667 
#    3.000    0.000    0.000    0.000    0.000    0.000 
#    0.000    0.000    0.000    0.000    0.000    0.000 
#
# Total GULP energy -66949.769885 kJ/mol
# GULP energy per Si atom -5579.147490 kJ/mol
# Density = 2.198450 g / cm^3
# Si number density = 22.034652 Si / 1000 Ang^3
#
#
#
# Elastic Constant Matrix: (Units=GPa)
#
#
# Indices 1 2 3 4 5 6 
#
# 1 126.5357 65.7667 46.0023 6.2572 13.9420 11.5148
# 2 65.7667 137.9488 39.0751 -8.5321 7.1036 5.4849
# 3 46.0023 39.0751 99.0754 10.5702 21.1124 5.5359
# 4 6.2572 -8.5321 10.5702 44.6152 8.3173 7.9855
# 5 13.9420 7.1036 21.1124 8.3173 46.8758 7.7888
# 6 11.5148 5.4849 5.5359 7.9855 7.7888 28.2520
#
#
#
# Elastic Compliance Matrix: (Units=1/GPa)
#
#
# Indices 1 2 3 4 5 6 
#
# 1 0.011906 -0.004680 -0.003254 -0.001165 -0.000697 -0.002785
# 2 -0.004680 0.010336 -0.002295 0.003222 0.000399 -0.000670
# 3 -0.003254 -0.002295 0.013698 -0.002567 -0.004577 0.001075
# 4 -0.001165 0.003222 -0.002567 0.025360 -0.002466 -0.006136
# 5 -0.000697 0.000399 -0.004577 -0.002466 0.024816 -0.005041
# 6 -0.002785 -0.000670 0.001075 -0.006136 -0.005041 0.039574
#
#
# Mechanical properties :
#
#
# Convention : Reuss Voigt Hill
#
# Bulk Modulus (GPa) = 64.58735 73.91646 69.25191
# Shear Modulus (GPa) = 33.04497 38.12963 35.58730
#
# Velocity S-wave (km/s) = 3.87677 4.16437 4.02314
# Velocity P-wave (km/s) = 7.02955 7.53266 7.28545
#
# Compressibility (1/GPa) = 0.01548291
#
# Stress axis : x y z
#
# Youngs Moduli (GPa) = 83.99012 96.75280 73.00125
#
# Poissons Ratio (x) = 0.45280 0.23755
# Poissons Ratio (y) = 0.39307 0.16751
# Poissons Ratio (z) = 0.27330 0.22201
#
# Static dielectric constant tensor:
#      x y z
#    x 1.822360 -0.013250 0.024310 
#    y -0.013250 1.801990 0.037360 
#    z 0.024310 0.037360 1.907280 
# 
# From -- ./inp_files/68600.got.cif
#   From: 2010.05.17/outbox.cif.g08.bks.cpg/sg2_35_cif.got.tgz:68600.got - 2010.06.03 11:33:40.
