data_PCOD9046533
_publ_section_title
;
Structure prediction by ZEFSAII (Michael W. Deem and Ramdas Pophale) SiO2 
 PCOD9046533
Probable space group: P -1
;
_chemical_formula_sum "Si O2"
_cell_formula_units_Z 13
_cell_length_a 5.058428
_cell_length_b 15.053222
_cell_length_c 9.255773
_cell_angle_alpha 128.582433
_cell_angle_beta 64.529655
_cell_angle_gamma 112.630211
_cell_volume 490.558718
_symmetry_space_group_name_H-M "P -1"
_symmetry_group_IT_number 2
_symmetry_cell_setting 'triclinic'
loop_
_space_group_symop_operation_xyz
x,y,z
-x,-y,-z
loop_
_atom_site_type_symbol
_atom_site_label
_atom_site_fract_x
_atom_site_fract_y
_atom_site_fract_z
Si Si1 0.283897 0.253837 0.835681
Si Si2 0.062224 0.120987 0.189528
Si Si3 0.607793 0.149902 0.902940
Si Si4 0.500000 0.500000 0.500000
Si Si5 0.785800 0.335905 0.429502
Si Si6 0.762739 0.919475 0.573233
Si Si7 0.919331 0.540566 0.780173
O O1 0.525240 0.216387 0.848337
O O2 0.330391 0.196894 0.613164
O O3 0.072551 0.402355 0.330257
O O4 0.245411 0.386008 0.000244
O O5 0.832905 0.206773 0.296181
O O6 0.093337 0.106290 0.336947
O O7 0.385873 0.173273 0.103009
O O8 0.000000 0.000000 0.000000
O O9 0.548156 0.012447 0.746985
O O10 0.952559 0.190459 0.901300
O O11 0.805854 0.406241 0.645675
O O12 0.268407 0.542881 0.720341
O O13 0.512020 0.379540 0.462841
O O14 0.000000 0.000000 0.500000
#
# Coordination Sequence:
#
# PCOD9046533 Si02
#       7
#     2   2   2   1   2   2   2
#     4  11  23  40  72  97 135 176 222 276 344 399
#     4  12  24  43  68 103 137 176 230 284 332 397
#     4  11  23  43  67  97 134 176 232 274 328 399
#     4   8  16  32  62  90 124 160 218 270 320 374
#     4   9  20  36  61  99 129 167 226 277 330 389
#     4  10  24  43  62  95 138 184 220 274 340 408
#     4   9  19  35  63  92 128 168 219 276 327 398
#
# _framework density 26.500392999999999
#
# number of rings (size 3 to 8) (size 9 to 14) (size 15 to 20)
#    0.923    0.923    1.538    2.769    4.308    1.231 
#    2.769    0.769    0.000    0.923    0.000    0.000 
#    0.000    0.000    0.000    0.000    0.000    0.000 
#
# Total GULP energy -72470.569105 kJ/mol
# GULP energy per Si atom -5574.659162 kJ/mol
# Density = 2.644008 g / cm^3
# Si number density = 26.500393 Si / 1000 Ang^3
#
#
#
# Elastic Constant Matrix: (Units=GPa)
#
#
# Indices 1 2 3 4 5 6 
#
# 1 81.1715 31.3378 48.9112 15.0805 -24.3786 -34.1416
# 2 31.3378 96.7024 68.4986 35.5313 -10.0867 -23.2821
# 3 48.9112 68.4986 189.5095 43.0517 -10.1465 -32.9873
# 4 15.0805 35.5313 43.0517 61.9471 -14.1075 -8.8131
# 5 -24.3786 -10.0867 -10.1465 -14.1075 47.3712 11.4128
# 6 -34.1416 -23.2821 -32.9873 -8.8131 11.4128 52.4707
#
#
#
# Elastic Compliance Matrix: (Units=1/GPa)
#
#
# Indices 1 2 3 4 5 6 
#
# 1 0.020930 -0.002137 -0.002858 0.001230 0.007810 0.009382
# 2 -0.002137 0.016406 -0.003515 -0.006250 -0.000901 0.002826
# 3 -0.002858 -0.003515 0.008182 -0.003156 -0.001788 0.001583
# 4 0.001230 -0.006250 -0.003156 0.022730 0.005729 -0.001386
# 5 0.007810 -0.000901 -0.001788 0.005729 0.026563 -0.001258
# 6 0.009382 0.002826 0.001583 -0.001386 -0.001258 0.027453
#
#
# Mechanical properties :
#
#
# Convention : Reuss Voigt Hill
#
# Bulk Modulus (GPa) = 35.08959 73.87540 54.48250
# Shear Modulus (GPa) = 33.60629 46.93352 40.26991
#
# Velocity S-wave (km/s) = 3.56496 4.21295 3.90243
# Velocity P-wave (km/s) = 5.49683 7.18351 6.39602
#
# Compressibility (1/GPa) = 0.02849848
#
# Stress axis : x y z
#
# Youngs Moduli (GPa) = 47.77919 60.95260 122.22367
#
# Poissons Ratio (x) = 0.13025 0.34927
# Poissons Ratio (y) = 0.10210 0.42962
# Poissons Ratio (z) = 0.13653 0.21425
#
# Static dielectric constant tensor:
#      x y z
#    x 1.541130 0.150220 -0.317520 
#    y 0.150220 2.177870 -0.030110 
#    z -0.317520 -0.030110 1.927350 
# 
# From -- ./inp_files/136956.got.cif
#   From: 2010.05.17/outbox.cif.g08.bks.cpg/sg2_69_cif.got.tgz:136956.got - 2010.06.03 11:33:40.
