data_PCOD9046843
_publ_section_title
;
Structure prediction by ZEFSAII (Michael W. Deem and Ramdas Pophale) SiO2 
 PCOD9046843
Probable space group: P -1
;
_chemical_formula_sum "Si O2"
_cell_formula_units_Z 14
_cell_length_a 24.148560
_cell_length_b 6.619608
_cell_length_c 15.026689
_cell_angle_alpha 107.860622
_cell_angle_beta 19.844517
_cell_angle_gamma 97.139238
_cell_volume 668.427016
_symmetry_space_group_name_H-M "P -1"
_symmetry_group_IT_number 2
_symmetry_cell_setting 'triclinic'
loop_
_space_group_symop_operation_xyz
x,y,z
-x,-y,-z
loop_
_atom_site_type_symbol
_atom_site_label
_atom_site_fract_x
_atom_site_fract_y
_atom_site_fract_z
Si Si1 0.941634 0.399048 0.160276
Si Si2 0.292742 0.061046 0.351560
Si Si3 0.071254 0.009922 0.525957
Si Si4 0.091183 0.609510 0.313220
Si Si5 0.361896 0.791012 0.737242
Si Si6 0.478486 0.156210 0.669868
Si Si7 0.716168 0.115787 0.457637
O O1 0.846726 0.640750 0.397859
O O2 0.790831 0.307608 0.362897
O O3 0.000000 0.500000 0.000000
O O4 0.132599 0.139657 0.855782
O O5 0.206078 0.952480 0.397834
O O6 0.295922 0.955487 0.431591
O O7 0.500000 0.000000 0.000000
O O8 0.052660 0.234533 0.525906
O O9 0.133632 0.788026 0.332759
O O10 0.854228 0.107709 0.895533
O O11 0.000000 0.500000 0.500000
O O12 0.285693 0.384586 0.954674
O O13 0.500000 0.500000 0.500000
O O14 0.367220 0.870454 0.638429
O O15 0.447945 0.925413 0.683726
O O16 0.525165 0.210866 0.704008
#
# Coordination Sequence:
#
# PCOD9046843 Si02
#       7
#     2   2   2   2   2   2   2
#     4   9  22  44  63  93 127 175 219 261 334 379
#     4  11  27  43  64  99 133 176 222 269 330 390
#     4  11  26  44  67  92 137 172 219 272 323 395
#     4  11  24  45  66  94 128 178 212 266 334 384
#     4  11  24  42  65 102 129 170 219 271 330 380
#     4  11  25  41  70  99 131 167 223 270 328 398
#     4  10  24  43  68  95 130 174 217 274 329 391
#
# _framework density 20.944696
#
# number of rings (size 3 to 8) (size 9 to 14) (size 15 to 20)
#    0.000    1.429    2.857    0.000   12.000    2.857 
#    0.000    0.000    0.000    0.000    0.000    0.000 
#    0.000    0.000    0.000    0.000    0.000    0.000 
#
# Total GULP energy -78155.028908 kJ/mol
# GULP energy per Si atom -5582.502065 kJ/mol
# Density = 2.089703 g / cm^3
# Si number density = 20.944696 Si / 1000 Ang^3
#
#
#
# Elastic Constant Matrix: (Units=GPa)
#
#
# Indices 1 2 3 4 5 6 
#
# 1 100.6421 20.9897 -3.6043 -14.9180 -6.1103 -6.2540
# 2 20.9897 103.0117 14.4569 -12.4485 0.7653 -5.2230
# 3 -3.6043 14.4569 53.7413 -8.6099 16.0455 -1.8906
# 4 -14.9180 -12.4485 -8.6099 36.7877 -0.8116 12.9275
# 5 -6.1103 0.7653 16.0455 -0.8116 23.4582 0.7999
# 6 -6.2540 -5.2230 -1.8906 12.9275 0.7999 21.5469
#
#
#
# Elastic Compliance Matrix: (Units=1/GPa)
#
#
# Indices 1 2 3 4 5 6 
#
# 1 0.011152 -0.001957 0.001277 0.004089 0.002225 0.000339
# 2 -0.001957 0.010796 -0.003088 0.001974 0.001300 0.000545
# 3 0.001277 -0.003088 0.025326 0.005280 -0.016683 -0.000704
# 4 0.004089 0.001974 0.005280 0.037985 -0.000593 -0.020639
# 5 0.002225 0.001300 -0.016683 -0.000593 0.054631 -0.002175
# 6 0.000339 0.000545 -0.000704 -0.020639 -0.002175 0.059043
#
#
# Mechanical properties :
#
#
# Convention : Reuss Voigt Hill
#
# Bulk Modulus (GPa) = 25.16433 35.67554 30.41994
# Shear Modulus (GPa) = 22.75664 31.39540 27.07602
#
# Velocity S-wave (km/s) = 3.29980 3.87585 3.59937
# Velocity P-wave (km/s) = 5.15354 6.09096 5.64176
#
# Compressibility (1/GPa) = 0.03973879
#
# Stress axis : x y z
#
# Youngs Moduli (GPa) = 89.66741 92.62408 39.48466
#
# Poissons Ratio (x) = 0.18125 -0.05042
# Poissons Ratio (y) = 0.17546 0.12194
# Poissons Ratio (z) = -0.11451 0.28605
#
# Static dielectric constant tensor:
#      x y z
#    x 1.759070 -0.023480 0.034030 
#    y -0.023480 1.769250 -0.006680 
#    z 0.034030 -0.006680 1.822310 
# 
# From -- ./inp_files/60641.got.cif
#   From: 2010.05.17/outbox.cif.g08.bks.cpg/sg2_31_cif.got.tgz:60641.got - 2010.06.03 11:33:40.
