data_PCOD9046988
_publ_section_title
;
Structure prediction by ZEFSAII (Michael W. Deem and Ramdas Pophale) SiO2 
 PCOD9046988
Probable space group: P -1
;
_chemical_formula_sum "Si O2"
_cell_formula_units_Z 16
_cell_length_a 12.052426
_cell_length_b 16.369497
_cell_length_c 7.856752
_cell_angle_alpha 145.154829
_cell_angle_beta 60.951565
_cell_angle_gamma 129.756840
_cell_volume 678.126364
_symmetry_space_group_name_H-M "P -1"
_symmetry_group_IT_number 2
_symmetry_cell_setting 'triclinic'
loop_
_space_group_symop_operation_xyz
x,y,z
-x,-y,-z
loop_
_atom_site_type_symbol
_atom_site_label
_atom_site_fract_x
_atom_site_fract_y
_atom_site_fract_z
Si Si1 0.224506 0.386463 0.568795
Si Si2 0.538636 0.041566 0.242132
Si Si3 0.779103 0.320016 0.749359
Si Si4 0.688063 0.545280 0.756427
Si Si5 0.304070 0.141273 0.613935
Si Si6 0.948220 0.571802 0.809175
Si Si7 0.079382 0.841338 0.411384
Si Si8 0.404143 0.233433 0.327944
O O1 0.220776 0.401228 0.394385
O O2 0.341301 0.329293 0.431061
O O3 0.073992 0.249849 0.532024
O O4 0.271684 0.566181 0.917705
O O5 0.676383 0.208697 0.484030
O O6 0.405715 0.061901 0.445560
O O7 0.500000 0.000000 0.000000
O O8 0.568769 0.894504 0.020638
O O9 0.927048 0.457885 0.791285
O O10 0.815435 0.206276 0.644937
O O11 0.794835 0.557461 0.848778
O O12 0.556477 0.365686 0.521113
O O13 0.632004 0.673379 0.056965
O O14 0.299455 0.146073 0.419233
O O15 0.154125 0.031769 0.637724
O O16 0.000000 0.500000 0.500000
O O17 0.054718 0.754270 0.097164
#
# Coordination Sequence:
#
# PCOD9046988 Si02
#       8
#     2   2   2   2   2   2   2   2
#     4  11  25  47  69 105 140 183 234 279 348 416
#     4  10  24  43  70 102 132 176 230 287 342 401
#     4  11  23  45  70  98 142 182 228 285 343 407
#     4  12  25  45  73 102 136 187 235 286 341 410
#     4  11  25  45  70 103 141 178 230 286 350 405
#     4  11  23  40  72 100 137 186 232 279 340 415
#     4  11  26  44  69 104 144 182 226 285 348 416
#     4  11  25  45  73 100 139 178 235 292 343 408
#
# _framework density 23.594424
#
# number of rings (size 3 to 8) (size 9 to 14) (size 15 to 20)
#    0.000    1.000    0.000    7.500    8.750    3.000 
#    0.000    0.000    0.000    0.000    0.000    0.000 
#    0.000    0.000    0.000    0.000    0.000    0.000 
#
# Total GULP energy -89486.285213 kJ/mol
# GULP energy per Si atom -5592.892826 kJ/mol
# Density = 2.354072 g / cm^3
# Si number density = 23.594424 Si / 1000 Ang^3
#
#
#
# Elastic Constant Matrix: (Units=GPa)
#
#
# Indices 1 2 3 4 5 6 
#
# 1 86.6829 1.6167 20.9703 6.2078 -4.8808 -6.7001
# 2 1.6167 73.4028 12.5034 7.8308 0.2021 -7.5750
# 3 20.9703 12.5034 127.5383 2.3217 -10.3931 2.3101
# 4 6.2078 7.8308 2.3217 36.5841 5.7109 -0.0446
# 5 -4.8808 0.2021 -10.3931 5.7109 34.3765 1.8126
# 6 -6.7001 -7.5750 2.3101 -0.0446 1.8126 24.0863
#
#
#
# Elastic Compliance Matrix: (Units=1/GPa)
#
#
# Indices 1 2 3 4 5 6 
#
# 1 0.012559 0.000714 -0.002051 -0.002360 0.001350 0.003809
# 2 0.000714 0.014733 -0.001613 -0.003133 -0.000216 0.004997
# 3 -0.002051 -0.001613 0.008579 -0.000238 0.002461 -0.002086
# 4 -0.002360 -0.003133 -0.000238 0.029228 -0.005182 -0.001175
# 5 0.001350 -0.000216 0.002461 -0.005182 0.031007 -0.002271
# 6 0.003809 0.004997 -0.002086 -0.001175 -0.002271 0.044517
#
#
# Mechanical properties :
#
#
# Convention : Reuss Voigt Hill
#
# Bulk Modulus (GPa) = 33.36620 39.75609 36.56114
# Shear Modulus (GPa) = 31.94629 35.84498 33.89563
#
# Velocity S-wave (km/s) = 3.68363 3.90194 3.79436
# Velocity P-wave (km/s) = 5.68018 6.09808 5.89283
#
# Compressibility (1/GPa) = 0.02997045
#
# Stress axis : x y z
#
# Youngs Moduli (GPa) = 79.62712 67.87516 116.56615
#
# Poissons Ratio (x) = -0.04845 0.23907
# Poissons Ratio (y) = -0.05684 0.18800
# Poissons Ratio (z) = 0.16331 0.10947
#
# Static dielectric constant tensor:
#      x y z
#    x 1.918460 0.003500 -0.019010 
#    y 0.003500 1.935460 -0.013470 
#    z -0.019010 -0.013470 1.866600 
# 
# From -- ./inp_files/280245.got.cif
#   From: 2010.05.17/outbox.cif.g08.bks.cpg/sg2_141_cif.got.tgz:280245.got - 2010.06.03 11:33:40.
