data_PCOD9046716
_publ_section_title
;
Structure prediction by ZEFSAII (Michael W. Deem and Ramdas Pophale) SiO2 
 PCOD9046716
Probable space group: P -1
;
_chemical_formula_sum "Si O2"
_cell_formula_units_Z 16
_cell_length_a 5.320943
_cell_length_b 15.978568
_cell_length_c 11.531175
_cell_angle_alpha 122.516070
_cell_angle_beta 83.446799
_cell_angle_gamma 120.770701
_cell_volume 692.591970
_symmetry_space_group_name_H-M "P -1"
_symmetry_group_IT_number 2
_symmetry_cell_setting 'triclinic'
loop_
_space_group_symop_operation_xyz
x,y,z
-x,-y,-z
loop_
_atom_site_type_symbol
_atom_site_label
_atom_site_fract_x
_atom_site_fract_y
_atom_site_fract_z
Si Si1 0.792624 0.041224 0.590782
Si Si2 0.277786 0.635922 0.800467
Si Si3 0.599388 0.844557 0.620289
Si Si4 0.029032 0.620875 0.398086
Si Si5 0.314590 0.860002 0.883301
Si Si6 0.787309 0.720427 0.659375
Si Si7 0.327020 0.618443 0.047325
Si Si8 0.910238 0.688491 0.213190
O O1 0.696399 0.971160 0.663698
O O2 0.500000 0.000000 0.500000
O O3 0.000000 0.000000 0.500000
O O4 0.998351 0.179161 0.684512
O O5 0.986822 0.502242 0.701307
O O6 0.268885 0.754536 0.890761
O O7 0.471772 0.644621 0.684517
O O8 0.403729 0.633499 0.918475
O O9 0.459022 0.839713 0.747944
O O10 0.827948 0.805821 0.613660
O O11 0.359632 0.739162 0.472157
O O12 0.883447 0.636475 0.534471
O O13 0.870612 0.629548 0.297078
O O14 0.982475 0.811268 0.819013
O O15 0.500000 0.000000 0.000000
O O16 0.599507 0.626790 0.110565
O O17 0.215677 0.704265 0.154928
O O18 0.000000 0.500000 0.000000
#
# Coordination Sequence:
#
# PCOD9046716 Si02
#       8
#     2   2   2   2   2   2   2   2
#     4  12  25  43  71 107 143 186 240 291 367 431
#     4  11  26  43  70 101 139 183 244 294 356 438
#     4  10  24  43  67 104 136 182 235 295 360 431
#     4  11  23  44  72 100 144 178 238 301 370 425
#     4  10  25  45  68  95 138 182 233 294 356 426
#     4  10  24  43  71 102 133 184 234 304 365 420
#     4  12  28  48  71 108 148 196 247 293 370 437
#     4  12  27  46  74 106 148 199 236 308 363 438
#
# _framework density 23.101623
#
# number of rings (size 3 to 8) (size 9 to 14) (size 15 to 20)
#    0.000    1.000    2.500    2.250    7.000    8.500 
#    0.000    0.000    0.000    0.000    0.000    0.000 
#    0.000    0.000    0.000    0.000    0.000    0.000 
#
# Total GULP energy -89149.353124 kJ/mol
# GULP energy per Si atom -5571.834570 kJ/mol
# Density = 2.304904 g / cm^3
# Si number density = 23.101623 Si / 1000 Ang^3
#
#
#
# Elastic Constant Matrix: (Units=GPa)
#
#
# Indices 1 2 3 4 5 6 
#
# 1 73.8341 18.9357 27.6667 5.2214 20.5231 -12.6031
# 2 18.9357 137.9264 52.4935 19.7307 16.4885 -22.2962
# 3 27.6667 52.4935 102.5519 22.0960 9.7849 -21.5331
# 4 5.2214 19.7307 22.0960 57.9050 -3.8011 -9.1797
# 5 20.5231 16.4885 9.7849 -3.8011 43.5062 -7.1397
# 6 -12.6031 -22.2962 -21.5331 -9.1797 -7.1397 24.9657
#
#
#
# Elastic Compliance Matrix: (Units=1/GPa)
#
#
# Indices 1 2 3 4 5 6 
#
# 1 0.017331 0.000416 -0.003293 -0.000234 -0.006921 0.004215
# 2 0.000416 0.009819 -0.003624 -0.001430 -0.002469 0.004621
# 3 -0.003293 -0.003624 0.014469 -0.002900 0.000512 0.006661
# 4 -0.000234 -0.001430 -0.002900 0.019842 0.003773 0.004479
# 5 -0.006921 -0.002469 0.000512 0.003773 0.028083 0.004162
# 6 0.004215 0.004621 0.006661 0.004479 0.004162 0.054892
#
#
# Mechanical properties :
#
#
# Convention : Reuss Voigt Hill
#
# Bulk Modulus (GPa) = 34.94362 56.94489 45.94426
# Shear Modulus (GPa) = 29.94398 39.62315 34.78356
#
# Velocity S-wave (km/s) = 3.60416 4.14595 3.88451
# Velocity P-wave (km/s) = 5.69902 6.90085 6.32853
#
# Compressibility (1/GPa) = 0.02861752
#
# Stress axis : x y z
#
# Youngs Moduli (GPa) = 57.70039 101.83998 69.11196
#
# Poissons Ratio (x) = -0.04238 0.22756
# Poissons Ratio (y) = -0.02401 0.25049
# Poissons Ratio (z) = 0.18999 0.36912
#
# Static dielectric constant tensor:
#      x y z
#    x 2.124890 -0.089100 -0.016400 
#    y -0.089100 2.139610 0.019560 
#    z -0.016400 0.019560 1.920580 
# 
# From -- ./inp_files/69196.got.cif
#   From: 2010.05.17/outbox.cif.g08.bks.cpg/sg2_35_cif.got.tgz:69196.got - 2010.06.03 11:33:40.
