data_PCOD9046576
_publ_section_title
;
Structure prediction by ZEFSAII (Michael W. Deem and Ramdas Pophale) SiO2 
 PCOD9046576
Probable space group: P -1
;
_chemical_formula_sum "Si O2"
_cell_formula_units_Z 12
_cell_length_a 13.205827
_cell_length_b 7.386805
_cell_length_c 15.119305
_cell_angle_alpha 55.373489
_cell_angle_beta 153.604108
_cell_angle_gamma 110.548706
_cell_volume 486.642065
_symmetry_space_group_name_H-M "P -1"
_symmetry_group_IT_number 2
_symmetry_cell_setting 'triclinic'
loop_
_space_group_symop_operation_xyz
x,y,z
-x,-y,-z
loop_
_atom_site_type_symbol
_atom_site_label
_atom_site_fract_x
_atom_site_fract_y
_atom_site_fract_z
Si Si1 0.155292 0.598556 0.772122
Si Si2 0.966282 0.763250 0.117819
Si Si3 0.744073 0.940873 0.264492
Si Si4 0.567118 0.095410 0.276049
Si Si5 0.735480 0.470811 0.751601
Si Si6 0.890023 0.897847 0.750736
O O1 0.003365 0.487624 0.744177
O O2 0.997130 0.686258 0.532496
O O3 0.178412 0.839800 0.752897
O O4 0.433198 0.376503 0.059724
O O5 0.669483 0.932029 0.855535
O O6 0.127650 0.881123 0.261458
O O7 0.959606 0.300267 0.907374
O O8 0.654221 0.955331 0.291799
O O9 0.500000 0.000000 0.000000
O O10 0.785233 0.019341 0.540400
O O11 0.500000 0.500000 0.500000
O O12 0.741814 0.729970 0.698957
O O13 0.818956 0.311034 0.951119
#
# Coordination Sequence:
#
# PCOD9046576 Si02
#       6
#     2   2   2   2   2   2
#     4   9  24  42  62 101 132 169 232 270 333 410
#     4  10  24  43  67  98 138 176 226 277 335 403
#     4  11  23  43  69  95 138 179 221 284 337 400
#     4  10  24  43  65 101 135 172 233 272 335 408
#     4  11  25  44  66 104 136 176 233 275 335 413
#     4  11  24  43  71  94 138 182 215 288 342 388
#
# _framework density 24.65878
#
# number of rings (size 3 to 8) (size 9 to 14) (size 15 to 20)
#    1.000    0.667    0.000    3.000    2.333    8.667 
#    0.000    0.000    0.000    0.000    0.000    0.000 
#    0.000    0.000    0.000    0.000    0.000    0.000 
#
# Total GULP energy -66887.820750 kJ/mol
# GULP energy per Si atom -5573.985062 kJ/mol
# Density = 2.460266 g / cm^3
# Si number density = 24.658780 Si / 1000 Ang^3
#
#
#
# Elastic Constant Matrix: (Units=GPa)
#
#
# Indices 1 2 3 4 5 6 
#
# 1 78.3019 38.6991 29.4520 6.8834 0.7490 -6.4235
# 2 38.6991 113.5345 76.1969 26.9560 -20.7898 -0.0074
# 3 29.4520 76.1969 260.4709 1.8187 -31.2857 4.5663
# 4 6.8834 26.9560 1.8187 53.8456 3.9716 -6.2323
# 5 0.7490 -20.7898 -31.2857 3.9716 29.0310 6.7354
# 6 -6.4235 -0.0074 4.5663 -6.2323 6.7354 22.6197
#
#
#
# Elastic Compliance Matrix: (Units=1/GPa)
#
#
# Indices 1 2 3 4 5 6 
#
# 1 0.017630 -0.007968 -0.001034 0.003557 -0.009882 0.009135
# 2 -0.007968 0.018115 -0.002516 -0.009983 0.013832 -0.008618
# 3 -0.001034 -0.002516 0.005259 0.000601 0.004389 -0.002498
# 4 0.003557 -0.009983 0.000601 0.025389 -0.012777 0.011685
# 5 -0.009882 0.013832 0.004389 -0.012777 0.056672 -0.024083
# 6 0.009135 -0.008618 -0.002498 0.011685 -0.024083 0.057695
#
#
# Mechanical properties :
#
#
# Convention : Reuss Voigt Hill
#
# Bulk Modulus (GPa) = 55.66033 82.33371 68.99702
# Shear Modulus (GPa) = 23.83377 41.62987 32.73182
#
# Velocity S-wave (km/s) = 3.11230 4.11327 3.64729
# Velocity P-wave (km/s) = 5.96124 7.48468 6.76597
#
# Compressibility (1/GPa) = 0.01796612
#
# Stress axis : x y z
#
# Youngs Moduli (GPa) = 56.72288 55.20287 190.14941
#
# Poissons Ratio (x) = 0.43987 0.19667
# Poissons Ratio (y) = 0.45199 0.47844
# Poissons Ratio (z) = 0.05867 0.13890
#
# Static dielectric constant tensor:
#      x y z
#    x 2.031300 0.037800 0.067490 
#    y 0.037800 1.949010 -0.019070 
#    z 0.067490 -0.019070 2.158150 
# 
# From -- ./inp_files/103031.got.cif
#   From: 2010.05.17/outbox.cif.g08.bks.cpg/sg2_52_cif.got.tgz:103031.got - 2010.06.03 11:33:40.
