data_PCOD9046718
_publ_section_title
;
Structure prediction by ZEFSAII (Michael W. Deem and Ramdas Pophale) SiO2 
 PCOD9046718
Probable space group: P -1
;
_chemical_formula_sum "Si O2"
_cell_formula_units_Z 14
_cell_length_a 11.098931
_cell_length_b 9.443844
_cell_length_c 8.188678
_cell_angle_alpha 132.576077
_cell_angle_beta 103.410182
_cell_angle_gamma 65.594150
_cell_volume 574.109069
_symmetry_space_group_name_H-M "P -1"
_symmetry_group_IT_number 2
_symmetry_cell_setting 'triclinic'
loop_
_space_group_symop_operation_xyz
x,y,z
-x,-y,-z
loop_
_atom_site_type_symbol
_atom_site_label
_atom_site_fract_x
_atom_site_fract_y
_atom_site_fract_z
Si Si1 0.103626 0.438540 0.135701
Si Si2 0.356958 0.120479 0.133399
Si Si3 0.707986 0.525467 0.198398
Si Si4 0.503057 0.364954 0.551274
Si Si5 0.034198 0.756139 0.799437
Si Si6 0.196841 0.122443 0.391689
Si Si7 0.778857 0.258545 0.688874
O O1 0.251439 0.258723 0.074522
O O2 0.136002 0.648962 0.327136
O O3 0.023149 0.337607 0.145260
O O4 0.000000 0.500000 0.000000
O O5 0.403974 0.255864 0.379325
O O6 0.280499 0.030239 0.176481
O O7 0.500000 0.000000 0.000000
O O8 0.564276 0.538292 0.224983
O O9 0.810857 0.373466 0.242079
O O10 0.735670 0.740418 0.380156
O O11 0.734782 0.429308 0.952395
O O12 0.500000 0.500000 0.500000
O O13 0.655217 0.241325 0.538046
O O14 0.946382 0.731481 0.602567
O O15 0.000000 0.000000 0.000000
O O16 0.168419 0.953442 0.361606
#
# Coordination Sequence:
#
# PCOD9046718 Si02
#       7
#     2   2   2   2   2   2   2
#     4  11  22  42  71 104 142 183 241 293 348 430
#     4  10  24  43  71 100 144 189 238 298 354 425
#     4  11  24  43  72 100 141 188 233 292 351 425
#     4  11  25  44  67 103 141 183 238 286 360 425
#     4  11  21  44  73  99 141 192 233 289 361 419
#     4  10  24  43  67 108 137 183 240 289 354 432
#     4  12  24  45  73  99 146 182 236 292 359 414
#
# _framework density 24.38561
#
# number of rings (size 3 to 8) (size 9 to 14) (size 15 to 20)
#    0.000    1.143    4.286    0.857    2.000    4.571 
#    0.000    0.714    0.000    0.000    0.000    0.000 
#    0.000    0.000    0.000    0.000    0.000    0.000 
#
# Total GULP energy -77994.647103 kJ/mol
# GULP energy per Si atom -5571.046222 kJ/mol
# Density = 2.433011 g / cm^3
# Si number density = 24.385610 Si / 1000 Ang^3
#
#
#
# Elastic Constant Matrix: (Units=GPa)
#
#
# Indices 1 2 3 4 5 6 
#
# 1 122.2646 51.5954 17.7252 7.0668 6.7202 2.7606
# 2 51.5954 166.1018 18.8861 -2.1995 5.8843 9.9342
# 3 17.7252 18.8861 58.6404 5.4040 -1.9193 7.6089
# 4 7.0668 -2.1995 5.4040 38.7642 0.3867 17.3942
# 5 6.7202 5.8843 -1.9193 0.3867 39.1607 -4.9389
# 6 2.7606 9.9342 7.6089 17.3942 -4.9389 55.3026
#
#
#
# Elastic Compliance Matrix: (Units=1/GPa)
#
#
# Indices 1 2 3 4 5 6 
#
# 1 0.009846 -0.002862 -0.002015 -0.002037 -0.001233 0.000830
# 2 -0.002862 0.007228 -0.001454 0.001872 -0.000889 -0.001624
# 3 -0.002015 -0.001454 0.018524 -0.001608 0.001290 -0.001566
# 4 -0.002037 0.001872 -0.001608 0.030951 -0.001563 -0.009888
# 5 -0.001233 -0.000889 0.001290 -0.001563 0.026324 0.002886
# 6 0.000830 -0.001624 -0.001566 -0.009888 0.002886 0.021916
#
#
# Mechanical properties :
#
#
# Convention : Reuss Voigt Hill
#
# Bulk Modulus (GPa) = 43.59850 58.15779 50.87814
# Shear Modulus (GPa) = 37.01093 43.89884 40.45488
#
# Velocity S-wave (km/s) = 3.90004 4.24747 4.07746
# Velocity P-wave (km/s) = 6.18045 6.92501 6.56330
#
# Compressibility (1/GPa) = 0.02293657
#
# Stress axis : x y z
#
# Youngs Moduli (GPa) = 101.56770 138.34752 53.98442
#
# Poissons Ratio (x) = 0.39597 0.10876
# Poissons Ratio (y) = 0.29070 0.07848
# Poissons Ratio (z) = 0.20462 0.20112
#
# Static dielectric constant tensor:
#      x y z
#    x 1.375340 -0.150060 -0.049510 
#    y -0.150060 1.850730 0.067140 
#    z -0.049510 0.067140 2.041870 
# 
# From -- ./inp_files/246114.got.cif
#   From: 2010.05.17/outbox.cif.g08.bks.cpg/sg2_124_cif.got.tgz:246114.got - 2010.06.03 11:33:40.
