data_PCOD9046067
_publ_section_title
;
Structure prediction by ZEFSAII (Michael W. Deem and Ramdas Pophale) SiO2 
 PCOD9046067
Probable space group: P -1
;
_chemical_formula_sum "Si O2"
_cell_formula_units_Z 16
_cell_length_a 9.018660
_cell_length_b 19.148545
_cell_length_c 5.485268
_cell_angle_alpha 122.864711
_cell_angle_beta 69.789514
_cell_angle_gamma 123.553711
_cell_volume 661.679016
_symmetry_space_group_name_H-M "P -1"
_symmetry_group_IT_number 2
_symmetry_cell_setting 'triclinic'
loop_
_space_group_symop_operation_xyz
x,y,z
-x,-y,-z
loop_
_atom_site_type_symbol
_atom_site_label
_atom_site_fract_x
_atom_site_fract_y
_atom_site_fract_z
Si Si1 0.742112 0.871868 0.885490
Si Si2 0.686688 0.622894 0.924923
Si Si3 0.829706 0.343195 0.845234
Si Si4 0.883924 0.522369 0.419371
Si Si5 0.902990 0.035026 0.426194
Si Si6 0.596045 0.229873 0.392262
Si Si7 0.915523 0.222009 0.956948
Si Si8 0.549441 0.658606 0.587112
O O1 0.595185 0.854583 0.725755
O O2 0.689594 0.765903 0.779101
O O3 0.943575 0.913701 0.763370
O O4 0.742932 0.943664 0.223707
O O5 0.742746 0.541054 0.687362
O O6 0.558237 0.610904 0.745043
O O7 0.612883 0.624336 0.241588
O O8 0.875554 0.719395 0.983487
O O9 0.636059 0.269877 0.715826
O O10 0.892081 0.288434 0.892928
O O11 0.984813 0.385813 0.632495
O O12 0.816226 0.435072 0.111549
O O13 0.000000 0.500000 0.500000
O O14 0.867490 0.117533 0.703762
O O15 0.000000 0.000000 0.500000
O O16 0.605093 0.316864 0.385807
O O17 0.759176 0.208688 0.206958
#
# Coordination Sequence:
#
# PCOD9046067 Si02
#       8
#     2   2   2   2   2   2   2   2
#     4   9  23  41  63  96 139 182 225 293 349 415
#     4  12  22  43  71 104 132 192 239 288 349 428
#     4  11  23  41  67 100 144 179 237 293 359 411
#     4  11  23  40  68 104 137 178 242 302 342 420
#     4  11  23  42  68 100 137 181 243 290 346 426
#     4  10  24  42  67 100 142 186 227 297 360 421
#     4  12  23  39  73 101 134 191 240 286 355 424
#     4  10  25  43  70  98 144 187 233 284 361 420
#
# _framework density 24.180909
#
# number of rings (size 3 to 8) (size 9 to 14) (size 15 to 20)
#    0.750    0.500    3.750    1.500    3.500    3.500 
#    0.000    2.500    0.000    0.000    0.000    0.000 
#    0.000    0.000    0.000    0.000    0.000    0.000 
#
# Total GULP energy -89313.778250 kJ/mol
# GULP energy per Si atom -5582.111141 kJ/mol
# Density = 2.412587 g / cm^3
# Si number density = 24.180909 Si / 1000 Ang^3
#
#
#
# Elastic Constant Matrix: (Units=GPa)
#
#
# Indices 1 2 3 4 5 6 
#
# 1 106.6374 11.0708 70.1988 7.2166 5.3485 -3.7171
# 2 11.0708 49.2720 29.4968 10.0333 -7.4595 -7.9044
# 3 70.1988 29.4968 184.0487 38.3790 -10.4858 2.7444
# 4 7.2166 10.0333 38.3790 36.9894 0.6015 0.4590
# 5 5.3485 -7.4595 -10.4858 0.6015 55.8738 5.2173
# 6 -3.7171 -7.9044 2.7444 0.4590 5.2173 34.6534
#
#
#
# Elastic Compliance Matrix: (Units=1/GPa)
#
#
# Indices 1 2 3 4 5 6 
#
# 1 0.013310 -0.000202 -0.006001 0.003701 -0.002673 0.002210
# 2 -0.000202 0.024050 -0.003011 -0.003463 0.002196 0.005418
# 3 -0.006001 -0.003011 0.010163 -0.008567 0.002394 -0.002382
# 4 0.003701 -0.003463 -0.008567 0.036184 -0.002836 0.000233
# 5 -0.002673 0.002196 0.002394 -0.002836 0.019191 -0.002827
# 6 0.002210 0.005418 -0.002382 0.000233 -0.002827 0.030941
#
#
# Mechanical properties :
#
#
# Convention : Reuss Voigt Hill
#
# Bulk Modulus (GPa) = 34.36961 62.38788 48.37874
# Shear Modulus (GPa) = 30.87083 40.78276 35.82679
#
# Velocity S-wave (km/s) = 3.57692 4.11124 3.85335
# Velocity P-wave (km/s) = 5.59495 6.95650 6.31254
#
# Compressibility (1/GPa) = 0.02909547
#
# Stress axis : x y z
#
# Youngs Moduli (GPa) = 75.13293 41.57965 98.39433
#
# Poissons Ratio (x) = 0.00838 0.59048
# Poissons Ratio (y) = 0.01515 0.29627
# Poissons Ratio (z) = 0.45088 0.12520
#
# Static dielectric constant tensor:
#      x y z
#    x 1.973220 -0.003740 -0.041590 
#    y -0.003740 2.142880 0.032040 
#    z -0.041590 0.032040 2.094990 
# 
# From -- ./inp_files/52084.got.cif
#   From: 2010.05.17/outbox.cif.g08.bks.cpg/sg2_27_cif.got.tgz:52084.got - 2010.06.03 11:33:40.
