data_PCOD9046923
_publ_section_title
;
Structure prediction by ZEFSAII (Michael W. Deem and Ramdas Pophale) SiO2 
 PCOD9046923
Probable space group: P -1
;
_chemical_formula_sum "Si O2"
_cell_formula_units_Z 12
_cell_length_a 22.688588
_cell_length_b 5.004337
_cell_length_c 5.111109
_cell_angle_alpha 89.739928
_cell_angle_beta 121.779386
_cell_angle_gamma 110.804198
_cell_volume 448.828716
_symmetry_space_group_name_H-M "P -1"
_symmetry_group_IT_number 2
_symmetry_cell_setting 'triclinic'
loop_
_space_group_symop_operation_xyz
x,y,z
-x,-y,-z
loop_
_atom_site_type_symbol
_atom_site_label
_atom_site_fract_x
_atom_site_fract_y
_atom_site_fract_z
Si Si1 0.994461 0.739178 0.186126
Si Si2 0.372729 0.243266 0.230891
Si Si3 0.220725 0.067414 0.617567
Si Si4 0.236962 0.758537 0.158662
Si Si5 0.492753 0.740964 0.794738
Si Si6 0.130041 0.213075 0.754881
O O1 0.920659 0.657078 0.198687
O O2 0.063872 0.885688 0.554577
O O3 0.000000 0.500000 0.000000
O O4 0.000000 0.000000 0.000000
O O5 0.414319 0.557684 0.461736
O O6 0.438047 0.172717 0.248133
O O7 0.325048 0.980236 0.320704
O O8 0.310734 0.253288 0.876464
O O9 0.168389 0.238295 0.554385
O O10 0.207116 0.877460 0.331095
O O11 0.201799 0.837471 0.816296
O O12 0.211535 0.409226 0.092833
O O13 0.500000 0.500000 0.000000
O O14 0.500000 0.000000 0.000000
#
# Coordination Sequence:
#
# PCOD9046923 Si02
#       6
#     2   2   2   2   2   2
#     4  11  28  47  74 104 147 192 245 299 368 440
#     4   9  24  42  70 105 142 188 246 297 364 432
#     4  10  24  43  69 105 142 186 241 301 366 427
#     4  10  24  43  69 105 142 186 241 301 366 427
#     4  11  24  45  72 102 149 194 243 298 363 434
#     4  11  26  42  76 101 148 186 248 297 372 432
#
# _framework density 26.736256999999998
#
# number of rings (size 3 to 8) (size 9 to 14) (size 15 to 20)
#    1.000    0.667    0.000    2.000    9.333    9.333 
#    0.000    0.000    0.000    0.000    0.000    0.000 
#    0.000    0.000    0.000    0.000    0.000    0.000 
#
# Total GULP energy -66905.375917 kJ/mol
# GULP energy per Si atom -5575.447993 kJ/mol
# Density = 2.667540 g / cm^3
# Si number density = 26.736257 Si / 1000 Ang^3
#
#
#
# Elastic Constant Matrix: (Units=GPa)
#
#
# Indices 1 2 3 4 5 6 
#
# 1 166.7605 46.4547 94.2277 52.9238 -30.1880 11.8879
# 2 46.4547 127.4655 70.5644 27.2967 -22.7933 -17.4377
# 3 94.2277 70.5644 164.5295 66.4784 -37.4475 -2.0723
# 4 52.9238 27.2967 66.4784 61.9631 -0.1916 -9.0918
# 5 -30.1880 -22.7933 -37.4475 -0.1916 74.4801 10.6650
# 6 11.8879 -17.4377 -2.0723 -9.0918 10.6650 38.7355
#
#
#
# Elastic Compliance Matrix: (Units=1/GPa)
#
#
# Indices 1 2 3 4 5 6 
#
# 1 0.011296 -0.001789 -0.001364 -0.008491 0.004405 -0.007551
# 2 -0.001789 0.011462 -0.005162 0.002941 -0.000710 0.006319
# 3 -0.001364 -0.005162 0.017063 -0.015834 0.007371 -0.006738
# 4 -0.008491 0.002941 -0.015834 0.041437 -0.012732 0.016314
# 5 0.004405 -0.000710 0.007371 -0.012732 0.020070 -0.009791
# 6 -0.007551 0.006319 -0.006738 0.016314 -0.009791 0.037143
#
#
# Mechanical properties :
#
#
# Convention : Reuss Voigt Hill
#
# Bulk Modulus (GPa) = 43.11769 97.91655 70.51712
# Shear Modulus (GPa) = 30.70656 51.53631 41.12143
#
# Velocity S-wave (km/s) = 3.39263 4.39519 3.92604
# Velocity P-wave (km/s) = 5.61325 7.90313 6.85449
#
# Compressibility (1/GPa) = 0.02319234
#
# Stress axis : x y z
#
# Youngs Moduli (GPa) = 88.52719 87.24104 58.60480
#
# Poissons Ratio (x) = 0.15605 0.07993
# Poissons Ratio (y) = 0.15835 0.30253
# Poissons Ratio (z) = 0.12074 0.45035
#
# Static dielectric constant tensor:
#      x y z
#    x 2.119720 -0.073380 0.087230 
#    y -0.073380 2.395880 -0.048730 
#    z 0.087230 -0.048730 2.099880 
# 
# From -- ./inp_files/121024.got.cif
#   From: 2010.05.17/outbox.cif.g08.bks.cpg/sg2_61_cif.got.tgz:121024.got - 2010.06.03 11:33:40.
