data_PCOD9046891
_publ_section_title
;
Structure prediction by ZEFSAII (Michael W. Deem and Ramdas Pophale) SiO2 
 PCOD9046891
Probable space group: P -1
;
_chemical_formula_sum "Si O2"
_cell_formula_units_Z 14
_cell_length_a 14.999785
_cell_length_b 11.988722
_cell_length_c 9.413324
_cell_angle_alpha 55.025104
_cell_angle_beta 46.275410
_cell_angle_gamma 30.798715
_cell_volume 625.408721
_symmetry_space_group_name_H-M "P -1"
_symmetry_group_IT_number 2
_symmetry_cell_setting 'triclinic'
loop_
_space_group_symop_operation_xyz
x,y,z
-x,-y,-z
loop_
_atom_site_type_symbol
_atom_site_label
_atom_site_fract_x
_atom_site_fract_y
_atom_site_fract_z
Si Si1 0.780050 0.396828 0.466431
Si Si2 0.511951 0.421769 0.883782
Si Si3 0.098906 0.577955 0.406517
Si Si4 0.663919 0.764194 0.151280
Si Si5 0.730437 0.739261 0.777276
Si Si6 0.050869 0.801412 0.053686
Si Si7 0.844523 0.906938 0.909433
O O1 0.613596 0.425795 0.644403
O O2 0.816444 0.394541 0.592938
O O3 0.713121 0.593455 0.318974
O O4 0.991497 0.183299 0.318371
O O5 0.650550 0.168634 0.925021
O O6 0.500000 0.500000 0.000000
O O7 0.288396 0.588703 0.957370
O O8 0.266578 0.352598 0.301245
O O9 0.977889 0.764905 0.285524
O O10 0.951867 0.605971 0.629864
O O11 0.435214 0.003349 0.241076
O O12 0.699174 0.699508 0.994074
O O13 0.785504 0.799232 0.026688
O O14 0.950757 0.839080 0.992308
O O15 0.000000 0.000000 0.000000
#
# Coordination Sequence:
#
# PCOD9046891 Si02
#       7
#     2   2   2   2   2   2   2
#     4  12  26  45  73 105 144 184 235 293 356 418
#     4  12  26  50  72 104 143 186 240 293 350 422
#     4  11  23  43  68 102 141 182 233 286 354 414
#     4  11  25  45  71 108 141 182 236 292 356 416
#     4  10  24  43  69 101 146 183 227 291 354 425
#     4  12  26  45  74 102 140 187 240 291 348 421
#     4  12  26  48  74 102 148 188 233 294 357 418
#
# _framework density 22.385359999999999
#
# number of rings (size 3 to 8) (size 9 to 14) (size 15 to 20)
#    0.000    0.571    4.286    2.571    6.000    2.286 
#    0.000    0.000    0.000    0.000    0.000    0.000 
#    0.000    0.000    0.000    0.000    0.000    0.000 
#
# Total GULP energy -78276.635425 kJ/mol
# GULP energy per Si atom -5591.188245 kJ/mol
# Density = 2.233441 g / cm^3
# Si number density = 22.385360 Si / 1000 Ang^3
#
#
#
# Elastic Constant Matrix: (Units=GPa)
#
#
# Indices 1 2 3 4 5 6 
#
# 1 77.6615 38.7031 15.3217 8.5335 19.8620 -15.1759
# 2 38.7031 140.0054 54.9986 6.3544 0.5454 -3.0301
# 3 15.3217 54.9986 119.4794 13.5768 0.8671 -2.6232
# 4 8.5335 6.3544 13.5768 27.9810 2.3117 0.7256
# 5 19.8620 0.5454 0.8671 2.3117 40.3224 3.6915
# 6 -15.1759 -3.0301 -2.6232 0.7256 3.6915 31.0907
#
#
#
# Elastic Compliance Matrix: (Units=1/GPa)
#
#
# Indices 1 2 3 4 5 6 
#
# 1 0.021099 -0.005625 0.000769 -0.004906 -0.011082 0.011246
# 2 -0.005625 0.010228 -0.004205 0.001260 0.002877 -0.002475
# 3 0.000769 -0.004205 0.010742 -0.004486 -0.000389 0.001023
# 4 -0.004906 0.001260 -0.004486 0.039171 0.000583 -0.003634
# 5 -0.011082 0.002877 -0.000389 0.000583 0.031005 -0.008856
# 6 0.011246 -0.002475 0.001023 -0.003634 -0.008856 0.038635
#
#
# Mechanical properties :
#
#
# Convention : Reuss Voigt Hill
#
# Bulk Modulus (GPa) = 41.76256 61.68812 51.72534
# Shear Modulus (GPa) = 28.25111 35.08703 31.66907
#
# Velocity S-wave (km/s) = 3.55637 3.96335 3.76536
# Velocity P-wave (km/s) = 5.96325 6.96860 6.48543
#
# Compressibility (1/GPa) = 0.02394489
#
# Stress axis : x y z
#
# Youngs Moduli (GPa) = 47.39593 97.77550 93.09518
#
# Poissons Ratio (x) = 0.55001 -0.07155
# Poissons Ratio (y) = 0.26661 0.39146
# Poissons Ratio (z) = -0.03643 0.41114
#
# Static dielectric constant tensor:
#      x y z
#    x 1.862520 0.046370 -0.048860 
#    y 0.046370 1.821810 -0.012570 
#    z -0.048860 -0.012570 1.830710 
# 
# From -- ./inp_files/189690.got.cif
#   From: 2010.05.17/outbox.cif.g08.bks.cpg/sg2_95_cif.got.tgz:189690.got - 2010.06.03 11:33:40.
