data_PCOD9046498
_publ_section_title
;
Structure prediction by ZEFSAII (Michael W. Deem and Ramdas Pophale) SiO2 
 PCOD9046498
Probable space group: P -1
;
_chemical_formula_sum "Si O2"
_cell_formula_units_Z 14
_cell_length_a 14.247862
_cell_length_b 5.247174
_cell_length_c 8.533534
_cell_angle_alpha 120.581446
_cell_angle_beta 97.983916
_cell_angle_gamma 88.099428
_cell_volume 543.387476
_symmetry_space_group_name_H-M "P -1"
_symmetry_group_IT_number 2
_symmetry_cell_setting 'triclinic'
loop_
_space_group_symop_operation_xyz
x,y,z
-x,-y,-z
loop_
_atom_site_type_symbol
_atom_site_label
_atom_site_fract_x
_atom_site_fract_y
_atom_site_fract_z
Si Si1 0.304629 0.304404 0.909183
Si Si2 0.452545 0.233185 0.177244
Si Si3 0.289934 0.072521 0.307095
Si Si4 0.031686 0.826844 0.666246
Si Si5 0.133351 0.783263 0.369089
Si Si6 0.857635 0.834366 0.956954
Si Si7 0.656301 0.385818 0.313616
O O1 0.319987 0.497664 0.818973
O O2 0.322880 0.958268 0.771076
O O3 0.378582 0.390288 0.094656
O O4 0.200519 0.319549 0.961175
O O5 0.393758 0.073098 0.253774
O O6 0.543334 0.422938 0.318531
O O7 0.500000 0.000000 0.000000
O O8 0.220682 0.033371 0.131241
O O9 0.287374 0.399139 0.486030
O O10 0.240185 0.861841 0.359931
O O11 0.113634 0.889026 0.573453
O O12 0.000000 0.500000 0.500000
O O13 0.942547 0.030647 0.686092
O O14 0.075856 0.912294 0.870501
O O15 0.105278 0.441044 0.218266
#
# Coordination Sequence:
#
# PCOD9046498 Si02
#       7
#     2   2   2   2   2   2   2
#     4  10  24  42  75 102 152 192 247 303 370 428
#     4   9  21  44  67 104 144 196 243 302 365 427
#     4  11  25  42  70 104 143 189 247 300 359 443
#     4  11  26  49  74 102 144 184 238 310 374 443
#     4  11  26  45  73 104 141 189 243 298 376 444
#     4  11  26  44  71 107 144 191 242 302 371 445
#     4  11  23  44  69 107 147 199 246 307 363 432
#
# _framework density 25.764306000000001
#
# number of rings (size 3 to 8) (size 9 to 14) (size 15 to 20)
#    0.000    1.429    0.000    3.000   12.000    4.571 
#    2.571    3.571    0.000    0.000    0.000    0.000 
#    0.000    0.000    0.000    0.000    0.000    0.000 
#
# Total GULP energy -78362.834377 kJ/mol
# GULP energy per Si atom -5597.345313 kJ/mol
# Density = 2.570567 g / cm^3
# Si number density = 25.764306 Si / 1000 Ang^3
#
#
#
# Elastic Constant Matrix: (Units=GPa)
#
#
# Indices 1 2 3 4 5 6 
#
# 1 105.2082 22.6536 53.7957 -10.0553 -8.5425 28.6405
# 2 22.6536 91.6663 34.9647 5.0028 1.3105 20.3800
# 3 53.7957 34.9647 153.9185 11.8275 18.9277 7.9768
# 4 -10.0553 5.0028 11.8275 43.4770 8.6388 -11.4396
# 5 -8.5425 1.3105 18.9277 8.6388 63.9520 -11.5856
# 6 28.6405 20.3800 7.9768 -11.4396 -11.5856 37.0259
#
#
#
# Elastic Compliance Matrix: (Units=1/GPa)
#
#
# Indices 1 2 3 4 5 6 
#
# 1 0.014992 0.000240 -0.005145 0.002033 0.001522 -0.009517
# 2 0.000240 0.013828 -0.002488 -0.002934 -0.000634 -0.008366
# 3 -0.005145 -0.002488 0.009294 -0.002430 -0.002744 0.001738
# 4 0.002033 -0.002934 -0.002430 0.026928 -0.001036 0.008561
# 5 0.001522 -0.000634 -0.002744 -0.001036 0.017708 0.004984
# 6 -0.009517 -0.008366 0.001738 0.008561 0.004984 0.042805
#
#
# Mechanical properties :
#
#
# Convention : Reuss Voigt Hill
#
# Bulk Modulus (GPa) = 42.86382 63.73566 53.29974
# Shear Modulus (GPa) = 33.75707 44.84957 39.30332
#
# Velocity S-wave (km/s) = 3.62363 4.17677 3.91000
# Velocity P-wave (km/s) = 5.84642 6.93197 6.41221
#
# Compressibility (1/GPa) = 0.02332970
#
# Stress axis : x y z
#
# Youngs Moduli (GPa) = 66.70054 72.31687 107.59162
#
# Poissons Ratio (x) = -0.01739 0.55353
# Poissons Ratio (y) = -0.01604 0.26772
# Poissons Ratio (z) = 0.34316 0.17994
#
# Static dielectric constant tensor:
#      x y z
#    x 2.081240 0.051640 0.008990 
#    y 0.051640 2.048820 -0.005510 
#    z 0.008990 -0.005510 2.010840 
# 
# From -- ./inp_files/289333.got.cif
#   From: 2010.05.17/outbox.cif.g08.bks.cpg/sg2_145_cif.got.tgz:289333.got - 2010.06.03 11:33:40.
