data_PCOD9046324
_publ_section_title
;
Structure prediction by ZEFSAII (Michael W. Deem and Ramdas Pophale) SiO2 
 PCOD9046324
Probable space group: P -1
;
_chemical_formula_sum "Si O2"
_cell_formula_units_Z 15
_cell_length_a 11.755187
_cell_length_b 8.690726
_cell_length_c 8.696939
_cell_angle_alpha 123.477429
_cell_angle_beta 91.004622
_cell_angle_gamma 73.838294
_cell_volume 701.471142
_symmetry_space_group_name_H-M "P -1"
_symmetry_group_IT_number 2
_symmetry_cell_setting 'triclinic'
loop_
_space_group_symop_operation_xyz
x,y,z
-x,-y,-z
loop_
_atom_site_type_symbol
_atom_site_label
_atom_site_fract_x
_atom_site_fract_y
_atom_site_fract_z
Si Si1 0.555364 0.551975 0.774903
Si Si2 0.294285 0.146615 0.324893
Si Si3 0.126884 0.889917 0.662234
Si Si4 0.675555 0.464544 0.389315
Si Si5 0.959625 0.702850 0.699458
Si Si6 0.764054 0.216560 0.731642
Si Si7 0.500000 0.000000 0.000000
Si Si8 0.979184 0.307402 0.957602
O O1 0.614587 0.500410 0.577424
O O2 0.421392 0.542974 0.743231
O O3 0.641720 0.395552 0.803527
O O4 0.543570 0.772042 0.932767
O O5 0.285411 0.343432 0.527802
O O6 0.183264 0.219838 0.243047
O O7 0.269574 0.971682 0.319438
O O8 0.417978 0.069325 0.193918
O O9 0.223191 0.745799 0.701036
O O10 0.171253 0.830874 0.459216
O O11 0.004289 0.845849 0.672841
O O12 0.092718 0.119045 0.811765
O O13 0.000000 0.500000 0.500000
O O14 0.021158 0.684625 0.854696
O O15 0.857530 0.277912 0.875005
O O16 0.000000 0.500000 0.000000
#
# Coordination Sequence:
#
# PCOD9046324 Si02
#       8
#     2   2   2   2   2   2   1   2
#     4   9  21  41  67  97 134 185 236 283 345 408
#     4  11  24  43  72 100 141 188 240 290 360 415
#     4  11  23  43  71 101 147 182 230 294 355 428
#     4   9  20  40  68  97 129 188 237 274 347 427
#     4  12  25  45  72 102 139 191 234 290 360 441
#     4  11  25  45  70 106 148 183 233 303 355 418
#     4  10  24  42  70  94 138 190 238 292 334 420
#     4  12  28  40  68 110 145 182 236 290 364 427
#
# _framework density 21.383633
#
# number of rings (size 3 to 8) (size 9 to 14) (size 15 to 20)
#    0.000    1.333    2.667    1.600    7.467    1.067 
#    0.000    0.000    0.000    0.000    0.000    0.000 
#    0.000    0.000    0.000    0.000    0.000    0.000 
#
# Total GULP energy -83549.326825 kJ/mol
# GULP energy per Si atom -5569.955122 kJ/mol
# Density = 2.133496 g / cm^3
# Si number density = 21.383633 Si / 1000 Ang^3
#
#
#
# Elastic Constant Matrix: (Units=GPa)
#
#
# Indices 1 2 3 4 5 6 
#
# 1 58.0540 48.2633 18.7793 13.5282 13.9191 -19.5317
# 2 48.2633 159.0423 54.9144 38.5961 23.6841 -8.3296
# 3 18.7793 54.9144 75.3741 11.8665 3.5425 -23.3100
# 4 13.5282 38.5961 11.8665 47.0957 -2.6629 -6.7382
# 5 13.9191 23.6841 3.5425 -2.6629 25.2488 1.4482
# 6 -19.5317 -8.3296 -23.3100 -6.7382 1.4482 45.1400
#
#
#
# Elastic Compliance Matrix: (Units=1/GPa)
#
#
# Indices 1 2 3 4 5 6 
#
# 1 0.029809 -0.007076 0.002608 -0.002195 -0.011137 0.012969
# 2 -0.007076 0.014917 -0.009076 -0.009310 -0.009451 -0.006083
# 3 0.002608 -0.009076 0.022047 0.002937 0.003652 0.011160
# 4 -0.002195 -0.009310 0.002937 0.029877 0.012515 0.002907
# 5 -0.011137 -0.009451 0.003652 0.012515 0.055682 -0.004595
# 6 0.012969 -0.006083 0.011160 0.002907 -0.004595 0.032987
#
#
# Mechanical properties :
#
#
# Convention : Reuss Voigt Hill
#
# Bulk Modulus (GPa) = 25.19821 59.59829 42.39825
# Shear Modulus (GPa) = 22.15955 34.86444 28.51200
#
# Velocity S-wave (km/s) = 3.22263 4.04223 3.65548
# Velocity P-wave (km/s) = 5.06523 7.05108 6.13899
#
# Compressibility (1/GPa) = 0.03968536
#
# Stress axis : x y z
#
# Youngs Moduli (GPa) = 33.54644 67.03738 45.35764
#
# Poissons Ratio (x) = 0.47437 -0.11830
# Poissons Ratio (y) = 0.23738 0.41167
# Poissons Ratio (z) = -0.08750 0.60843
#
# Static dielectric constant tensor:
#      x y z
#    x 1.803170 0.002590 0.000210 
#    y 0.002590 1.770580 0.011710 
#    z 0.000210 0.011710 1.758410 
# 
# From -- ./inp_files/245949.got.cif
#   From: 2010.05.17/outbox.cif.g08.bks.cpg/sg2_123_cif.got.tgz:245949.got - 2010.06.03 11:33:40.
