data_PCOD9046127
_publ_section_title
;
Structure prediction by ZEFSAII (Michael W. Deem and Ramdas Pophale) SiO2 
 PCOD9046127
Probable space group: P -1
;
_chemical_formula_sum "Si O2"
_cell_formula_units_Z 16
_cell_length_a 9.030021
_cell_length_b 17.495274
_cell_length_c 12.486577
_cell_angle_alpha 149.969980
_cell_angle_beta 47.517612
_cell_angle_gamma 134.730627
_cell_volume 689.135427
_symmetry_space_group_name_H-M "P -1"
_symmetry_group_IT_number 2
_symmetry_cell_setting 'triclinic'
loop_
_space_group_symop_operation_xyz
x,y,z
-x,-y,-z
loop_
_atom_site_type_symbol
_atom_site_label
_atom_site_fract_x
_atom_site_fract_y
_atom_site_fract_z
Si Si1 0.698556 0.027559 0.098196
Si Si2 0.135802 0.784367 0.546634
Si Si3 0.638499 0.779604 0.527112
Si Si4 0.634417 0.462410 0.794476
Si Si5 0.714368 0.579794 0.433691
Si Si6 0.981812 0.796686 0.031605
Si Si7 0.301821 0.758969 0.012859
Si Si8 0.878182 0.076046 0.514807
O O1 0.806604 0.082273 0.227187
O O2 0.521432 0.117205 0.270550
O O3 0.546087 0.844313 0.962709
O O4 0.877161 0.090317 0.994769
O O5 0.281954 0.676331 0.368115
O O6 0.146054 0.844364 0.491878
O O7 0.900893 0.660292 0.522075
O O8 0.523944 0.620270 0.322961
O O9 0.678862 0.717971 0.547017
O O10 0.882572 0.870736 0.487451
O O11 0.500000 0.500000 0.000000
O O12 0.825631 0.622057 0.860862
O O13 0.500000 0.500000 0.500000
O O14 0.756493 0.432371 0.168888
O O15 0.149661 0.771407 0.004371
O O16 0.840923 0.891372 0.275179
O O17 0.259912 0.863071 0.259186
#
# Coordination Sequence:
#
# PCOD9046127 Si02
#       8
#     2   2   2   2   2   2   2   2
#     4  11  26  45  71 100 143 180 234 283 340 415
#     4  10  26  46  66 104 140 178 230 292 340 406
#     4  10  24  42  68 100 132 182 228 282 340 404
#     4  11  25  43  71  99 140 176 230 282 349 402
#     4  11  25  43  71  99 140 176 230 282 349 402
#     4  12  25  44  71 102 139 184 231 282 344 409
#     4  12  25  44  71 102 139 184 231 282 344 409
#     4  11  26  45  71 100 143 180 234 283 340 415
#
# _framework density 23.217497000000002
#
# number of rings (size 3 to 8) (size 9 to 14) (size 15 to 20)
#    0.000    1.000    2.500    2.250   10.500    4.000 
#    0.000    0.000    0.000    0.000    0.000    0.000 
#    0.000    0.000    0.000    0.000    0.000    0.000 
#
# Total GULP energy -89468.492320 kJ/mol
# GULP energy per Si atom -5591.780770 kJ/mol
# Density = 2.316465 g / cm^3
# Si number density = 23.217497 Si / 1000 Ang^3
#
#
#
# Elastic Constant Matrix: (Units=GPa)
#
#
# Indices 1 2 3 4 5 6 
#
# 1 100.5114 22.6483 39.3319 -0.9813 16.3516 -0.8197
# 2 22.6483 87.3377 26.1696 3.0484 8.5042 2.7299
# 3 39.3319 26.1696 99.4720 1.1850 10.2510 16.0036
# 4 -0.9813 3.0484 1.1850 40.8229 7.4624 10.3896
# 5 16.3516 8.5042 10.2510 7.4624 28.4321 3.9357
# 6 -0.8197 2.7299 16.0036 10.3896 3.9357 12.9310
#
#
#
# Elastic Compliance Matrix: (Units=1/GPa)
#
#
# Indices 1 2 3 4 5 6 
#
# 1 0.013930 -0.001385 -0.006392 -0.001243 -0.006642 0.012107
# 2 -0.001385 0.012871 -0.003017 -0.001172 -0.002001 0.002480
# 3 -0.006392 -0.003017 0.017555 0.006288 0.000286 -0.026634
# 4 -0.001243 -0.001172 0.006288 0.033799 -0.005491 -0.033099
# 5 -0.006642 -0.002001 0.000286 -0.005491 0.042141 -0.008767
# 6 0.012107 0.002480 -0.026634 -0.033099 -0.008767 0.139802
#
#
# Mechanical properties :
#
#
# Convention : Reuss Voigt Hill
#
# Bulk Modulus (GPa) = 43.92350 51.51338 47.71844
# Shear Modulus (GPa) = 17.28450 29.71527 23.49989
#
# Velocity S-wave (km/s) = 2.73144 3.58140 3.18490
# Velocity P-wave (km/s) = 5.37653 6.27195 5.84142
#
# Compressibility (1/GPa) = 0.02276685
#
# Stress axis : x y z
#
# Youngs Moduli (GPa) = 71.78944 77.69168 56.96391
#
# Poissons Ratio (x) = 0.10762 0.36411
# Poissons Ratio (y) = 0.09945 0.17188
# Poissons Ratio (z) = 0.45887 0.23443
#
# Static dielectric constant tensor:
#      x y z
#    x 1.827800 0.055260 -0.002040 
#    y 0.055260 2.081930 0.009760 
#    z -0.002040 0.009760 1.920860 
# 
# From -- ./inp_files/403510.got.cif
#   From: 2010.05.17/outbox.cif.g08.bks.cpg/sg2_202_cif.got.tgz:403510.got - 2010.06.03 11:33:40.
