data_PCOD9046939
_publ_section_title
;
Structure prediction by ZEFSAII (Michael W. Deem and Ramdas Pophale) SiO2 
 PCOD9046939
Probable space group: P -1
;
_chemical_formula_sum "Si O2"
_cell_formula_units_Z 16
_cell_length_a 9.122223
_cell_length_b 15.085881
_cell_length_c 13.206083
_cell_angle_alpha 120.150278
_cell_angle_beta 119.153896
_cell_angle_gamma 29.723555
_cell_volume 773.651711
_symmetry_space_group_name_H-M "P -1"
_symmetry_group_IT_number 2
_symmetry_cell_setting 'triclinic'
loop_
_space_group_symop_operation_xyz
x,y,z
-x,-y,-z
loop_
_atom_site_type_symbol
_atom_site_label
_atom_site_fract_x
_atom_site_fract_y
_atom_site_fract_z
Si Si1 0.736345 0.802249 0.786057
Si Si2 0.936780 0.744174 0.433877
Si Si3 0.730104 0.476241 0.040825
Si Si4 0.749424 0.593357 0.548557
Si Si5 0.890917 0.861370 0.136362
Si Si6 0.269238 0.042749 0.310188
Si Si7 0.153941 0.890301 0.092573
Si Si8 0.854077 0.178374 0.594896
O O1 0.645270 0.748392 0.659450
O O2 0.035816 0.627623 0.848828
O O3 0.458134 0.970660 0.860719
O O4 0.788671 0.866123 0.760112
O O5 0.620552 0.869654 0.353431
O O6 0.134848 0.545173 0.408637
O O7 0.070328 0.763743 0.418238
O O8 0.882248 0.823719 0.570345
O O9 0.498711 0.685458 0.070304
O O10 0.500000 0.500000 0.000000
O O11 0.936985 0.332746 0.935758
O O12 0.493923 0.668699 0.441019
O O13 0.000000 0.500000 0.500000
O O14 0.969478 0.890831 0.081998
O O15 0.037444 0.845572 0.271607
O O16 0.158400 0.983698 0.224113
O O17 0.000000 0.000000 0.000000
O O18 0.000000 0.000000 0.500000
#
# Coordination Sequence:
#
# PCOD9046939 Si02
#       8
#     2   2   2   2   2   2   2   2
#     4  12  23  46  68 100 135 179 226 277 339 403
#     4  11  24  41  64 102 136 178 223 274 334 404
#     4  10  24  43  69  95 127 176 223 274 338 402
#     4  12  26  41  68 102 140 182 225 277 337 406
#     4  11  24  45  70  95 134 179 224 282 335 404
#     4  11  22  40  69  96 136 174 221 275 334 399
#     4  11  25  45  68  99 132 173 226 279 343 404
#     4  12  24  45  67 100 138 178 226 276 346 396
#
# _framework density 20.681139999999999
#
# number of rings (size 3 to 8) (size 9 to 14) (size 15 to 20)
#    0.000    0.750    3.750    3.750    7.000    1.000 
#    2.250    1.250    0.000    0.000    0.000    0.000 
#    0.000    0.000    0.000    0.000    0.000    0.000 
#
# Total GULP energy -89474.873348 kJ/mol
# GULP energy per Si atom -5592.179584 kJ/mol
# Density = 2.063407 g / cm^3
# Si number density = 20.681140 Si / 1000 Ang^3
#
#
#
# Elastic Constant Matrix: (Units=GPa)
#
#
# Indices 1 2 3 4 5 6 
#
# 1 77.2604 7.8923 0.1789 -6.4021 -17.2482 -0.4523
# 2 7.8923 88.4379 13.1033 -12.5971 -19.4641 0.1564
# 3 0.1789 13.1033 78.3512 -13.3787 -8.7241 -2.4855
# 4 -6.4021 -12.5971 -13.3787 37.9617 1.1109 6.6302
# 5 -17.2482 -19.4641 -8.7241 1.1109 36.8120 -0.7830
# 6 -0.4523 0.1564 -2.4855 6.6302 -0.7830 38.8839
#
#
#
# Elastic Compliance Matrix: (Units=1/GPa)
#
#
# Indices 1 2 3 4 5 6 
#
# 1 0.014777 0.000547 0.001190 0.002894 0.007406 -0.000099
# 2 0.000547 0.013536 -0.000776 0.004221 0.007088 -0.000675
# 3 0.001190 -0.000776 0.014084 0.004779 0.003344 0.000170
# 4 0.002894 0.004221 0.004779 0.030651 0.003692 -0.004830
# 5 0.007406 0.007088 0.003344 0.003692 0.035071 0.000348
# 6 -0.000099 -0.000675 0.000170 -0.004830 0.000348 0.026561
#
#
# Mechanical properties :
#
#
# Convention : Reuss Voigt Hill
#
# Bulk Modulus (GPa) = 22.56364 31.82205 27.19284
# Shear Modulus (GPa) = 33.89132 37.58985 35.74059
#
# Velocity S-wave (km/s) = 4.05255 4.26795 4.16164
# Velocity P-wave (km/s) = 5.72987 6.30139 6.02242
#
# Compressibility (1/GPa) = 0.04431909
#
# Stress axis : x y z
#
# Youngs Moduli (GPa) = 67.67223 73.87768 71.00254
#
# Poissons Ratio (x) = -0.04042 -0.08452
# Poissons Ratio (y) = -0.03703 0.05513
# Poissons Ratio (z) = -0.08055 0.05736
#
# Static dielectric constant tensor:
#      x y z
#    x 1.696190 -0.010680 0.017770 
#    y -0.010680 1.738370 0.024380 
#    z 0.017770 0.024380 1.721690 
# 
# From -- ./inp_files/177355.got.cif
#   From: 2010.05.17/outbox.cif.g08.bks.cpg/sg2_89_cif.got.tgz:177355.got - 2010.06.03 11:33:40.
