data_PCOD9046232
_publ_section_title
;
Structure prediction by ZEFSAII (Michael W. Deem and Ramdas Pophale) SiO2 
 PCOD9046232
Probable space group: P -1
;
_chemical_formula_sum "Si O2"
_cell_formula_units_Z 15
_cell_length_a 5.313525
_cell_length_b 23.885145
_cell_length_c 8.391339
_cell_angle_alpha 35.909258
_cell_angle_beta 58.573676
_cell_angle_gamma 65.442531
_cell_volume 532.943121
_symmetry_space_group_name_H-M "P -1"
_symmetry_group_IT_number 2
_symmetry_cell_setting 'triclinic'
loop_
_space_group_symop_operation_xyz
x,y,z
-x,-y,-z
loop_
_atom_site_type_symbol
_atom_site_label
_atom_site_fract_x
_atom_site_fract_y
_atom_site_fract_z
Si Si1 0.469775 0.291775 0.708262
Si Si2 0.939911 0.861159 0.855772
Si Si3 0.449750 0.204222 0.262215
Si Si4 0.608494 0.390968 0.906915
Si Si5 0.825584 0.134125 0.762361
Si Si6 0.052159 0.982023 0.269111
Si Si7 0.154420 0.543703 0.653545
Si Si8 0.500000 0.500000 0.000000
O O1 0.687744 0.220391 0.708088
O O2 0.621733 0.397488 0.426075
O O3 0.168122 0.247263 0.834717
O O4 0.414550 0.268843 0.965357
O O5 0.852551 0.910325 0.606162
O O6 0.291216 0.865418 0.716129
O O7 0.822197 0.933345 0.857703
O O8 0.153139 0.166700 0.524809
O O9 0.590693 0.277882 0.174005
O O10 0.302254 0.440498 0.842280
O O11 0.818846 0.421297 0.619515
O O12 0.667763 0.431919 0.966950
O O13 0.722165 0.085363 0.743031
O O14 0.851397 0.043520 0.077528
O O15 0.822981 0.555589 0.792817
#
# Coordination Sequence:
#
# PCOD9046232 Si02
#       8
#     2   2   2   2   2   2   2   1
#     4  11  24  45  66 101 140 177 224 286 337 402
#     4  11  24  44  70  98 137 184 228 283 337 410
#     4  11  24  45  67 100 139 178 227 284 339 399
#     4  10  24  45  68 100 140 182 221 274 345 406
#     4  11  23  43  70  99 140 178 223 290 339 405
#     4  10  24  42  69 104 131 183 232 277 351 402
#     4  10  24  45  71  99 140 184 222 273 348 404
#     4  12  22  42  72 106 128 176 228 282 326 412
#
# _framework density 28.145592000000001
#
# number of rings (size 3 to 8) (size 9 to 14) (size 15 to 20)
#    0.000    1.333    2.667    1.600    0.000   12.800 
#    4.800    0.000    0.000    0.000    0.000    0.000 
#    0.000    0.000    0.000    0.000    0.000    0.000 
#
# Total GULP energy -83685.989777 kJ/mol
# GULP energy per Si atom -5579.065985 kJ/mol
# Density = 2.808153 g / cm^3
# Si number density = 28.145592 Si / 1000 Ang^3
#
#
#
# Elastic Constant Matrix: (Units=GPa)
#
#
# Indices 1 2 3 4 5 6 
#
# 1 51.3696 23.3265 21.9745 15.2136 -29.3438 -8.9303
# 2 23.3265 214.5772 55.5755 10.4518 -10.1218 11.1340
# 3 21.9745 55.5755 109.3523 14.0744 -23.2694 -16.9682
# 4 15.2136 10.4518 14.0744 50.4003 -5.7561 -1.9205
# 5 -29.3438 -10.1218 -23.2694 -5.7561 39.4315 11.7737
# 6 -8.9303 11.1340 -16.9682 -1.9205 11.7737 51.7827
#
#
#
# Elastic Compliance Matrix: (Units=1/GPa)
#
#
# Indices 1 2 3 4 5 6 
#
# 1 0.038204 -0.002700 0.000544 -0.008050 0.026583 0.001005
# 2 -0.002700 0.005805 -0.003151 0.000214 -0.001642 -0.002365
# 3 0.000544 -0.003151 0.012692 -0.002269 0.005694 0.003552
# 4 -0.008050 0.000214 -0.002269 0.022401 -0.003865 -0.000468
# 5 0.026583 -0.001642 0.005694 -0.003865 0.048845 -0.004446
# 6 0.001005 -0.002365 0.003552 -0.000468 -0.004446 0.022151
#
#
# Mechanical properties :
#
#
# Convention : Reuss Voigt Hill
#
# Bulk Modulus (GPa) = 21.69895 64.11688 42.90792
# Shear Modulus (GPa) = 28.39708 46.61775 37.50741
#
# Velocity S-wave (km/s) = 3.17982 4.07419 3.65447
# Velocity P-wave (km/s) = 4.60521 6.70537 5.75195
#
# Compressibility (1/GPa) = 0.04608517
#
# Stress axis : x y z
#
# Youngs Moduli (GPa) = 26.17534 172.26617 78.79045
#
# Poissons Ratio (x) = 0.46512 -0.04284
# Poissons Ratio (y) = 0.07067 0.24831
# Poissons Ratio (z) = -0.01423 0.54289
#
# Static dielectric constant tensor:
#      x y z
#    x 2.196470 0.157550 -0.158920 
#    y 0.157550 2.134200 -0.024530 
#    z -0.158920 -0.024530 2.054360 
# 
# From -- ./inp_files/142473.got.cif
#   From: 2010.05.17/outbox.cif.g08.bks.cpg/sg2_72_cif.got.tgz:142473.got - 2010.06.03 11:33:40.
