data_PCOD9046819
_publ_section_title
;
Structure prediction by ZEFSAII (Michael W. Deem and Ramdas Pophale) SiO2 
 PCOD9046819
Probable space group: P -1
;
_chemical_formula_sum "Si O2"
_cell_formula_units_Z 16
_cell_length_a 12.794826
_cell_length_b 8.741168
_cell_length_c 9.062254
_cell_angle_alpha 118.226666
_cell_angle_beta 107.887180
_cell_angle_gamma 56.424092
_cell_volume 742.580679
_symmetry_space_group_name_H-M "P -1"
_symmetry_group_IT_number 2
_symmetry_cell_setting 'triclinic'
loop_
_space_group_symop_operation_xyz
x,y,z
-x,-y,-z
loop_
_atom_site_type_symbol
_atom_site_label
_atom_site_fract_x
_atom_site_fract_y
_atom_site_fract_z
Si Si1 0.308865 0.912429 0.265137
Si Si2 0.524916 0.554470 0.375114
Si Si3 0.037528 0.973365 0.176332
Si Si4 0.084902 0.280651 0.863080
Si Si5 0.281713 0.327732 0.391856
Si Si6 0.482700 0.685925 0.984960
Si Si7 0.358694 0.189867 0.033719
Si Si8 0.012736 0.656055 0.471600
O O1 0.404953 0.749988 0.346699
O O2 0.187756 0.883487 0.198154
O O3 0.271523 0.143279 0.375456
O O4 0.379996 0.866148 0.116755
O O5 0.500000 0.500000 0.500000
O O6 0.632927 0.614499 0.446377
O O7 0.562317 0.355406 0.207941
O O8 0.994534 0.168534 0.349004
O O9 0.978887 0.846478 0.163942
O O10 0.000000 0.000000 0.000000
O O11 0.230622 0.189798 0.934817
O O12 0.077500 0.282308 0.682020
O O13 0.000000 0.500000 0.000000
O O14 0.150408 0.524152 0.403551
O O15 0.340925 0.269249 0.228214
O O16 0.500000 0.500000 0.000000
O O17 0.615866 0.675176 0.010596
O O18 0.500000 0.000000 0.000000
O O19 0.000000 0.500000 0.500000
#
# Coordination Sequence:
#
# PCOD9046819 Si02
#       8
#     2   2   2   2   2   2   2   2
#     4  11  25  47  72 106 149 194 251 302 380 449
#     4  11  25  42  70 106 145 189 242 310 370 441
#     4  12  28  51  78 108 152 200 256 317 382 464
#     4  12  28  49  80 111 153 208 253 319 387 455
#     4  12  24  46  73 107 150 195 249 312 375 453
#     4  10  24  43  68 104 141 188 243 304 370 446
#     4  12  25  46  76 108 150 192 253 309 382 449
#     4  12  27  50  74 110 151 196 260 311 381 459
#
# _framework density 21.546481
#
# number of rings (size 3 to 8) (size 9 to 14) (size 15 to 20)
#    0.000    0.500    5.000    2.250    7.000    3.000 
#    0.000    0.000    0.000    0.000    0.000    0.000 
#    0.000    0.000    0.000    0.000    0.000    0.000 
#
# Total GULP energy -89335.566779 kJ/mol
# GULP energy per Si atom -5583.472924 kJ/mol
# Density = 2.149744 g / cm^3
# Si number density = 21.546481 Si / 1000 Ang^3
#
#
#
# Elastic Constant Matrix: (Units=GPa)
#
#
# Indices 1 2 3 4 5 6 
#
# 1 147.5065 31.0479 29.5076 0.4904 17.9911 9.5103
# 2 31.0479 76.6188 38.0575 1.6461 5.5029 3.4157
# 3 29.5076 38.0575 122.6982 5.6677 -4.7803 2.9919
# 4 0.4904 1.6461 5.6677 41.2549 -0.8702 0.4999
# 5 17.9911 5.5029 -4.7803 -0.8702 51.5436 -0.9719
# 6 9.5103 3.4157 2.9919 0.4999 -0.9719 53.6166
#
#
#
# Elastic Compliance Matrix: (Units=1/GPa)
#
#
# Indices 1 2 3 4 5 6 
#
# 1 0.007928 -0.002344 -0.001259 0.000131 -0.002655 -0.001236
# 2 -0.002344 0.016383 -0.004560 -0.000023 -0.001362 -0.000398
# 3 -0.001259 -0.004560 0.009991 -0.001137 0.001834 0.000000
# 4 0.000131 -0.000023 -0.001137 0.024403 0.000260 -0.000181
# 5 -0.002655 -0.001362 0.001834 0.000260 0.020663 0.000827
# 6 -0.001236 -0.000398 0.000000 -0.000181 0.000827 0.018912
#
#
# Mechanical properties :
#
#
# Convention : Reuss Voigt Hill
#
# Bulk Modulus (GPa) = 55.63145 60.44995 58.04070
# Shear Modulus (GPa) = 41.46040 45.83041 43.64541
#
# Velocity S-wave (km/s) = 4.39136 4.61700 4.50559
# Velocity P-wave (km/s) = 7.18244 7.51922 7.35276
#
# Compressibility (1/GPa) = 0.01797544
#
# Stress axis : x y z
#
# Youngs Moduli (GPa) = 126.14109 61.04041 100.08913
#
# Poissons Ratio (x) = 0.14310 0.12598
# Poissons Ratio (y) = 0.29571 0.45640
# Poissons Ratio (z) = 0.15878 0.27834
#
# Static dielectric constant tensor:
#      x y z
#    x 1.762830 0.036730 0.086540 
#    y 0.036730 1.902860 -0.011950 
#    z 0.086540 -0.011950 1.724530 
# 
# From -- ./inp_files/245610.got.cif
#   From: 2010.05.17/outbox.cif.g08.bks.cpg/sg2_123_cif.got.tgz:245610.got - 2010.06.03 11:33:40.
