data_PCOD9046414
_publ_section_title
;
Structure prediction by ZEFSAII (Michael W. Deem and Ramdas Pophale) SiO2 
 PCOD9046414
Probable space group: P -1
;
_chemical_formula_sum "Si O2"
_cell_formula_units_Z 14
_cell_length_a 8.706236
_cell_length_b 11.552860
_cell_length_c 9.113644
_cell_angle_alpha 61.171850
_cell_angle_beta 120.167061
_cell_angle_gamma 129.963282
_cell_volume 589.590767
_symmetry_space_group_name_H-M "P -1"
_symmetry_group_IT_number 2
_symmetry_cell_setting 'triclinic'
loop_
_space_group_symop_operation_xyz
x,y,z
-x,-y,-z
loop_
_atom_site_type_symbol
_atom_site_label
_atom_site_fract_x
_atom_site_fract_y
_atom_site_fract_z
Si Si1 0.194310 0.580128 0.884945
Si Si2 0.708303 0.690695 0.380333
Si Si3 0.592800 0.914529 0.503088
Si Si4 0.756577 0.522352 0.745758
Si Si5 0.003250 0.020308 0.166806
Si Si6 0.292724 0.906625 0.859393
Si Si7 0.247623 0.573193 0.588347
O O1 0.265769 0.744635 0.894735
O O2 0.298210 0.600332 0.767947
O O3 0.946246 0.505289 0.794756
O O4 0.235525 0.476521 0.076867
O O5 0.781583 0.673349 0.587298
O O6 0.465128 0.627880 0.309157
O O7 0.851419 0.850035 0.270314
O O8 0.711910 0.554714 0.377068
O O9 0.397220 0.741378 0.488107
O O10 0.500000 0.000000 0.500000
O O11 0.685155 0.001493 0.338489
O O12 0.771861 0.917555 0.688133
O O13 0.895486 0.112086 0.118394
O O14 0.000000 0.000000 0.000000
O O15 0.500000 0.000000 0.000000
O O16 0.000000 0.500000 0.500000
#
# Coordination Sequence:
#
# PCOD9046414 Si02
#       7
#     2   2   2   2   2   2   2
#     4  11  24  46  70 109 144 191 250 297 374 440
#     4  11  25  46  73 104 146 187 248 301 379 427
#     4  12  26  48  76 110 152 202 252 310 377 449
#     4  10  24  42  72 103 144 186 239 306 362 444
#     4  12  29  50  77 111 153 198 258 312 378 449
#     4  12  27  47  77 107 156 199 256 306 378 449
#     4  12  26  45  73 107 149 192 246 307 371 438
#
# _framework density 23.745284999999999
#
# number of rings (size 3 to 8) (size 9 to 14) (size 15 to 20)
#    0.000    0.571    2.857    3.857   10.000    2.857 
#    0.000    0.000    0.000    0.000    0.000    0.000 
#    0.000    0.000    0.000    0.000    0.000    0.000 
#
# Total GULP energy -78417.841320 kJ/mol
# GULP energy per Si atom -5601.274380 kJ/mol
# Density = 2.369124 g / cm^3
# Si number density = 23.745285 Si / 1000 Ang^3
#
#
#
# Elastic Constant Matrix: (Units=GPa)
#
#
# Indices 1 2 3 4 5 6 
#
# 1 115.6875 48.5723 48.0306 30.3280 -11.7745 -9.3331
# 2 48.5723 155.4394 35.4425 -1.2182 -3.9976 0.0062
# 3 48.0306 35.4425 169.8340 6.8913 -15.7475 10.5033
# 4 30.3280 -1.2182 6.8913 39.5910 12.0541 -6.7243
# 5 -11.7745 -3.9976 -15.7475 12.0541 48.0058 7.7754
# 6 -9.3331 0.0062 10.5033 -6.7243 7.7754 49.9039
#
#
#
# Elastic Compliance Matrix: (Units=1/GPa)
#
#
# Indices 1 2 3 4 5 6 
#
# 1 0.015622 -0.004268 -0.002485 -0.013336 0.005891 0.000730
# 2 -0.004268 0.007937 -0.000794 0.004217 -0.001739 0.000207
# 3 -0.002485 -0.000794 0.007118 -0.000412 0.002143 -0.002352
# 4 -0.013336 0.004217 -0.000412 0.040896 -0.014184 0.005313
# 5 0.005891 -0.001739 0.002143 -0.014184 0.027288 -0.005512
# 6 0.000730 0.000207 -0.002352 0.005313 -0.005512 0.022245
#
#
# Mechanical properties :
#
#
# Convention : Reuss Voigt Hill
#
# Bulk Modulus (GPa) = 64.18015 78.33908 71.25961
# Shear Modulus (GPa) = 35.36198 48.09452 41.72825
#
# Velocity S-wave (km/s) = 3.86323 4.50537 4.19660
# Velocity P-wave (km/s) = 6.85468 7.75419 7.31827
#
# Compressibility (1/GPa) = 0.01558114
#
# Stress axis : x y z
#
# Youngs Moduli (GPa) = 64.01120 125.99981 140.49593
#
# Poissons Ratio (x) = 0.53778 0.34917
# Poissons Ratio (y) = 0.27320 0.11160
# Poissons Ratio (z) = 0.15908 0.10009
#
# Static dielectric constant tensor:
#      x y z
#    x 1.912280 -0.004870 0.009580 
#    y -0.004870 1.903820 0.014190 
#    z 0.009580 0.014190 1.948070 
# 
# From -- ./inp_files/185417.got.cif
#   From: 2010.05.17/outbox.cif.g08.bks.cpg/sg2_93_cif.got.tgz:185417.got - 2010.06.03 11:33:40.
