data_PCOD9046171
_publ_section_title
;
Structure prediction by ZEFSAII (Michael W. Deem and Ramdas Pophale) SiO2 
 PCOD9046171
Probable space group: P -1
;
_chemical_formula_sum "Si O2"
_cell_formula_units_Z 15
_cell_length_a 5.307864
_cell_length_b 27.326873
_cell_length_c 29.462354
_cell_angle_alpha 170.659338
_cell_angle_beta 66.432007
_cell_angle_gamma 113.385260
_cell_volume 635.659703
_symmetry_space_group_name_H-M "P -1"
_symmetry_group_IT_number 2
_symmetry_cell_setting 'triclinic'
loop_
_space_group_symop_operation_xyz
x,y,z
-x,-y,-z
loop_
_atom_site_type_symbol
_atom_site_label
_atom_site_fract_x
_atom_site_fract_y
_atom_site_fract_z
Si Si1 0.070854 0.790665 0.559057
Si Si2 0.671477 0.619143 0.215475
Si Si3 0.969797 0.093614 0.938978
Si Si4 0.198680 0.749349 0.690109
Si Si5 0.473799 0.202340 0.142519
Si Si6 0.112053 0.954885 0.543655
Si Si7 0.000000 0.500000 0.000000
Si Si8 0.305983 0.979251 0.284514
O O1 0.381202 0.902797 0.628915
O O2 0.853295 0.906717 0.643885
O O3 0.964763 0.930333 0.741710
O O4 0.089546 0.429061 0.229376
O O5 0.385437 0.784850 0.382338
O O6 0.939394 0.832881 0.400569
O O7 0.737961 0.463024 0.020265
O O8 0.669851 0.378991 0.036585
O O9 0.700745 0.160938 0.049850
O O10 0.125922 0.868124 0.754695
O O11 0.462252 0.541471 0.472054
O O12 0.000000 0.500000 0.500000
O O13 0.218986 0.047066 0.991892
O O14 0.500000 0.000000 0.000000
O O15 0.894205 0.925788 0.573344
O O16 0.179643 0.292464 0.832559
#
# Coordination Sequence:
#
# PCOD9046171 Si02
#       8
#     2   2   2   2   2   2   1   2
#     4  12  30  50  78 105 156 196 260 320 388 442
#     4  11  24  44  74 105 148 197 253 305 386 442
#     4  12  30  48  73 110 143 197 245 316 382 466
#     4  12  26  46  74 106 147 188 241 301 380 462
#     4  12  26  46  74 106 147 188 241 301 380 462
#     4  11  24  44  74 105 148 197 253 305 386 442
#     4  10  24  42  68 116 154 190 248 312 374 460
#     4  11  28  49  71 106 140 202 255 320 372 458
#
# _framework density 23.597531
#
# number of rings (size 3 to 8) (size 9 to 14) (size 15 to 20)
#    0.000    0.533    1.333    4.800   13.067    4.267 
#    0.000    0.000    0.000    0.000    0.000    0.000 
#    0.000    0.000    0.000    0.000    0.000    0.000 
#
# Total GULP energy -83581.253087 kJ/mol
# GULP energy per Si atom -5572.083539 kJ/mol
# Density = 2.354382 g / cm^3
# Si number density = 23.597531 Si / 1000 Ang^3
#
#
#
# Elastic Constant Matrix: (Units=GPa)
#
#
# Indices 1 2 3 4 5 6 
#
# 1 83.2614 -20.7112 46.9083 23.2304 -14.8374 2.5732
# 2 -20.7112 120.4438 -19.5247 -44.1637 -14.1735 -19.3058
# 3 46.9083 -19.5247 170.2236 86.6727 -8.2933 3.1279
# 4 23.2304 -44.1637 86.6727 120.3113 13.6478 8.5757
# 5 -14.8374 -14.1735 -8.2933 13.6478 42.8424 -1.9359
# 6 2.5732 -19.3058 3.1279 8.5757 -1.9359 27.9380
#
#
#
# Elastic Compliance Matrix: (Units=1/GPa)
#
#
# Indices 1 2 3 4 5 6 
#
# 1 0.015889 0.003043 -0.003770 -0.000003 0.005847 0.001468
# 2 0.003043 0.011515 -0.001338 0.003683 0.003746 0.006956
# 3 -0.003770 -0.001338 0.011016 -0.008103 0.003005 0.000885
# 4 -0.000003 0.003683 -0.008103 0.016278 -0.005624 -0.001934
# 5 0.005847 0.003746 0.003005 -0.005624 0.029226 0.005465
# 6 0.001468 0.006956 0.000885 -0.001934 0.005465 0.041338
#
#
# Mechanical properties :
#
#
# Convention : Reuss Voigt Hill
#
# Bulk Modulus (GPa) = 29.16327 43.03040 36.09683
# Shear Modulus (GPa) = 35.50585 62.70211 49.10398
#
# Velocity S-wave (km/s) = 3.88318 5.16034 4.56663
# Velocity P-wave (km/s) = 5.70008 7.33350 6.56777
#
# Compressibility (1/GPa) = 0.03428971
#
# Stress axis : x y z
#
# Youngs Moduli (GPa) = 62.93776 86.84260 90.77487
#
# Poissons Ratio (x) = -0.26429 0.34224
# Poissons Ratio (y) = -0.19154 0.12149
# Poissons Ratio (z) = 0.23729 0.11623
#
# Static dielectric constant tensor:
#      x y z
#    x 2.021000 -0.003460 0.088040 
#    y -0.003460 1.909530 -0.071710 
#    z 0.088040 -0.071710 2.003160 
# 
# From -- ./inp_files/615931.got.cif
#   From: 2010.05.17/outbox.cif.g08.bks.cpg/sg2_308_cif.got.tgz:615931.got - 2010.06.03 11:33:40.
