data_PCOD9046937
_publ_section_title
;
Structure prediction by ZEFSAII (Michael W. Deem and Ramdas Pophale) SiO2 
 PCOD9046937
Probable space group: P -1
;
_chemical_formula_sum "Si O2"
_cell_formula_units_Z 16
_cell_length_a 12.107328
_cell_length_b 9.035999
_cell_length_c 15.890924
_cell_angle_alpha 75.876669
_cell_angle_beta 152.322726
_cell_angle_gamma 112.459436
_cell_volume 728.032921
_symmetry_space_group_name_H-M "P -1"
_symmetry_group_IT_number 2
_symmetry_cell_setting 'triclinic'
loop_
_space_group_symop_operation_xyz
x,y,z
-x,-y,-z
loop_
_atom_site_type_symbol
_atom_site_label
_atom_site_fract_x
_atom_site_fract_y
_atom_site_fract_z
Si Si1 0.867467 0.501636 0.497437
Si Si2 0.670001 0.661560 0.674801
Si Si3 0.629535 0.374162 0.076698
Si Si4 0.212331 0.712199 0.981485
Si Si5 0.388060 0.164004 0.237010
Si Si6 0.673746 0.933888 0.522515
Si Si7 0.586805 0.676734 0.365978
Si Si8 0.765972 0.923214 0.046429
O O1 0.646341 0.324799 0.381550
O O2 0.752707 0.643620 0.408056
O O3 0.000000 0.500000 0.500000
O O4 0.082517 0.547608 0.706611
O O5 0.771036 0.772665 0.812076
O O6 0.562379 0.778085 0.532075
O O7 0.477366 0.483286 0.596033
O O8 0.906199 0.639651 0.789792
O O9 0.455151 0.210117 0.030438
O O10 0.500000 0.500000 0.000000
O O11 0.662253 0.343910 0.004924
O O12 0.325629 0.671859 0.149230
O O13 0.273216 0.905801 0.991609
O O14 0.265708 0.121565 0.068047
O O15 0.479610 0.023986 0.357044
O O16 0.718592 0.845516 0.480467
O O17 0.948036 0.048699 0.730219
#
# Coordination Sequence:
#
# PCOD9046937 Si02
#       8
#     2   2   2   2   2   2   2   2
#     4  11  22  41  67  95 131 172 221 272 327 390
#     4  10  24  43  69  94 136 175 220 276 326 394
#     4  12  25  44  70  98 132 173 225 274 330 397
#     4  11  24  44  67 100 134 177 218 273 335 392
#     4  11  23  45  68 100 135 176 220 271 332 393
#     4  11  23  43  67 101 129 177 221 269 338 388
#     4  11  23  43  67  97 133 174 224 274 328 393
#     4  11  24  45  68  98 139 173 218 275 329 394
#
# _framework density 21.977027
#
# number of rings (size 3 to 8) (size 9 to 14) (size 15 to 20)
#    0.000    1.000    2.500    4.500    1.750    3.000 
#    2.250    1.875    0.000    0.000    0.000    0.000 
#    0.000    0.000    0.000    0.000    0.000    0.000 
#
# Total GULP energy -89421.240664 kJ/mol
# GULP energy per Si atom -5588.827541 kJ/mol
# Density = 2.192701 g / cm^3
# Si number density = 21.977027 Si / 1000 Ang^3
#
#
#
# Elastic Constant Matrix: (Units=GPa)
#
#
# Indices 1 2 3 4 5 6 
#
# 1 113.0722 31.5158 27.7705 0.0060 -9.1616 -19.5596
# 2 31.5158 47.1815 38.2196 6.1231 4.7232 -14.0450
# 3 27.7705 38.2196 128.8395 2.2439 -21.2838 -5.6474
# 4 0.0060 6.1231 2.2439 31.2291 -5.8498 0.9882
# 5 -9.1616 4.7232 -21.2838 -5.8498 33.2135 0.6378
# 6 -19.5596 -14.0450 -5.6474 0.9882 0.6378 37.0921
#
#
#
# Elastic Compliance Matrix: (Units=1/GPa)
#
#
# Indices 1 2 3 4 5 6 
#
# 1 0.012049 -0.008966 0.001089 0.002653 0.005707 0.002956
# 2 -0.008966 0.045696 -0.014311 -0.012118 -0.020489 0.011071
# 3 0.001089 -0.014311 0.013511 0.004140 0.011782 -0.003101
# 4 0.002653 -0.012118 0.004140 0.036388 0.011589 -0.003728
# 5 0.005707 -0.020489 0.011782 0.011589 0.044265 -0.004025
# 6 0.002956 0.011071 -0.003101 -0.003728 -0.004025 0.032407
#
#
# Mechanical properties :
#
#
# Convention : Reuss Voigt Hill
#
# Bulk Modulus (GPa) = 37.20446 53.78943 45.49695
# Shear Modulus (GPa) = 21.03906 33.07943 27.05924
#
# Velocity S-wave (km/s) = 3.09742 3.88388 3.51273
# Velocity P-wave (km/s) = 5.45505 6.68140 6.09912
#
# Compressibility (1/GPa) = 0.02687850
#
# Stress axis : x y z
#
# Youngs Moduli (GPa) = 82.99368 21.88358 74.01541
#
# Poissons Ratio (x) = 0.19621 -0.08058
# Poissons Ratio (y) = 0.74413 1.05927
# Poissons Ratio (z) = -0.09036 0.31319
#
# Static dielectric constant tensor:
#      x y z
#    x 1.980770 -0.095770 0.346520 
#    y -0.095770 1.892900 -0.338450 
#    z 0.346520 -0.338450 3.323500 
# 
# From -- ./inp_files/282947.got.cif
#   From: 2010.05.17/outbox.cif.g08.bks.cpg/sg2_142_cif.got.tgz:282947.got - 2010.06.03 11:33:40.
