data_PCOD9046704
_publ_section_title
;
Structure prediction by ZEFSAII (Michael W. Deem and Ramdas Pophale) SiO2 
 PCOD9046704
Probable space group: P -1
;
_chemical_formula_sum "Si O2"
_cell_formula_units_Z 14
_cell_length_a 11.730366
_cell_length_b 9.321353
_cell_length_c 7.934036
_cell_angle_alpha 105.792587
_cell_angle_beta 40.477726
_cell_angle_gamma 106.129879
_cell_volume 538.410038
_symmetry_space_group_name_H-M "P -1"
_symmetry_group_IT_number 2
_symmetry_cell_setting 'triclinic'
loop_
_space_group_symop_operation_xyz
x,y,z
-x,-y,-z
loop_
_atom_site_type_symbol
_atom_site_label
_atom_site_fract_x
_atom_site_fract_y
_atom_site_fract_z
Si Si1 0.034913 0.214615 0.545007
Si Si2 0.913351 0.477375 0.275166
Si Si3 0.045922 0.021873 0.159158
Si Si4 0.397604 0.381316 0.460381
Si Si5 0.454304 0.168085 0.071554
Si Si6 0.678798 0.195102 0.513578
Si Si7 0.348846 0.133807 0.653367
O O1 0.001406 0.389547 0.654343
O O2 0.966202 0.131651 0.422497
O O3 0.244016 0.186038 0.306364
O O4 0.958456 0.128767 0.772549
O O5 0.716971 0.527746 0.501158
O O6 0.861424 0.302131 0.319905
O O7 0.000000 0.500000 0.000000
O O8 0.247838 0.093362 0.926461
O O9 0.000000 0.000000 0.000000
O O10 0.500000 0.500000 0.500000
O O11 0.513833 0.273800 0.196690
O O12 0.274828 0.268736 0.683096
O O13 0.564385 0.238719 0.812588
O O14 0.500000 0.000000 0.000000
O O15 0.551409 0.187815 0.489687
O O16 0.681836 0.015035 0.472735
#
# Coordination Sequence:
#
# PCOD9046704 Si02
#       7
#     2   2   2   2   2   2   2
#     4  10  24  43  67 102 141 184 231 295 358 416
#     4  11  24  45  68 101 144 183 231 296 360 415
#     4  11  22  41  67  97 135 183 236 286 346 419
#     4  11  23  42  67 100 137 183 226 289 353 416
#     4  11  22  42  66  99 139 172 234 290 342 422
#     4  11  23  39  70 100 135 182 228 284 351 417
#     4  11  22  41  67 100 132 181 237 280 342 426
#
# _framework density 26.002486000000001
#
# number of rings (size 3 to 8) (size 9 to 14) (size 15 to 20)
#    0.000    1.143    4.286    2.571    0.000    3.429 
#    5.143    0.000    0.000    5.143    0.000    0.000 
#    0.000    0.000    0.000    0.000    0.000    0.000 
#
# Total GULP energy -78105.387368 kJ/mol
# GULP energy per Si atom -5578.956241 kJ/mol
# Density = 2.594330 g / cm^3
# Si number density = 26.002486 Si / 1000 Ang^3
#
#
#
# Elastic Constant Matrix: (Units=GPa)
#
#
# Indices 1 2 3 4 5 6 
#
# 1 86.3555 43.1256 25.4641 5.8727 33.6506 12.7526
# 2 43.1256 183.0285 49.2293 2.2208 32.3233 19.9728
# 3 25.4641 49.2293 131.8443 -10.1669 39.5755 11.7763
# 4 5.8727 2.2208 -10.1669 55.7000 3.8166 12.1002
# 5 33.6506 32.3233 39.5755 3.8166 40.4447 10.9684
# 6 12.7526 19.9728 11.7763 12.1002 10.9684 41.7781
#
#
#
# Elastic Compliance Matrix: (Units=1/GPa)
#
#
# Indices 1 2 3 4 5 6 
#
# 1 0.017995 -0.001983 0.001794 -0.000238 -0.014825 -0.001090
# 2 -0.001983 0.006854 -0.001403 0.000210 -0.001983 -0.001816
# 3 0.001794 -0.001403 0.011605 0.002992 -0.011758 -0.000928
# 4 -0.000238 0.000210 0.002992 0.020001 -0.003206 -0.005822
# 5 -0.014825 -0.001983 -0.011758 -0.003206 0.051482 -0.003800
# 6 -0.001090 -0.001816 -0.000928 -0.005822 -0.003800 0.028082
#
#
# Mechanical properties :
#
#
# Convention : Reuss Voigt Hill
#
# Bulk Modulus (GPa) = 30.05636 70.76292 50.40964
# Shear Modulus (GPa) = 33.26833 46.47853 39.87343
#
# Velocity S-wave (km/s) = 3.58079 4.23243 3.92017
# Velocity P-wave (km/s) = 5.35539 7.15245 6.31814
#
# Compressibility (1/GPa) = 0.03327083
#
# Stress axis : x y z
#
# Youngs Moduli (GPa) = 55.57015 145.90301 86.17056
#
# Poissons Ratio (x) = 0.28927 -0.15456
# Poissons Ratio (y) = 0.11017 0.12087
# Poissons Ratio (z) = -0.09967 0.20465
#
# Static dielectric constant tensor:
#      x y z
#    x 2.262770 0.035520 -0.046910 
#    y 0.035520 2.143980 -0.018670 
#    z -0.046910 -0.018670 2.135790 
# 
# From -- ./inp_files/299064.got.cif
#   From: 2010.05.17/outbox.cif.g08.bks.cpg/sg2_150_cif.got.tgz:299064.got - 2010.06.03 11:33:40.
