data_PCOD9046373
_publ_section_title
;
Structure prediction by ZEFSAII (Michael W. Deem and Ramdas Pophale) SiO2 
 PCOD9046373
Probable space group: P -1
;
_chemical_formula_sum "Si O2"
_cell_formula_units_Z 14
_cell_length_a 13.430736
_cell_length_b 10.157735
_cell_length_c 6.855198
_cell_angle_alpha 69.774338
_cell_angle_beta 141.739017
_cell_angle_gamma 121.131405
_cell_volume 492.518319
_symmetry_space_group_name_H-M "P -1"
_symmetry_group_IT_number 2
_symmetry_cell_setting 'triclinic'
loop_
_space_group_symop_operation_xyz
x,y,z
-x,-y,-z
loop_
_atom_site_type_symbol
_atom_site_label
_atom_site_fract_x
_atom_site_fract_y
_atom_site_fract_z
Si Si1 0.863755 0.372146 0.639658
Si Si2 0.619770 0.883520 0.436785
Si Si3 0.415208 0.588733 0.523813
Si Si4 0.141368 0.253572 0.231529
Si Si5 0.902619 0.296799 0.320920
Si Si6 0.614008 0.969707 0.933571
Si Si7 0.761046 0.739744 0.166691
O O1 0.704174 0.371100 0.523239
O O2 0.816068 0.332876 0.360140
O O3 0.012465 0.551301 0.761207
O O4 0.957515 0.264494 0.909893
O O5 0.482932 0.720414 0.397097
O O6 0.807982 0.872120 0.734396
O O7 0.593157 0.901043 0.156020
O O8 0.568519 0.012767 0.392362
O O9 0.294789 0.423700 0.332522
O O10 0.586772 0.593940 0.901811
O O11 0.176044 0.245285 0.520144
O O12 0.067727 0.262862 0.670318
O O13 0.766450 0.142400 0.091783
O O14 0.690641 0.873147 0.968805
#
# Coordination Sequence:
#
# PCOD9046373 Si02
#       7
#     2   2   2   2   2   2   2
#     4  11  26  42  72 103 134 173 226 272 351 383
#     4  10  24  42  71  94 137 173 231 263 342 384
#     4  12  24  43  70 104 137 170 223 287 327 402
#     4  11  23  44  67 104 135 174 219 281 336 401
#     4  11  24  46  69  97 140 177 220 281 326 408
#     4  10  24  46  69  99 133 184 222 274 327 405
#     4  11  25  43  71 101 135 176 228 269 342 388
#
# _framework density 28.425341
#
# number of rings (size 3 to 8) (size 9 to 14) (size 15 to 20)
#    0.000    1.143    1.429    3.429    8.000    1.714 
#    0.000    3.571    0.000    0.000    0.000    0.000 
#    0.000    0.000    0.000    0.000    0.000    0.000 
#
# Total GULP energy -78535.950046 kJ/mol
# GULP energy per Si atom -5609.710718 kJ/mol
# Density = 2.836064 g / cm^3
# Si number density = 28.425341 Si / 1000 Ang^3
#
#
#
# Elastic Constant Matrix: (Units=GPa)
#
#
# Indices 1 2 3 4 5 6 
#
# 1 176.6412 42.8245 43.1778 -15.5636 32.5741 -8.1768
# 2 42.8245 104.7041 41.8319 -5.2902 17.0363 5.1773
# 3 43.1778 41.8319 183.0721 -17.1894 38.1154 -7.3876
# 4 -15.5636 -5.2902 -17.1894 63.7385 -7.3780 7.1466
# 5 32.5741 17.0363 38.1154 -7.3780 44.1236 -14.2188
# 6 -8.1768 5.1773 -7.3876 7.1466 -14.2188 57.9050
#
#
#
# Elastic Compliance Matrix: (Units=1/GPa)
#
#
# Indices 1 2 3 4 5 6 
#
# 1 0.007058 -0.002084 -0.000259 0.001013 -0.003999 0.000043
# 2 -0.002084 0.011557 -0.001815 -0.000043 -0.002024 -0.002051
# 3 -0.000259 -0.001815 0.007109 0.001146 -0.005180 -0.000381
# 4 0.001013 -0.000043 0.001146 0.016483 0.000514 -0.001615
# 5 -0.003999 -0.002024 -0.005180 0.000514 0.033231 0.007052
# 6 0.000043 -0.002051 -0.000381 -0.001615 0.007052 0.019341
#
#
# Mechanical properties :
#
#
# Convention : Reuss Voigt Hill
#
# Bulk Modulus (GPa) = 57.44135 80.00953 68.72544
# Shear Modulus (GPa) = 45.91529 55.59230 50.75379
#
# Velocity S-wave (km/s) = 4.02343 4.42716 4.23012
# Velocity P-wave (km/s) = 6.46805 7.37166 6.93459
#
# Compressibility (1/GPa) = 0.01740906
#
# Stress axis : x y z
#
# Youngs Moduli (GPa) = 141.67465 86.53135 140.67059
#
# Poissons Ratio (x) = 0.18030 0.03645
# Poissons Ratio (y) = 0.29520 0.25526
# Poissons Ratio (z) = 0.03671 0.15702
#
# Static dielectric constant tensor:
#      x y z
#    x 2.226670 0.009620 -0.012100 
#    y 0.009620 2.199360 -0.036090 
#    z -0.012100 -0.036090 2.210380 
# 
# From -- ./inp_files/306861.got.cif
#   From: 2010.05.17/outbox.cif.g08.bks.cpg/sg2_154_cif.got.tgz:306861.got - 2010.06.03 11:33:40.
