data_PCOD9046826
_publ_section_title
;
Structure prediction by ZEFSAII (Michael W. Deem and Ramdas Pophale) SiO2 
 PCOD9046826
Probable space group: P -1
;
_chemical_formula_sum "Si O2"
_cell_formula_units_Z 16
_cell_length_a 11.643797
_cell_length_b 14.743069
_cell_length_c 7.644811
_cell_angle_alpha 91.482530
_cell_angle_beta 72.383750
_cell_angle_gamma 37.914923
_cell_volume 685.674148
_symmetry_space_group_name_H-M "P -1"
_symmetry_group_IT_number 2
_symmetry_cell_setting 'triclinic'
loop_
_space_group_symop_operation_xyz
x,y,z
-x,-y,-z
loop_
_atom_site_type_symbol
_atom_site_label
_atom_site_fract_x
_atom_site_fract_y
_atom_site_fract_z
Si Si1 0.987840 0.849521 0.212250
Si Si2 0.624997 0.459515 0.773639
Si Si3 0.262970 0.205992 0.314657
Si Si4 0.952959 0.990015 0.714895
Si Si5 0.561321 0.097262 0.879274
Si Si6 0.775490 0.340460 0.254788
Si Si7 0.529071 0.841275 0.468231
Si Si8 0.763816 0.522995 0.514760
O O1 0.125846 0.727527 0.310466
O O2 0.731963 0.998200 0.371598
O O3 0.045511 0.919512 0.166865
O O4 0.070815 0.748225 0.993750
O O5 0.471706 0.516687 0.695268
O O6 0.636725 0.559326 0.740002
O O7 0.500000 0.500000 0.000000
O O8 0.362581 0.149690 0.460358
O O9 0.010642 0.392316 0.444345
O O10 0.294949 0.085359 0.215281
O O11 0.403120 0.182910 0.121406
O O12 0.133109 0.805433 0.692839
O O13 0.724304 0.079415 0.822003
O O14 0.000000 0.000000 0.500000
O O15 0.432815 0.180992 0.758151
O O16 0.788289 0.422261 0.367497
O O17 0.633699 0.684068 0.490439
#
# Coordination Sequence:
#
# PCOD9046826 Si02
#       8
#     2   2   2   2   2   2   2   2
#     4  11  24  43  73 110 142 191 242 301 366 441
#     4  10  24  43  68 106 146 188 235 295 368 441
#     4  11  26  50  73 105 148 195 252 302 362 442
#     4  12  22  41  72 106 147 182 246 302 363 438
#     4  11  25  46  76 108 143 197 250 303 363 438
#     4  11  24  44  69 105 150 191 231 298 376 437
#     4  12  26  47  77 107 145 195 250 308 364 437
#     4  12  25  47  71 104 149 192 241 302 376 433
#
# _framework density 23.334700000000002
#
# number of rings (size 3 to 8) (size 9 to 14) (size 15 to 20)
#    0.000    0.750    2.500    4.500    3.500    3.500 
#    4.500    0.000    0.000    0.000    0.000    0.000 
#    0.000    0.000    0.000    0.000    0.000    0.000 
#
# Total GULP energy -89594.348065 kJ/mol
# GULP energy per Si atom -5599.646754 kJ/mol
# Density = 2.328159 g / cm^3
# Si number density = 23.334700 Si / 1000 Ang^3
#
#
#
# Elastic Constant Matrix: (Units=GPa)
#
#
# Indices 1 2 3 4 5 6 
#
# 1 104.9787 16.4031 25.4196 6.1841 -6.0487 -14.4050
# 2 16.4031 131.3525 27.2927 -9.3944 -1.9154 -32.1098
# 3 25.4196 27.2927 100.3683 -18.9925 -6.4665 -13.7847
# 4 6.1841 -9.3944 -18.9925 33.5555 -2.7660 -2.4901
# 5 -6.0487 -1.9154 -6.4665 -2.7660 36.9496 -0.0341
# 6 -14.4050 -32.1098 -13.7847 -2.4901 -0.0341 52.6997
#
#
#
# Elastic Compliance Matrix: (Units=1/GPa)
#
#
# Indices 1 2 3 4 5 6 
#
# 1 0.010837 -0.000574 -0.002990 -0.003649 0.000949 0.001659
# 2 -0.000574 0.009436 -0.001178 0.002513 0.000382 0.005403
# 3 -0.002990 -0.001178 0.013000 0.007937 0.002321 0.002242
# 4 -0.003649 0.002513 0.007937 0.036291 0.003643 0.004327
# 5 0.000949 0.000382 0.002321 0.003643 0.027919 0.001290
# 6 0.001659 0.005403 0.002242 0.004327 0.001290 0.023513
#
#
# Mechanical properties :
#
#
# Convention : Reuss Voigt Hill
#
# Bulk Modulus (GPa) = 42.03674 52.77002 47.40338
# Shear Modulus (GPa) = 36.12483 42.47990 39.30237
#
# Velocity S-wave (km/s) = 3.93888 4.27131 4.10846
# Velocity P-wave (km/s) = 6.22416 6.85485 6.54710
#
# Compressibility (1/GPa) = 0.02378871
#
# Stress axis : x y z
#
# Youngs Moduli (GPa) = 92.27978 105.98058 76.92130
#
# Poissons Ratio (x) = 0.06079 0.22999
# Poissons Ratio (y) = 0.05293 0.09064
# Poissons Ratio (z) = 0.27592 0.12488
#
# Static dielectric constant tensor:
#      x y z
#    x 1.890110 0.010670 0.022520 
#    y 0.010670 1.865550 -0.008130 
#    z 0.022520 -0.008130 1.966340 
# 
# From -- ./inp_files/272809.got.cif
#   From: 2010.05.17/outbox.cif.g08.bks.cpg/sg2_137_cif.got.tgz:272809.got - 2010.06.03 11:33:40.
