data_PCOD9046329
_publ_section_title
;
Structure prediction by ZEFSAII (Michael W. Deem and Ramdas Pophale) SiO2 
 PCOD9046329
Probable space group: P -1
;
_chemical_formula_sum "Si O2"
_cell_formula_units_Z 13
_cell_length_a 17.620719
_cell_length_b 9.179288
_cell_length_c 6.437958
_cell_angle_alpha 50.573181
_cell_angle_beta 68.060489
_cell_angle_gamma 49.056512
_cell_volume 605.950296
_symmetry_space_group_name_H-M "P -1"
_symmetry_group_IT_number 2
_symmetry_cell_setting 'triclinic'
loop_
_space_group_symop_operation_xyz
x,y,z
-x,-y,-z
loop_
_atom_site_type_symbol
_atom_site_label
_atom_site_fract_x
_atom_site_fract_y
_atom_site_fract_z
Si Si1 0.969318 0.731049 0.204021
Si Si2 0.291134 0.441892 0.403488
Si Si3 0.243911 0.088694 0.909938
Si Si4 0.500000 0.000000 0.500000
Si Si5 0.417059 0.719870 0.751877
Si Si6 0.132720 0.788114 0.907239
Si Si7 0.301279 0.720893 0.500838
O O1 0.870690 0.817024 0.094421
O O2 0.000000 0.500000 0.500000
O O3 0.934999 0.940476 0.209580
O O4 0.061178 0.705301 0.010488
O O5 0.257863 0.293129 0.686173
O O6 0.390161 0.251423 0.348349
O O7 0.321387 0.555632 0.439282
O O8 0.202564 0.635758 0.170263
O O9 0.316555 0.897065 0.832796
O O10 0.278295 0.956052 0.212794
O O11 0.539422 0.132364 0.470502
O O12 0.387173 0.638625 0.656885
O O13 0.500000 0.500000 0.000000
O O14 0.205785 0.757259 0.679466
#
# Coordination Sequence:
#
# PCOD9046329 Si02
#       7
#     2   2   2   1   2   2   2
#     4  11  22  44  72  94 136 188 225 276 344 399
#     4  11  24  45  68 102 139 178 228 280 339 408
#     4  11  24  43  66 100 138 177 229 280 339 402
#     4  10  24  42  70  96 130 180 224 266 340 406
#     4  11  24  45  69  94 137 180 221 281 346 403
#     4  11  24  43  70  97 137 184 227 277 341 403
#     4  12  24  43  70 103 137 174 227 287 335 404
#
# _framework density 21.453906
#
# number of rings (size 3 to 8) (size 9 to 14) (size 15 to 20)
#    0.000    0.923    4.615    1.846    0.000    8.000 
#    0.000    6.923    0.000    0.000    0.000    0.000 
#    0.000    0.000    0.000    0.000    0.000    0.000 
#
# Total GULP energy -72390.483272 kJ/mol
# GULP energy per Si atom -5568.498713 kJ/mol
# Density = 2.140508 g / cm^3
# Si number density = 21.453906 Si / 1000 Ang^3
#
#
#
# Elastic Constant Matrix: (Units=GPa)
#
#
# Indices 1 2 3 4 5 6 
#
# 1 109.8310 13.5928 22.7831 -13.6961 -0.8909 -4.5155
# 2 13.5928 71.3095 32.2255 -23.9821 0.4227 -3.6786
# 3 22.7831 32.2255 111.8206 -21.8789 -7.0229 1.7823
# 4 -13.6961 -23.9821 -21.8789 28.5316 1.5155 -2.8900
# 5 -0.8909 0.4227 -7.0229 1.5155 42.6695 -11.1923
# 6 -4.5155 -3.6786 1.7823 -2.8900 -11.1923 29.2091
#
#
#
# Elastic Compliance Matrix: (Units=1/GPa)
#
#
# Indices 1 2 3 4 5 6 
#
# 1 0.009960 0.000191 -0.001278 0.004164 0.000430 0.002218
# 2 0.000191 0.020893 -0.003054 0.015759 -0.000122 0.004360
# 3 -0.001278 -0.003054 0.011231 0.005334 0.001633 -0.000114
# 4 0.004164 0.015759 0.005334 0.055156 0.000984 0.008137
# 5 0.000430 -0.000122 0.001633 0.000984 0.026340 0.010142
# 6 0.002218 0.004360 -0.000114 0.008137 0.010142 0.039826
#
#
# Mechanical properties :
#
#
# Convention : Reuss Voigt Hill
#
# Bulk Modulus (GPa) = 29.58304 47.79597 38.68951
# Shear Modulus (GPa) = 27.32901 35.03936 31.18418
#
# Velocity S-wave (km/s) = 3.57297 4.04572 3.81667
# Velocity P-wave (km/s) = 5.55343 6.64459 6.12336
#
# Compressibility (1/GPa) = 0.03380315
#
# Stress axis : x y z
#
# Youngs Moduli (GPa) = 100.39869 47.86390 89.03640
#
# Poissons Ratio (x) = -0.00915 0.11380
# Poissons Ratio (y) = -0.01920 0.27188
# Poissons Ratio (z) = 0.12833 0.14616
#
# Static dielectric constant tensor:
#      x y z
#    x 1.786130 -0.031560 -0.041790 
#    y -0.031560 1.776210 0.021330 
#    z -0.041790 0.021330 1.786870 
# 
# From -- ./inp_files/29868.got.cif
#   From: 2010.05.17/outbox.cif.g08.bks.cpg/sg2_15_cif.got.tgz:29868.got - 2010.06.03 11:33:40.
