data_PCOD9046014
_publ_section_title
;
Structure prediction by ZEFSAII (Michael W. Deem and Ramdas Pophale) SiO2 
 PCOD9046014
Probable space group: P -1
;
_chemical_formula_sum "Si O2"
_cell_formula_units_Z 14
_cell_length_a 8.032575
_cell_length_b 7.131726
_cell_length_c 22.556498
_cell_angle_alpha 44.290613
_cell_angle_beta 38.535660
_cell_angle_gamma 50.935648
_cell_volume 554.765945
_symmetry_space_group_name_H-M "P -1"
_symmetry_group_IT_number 2
_symmetry_cell_setting 'triclinic'
loop_
_space_group_symop_operation_xyz
x,y,z
-x,-y,-z
loop_
_atom_site_type_symbol
_atom_site_label
_atom_site_fract_x
_atom_site_fract_y
_atom_site_fract_z
Si Si1 0.631591 0.619584 0.665025
Si Si2 0.795651 0.038819 0.932995
Si Si3 0.921901 0.158140 0.209728
Si Si4 0.262133 0.343007 0.232956
Si Si5 0.742105 0.177074 0.453994
Si Si6 0.821603 0.638604 0.419961
Si Si7 0.487861 0.812143 0.913036
O O1 0.311923 0.613394 0.749838
O O2 0.655985 0.638433 0.725711
O O3 0.881591 0.392743 0.627360
O O4 0.718468 0.884913 0.551600
O O5 0.820353 0.349329 0.838300
O O6 0.751495 0.016393 0.020852
O O7 0.013619 0.839823 0.878867
O O8 0.500000 0.000000 0.000000
O O9 0.216583 0.132646 0.162143
O O10 0.812675 0.879964 0.319880
O O11 0.500628 0.186291 0.161198
O O12 0.997583 0.197173 0.337808
O O13 0.785622 0.369170 0.454476
O O14 0.448723 0.292361 0.481599
O O15 0.500000 0.500000 0.000000
#
# Coordination Sequence:
#
# PCOD9046014 Si02
#       7
#     2   2   2   2   2   2   2
#     4  10  19  31  57  88 107 136 186 218 260 327
#     4   9  17  33  55  78  98 142 186 219 256 321
#     4  10  18  34  59  80 106 142 181 223 262 320
#     4  10  17  34  55  80 111 144 170 227 274 309
#     4   9  17  29  54  85 110 139 180 214 262 326
#     4   9  16  30  52  82 108 138 176 218 258 316
#     4   9  20  35  57  76 109 145 179 222 281 313
#
# _framework density 25.235866000000001
#
# number of rings (size 3 to 8) (size 9 to 14) (size 15 to 20)
#    0.000    2.571    2.857    1.714    0.000    0.000 
#    0.000   10.000    6.286    4.286    0.000    0.000 
#    0.000    0.000    0.000    0.000    0.000    0.000 
#
# Total GULP energy -78132.570654 kJ/mol
# GULP energy per Si atom -5580.897904 kJ/mol
# Density = 2.517843 g / cm^3
# Si number density = 25.235866 Si / 1000 Ang^3
#
#
#
# Elastic Constant Matrix: (Units=GPa)
#
#
# Indices 1 2 3 4 5 6 
#
# 1 64.7731 4.2483 10.7058 -1.1863 -4.4594 -4.9954
# 2 4.2483 46.1002 19.0929 2.1668 -9.4750 -1.0227
# 3 10.7058 19.0929 120.2715 0.1239 -17.2618 5.0724
# 4 -1.1863 2.1668 0.1239 15.1847 -2.1128 -3.1347
# 5 -4.4594 -9.4750 -17.2618 -2.1128 26.9407 11.4466
# 6 -4.9954 -1.0227 5.0724 -3.1347 11.4466 32.7604
#
#
#
# Elastic Compliance Matrix: (Units=1/GPa)
#
#
# Indices 1 2 3 4 5 6 
#
# 1 0.015989 -0.000849 -0.001323 0.001997 0.000545 0.002617
# 2 -0.000849 0.024474 -0.002689 -0.002890 0.007267 -0.001765
# 3 -0.001323 -0.002689 0.010065 0.000302 0.007139 -0.004310
# 4 0.001997 -0.002890 0.000302 0.067956 0.002352 0.005848
# 5 0.000545 0.007267 0.007139 0.002352 0.052570 -0.018939
# 6 0.002617 -0.001765 -0.004310 0.005848 -0.018939 0.038713
#
#
# Mechanical properties :
#
#
# Convention : Reuss Voigt Hill
#
# Bulk Modulus (GPa) = 24.50635 33.24876 28.87755
# Shear Modulus (GPa) = 21.45080 28.11700 24.78390
#
# Velocity S-wave (km/s) = 2.91866 3.34154 3.13723
# Velocity P-wave (km/s) = 4.59240 5.30015 4.95892
#
# Compressibility (1/GPa) = 0.04080575
#
# Stress axis : x y z
#
# Youngs Moduli (GPa) = 62.54399 40.85929 99.35176
#
# Poissons Ratio (x) = 0.03471 0.13140
# Poissons Ratio (y) = 0.05313 0.26718
# Poissons Ratio (z) = 0.08272 0.10988
#
# Static dielectric constant tensor:
#      x y z
#    x 2.079610 0.002870 -0.010530 
#    y 0.002870 2.061330 0.033180 
#    z -0.010530 0.033180 2.053840 
# 
# From -- ./inp_files/215405.got.cif
#   From: 2010.05.17/outbox.cif.g08.bks.cpg/sg2_108_cif.got.tgz:215405.got - 2010.06.03 11:33:40.
