data_PCOD9046508
_publ_section_title
;
Structure prediction by ZEFSAII (Michael W. Deem and Ramdas Pophale) SiO2 
 PCOD9046508
Probable space group: P -1
;
_chemical_formula_sum "Si O2"
_cell_formula_units_Z 12
_cell_length_a 7.183614
_cell_length_b 16.850403
_cell_length_c 6.920199
_cell_angle_alpha 130.293655
_cell_angle_beta 97.310065
_cell_angle_gamma 50.821273
_cell_volume 435.629309
_symmetry_space_group_name_H-M "P -1"
_symmetry_group_IT_number 2
_symmetry_cell_setting 'triclinic'
loop_
_space_group_symop_operation_xyz
x,y,z
-x,-y,-z
loop_
_atom_site_type_symbol
_atom_site_label
_atom_site_fract_x
_atom_site_fract_y
_atom_site_fract_z
Si Si1 0.845157 0.173130 0.263454
Si Si2 0.102851 0.685435 0.212778
Si Si3 0.477299 0.149598 0.699866
Si Si4 0.221038 0.458362 0.110481
Si Si5 0.685182 0.512279 0.442766
Si Si6 0.705572 0.911879 0.069151
O O1 0.867170 0.211024 0.542262
O O2 0.523926 0.315643 0.394630
O O3 0.009317 0.184901 0.158737
O O4 0.000000 0.000000 0.000000
O O5 0.287395 0.540437 0.150518
O O6 0.784648 0.785770 0.356149
O O7 0.156786 0.614247 0.899656
O O8 0.415125 0.132485 0.879912
O O9 0.713198 0.000038 0.373772
O O10 0.462434 0.279038 0.887846
O O11 0.124794 0.519671 0.410967
O O12 0.000000 0.500000 0.000000
O O13 0.500000 0.500000 0.500000
O O14 0.500000 0.000000 0.000000
#
# Coordination Sequence:
#
# PCOD9046508 Si02
#       6
#     2   2   2   2   2   2
#     4  12  28  46  75 110 155 208 247 310 389 455
#     4  11  24  48  72 109 151 193 256 316 373 452
#     4  10  24  42  76 106 140 198 251 314 372 445
#     4  10  25  45  74 112 141 193 253 312 380 444
#     4  12  26  46  77 106 156 201 251 315 383 450
#     4  11  24  46  70 101 155 192 253 306 379 444
#
# _framework density 27.54636
#
# number of rings (size 3 to 8) (size 9 to 14) (size 15 to 20)
#    0.000    1.000    3.333    1.500    4.667    2.667 
#    0.000    2.500    0.000    0.000    0.000    0.000 
#    0.000    0.000    0.000    0.000    0.000    0.000 
#
# Total GULP energy -67085.811654 kJ/mol
# GULP energy per Si atom -5590.484304 kJ/mol
# Density = 2.748366 g / cm^3
# Si number density = 27.546360 Si / 1000 Ang^3
#
#
#
# Elastic Constant Matrix: (Units=GPa)
#
#
# Indices 1 2 3 4 5 6 
#
# 1 55.2720 27.1251 47.5490 -9.8982 -12.2740 3.2181
# 2 27.1251 132.0928 70.4479 -12.2632 9.6154 10.5002
# 3 47.5490 70.4479 251.2096 -15.6011 7.0869 5.2966
# 4 -9.8982 -12.2632 -15.6011 63.4640 4.7183 10.9527
# 5 -12.2740 9.6154 7.0869 4.7183 54.1747 -5.6596
# 6 3.2181 10.5002 5.2966 10.9527 -5.6596 51.2602
#
#
#
# Elastic Compliance Matrix: (Units=1/GPa)
#
#
# Indices 1 2 3 4 5 6 
#
# 1 0.024816 -0.003352 -0.003826 0.001820 0.006544 -0.000142
# 2 -0.003352 0.009770 -0.001894 0.001472 -0.002603 -0.002197
# 3 -0.003826 -0.001894 0.005304 0.000464 -0.001282 -0.000161
# 4 0.001820 0.001472 0.000464 0.017334 -0.001876 -0.004375
# 5 0.006544 -0.002603 -0.001282 -0.001876 0.021046 0.002979
# 6 -0.000142 -0.002197 -0.000161 -0.004375 0.002979 0.021248
#
#
# Mechanical properties :
#
#
# Convention : Reuss Voigt Hill
#
# Bulk Modulus (GPa) = 45.98348 80.97982 63.48165
# Shear Modulus (GPa) = 40.02889 53.34328 46.68608
#
# Velocity S-wave (km/s) = 3.81615 4.40533 4.12128
# Velocity P-wave (km/s) = 6.01221 7.43891 6.76329
#
# Compressibility (1/GPa) = 0.02174694
#
# Stress axis : x y z
#
# Youngs Moduli (GPa) = 40.29662 102.35713 188.52023
#
# Poissons Ratio (x) = 0.34306 0.72125
# Poissons Ratio (y) = 0.13506 0.35709
# Poissons Ratio (z) = 0.15417 0.19388
#
# Static dielectric constant tensor:
#      x y z
#    x 2.222720 0.006730 0.025330 
#    y 0.006730 2.273520 0.059820 
#    z 0.025330 0.059820 2.172820 
# 
# From -- ./inp_files/49367.got.cif
#   From: 2010.05.17/outbox.cif.g08.bks.cpg/sg2_25_cif.got.tgz:49367.got - 2010.06.03 11:33:40.
