data_PCOD9046446
_publ_section_title
;
Structure prediction by ZEFSAII (Michael W. Deem and Ramdas Pophale) SiO2 
 PCOD9046446
Probable space group: P -1
;
_chemical_formula_sum "Si O2"
_cell_formula_units_Z 12
_cell_length_a 14.164585
_cell_length_b 8.634675
_cell_length_c 9.774807
_cell_angle_alpha 105.222397
_cell_angle_beta 114.309365
_cell_angle_gamma 29.617872
_cell_volume 526.262541
_symmetry_space_group_name_H-M "P -1"
_symmetry_group_IT_number 2
_symmetry_cell_setting 'triclinic'
loop_
_space_group_symop_operation_xyz
x,y,z
-x,-y,-z
loop_
_atom_site_type_symbol
_atom_site_label
_atom_site_fract_x
_atom_site_fract_y
_atom_site_fract_z
Si Si1 0.363145 0.100408 0.270381
Si Si2 0.502568 0.242438 0.465805
Si Si3 0.871672 0.176787 0.104854
Si Si4 0.928866 0.813900 0.270281
Si Si5 0.856349 0.014315 0.573307
Si Si6 0.567739 0.090198 0.028093
O O1 0.472313 0.127177 0.327465
O O2 0.142140 0.436591 0.282435
O O3 0.495549 0.821280 0.391907
O O4 0.341477 0.040828 0.101425
O O5 0.717744 0.043739 0.524968
O O6 0.309188 0.619847 0.418971
O O7 0.635876 0.527613 0.007842
O O8 0.894096 0.987157 0.166425
O O9 0.961998 0.197686 0.259784
O O10 0.000000 0.000000 0.000000
O O11 0.933769 0.898879 0.437440
O O12 0.740878 0.940360 0.188728
O O13 0.500000 0.000000 0.000000
#
# Coordination Sequence:
#
# PCOD9046446 Si02
#       6
#     2   2   2   2   2   2
#     4  11  24  44  69 103 140 178 227 281 346 403
#     4  10  24  42  72  98 140 176 230 281 341 397
#     4  12  28  46  71 102 140 182 231 279 344 407
#     4  12  26  46  73 101 138 183 231 279 343 405
#     4  11  25  45  73 100 135 181 235 278 336 408
#     4  12  28  45  69 101 144 179 229 284 345 403
#
# _framework density 22.802308
#
# number of rings (size 3 to 8) (size 9 to 14) (size 15 to 20)
#    0.000    0.667    1.667    4.500   14.000    0.667 
#    0.000    0.000    0.000    0.000    0.000    0.000 
#    0.000    0.000    0.000    0.000    0.000    0.000 
#
# Total GULP energy -67247.450689 kJ/mol
# GULP energy per Si atom -5603.954224 kJ/mol
# Density = 2.275041 g / cm^3
# Si number density = 22.802308 Si / 1000 Ang^3
#
#
#
# Elastic Constant Matrix: (Units=GPa)
#
#
# Indices 1 2 3 4 5 6 
#
# 1 100.4900 21.9256 29.4041 -0.4668 13.0902 -9.9254
# 2 21.9256 38.1002 1.5636 -3.2708 -1.6292 -6.0519
# 3 29.4041 1.5636 110.3252 21.0772 11.0630 -7.2407
# 4 -0.4668 -3.2708 21.0772 37.9774 -15.9772 -1.1683
# 5 13.0902 -1.6292 11.0630 -15.9772 42.5222 -4.6867
# 6 -9.9254 -6.0519 -7.2407 -1.1683 -4.6867 24.7627
#
#
#
# Elastic Compliance Matrix: (Units=1/GPa)
#
#
# Indices 1 2 3 4 5 6 
#
# 1 0.012995 -0.007221 -0.002839 -0.000267 -0.003424 0.001953
# 2 -0.007221 0.032126 0.000273 0.005281 0.006076 0.006436
# 3 -0.002839 0.000273 0.012180 -0.009092 -0.005590 0.001004
# 4 -0.000267 0.005281 -0.009092 0.039475 0.017898 0.003775
# 5 -0.003424 0.006076 -0.005590 0.017898 0.033610 0.005684
# 6 0.001953 0.006436 0.001004 0.003775 0.005684 0.044287
#
#
# Mechanical properties :
#
#
# Convention : Reuss Voigt Hill
#
# Bulk Modulus (GPa) = 26.50434 39.41133 32.95784
# Shear Modulus (GPa) = 24.17543 34.12059 29.14801
#
# Velocity S-wave (km/s) = 3.25963 3.87249 3.57920
# Velocity P-wave (km/s) = 5.08092 6.10871 5.61836
#
# Compressibility (1/GPa) = 0.03772967
#
# Stress axis : x y z
#
# Youngs Moduli (GPa) = 76.95285 31.12724 82.09984
#
# Poissons Ratio (x) = 0.22476 0.23305
# Poissons Ratio (y) = 0.55566 -0.02245
# Poissons Ratio (z) = 0.21844 -0.00851
#
# Static dielectric constant tensor:
#      x y z
#    x 1.882520 0.007360 0.006730 
#    y 0.007360 1.782020 0.004880 
#    z 0.006730 0.004880 1.809000 
# 
# From -- ./inp_files/146225.got.cif
#   From: 2010.05.17/outbox.cif.g08.bks.cpg/sg2_74_cif.got.tgz:146225.got - 2010.06.03 11:33:40.
