data_PCOD9046254
_publ_section_title
;
Structure prediction by ZEFSAII (Michael W. Deem and Ramdas Pophale) SiO2 
 PCOD9046254
Probable space group: P -1
;
_chemical_formula_sum "Si O2"
_cell_formula_units_Z 16
_cell_length_a 14.616485
_cell_length_b 25.365374
_cell_length_c 8.809265
_cell_angle_alpha 57.557955
_cell_angle_beta 49.250343
_cell_angle_gamma 19.210466
_cell_volume 771.105568
_symmetry_space_group_name_H-M "P -1"
_symmetry_group_IT_number 2
_symmetry_cell_setting 'triclinic'
loop_
_space_group_symop_operation_xyz
x,y,z
-x,-y,-z
loop_
_atom_site_type_symbol
_atom_site_label
_atom_site_fract_x
_atom_site_fract_y
_atom_site_fract_z
Si Si1 0.239165 0.942028 0.881190
Si Si2 0.265219 0.901727 0.252331
Si Si3 0.052067 0.454467 0.343067
Si Si4 0.226014 0.680546 0.572571
Si Si5 0.369099 0.015960 0.485152
Si Si6 0.877171 0.662931 0.042184
Si Si7 0.811119 0.820959 0.026888
Si Si8 0.653042 0.591593 0.321188
O O1 0.603592 0.743234 0.754396
O O2 0.244864 0.008772 0.697709
O O3 0.164746 0.981334 0.081193
O O4 0.000000 0.000000 0.000000
O O5 0.487346 0.843469 0.192726
O O6 0.514297 0.725511 0.213809
O O7 0.000000 0.000000 0.500000
O O8 0.000000 0.500000 0.500000
O O9 0.037989 0.526479 0.157703
O O10 0.758128 0.553223 0.440605
O O11 0.500000 0.500000 0.500000
O O12 0.386412 0.671267 0.429129
O O13 0.934109 0.816827 0.553352
O O14 0.095498 0.731473 0.807366
O O15 0.500000 0.000000 0.500000
O O16 0.679140 0.865635 0.265667
O O17 0.949672 0.692282 0.997015
O O18 0.013600 0.592496 0.833765
O O19 0.500000 0.000000 0.000000
#
# Coordination Sequence:
#
# PCOD9046254 Si02
#       8
#     2   2   2   2   2   2   2   2
#     4  12  26  43  67 102 143 178 231 298 358 413
#     4  11  25  39  70 100 131 179 233 285 347 421
#     4  11  24  42  67  99 140 183 225 290 366 415
#     4  11  24  45  76  99 133 190 246 285 337 434
#     4  11  28  47  69 104 148 186 232 297 369 417
#     4  11  21  44  66  93 134 183 235 282 341 428
#     4  10  24  42  69  97 136 187 236 280 347 426
#     4  11  22  44  69  99 135 183 241 284 348 424
#
# _framework density 20.749427000000001
#
# number of rings (size 3 to 8) (size 9 to 14) (size 15 to 20)
#    0.000    1.000    3.750    2.250   14.000    0.000 
#    0.000    0.625    0.000    0.000    0.000    0.000 
#    0.000    0.000    0.000    0.000    0.000    0.000 
#
# Total GULP energy -89137.260901 kJ/mol
# GULP energy per Si atom -5571.078806 kJ/mol
# Density = 2.070220 g / cm^3
# Si number density = 20.749427 Si / 1000 Ang^3
#
#
#
# Elastic Constant Matrix: (Units=GPa)
#
#
# Indices 1 2 3 4 5 6 
#
# 1 105.3649 25.1699 32.8393 -7.6216 -1.3068 -8.3675
# 2 25.1699 65.6870 23.2778 -2.8509 2.6535 -1.2445
# 3 32.8393 23.2778 132.2893 -2.6077 11.8946 -5.5633
# 4 -7.6216 -2.8509 -2.6077 27.4312 1.6680 -3.2646
# 5 -1.3068 2.6535 11.8946 1.6680 44.1812 3.7653
# 6 -8.3675 -1.2445 -5.5633 -3.2646 3.7653 27.7000
#
#
#
# Elastic Compliance Matrix: (Units=1/GPa)
#
#
# Indices 1 2 3 4 5 6 
#
# 1 0.011450 -0.003484 -0.002106 0.002946 0.000737 0.003126
# 2 -0.003484 0.017359 -0.002153 0.000598 -0.000541 -0.000561
# 3 -0.002106 -0.002153 0.008743 0.000335 -0.002418 0.001391
# 4 0.002946 0.000598 0.000335 0.038172 -0.001970 0.005751
# 5 0.000737 -0.000541 -0.002418 -0.001970 0.023733 -0.003745
# 6 0.003126 -0.000561 0.001391 0.005751 -0.003745 0.038487
#
#
# Mechanical properties :
#
#
# Convention : Reuss Voigt Hill
#
# Bulk Modulus (GPa) = 45.31713 51.76836 48.54274
# Shear Modulus (GPa) = 31.09762 34.66608 32.88185
#
# Velocity S-wave (km/s) = 3.87553 4.09185 3.98516
# Velocity P-wave (km/s) = 6.47410 6.87952 6.67989
#
# Compressibility (1/GPa) = 0.02206671
#
# Stress axis : x y z
#
# Youngs Moduli (GPa) = 87.33647 57.60815 114.37277
#
# Poissons Ratio (x) = 0.20069 0.24088
# Poissons Ratio (y) = 0.30426 0.24623
# Poissons Ratio (z) = 0.18394 0.12402
#
# Static dielectric constant tensor:
#      x y z
#    x 1.825430 -0.043540 0.038400 
#    y -0.043540 1.775790 -0.035200 
#    z 0.038400 -0.035200 1.863240 
# 
# From -- ./inp_files/320696.got.cif
#   From: 2010.05.17/outbox.cif.g08.bks.cpg/sg2_161_cif.got.tgz:320696.got - 2010.06.03 11:33:40.
