data_PCOD9046276
_publ_section_title
;
Structure prediction by ZEFSAII (Michael W. Deem and Ramdas Pophale) SiO2 
 PCOD9046276
Probable space group: P -1
;
_chemical_formula_sum "Si O2"
_cell_formula_units_Z 12
_cell_length_a 6.080762
_cell_length_b 13.958787
_cell_length_c 9.301312
_cell_angle_alpha 56.295298
_cell_angle_beta 64.431651
_cell_angle_gamma 98.501190
_cell_volume 507.457281
_symmetry_space_group_name_H-M "P -1"
_symmetry_group_IT_number 2
_symmetry_cell_setting 'triclinic'
loop_
_space_group_symop_operation_xyz
x,y,z
-x,-y,-z
loop_
_atom_site_type_symbol
_atom_site_label
_atom_site_fract_x
_atom_site_fract_y
_atom_site_fract_z
Si Si1 0.997826 0.619678 0.483056
Si Si2 0.964710 0.827038 0.796036
Si Si3 0.098439 0.636859 0.775822
Si Si4 0.869838 0.141323 0.949285
Si Si5 0.266849 0.223992 0.534016
Si Si6 0.729203 0.008816 0.681635
O O1 0.716041 0.632112 0.571790
O O2 0.000000 0.500000 0.500000
O O3 0.095447 0.624040 0.615054
O O4 0.166122 0.751161 0.225254
O O5 0.906686 0.695256 0.837988
O O6 0.039038 0.817575 0.946647
O O7 0.223741 0.948240 0.532877
O O8 0.734118 0.872407 0.813602
O O9 0.429098 0.744883 0.626504
O O10 0.000000 0.500000 0.000000
O O11 0.557775 0.010880 0.155281
O O12 0.133528 0.147188 0.786330
O O13 0.008942 0.127738 0.581293
#
# Coordination Sequence:
#
# PCOD9046276 Si02
#       6
#     2   2   2   2   2   2
#     4  10  24  47  67  99 135 178 232 278 331 403
#     4  11  25  42  70 105 137 182 224 276 338 409
#     4  12  27  47  71  99 137 179 231 282 341 402
#     4  10  24  42  70 101 138 179 222 279 338 397
#     4  10  26  44  68 102 132 182 224 280 337 401
#     4  11  24  44  70 102 144 176 225 276 340 406
#
# _framework density 23.647307999999999
#
# number of rings (size 3 to 8) (size 9 to 14) (size 15 to 20)
#    1.000    0.333    1.667    2.000    9.333    3.333 
#    0.000    0.000    0.000    0.000    0.000    0.000 
#    0.000    0.000    0.000    0.000    0.000    0.000 
#
# Total GULP energy -66937.551224 kJ/mol
# GULP energy per Si atom -5578.129269 kJ/mol
# Density = 2.359349 g / cm^3
# Si number density = 23.647308 Si / 1000 Ang^3
#
#
#
# Elastic Constant Matrix: (Units=GPa)
#
#
# Indices 1 2 3 4 5 6 
#
# 1 57.8548 45.5872 53.4219 3.7382 7.3991 -20.5050
# 2 45.5872 114.0386 26.8035 12.2083 16.5445 -22.0397
# 3 53.4219 26.8035 166.2378 12.9282 23.0523 8.1067
# 4 3.7382 12.2083 12.9282 31.3200 5.1391 18.0756
# 5 7.3991 16.5445 23.0523 5.1391 49.8108 5.9609
# 6 -20.5050 -22.0397 8.1067 18.0756 5.9609 45.4678
#
#
#
# Elastic Compliance Matrix: (Units=1/GPa)
#
#
# Indices 1 2 3 4 5 6 
#
# 1 0.045997 -0.010344 -0.013679 -0.008315 0.001241 0.021312
# 2 -0.010344 0.015196 0.001805 -0.008348 -0.004233 0.006253
# 3 -0.013679 0.001805 0.010775 0.001159 -0.002799 -0.007308
# 4 -0.008315 -0.008348 0.001159 0.052141 0.001555 -0.028935
# 5 0.001241 -0.004233 -0.002799 0.001555 0.022986 -0.004625
# 6 0.021312 0.006253 -0.007308 -0.028935 -0.004625 0.048049
#
#
# Mechanical properties :
#
#
# Convention : Reuss Voigt Hill
#
# Bulk Modulus (GPa) = 36.31877 65.52848 50.92362
# Shear Modulus (GPa) = 20.10006 39.47430 29.78718
#
# Velocity S-wave (km/s) = 2.91863 4.09013 3.55300
# Velocity P-wave (km/s) = 5.17201 7.07647 6.19783
#
# Compressibility (1/GPa) = 0.02753397
#
# Stress axis : x y z
#
# Youngs Moduli (GPa) = 21.74033 65.80743 92.81090
#
# Poissons Ratio (x) = 0.68068 1.26952
# Poissons Ratio (y) = 0.22487 -0.16754
# Poissons Ratio (z) = 0.29738 -0.11879
#
# Static dielectric constant tensor:
#      x y z
#    x 1.962930 -0.045070 0.018780 
#    y -0.045070 1.952610 0.000620 
#    z 0.018780 0.000620 1.884410 
# 
# From -- ./inp_files/133930.got.cif
#   From: 2010.05.17/outbox.cif.g08.bks.cpg/sg2_67_cif.got.tgz:133930.got - 2010.06.03 11:33:40.
