data_PCOD9046012
_publ_section_title
;
Structure prediction by ZEFSAII (Michael W. Deem and Ramdas Pophale) SiO2 
 PCOD9046012
Probable space group: P -1
;
_chemical_formula_sum "Si O2"
_cell_formula_units_Z 16
_cell_length_a 24.216208
_cell_length_b 8.788480
_cell_length_c 12.811181
_cell_angle_alpha 147.515314
_cell_angle_beta 25.311468
_cell_angle_gamma 140.086408
_cell_volume 625.946119
_symmetry_space_group_name_H-M "P -1"
_symmetry_group_IT_number 2
_symmetry_cell_setting 'triclinic'
loop_
_space_group_symop_operation_xyz
x,y,z
-x,-y,-z
loop_
_atom_site_type_symbol
_atom_site_label
_atom_site_fract_x
_atom_site_fract_y
_atom_site_fract_z
Si Si1 0.278374 0.452050 0.643516
Si Si2 0.252150 0.422778 0.888596
Si Si3 0.300401 0.714020 0.554054
Si Si4 0.159075 0.913850 0.222793
Si Si5 0.555437 0.738190 0.352615
Si Si6 0.979689 0.160680 0.838156
Si Si7 0.029887 0.802515 0.737322
Si Si8 0.740155 0.528012 0.741665
O O1 0.271796 0.259500 0.647749
O O2 0.288872 0.439578 0.492507
O O3 0.409045 0.634930 0.549244
O O4 0.155421 0.648186 0.995087
O O5 0.363447 0.346849 0.732847
O O6 0.106699 0.362388 0.143322
O O7 0.250800 0.759293 0.061088
O O8 0.296572 0.653089 0.403091
O O9 0.418706 0.923611 0.501382
O O10 0.170707 0.884443 0.902178
O O11 0.217649 0.176974 0.213693
O O12 0.035326 0.011671 0.554401
O O13 0.624455 0.579722 0.047951
O O14 0.056549 0.010307 0.714737
O O15 0.000000 0.500000 0.000000
O O16 0.142557 0.599584 0.465664
O O17 0.000000 0.000000 0.000000
#
# Coordination Sequence:
#
# PCOD9046012 Si02
#       8
#     2   2   2   2   2   2   2   2
#     4  10  26  44  71  98 137 188 236 287 333 413
#     4  10  24  43  74  97 140 185 227 287 352 400
#     4  12  25  44  71 101 139 186 227 290 347 408
#     4  10  24  42  66 103 135 182 233 270 352 408
#     4  12  23  49  70 100 139 182 244 284 340 402
#     4  12  24  42  69 101 142 178 219 289 346 420
#     4  12  24  43  68 106 141 178 227 286 353 418
#     4  12  26  43  72 107 140 183 229 287 344 419
#
# _framework density 25.561306999999999
#
# number of rings (size 3 to 8) (size 9 to 14) (size 15 to 20)
#    0.750    0.000    5.000    1.500    5.250    2.500 
#    0.000    0.000    0.000    3.000    0.000    0.000 
#    0.000    0.000    0.000    0.000    0.000    0.000 
#
# Total GULP energy -89429.323467 kJ/mol
# GULP energy per Si atom -5589.332717 kJ/mol
# Density = 2.550313 g / cm^3
# Si number density = 25.561307 Si / 1000 Ang^3
#
#
#
# Elastic Constant Matrix: (Units=GPa)
#
#
# Indices 1 2 3 4 5 6 
#
# 1 154.3413 28.6254 48.9611 -3.9197 11.0937 -27.0112
# 2 28.6254 94.6571 26.4163 -0.6352 -4.7318 -28.6598
# 3 48.9611 26.4163 84.0354 -9.5107 8.9679 -12.2800
# 4 -3.9197 -0.6352 -9.5107 32.5524 -8.2790 -4.2330
# 5 11.0937 -4.7318 8.9679 -8.2790 57.1757 0.0168
# 6 -27.0112 -28.6598 -12.2800 -4.2330 0.0168 48.4153
#
#
#
# Elastic Compliance Matrix: (Units=1/GPa)
#
#
# Indices 1 2 3 4 5 6 
#
# 1 0.008587 -0.000411 -0.004260 -0.000032 -0.001038 0.003464
# 2 -0.000411 0.013860 -0.003177 0.000697 0.001824 0.007230
# 3 -0.004260 -0.003177 0.015972 0.003752 -0.001398 0.000122
# 4 -0.000032 0.000697 0.003752 0.033480 0.004322 0.004272
# 5 -0.001038 0.001824 -0.001398 0.004322 0.018687 0.000518
# 6 0.003464 0.007230 0.000122 0.004272 0.000518 0.027272
#
#
# Mechanical properties :
#
#
# Convention : Reuss Voigt Hill
#
# Bulk Modulus (GPa) = 44.00813 60.11550 52.06182
# Shear Modulus (GPa) = 35.42855 42.89742 39.16298
#
# Velocity S-wave (km/s) = 3.72697 4.10105 3.91848
# Velocity P-wave (km/s) = 5.98118 6.78189 6.39408
#
# Compressibility (1/GPa) = 0.02272307
#
# Stress axis : x y z
#
# Youngs Moduli (GPa) = 116.45572 72.14932 62.60842
#
# Poissons Ratio (x) = 0.02965 0.26674
# Poissons Ratio (y) = 0.04786 0.19889
# Poissons Ratio (z) = 0.49616 0.22920
#
# Static dielectric constant tensor:
#      x y z
#    x 2.219480 -0.036580 0.007200 
#    y -0.036580 2.078700 0.022960 
#    z 0.007200 0.022960 1.951250 
# 
# From -- ./inp_files/474339.got.cif
#   From: 2010.05.17/outbox.cif.g08.bks.cpg/sg2_238_cif.got.tgz:474339.got - 2010.06.03 11:33:40.
