data_PCOD9046251
_publ_section_title
;
Structure prediction by ZEFSAII (Michael W. Deem and Ramdas Pophale) SiO2 
 PCOD9046251
Probable space group: P -1
;
_chemical_formula_sum "Si O2"
_cell_formula_units_Z 14
_cell_length_a 9.842691
_cell_length_b 10.924213
_cell_length_c 15.099714
_cell_angle_alpha 97.975055
_cell_angle_beta 155.065498
_cell_angle_gamma 80.755127
_cell_volume 675.485814
_symmetry_space_group_name_H-M "P -1"
_symmetry_group_IT_number 2
_symmetry_cell_setting 'triclinic'
loop_
_space_group_symop_operation_xyz
x,y,z
-x,-y,-z
loop_
_atom_site_type_symbol
_atom_site_label
_atom_site_fract_x
_atom_site_fract_y
_atom_site_fract_z
Si Si1 0.743356 0.264076 0.831128
Si Si2 0.857488 0.079471 0.560982
Si Si3 0.819991 0.820634 0.762347
Si Si4 0.905584 0.934888 0.105360
Si Si5 0.952469 0.616206 0.547231
Si Si6 0.793838 0.157255 0.342890
Si Si7 0.422294 0.400181 0.514811
O O1 0.378489 0.292909 0.654921
O O2 0.729022 0.371611 0.758823
O O3 0.845293 0.140952 0.821886
O O4 0.985158 0.258682 0.055077
O O5 0.481192 0.100050 0.363500
O O6 0.909752 0.164070 0.514244
O O7 0.034041 0.102154 0.760136
O O8 0.970797 0.941963 0.581092
O O9 0.667919 0.727420 0.595794
O O10 0.040068 0.919921 0.858725
O O11 0.550765 0.900544 0.866037
O O12 0.883610 0.564861 0.598868
O O13 0.000000 0.500000 0.500000
O O14 0.224779 0.709789 0.701736
O O15 0.500000 0.500000 0.500000
#
# Coordination Sequence:
#
# PCOD9046251 Si02
#       7
#     2   2   2   2   2   2   2
#     4  10  24  42  69  97 130 171 226 270 326 396
#     4  11  23  38  66  96 139 173 211 272 331 395
#     4  12  23  41  70  98 131 174 221 269 328 395
#     4  12  23  40  68 102 133 174 221 266 333 398
#     4  10  24  47  68  91 135 174 218 278 329 382
#     4  11  25  40  62 100 138 170 217 270 337 387
#     4  10  25  46  70  93 128 177 231 266 319 392
#
# _framework density 20.725825
#
# number of rings (size 3 to 8) (size 9 to 14) (size 15 to 20)
#    0.857    0.286    2.857    3.000    6.000    0.571 
#    2.571    0.714    0.000    0.000    0.000    0.000 
#    0.000    0.000    0.000    0.000    0.000    0.000 
#
# Total GULP energy -78037.764526 kJ/mol
# GULP energy per Si atom -5574.126038 kJ/mol
# Density = 2.067865 g / cm^3
# Si number density = 20.725825 Si / 1000 Ang^3
#
#
#
# Elastic Constant Matrix: (Units=GPa)
#
#
# Indices 1 2 3 4 5 6 
#
# 1 127.7440 51.7852 33.0232 10.3829 -4.4401 -5.2559
# 2 51.7852 80.7706 25.6856 11.1211 27.0223 9.3457
# 3 33.0232 25.6856 76.2784 -7.1183 -11.3279 0.4220
# 4 10.3829 11.1211 -7.1183 20.5777 8.8723 1.3250
# 5 -4.4401 27.0223 -11.3279 8.8723 32.7221 -8.2022
# 6 -5.2559 9.3457 0.4220 1.3250 -8.2022 40.1446
#
#
#
# Elastic Compliance Matrix: (Units=1/GPa)
#
#
# Indices 1 2 3 4 5 6 
#
# 1 0.018369 -0.022147 0.002671 -0.009122 0.027554 0.013463
# 2 -0.022147 0.057357 -0.018919 0.003698 -0.065323 -0.029522
# 3 0.002671 -0.018919 0.022436 0.005413 0.024634 0.009373
# 4 -0.009122 0.003698 0.005413 0.062962 -0.021648 -0.008613
# 5 0.027554 -0.065323 0.024634 -0.021648 0.113273 0.042414
# 6 0.013463 -0.029522 0.009373 -0.008613 0.042414 0.042397
#
#
# Mechanical properties :
#
#
# Convention : Reuss Voigt Hill
#
# Bulk Modulus (GPa) = 46.78708 56.19790 51.49249
# Shear Modulus (GPa) = 12.47800 30.30882 21.39341
#
# Velocity S-wave (km/s) = 2.45633 3.82824 3.21629
# Velocity P-wave (km/s) = 5.53788 6.83479 6.22023
#
# Compressibility (1/GPa) = 0.02137342
#
# Stress axis : x y z
#
# Youngs Moduli (GPa) = 54.44098 17.43463 44.57204
#
# Poissons Ratio (x) = 0.38612 -0.11907
# Poissons Ratio (y) = 1.20568 0.84325
# Poissons Ratio (z) = -0.14544 0.32984
#
# Static dielectric constant tensor:
#      x y z
#    x 1.786640 0.014760 0.004270 
#    y 0.014760 1.740770 -0.010900 
#    z 0.004270 -0.010900 1.752330 
# 
# From -- ./inp_files/498079.got.cif
#   From: 2010.05.17/outbox.cif.g08.bks.cpg/sg2_250_cif.got.tgz:498079.got - 2010.06.03 11:33:40.
