data_PCOD9046584
_publ_section_title
;
Structure prediction by ZEFSAII (Michael W. Deem and Ramdas Pophale) SiO2 
 PCOD9046584
Probable space group: P -1
;
_chemical_formula_sum "Si O2"
_cell_formula_units_Z 14
_cell_length_a 14.690946
_cell_length_b 13.217798
_cell_length_c 5.327046
_cell_angle_alpha 43.562378
_cell_angle_beta 56.994751
_cell_angle_gamma 50.583869
_cell_volume 543.724499
_symmetry_space_group_name_H-M "P -1"
_symmetry_group_IT_number 2
_symmetry_cell_setting 'triclinic'
loop_
_space_group_symop_operation_xyz
x,y,z
-x,-y,-z
loop_
_atom_site_type_symbol
_atom_site_label
_atom_site_fract_x
_atom_site_fract_y
_atom_site_fract_z
Si Si1 0.448623 0.912687 0.525429
Si Si2 0.928511 0.830892 0.356321
Si Si3 0.339177 0.702462 0.304844
Si Si4 0.720142 0.761494 0.946926
Si Si5 0.070495 0.506933 0.626464
Si Si6 0.923777 0.133590 0.563577
Si Si7 0.552015 0.624288 0.500197
O O1 0.528539 0.746730 0.551124
O O2 0.500000 0.000000 0.500000
O O3 0.371641 0.053959 0.188770
O O4 0.356966 0.857897 0.904523
O O5 0.816885 0.786270 0.577979
O O6 0.049541 0.695488 0.298222
O O7 0.977237 0.805309 0.612771
O O8 0.897775 0.015826 0.014081
O O9 0.206818 0.735645 0.529962
O O10 0.431189 0.649261 0.494013
O O11 0.378224 0.569190 0.262155
O O12 0.798912 0.635002 0.269549
O O13 0.638513 0.679412 0.101582
O O14 0.000000 0.500000 0.500000
O O15 0.000000 0.500000 0.000000
O O16 0.000000 0.000000 0.500000
#
# Coordination Sequence:
#
# PCOD9046584 Si02
#       7
#     2   2   2   2   2   2   2
#     4  12  25  44  75 112 149 198 259 318 384 463
#     4  10  24  43  65 105 143 191 253 312 383 455
#     4  11  25  48  69 105 158 195 253 317 388 473
#     4  11  23  45  74 105 149 193 258 319 381 464
#     4  10  24  43  69 104 148 196 248 316 389 455
#     4  11  25  42  73 102 143 202 250 315 391 458
#     4  11  26  44  73 110 148 203 247 315 397 460
#
# _framework density 25.748332999999999
#
# number of rings (size 3 to 8) (size 9 to 14) (size 15 to 20)
#    0.000    1.143    2.857    1.714    6.000    2.286 
#    0.000    1.429    0.000    0.000    0.000    0.000 
#    0.000    0.000    0.000    0.000    0.000    0.000 
#
# Total GULP energy -77936.217766 kJ/mol
# GULP energy per Si atom -5566.872698 kJ/mol
# Density = 2.568973 g / cm^3
# Si number density = 25.748333 Si / 1000 Ang^3
#
#
#
# Elastic Constant Matrix: (Units=GPa)
#
#
# Indices 1 2 3 4 5 6 
#
# 1 95.2797 78.1558 15.3255 9.1584 4.1065 -10.8681
# 2 78.1558 161.0272 12.7982 -22.5347 10.3675 3.1545
# 3 15.3255 12.7982 62.8949 -13.6083 -11.8799 -2.4536
# 4 9.1584 -22.5347 -13.6083 45.1704 0.0647 -2.8589
# 5 4.1065 10.3675 -11.8799 0.0647 36.6746 -1.5273
# 6 -10.8681 3.1545 -2.4536 -2.8589 -1.5273 53.5379
#
#
#
# Elastic Compliance Matrix: (Units=1/GPa)
#
#
# Indices 1 2 3 4 5 6 
#
# 1 0.023837 -0.012933 -0.005892 -0.012766 -0.000706 0.004629
# 2 -0.012933 0.013909 0.001996 0.009983 -0.001975 -0.002877
# 3 -0.005892 0.001996 0.019951 0.008206 0.006553 0.000226
# 4 -0.012766 0.009983 0.008206 0.032111 0.001165 -0.001056
# 5 -0.000706 -0.001975 0.006553 0.001165 0.030075 0.001193
# 6 0.004629 -0.002877 0.000226 -0.001056 0.001193 0.019776
#
#
# Mechanical properties :
#
#
# Convention : Reuss Voigt Hill
#
# Bulk Modulus (GPa) = 41.59754 59.08453 50.34103
# Shear Modulus (GPa) = 27.57402 41.27141 34.42272
#
# Velocity S-wave (km/s) = 3.27602 4.00794 3.66032
# Velocity P-wave (km/s) = 5.52270 6.66445 6.12026
#
# Compressibility (1/GPa) = 0.02403988
#
# Stress axis : x y z
#
# Youngs Moduli (GPa) = 41.95086 71.89422 50.12264
#
# Poissons Ratio (x) = 0.92982 0.29531
# Poissons Ratio (y) = 0.54256 -0.10004
# Poissons Ratio (z) = 0.24716 -0.14349
#
# Static dielectric constant tensor:
#      x y z
#    x 1.866060 -0.358490 0.621960 
#    y -0.358490 1.584120 0.886830 
#    z 0.621960 0.886830 0.526740 
# 
# From -- ./inp_files/72547.got.cif
#   From: 2010.05.17/outbox.cif.g08.bks.cpg/sg2_37_cif.got.tgz:72547.got - 2010.06.03 11:33:40.
