data_PCOD9046167
_publ_section_title
;
Structure prediction by ZEFSAII (Michael W. Deem and Ramdas Pophale) SiO2 
 PCOD9046167
Probable space group: P -1
;
_chemical_formula_sum "Si O2"
_cell_formula_units_Z 10
_cell_length_a 14.569043
_cell_length_b 6.128355
_cell_length_c 5.128808
_cell_angle_alpha 91.023527
_cell_angle_beta 56.806992
_cell_angle_gamma 87.547081
_cell_volume 382.384903
_symmetry_space_group_name_H-M "P -1"
_symmetry_group_IT_number 2
_symmetry_cell_setting 'triclinic'
loop_
_space_group_symop_operation_xyz
x,y,z
-x,-y,-z
loop_
_atom_site_type_symbol
_atom_site_label
_atom_site_fract_x
_atom_site_fract_y
_atom_site_fract_z
Si Si1 0.082210 0.117614 0.561233
Si Si2 0.859039 0.234097 0.136978
Si Si3 0.248078 0.395769 0.999312
Si Si4 0.651318 0.046273 0.296357
Si Si5 0.405879 0.684990 0.083705
O O1 0.154586 0.287449 0.309461
O O2 0.149401 0.922856 0.604065
O O3 0.000000 0.000000 0.500000
O O4 0.989895 0.236845 0.895142
O O5 0.780097 0.103249 0.062784
O O6 0.806778 0.474352 0.158005
O O7 0.309548 0.547768 0.107294
O O8 0.336495 0.214091 0.744117
O O9 0.618333 0.173081 0.615427
O O10 0.578488 0.144712 0.173345
O O11 0.500000 0.500000 0.000000
#
# Coordination Sequence:
#
# PCOD9046167 Si02
#       5
#     2   2   2   2   2
#     4  11  22  44  69 106 150 193 251 294 350 452
#     4  10  24  42  68 107 150 191 244 300 356 440
#     4  11  25  47  77 105 149 202 235 306 381 418
#     4  11  24  47  74 109 148 186 252 305 363 457
#     4  11  27  49  75 110 146 188 251 312 371 449
#
# _framework density 26.151664
#
# number of rings (size 3 to 8) (size 9 to 14) (size 15 to 20)
#    0.000    1.200    2.000    2.400    2.800    8.800 
#    0.000    0.000    0.000    3.600    0.000    0.000 
#    0.000    0.000    0.000    0.000    0.000    0.000 
#
# Total GULP energy -55919.229380 kJ/mol
# GULP energy per Si atom -5591.922938 kJ/mol
# Density = 2.609214 g / cm^3
# Si number density = 26.151664 Si / 1000 Ang^3
#
#
#
# Elastic Constant Matrix: (Units=GPa)
#
#
# Indices 1 2 3 4 5 6 
#
# 1 135.9821 74.7267 43.1305 -5.5037 9.8643 -33.5765
# 2 74.7267 205.2591 76.0639 -2.9933 27.8185 -52.0907
# 3 43.1305 76.0639 107.8582 19.1492 25.7316 -20.8274
# 4 -5.5037 -2.9933 19.1492 42.2195 1.5235 13.1809
# 5 9.8643 27.8185 25.7316 1.5235 44.5873 -13.2358
# 6 -33.5765 -52.0907 -20.8274 13.1809 -13.2358 69.1160
#
#
#
# Elastic Compliance Matrix: (Units=1/GPa)
#
#
# Indices 1 2 3 4 5 6 
#
# 1 0.009927 -0.002244 -0.002511 0.001497 0.001296 0.002337
# 2 -0.002244 0.008309 -0.004201 0.001176 -0.001283 0.003436
# 3 -0.002511 -0.004201 0.016193 -0.008067 -0.005609 0.000958
# 4 0.001497 0.001176 -0.008067 0.029571 0.000703 -0.006322
# 5 0.001296 -0.001283 -0.005609 0.000703 0.027051 0.003018
# 6 0.002337 0.003436 0.000958 -0.006322 0.003018 0.020266
#
#
# Mechanical properties :
#
#
# Convention : Reuss Voigt Hill
#
# Bulk Modulus (GPa) = 60.54321 92.99352 76.76836
# Shear Modulus (GPa) = 37.10984 48.19644 42.65314
#
# Velocity S-wave (km/s) = 3.77108 4.29763 4.04293
# Velocity P-wave (km/s) = 6.49326 7.76290 7.15629
#
# Compressibility (1/GPa) = 0.01651713
#
# Stress axis : x y z
#
# Youngs Moduli (GPa) = 100.73251 120.35316 61.75384
#
# Poissons Ratio (x) = 0.27012 0.15503
# Poissons Ratio (y) = 0.22609 0.25944
# Poissons Ratio (z) = 0.25289 0.50563
#
# Static dielectric constant tensor:
#      x y z
#    x 2.043400 -0.007080 -0.014540 
#    y -0.007080 2.138190 0.088840 
#    z -0.014540 0.088840 2.272210 
# 
# From -- ./inp_files/2665.got.cif
#   From: 2010.05.17/outbox.cif.g08.bks.cpg/sg2_2_cif.got.tgz:2665.got - 2010.06.03 11:33:40.
