data_PCOD9046076
_publ_section_title
;
Structure prediction by ZEFSAII (Michael W. Deem and Ramdas Pophale) SiO2 
 PCOD9046076
Probable space group: P -1
;
_chemical_formula_sum "Si O2"
_cell_formula_units_Z 15
_cell_length_a 8.576946
_cell_length_b 17.525009
_cell_length_c 12.019983
_cell_angle_alpha 147.333250
_cell_angle_beta 141.213412
_cell_angle_gamma 51.518665
_cell_volume 607.795878
_symmetry_space_group_name_H-M "P -1"
_symmetry_group_IT_number 2
_symmetry_cell_setting 'triclinic'
loop_
_space_group_symop_operation_xyz
x,y,z
-x,-y,-z
loop_
_atom_site_type_symbol
_atom_site_label
_atom_site_fract_x
_atom_site_fract_y
_atom_site_fract_z
Si Si1 0.000000 0.500000 0.500000
Si Si2 0.464070 0.882862 0.513568
Si Si3 0.868843 0.246991 0.010592
Si Si4 0.733307 0.619406 0.295928
Si Si5 0.454190 0.784012 0.796399
Si Si6 0.579823 0.783722 0.116237
Si Si7 0.034774 0.631880 0.261937
Si Si8 0.255300 0.062704 0.043412
O O1 0.850829 0.598958 0.455521
O O2 0.045602 0.391417 0.286692
O O3 0.217691 0.805006 0.222865
O O4 0.659534 0.781427 0.446414
O O5 0.452770 0.048662 0.682155
O O6 0.532097 0.883445 0.682361
O O7 0.641706 0.291724 0.020165
O O8 0.992760 0.122638 0.990255
O O9 0.921754 0.594418 0.273011
O O10 0.500000 0.500000 0.000000
O O11 0.324307 0.675653 0.502672
O O12 0.245728 0.894243 0.836724
O O13 0.531088 0.739117 0.906069
O O14 0.668104 0.879964 0.966306
O O15 0.855459 0.746903 0.256723
O O16 0.000000 0.500000 0.000000
#
# Coordination Sequence:
#
# PCOD9046076 Si02
#       8
#     1   2   2   2   2   2   2   2
#     4  12  24  38  62 102 132 174 222 272 336 398
#     4  11  23  41  75 101 136 170 230 293 336 395
#     4  12  23  39  71  99 136 175 229 283 335 402
#     4  12  25  45  68 102 138 178 231 281 339 404
#     4  10  25  45  65  98 144 175 228 270 343 412
#     4  11  25  45  70 107 131 178 230 286 346 398
#     4  12  28  46  71  99 142 185 222 280 344 415
#     4  10  24  42  67 102 134 183 220 282 337 402
#
# _framework density 24.679338000000001
#
# number of rings (size 3 to 8) (size 9 to 14) (size 15 to 20)
#    0.000    0.800    4.000    2.000    3.733    4.800 
#    0.000    4.000    0.000    0.000    0.000    0.000 
#    0.000    0.000    0.000    0.000    0.000    0.000 
#
# Total GULP energy -83570.252042 kJ/mol
# GULP energy per Si atom -5571.350136 kJ/mol
# Density = 2.462317 g / cm^3
# Si number density = 24.679338 Si / 1000 Ang^3
#
#
#
# Elastic Constant Matrix: (Units=GPa)
#
#
# Indices 1 2 3 4 5 6 
#
# 1 56.2980 13.7165 14.5926 -7.2857 -7.1308 12.0043
# 2 13.7165 126.7983 36.7562 -20.3421 -13.6700 5.8215
# 3 14.5926 36.7562 115.1970 -21.8197 -38.5217 5.2962
# 4 -7.2857 -20.3421 -21.8197 47.7942 0.9801 -11.5694
# 5 -7.1308 -13.6700 -38.5217 0.9801 31.8903 -4.7774
# 6 12.0043 5.8215 5.2962 -11.5694 -4.7774 27.6289
#
#
#
# Elastic Compliance Matrix: (Units=1/GPa)
#
#
# Indices 1 2 3 4 5 6 
#
# 1 0.020310 -0.001310 -0.001477 -0.000129 0.000978 -0.008150
# 2 -0.001310 0.009145 -0.001672 0.003018 0.001591 0.000501
# 3 -0.001477 -0.001672 0.017535 0.007717 0.020559 0.004419
# 4 -0.000129 0.003018 0.007717 0.028329 0.011482 0.011789
# 5 0.000978 0.001591 0.020559 0.011482 0.058264 0.010181
# 6 -0.008150 0.000501 0.004419 0.011789 0.010181 0.045479
#
#
# Mechanical properties :
#
#
# Convention : Reuss Voigt Hill
#
# Bulk Modulus (GPa) = 26.26583 47.60264 36.93423
# Shear Modulus (GPa) = 24.91649 37.01123 30.96386
#
# Velocity S-wave (km/s) = 3.18088 3.87678 3.54594
# Velocity P-wave (km/s) = 4.91494 6.27452 5.63587
#
# Compressibility (1/GPa) = 0.03807228
#
# Stress axis : x y z
#
# Youngs Moduli (GPa) = 49.23757 109.34358 57.03030
#
# Poissons Ratio (x) = 0.14321 0.08425
# Poissons Ratio (y) = 0.06449 0.09533
# Poissons Ratio (z) = 0.07274 0.18278
#
# Static dielectric constant tensor:
#      x y z
#    x 1.967890 -0.062050 0.117110 
#    y -0.062050 2.038190 -0.012340 
#    z 0.117110 -0.012340 2.247590 
# 
# From -- ./inp_files/403672.got.cif
#   From: 2010.05.17/outbox.cif.g08.bks.cpg/sg2_202_cif.got.tgz:403672.got - 2010.06.03 11:33:40.
