data_PCOD9046911
_publ_section_title
;
Structure prediction by ZEFSAII (Michael W. Deem and Ramdas Pophale) SiO2 
 PCOD9046911
Probable space group: P -1
;
_chemical_formula_sum "Si O2"
_cell_formula_units_Z 14
_cell_length_a 12.700081
_cell_length_b 5.169739
_cell_length_c 10.706208
_cell_angle_alpha 116.851032
_cell_angle_beta 119.759666
_cell_angle_gamma 73.632986
_cell_volume 542.923110
_symmetry_space_group_name_H-M "P -1"
_symmetry_group_IT_number 2
_symmetry_cell_setting 'triclinic'
loop_
_space_group_symop_operation_xyz
x,y,z
-x,-y,-z
loop_
_atom_site_type_symbol
_atom_site_label
_atom_site_fract_x
_atom_site_fract_y
_atom_site_fract_z
Si Si1 0.348179 0.291849 0.769624
Si Si2 0.528286 0.788372 0.652179
Si Si3 0.107902 0.299143 0.763404
Si Si4 0.033807 0.244682 0.367548
Si Si5 0.763228 0.980883 0.721943
Si Si6 0.143058 0.397493 0.076908
Si Si7 0.466131 0.317670 0.100494
O O1 0.209453 0.239293 0.703292
O O2 0.407551 0.531460 0.772666
O O3 0.417633 0.003671 0.686753
O O4 0.387170 0.431700 0.959785
O O5 0.500000 0.500000 0.500000
O O6 0.621362 0.954149 0.657792
O O7 0.592258 0.696457 0.801617
O O8 0.043857 0.618794 0.766927
O O9 0.174427 0.286009 0.932557
O O10 0.013159 0.051225 0.669107
O O11 0.172315 0.201992 0.393097
O O12 0.000000 0.500000 0.500000
O O13 0.828345 0.845722 0.855230
O O14 0.796496 0.306396 0.790175
O O15 0.000000 0.500000 0.000000
O O16 0.500000 0.000000 0.000000
#
# Coordination Sequence:
#
# PCOD9046911 Si02
#       7
#     2   2   2   2   2   2   2
#     4  10  24  43  69 103 134 183 233 292 351 414
#     4  11  27  45  68 101 141 193 236 284 354 425
#     4  12  26  43  76 102 138 181 234 291 349 430
#     4  12  27  47  68 102 140 190 229 282 356 420
#     4  12  26  46  72 103 146 181 231 302 345 419
#     4  12  23  46  73 109 138 177 238 293 365 408
#     4   9  21  43  66  98 136 177 232 286 350 405
#
# _framework density 25.786342000000001
#
# number of rings (size 3 to 8) (size 9 to 14) (size 15 to 20)
#    0.000    0.857    2.857    2.571   14.000    0.571 
#    0.000    0.000    0.000    0.000    0.000    0.000 
#    0.000    0.000    0.000    0.000    0.000    0.000 
#
# Total GULP energy -78258.843602 kJ/mol
# GULP energy per Si atom -5589.917400 kJ/mol
# Density = 2.572765 g / cm^3
# Si number density = 25.786342 Si / 1000 Ang^3
#
#
#
# Elastic Constant Matrix: (Units=GPa)
#
#
# Indices 1 2 3 4 5 6 
#
# 1 202.0307 20.9133 24.2665 14.8755 -25.8964 10.8950
# 2 20.9133 89.4057 3.9947 11.7524 -2.5794 5.0954
# 3 24.2665 3.9947 110.1575 4.1746 -30.7072 5.9034
# 4 14.8755 11.7524 4.1746 45.0726 6.9142 3.1923
# 5 -25.8964 -2.5794 -30.7072 6.9142 44.5754 2.5834
# 6 10.8950 5.0954 5.9034 3.1923 2.5834 40.9342
#
#
#
# Elastic Compliance Matrix: (Units=1/GPa)
#
#
# Indices 1 2 3 4 5 6 
#
# 1 0.005753 -0.000874 -0.000053 -0.002124 0.003671 -0.001481
# 2 -0.000874 0.011843 0.000149 -0.002857 0.000787 -0.001090
# 3 -0.000053 0.000149 0.011638 -0.002253 0.008463 -0.002041
# 4 -0.002124 -0.002857 -0.002253 0.024903 -0.006799 -0.000267
# 5 0.003671 0.000787 0.008463 -0.006799 0.031715 -0.003767
# 6 -0.001481 -0.001090 -0.002041 -0.000267 -0.003767 0.025512
#
#
# Mechanical properties :
#
#
# Convention : Reuss Voigt Hill
#
# Bulk Modulus (GPa) = 36.12769 55.54921 45.83845
# Shear Modulus (GPa) = 40.93453 49.61106 45.27280
#
# Velocity S-wave (km/s) = 3.98860 4.39102 4.19464
# Velocity P-wave (km/s) = 5.93740 6.87728 6.42455
#
# Compressibility (1/GPa) = 0.02767960
#
# Stress axis : x y z
#
# Youngs Moduli (GPa) = 173.81177 84.43759 85.92522
#
# Poissons Ratio (x) = 0.07379 0.00451
# Poissons Ratio (y) = 0.15189 -0.01280
# Poissons Ratio (z) = 0.00913 -0.01258
#
# Static dielectric constant tensor:
#      x y z
#    x 2.285150 0.011640 0.020720 
#    y 0.011640 2.152570 -0.182610 
#    z 0.020720 -0.182610 2.166500 
# 
# From -- ./inp_files/411387.got.cif
#   From: 2010.05.17/outbox.cif.g08.bks.cpg/sg2_206_cif.got.tgz:411387.got - 2010.06.03 11:33:40.
