data_PCOD9046075
_publ_section_title
;
Structure prediction by ZEFSAII (Michael W. Deem and Ramdas Pophale) SiO2 
 PCOD9046075
Probable space group: P -1
;
_chemical_formula_sum "Si O2"
_cell_formula_units_Z 14
_cell_length_a 11.882844
_cell_length_b 4.945362
_cell_length_c 13.755571
_cell_angle_alpha 111.294881
_cell_angle_beta 44.285544
_cell_angle_gamma 104.323687
_cell_volume 525.780451
_symmetry_space_group_name_H-M "P -1"
_symmetry_group_IT_number 2
_symmetry_cell_setting 'triclinic'
loop_
_space_group_symop_operation_xyz
x,y,z
-x,-y,-z
loop_
_atom_site_type_symbol
_atom_site_label
_atom_site_fract_x
_atom_site_fract_y
_atom_site_fract_z
Si Si1 0.842668 0.579831 0.225746
Si Si2 0.429326 0.410447 0.134196
Si Si3 0.056277 0.115442 0.123194
Si Si4 0.763619 0.032471 0.706225
Si Si5 0.651381 0.749638 0.175066
Si Si6 0.029283 0.724608 0.598542
Si Si7 0.327040 0.088423 0.458309
O O1 0.745837 0.624388 0.192469
O O2 0.723949 0.674288 0.399646
O O3 0.921591 0.266833 0.156749
O O4 0.991937 0.802507 0.153770
O O5 0.355514 0.099112 0.156916
O O6 0.557938 0.490805 0.146370
O O7 0.287258 0.653869 0.258763
O O8 0.500000 0.500000 0.000000
O O9 0.052022 0.307553 0.249721
O O10 0.225429 0.126545 0.965001
O O11 0.730222 0.835645 0.605993
O O12 0.936979 0.003865 0.643068
O O13 0.512638 0.982800 0.324442
O O14 0.000000 0.500000 0.500000
O O15 0.210418 0.820277 0.521510
#
# Coordination Sequence:
#
# PCOD9046075 Si02
#       7
#     2   2   2   2   2   2   2
#     4  11  25  47  68  96 133 179 225 272 333 402
#     4  11  25  42  65 100 135 171 216 271 336 393
#     4  11  26  44  70  99 132 177 228 274 330 398
#     4  11  23  41  65  96 132 174 219 267 324 399
#     4  11  24  45  70  99 135 174 221 283 334 389
#     4  11  22  43  68  98 136 180 221 271 331 402
#     4  10  24  42  67 102 134 175 225 276 333 395
#
# _framework density 26.627085000000001
#
# number of rings (size 3 to 8) (size 9 to 14) (size 15 to 20)
#    0.000    1.143    0.000    5.571    0.000   13.714 
#    0.000    4.286    0.000    0.000    0.000    0.000 
#    0.000    0.000    0.000    0.000    0.000    0.000 
#
# Total GULP energy -78458.081046 kJ/mol
# GULP energy per Si atom -5604.148646 kJ/mol
# Density = 2.656648 g / cm^3
# Si number density = 26.627085 Si / 1000 Ang^3
#
#
#
# Elastic Constant Matrix: (Units=GPa)
#
#
# Indices 1 2 3 4 5 6 
#
# 1 124.0483 11.0651 35.5384 -3.2019 0.3692 -8.9183
# 2 11.0651 76.3678 19.2165 -1.5547 -5.0096 -11.3269
# 3 35.5384 19.2165 207.1140 -17.3171 -2.1169 -4.2203
# 4 -3.2019 -1.5547 -17.3171 33.1465 -5.7527 3.1151
# 5 0.3692 -5.0096 -2.1169 -5.7527 36.1710 -1.9181
# 6 -8.9183 -11.3269 -4.2203 3.1151 -1.9181 36.9632
#
#
#
# Elastic Compliance Matrix: (Units=1/GPa)
#
#
# Indices 1 2 3 4 5 6 
#
# 1 0.008642 -0.000659 -0.001399 -0.000122 -0.000189 0.001724
# 2 -0.000659 0.014228 -0.001099 0.000007 0.002136 0.004186
# 3 -0.001399 -0.001099 0.005402 0.002765 0.000604 -0.000259
# 4 -0.000122 0.000007 0.002765 0.032720 0.005251 -0.002197
# 5 -0.000189 0.002136 0.000604 0.005251 0.028907 0.001735
# 6 0.001724 0.004186 -0.000259 -0.002197 0.001735 0.028998
#
#
# Mechanical properties :
#
#
# Convention : Reuss Voigt Hill
#
# Bulk Modulus (GPa) = 45.54257 59.90781 52.72519
# Shear Modulus (GPa) = 37.72698 44.03682 40.88190
#
# Velocity S-wave (km/s) = 3.76821 4.07115 3.92261
# Velocity P-wave (km/s) = 6.00612 6.68182 6.35296
#
# Compressibility (1/GPa) = 0.02195748
#
# Stress axis : x y z
#
# Youngs Moduli (GPa) = 115.71034 70.28526 185.10539
#
# Poissons Ratio (x) = 0.04635 0.25891
# Poissons Ratio (y) = 0.07631 0.20348
# Poissons Ratio (z) = 0.16185 0.07726
#
# Static dielectric constant tensor:
#      x y z
#    x 2.035750 0.047460 0.007250 
#    y 0.047460 2.111280 0.064640 
#    z 0.007250 0.064640 2.236940 
# 
# From -- ./inp_files/509899.got.cif
#   From: 2010.05.17/outbox.cif.g08.bks.cpg/sg2_255_cif.got.tgz:509899.got - 2010.06.03 11:33:40.
