data_PCOD9046187
_publ_section_title
;
Structure prediction by ZEFSAII (Michael W. Deem and Ramdas Pophale) SiO2 
 PCOD9046187
Probable space group: P -1
;
_chemical_formula_sum "Si O2"
_cell_formula_units_Z 16
_cell_length_a 9.576296
_cell_length_b 11.870835
_cell_length_c 9.380398
_cell_angle_alpha 102.733196
_cell_angle_beta 130.870059
_cell_angle_gamma 79.950760
_cell_volume 785.876063
_symmetry_space_group_name_H-M "P -1"
_symmetry_group_IT_number 2
_symmetry_cell_setting 'triclinic'
loop_
_space_group_symop_operation_xyz
x,y,z
-x,-y,-z
loop_
_atom_site_type_symbol
_atom_site_label
_atom_site_fract_x
_atom_site_fract_y
_atom_site_fract_z
Si Si1 0.861380 0.579317 0.021109
Si Si2 0.451266 0.510539 0.742753
Si Si3 0.020390 0.793765 0.820295
Si Si4 0.572535 0.309179 0.972688
Si Si5 0.125763 0.015765 0.447793
Si Si6 0.961512 0.840689 0.116382
Si Si7 0.934096 0.532630 0.622657
Si Si8 0.639167 0.906826 0.134341
O O1 0.930896 0.706890 0.085337
O O2 0.912004 0.535724 0.199898
O O3 0.648451 0.557038 0.836226
O O4 0.000000 0.500000 0.000000
O O5 0.389399 0.597835 0.852936
O O6 0.278603 0.505238 0.518709
O O7 0.493788 0.384599 0.808160
O O8 0.958101 0.880904 0.677446
O O9 0.936970 0.668163 0.701869
O O10 0.240046 0.763433 0.959987
O O11 0.963426 0.850293 0.949855
O O12 0.433451 0.220453 0.923263
O O13 0.309262 0.050897 0.660724
O O14 0.000000 0.000000 0.500000
O O15 0.133873 0.900873 0.323714
O O16 0.797710 0.899744 0.117282
O O17 0.000000 0.500000 0.500000
O O18 0.500000 0.000000 0.000000
#
# Coordination Sequence:
#
# PCOD9046187 Si02
#       8
#     2   2   2   2   2   2   2   2
#     4  12  24  46  64  99 144 177 220 281 350 398
#     4  11  22  38  64  99 132 181 226 270 331 404
#     4  12  23  44  68  99 135 180 222 285 350 395
#     4  11  20  39  65  95 136 171 222 277 331 398
#     4  10  24  42  68  97 124 177 233 272 338 415
#     4  11  24  45  67  94 139 177 220 286 346 401
#     4  12  24  38  69 101 135 182 230 276 335 409
#     4  11  24  43  68  98 130 173 230 285 336 402
#
# _framework density 20.359442999999999
#
# number of rings (size 3 to 8) (size 9 to 14) (size 15 to 20)
#    0.000    0.750    5.000    3.375    3.500    1.500 
#    0.000    3.750    0.000    0.000    0.000    0.000 
#    0.000    0.000    0.000    0.000    0.000    0.000 
#
# Total GULP energy -89265.533800 kJ/mol
# GULP energy per Si atom -5579.095862 kJ/mol
# Density = 2.031310 g / cm^3
# Si number density = 20.359443 Si / 1000 Ang^3
#
#
#
# Elastic Constant Matrix: (Units=GPa)
#
#
# Indices 1 2 3 4 5 6 
#
# 1 67.6696 17.8175 41.8394 1.0562 -7.9721 -10.6231
# 2 17.8175 99.9969 45.1961 -3.3698 -7.2900 8.8999
# 3 41.8394 45.1961 109.6662 14.7468 -6.7848 2.8526
# 4 1.0562 -3.3698 14.7468 23.0331 1.4737 -4.3645
# 5 -7.9721 -7.2900 -6.7848 1.4737 40.7951 1.5263
# 6 -10.6231 8.8999 2.8526 -4.3645 1.5263 33.8873
#
#
#
# Elastic Compliance Matrix: (Units=1/GPa)
#
#
# Indices 1 2 3 4 5 6 
#
# 1 0.022048 -0.000093 -0.009318 0.006401 0.002195 0.008446
# 2 -0.000093 0.013191 -0.005964 0.005223 0.001247 -0.002375
# 3 -0.009318 -0.005964 0.016909 -0.012132 0.000527 -0.004364
# 4 0.006401 0.005223 -0.012132 0.053423 -0.002086 0.008631
# 5 0.002195 0.001247 0.000527 -0.002086 0.025369 -0.001095
# 6 0.008446 -0.002375 -0.004364 0.008631 -0.001095 0.034309
#
#
# Mechanical properties :
#
#
# Convention : Reuss Voigt Hill
#
# Bulk Modulus (GPa) = 46.73431 54.11540 50.42486
# Shear Modulus (GPa) = 24.61465 31.04176 27.82820
#
# Velocity S-wave (km/s) = 3.48085 3.90896 3.70110
# Velocity P-wave (km/s) = 6.25775 6.85646 6.56393
#
# Compressibility (1/GPa) = 0.02139756
#
# Stress axis : x y z
#
# Youngs Moduli (GPa) = 45.35571 75.81015 59.14010
#
# Poissons Ratio (x) = 0.00705 0.55106
# Poissons Ratio (y) = 0.00422 0.35272
# Poissons Ratio (z) = 0.42262 0.45214
#
# Static dielectric constant tensor:
#      x y z
#    x 1.777060 0.033120 0.028840 
#    y 0.033120 1.724700 0.058990 
#    z 0.028840 0.058990 1.831480 
# 
# From -- ./inp_files/188876.got.cif
#   From: 2010.05.17/outbox.cif.g08.bks.cpg/sg2_95_cif.got.tgz:188876.got - 2010.06.03 11:33:40.
