data_PCOD9046968
_publ_section_title
;
Structure prediction by ZEFSAII (Michael W. Deem and Ramdas Pophale) SiO2 
 PCOD9046968
Probable space group: P -1
;
_chemical_formula_sum "Si O2"
_cell_formula_units_Z 12
_cell_length_a 8.996944
_cell_length_b 7.455550
_cell_length_c 19.903548
_cell_angle_alpha 67.238006
_cell_angle_beta 28.537216
_cell_angle_gamma 55.373252
_cell_volume 502.964398
_symmetry_space_group_name_H-M "P -1"
_symmetry_group_IT_number 2
_symmetry_cell_setting 'triclinic'
loop_
_space_group_symop_operation_xyz
x,y,z
-x,-y,-z
loop_
_atom_site_type_symbol
_atom_site_label
_atom_site_fract_x
_atom_site_fract_y
_atom_site_fract_z
Si Si1 0.584564 0.112411 0.126291
Si Si2 0.413219 0.384937 0.488398
Si Si3 0.102922 0.189204 0.437411
Si Si4 0.767412 0.383296 0.818103
Si Si5 0.700479 0.808245 0.005910
Si Si6 0.738565 0.115465 0.280450
O O1 0.350851 0.158859 0.279045
O O2 0.407711 0.358942 0.123904
O O3 0.570254 0.932576 0.110175
O O4 0.000000 0.000000 0.000000
O O5 0.500000 0.500000 0.500000
O O6 0.733046 0.165642 0.355216
O O7 0.259463 0.570079 0.463385
O O8 0.089140 0.348744 0.645442
O O9 0.341674 0.171473 0.408647
O O10 0.000000 0.000000 0.500000
O O11 0.429600 0.369700 0.924814
O O12 0.993155 0.152243 0.805253
O O13 0.114131 0.744115 0.838647
O O14 0.500000 0.000000 0.000000
#
# Coordination Sequence:
#
# PCOD9046968 Si02
#       6
#     2   2   2   2   2   2
#     4  11  24  47  66 102 138 173 230 274 339 400
#     4  11  25  44  70  98 135 179 231 279 336 401
#     4  11  25  43  67 100 135 180 223 281 334 400
#     4  10  25  42  73  95 134 182 221 277 338 393
#     4  10  24  43  69  99 137 174 224 278 332 404
#     4  11  23  45  65 102 136 175 230 277 336 403
#
# _framework density 23.858547999999999
#
# number of rings (size 3 to 8) (size 9 to 14) (size 15 to 20)
#    0.000    1.333    1.667    2.000   11.667    4.667 
#    0.000    0.000    0.000    0.000    0.000    0.000 
#    0.000    0.000    0.000    0.000    0.000    0.000 
#
# Total GULP energy -67028.733760 kJ/mol
# GULP energy per Si atom -5585.727813 kJ/mol
# Density = 2.380424 g / cm^3
# Si number density = 23.858548 Si / 1000 Ang^3
#
#
#
# Elastic Constant Matrix: (Units=GPa)
#
#
# Indices 1 2 3 4 5 6 
#
# 1 78.0608 13.5445 8.0216 4.9725 -11.8533 18.5385
# 2 13.5445 91.3874 35.3485 -18.2160 -12.8208 13.9016
# 3 8.0216 35.3485 95.4073 -2.1403 -0.5742 13.2837
# 4 4.9725 -18.2160 -2.1403 44.4479 12.2676 -8.2170
# 5 -11.8533 -12.8208 -0.5742 12.2676 41.1581 6.4677
# 6 18.5385 13.9016 13.2837 -8.2170 6.4677 37.1508
#
#
#
# Elastic Compliance Matrix: (Units=1/GPa)
#
#
# Indices 1 2 3 4 5 6 
#
# 1 0.017403 -0.001205 0.000467 -0.006865 0.008480 -0.011395
# 2 -0.001205 0.014791 -0.004874 0.004551 0.003268 -0.002753
# 3 0.000467 -0.004874 0.012672 -0.002046 -0.000065 -0.003382
# 4 -0.006865 0.004551 -0.002046 0.030217 -0.011341 0.011113
# 5 0.008480 0.003268 -0.000065 -0.011341 0.033295 -0.013736
# 6 -0.011395 -0.002753 -0.003382 0.011113 -0.013736 0.039692
#
#
# Mechanical properties :
#
#
# Convention : Reuss Voigt Hill
#
# Bulk Modulus (GPa) = 29.72489 42.07606 35.90047
# Shear Modulus (GPa) = 29.32426 38.41409 33.86917
#
# Velocity S-wave (km/s) = 3.50964 4.01693 3.77182
# Velocity P-wave (km/s) = 5.37673 6.26005 5.83513
#
# Compressibility (1/GPa) = 0.03364184
#
# Stress axis : x y z
#
# Youngs Moduli (GPa) = 57.46196 67.61092 78.91225
#
# Poissons Ratio (x) = 0.08149 -0.03685
# Poissons Ratio (y) = 0.06926 0.38458
# Poissons Ratio (z) = -0.02683 0.32950
#
# Static dielectric constant tensor:
#      x y z
#    x 1.938820 -0.051700 -0.027770 
#    y -0.051700 1.970760 -0.036480 
#    z -0.027770 -0.036480 1.495700 
# 
# From -- ./inp_files/38159.got.cif
#   From: 2010.05.17/outbox.cif.g08.bks.cpg/sg2_20_cif.got.tgz:38159.got - 2010.06.03 11:33:40.
