data_PCOD9046726
_publ_section_title
;
Structure prediction by ZEFSAII (Michael W. Deem and Ramdas Pophale) SiO2 
 PCOD9046726
Probable space group: P -1
;
_chemical_formula_sum "Si O2"
_cell_formula_units_Z 16
_cell_length_a 24.715096
_cell_length_b 15.094410
_cell_length_c 5.103403
_cell_angle_alpha 96.384599
_cell_angle_beta 79.529643
_cell_angle_gamma 159.505641
_cell_volume 645.772057
_symmetry_space_group_name_H-M "P -1"
_symmetry_group_IT_number 2
_symmetry_cell_setting 'triclinic'
loop_
_space_group_symop_operation_xyz
x,y,z
-x,-y,-z
loop_
_atom_site_type_symbol
_atom_site_label
_atom_site_fract_x
_atom_site_fract_y
_atom_site_fract_z
Si Si1 0.284430 0.632372 0.235864
Si Si2 0.076041 0.201642 0.871339
Si Si3 0.681847 0.829574 0.637763
Si Si4 0.624777 0.386504 0.540038
Si Si5 0.139842 0.641714 0.893747
Si Si6 0.345442 0.927295 0.279637
Si Si7 0.489499 0.365563 0.754104
Si Si8 0.999208 0.255041 0.744722
O O1 0.404293 0.747779 0.315769
O O2 0.356331 0.838016 0.182006
O O3 0.143966 0.444796 0.498746
O O4 0.198510 0.445368 0.022678
O O5 0.188769 0.333481 0.589281
O O6 0.949841 0.086220 0.863174
O O7 0.000000 0.000000 0.000000
O O8 0.615060 0.627225 0.610602
O O9 0.649513 0.837600 0.408993
O O10 0.863365 0.095878 0.646095
O O11 0.582680 0.716297 0.932604
O O12 0.574055 0.400326 0.720867
O O13 0.515978 0.218079 0.322284
O O14 0.225293 0.764085 0.576224
O O15 0.064590 0.429337 0.940961
O O16 0.271057 0.859676 0.069108
O O17 0.000000 0.500000 0.000000
#
# Coordination Sequence:
#
# PCOD9046726 Si02
#       8
#     2   2   2   2   2   2   2   2
#     4  10  24  46  66 101 137 184 233 288 354 411
#     4  11  26  43  72 102 139 187 236 292 353 417
#     4  10  24  43  67  92 140 178 225 282 343 412
#     4  11  27  42  71 103 139 182 238 293 345 422
#     4  11  25  44  71 105 141 184 235 287 349 422
#     4  11  25  46  71 103 141 181 235 290 354 414
#     4  10  25  42  64 102 130 181 229 279 344 408
#     4  10  24  43  69 100 137 187 228 293 352 417
#
# _framework density 24.776546
#
# number of rings (size 3 to 8) (size 9 to 14) (size 15 to 20)
#    0.000    1.500    1.250    0.750   12.250    2.500 
#    0.000    0.000    0.000    0.000    0.000    0.000 
#    0.000    0.000    0.000    0.000    0.000    0.000 
#
# Total GULP energy -89603.670955 kJ/mol
# GULP energy per Si atom -5600.229435 kJ/mol
# Density = 2.472015 g / cm^3
# Si number density = 24.776546 Si / 1000 Ang^3
#
#
#
# Elastic Constant Matrix: (Units=GPa)
#
#
# Indices 1 2 3 4 5 6 
#
# 1 129.6088 14.2996 23.3274 -17.3469 -32.6705 4.4745
# 2 14.2996 44.6688 -2.8522 -4.0272 -8.1435 2.4528
# 3 23.3274 -2.8522 82.2160 -0.3158 -8.4543 5.7379
# 4 -17.3469 -4.0272 -0.3158 35.0503 6.0742 11.6545
# 5 -32.6705 -8.1435 -8.4543 6.0742 25.9730 -2.8703
# 6 4.4745 2.4528 5.7379 11.6545 -2.8703 39.2184
#
#
#
# Elastic Compliance Matrix: (Units=1/GPa)
#
#
# Indices 1 2 3 4 5 6 
#
# 1 0.012088 -0.001183 -0.002022 0.003964 0.013114 -0.001228
# 2 -0.001183 0.024262 0.001938 0.001728 0.006154 -0.001729
# 3 -0.002022 0.001938 0.013142 -0.000570 0.002313 -0.001475
# 4 0.003964 0.001728 -0.000570 0.035128 -0.004112 -0.011217
# 5 0.013114 0.006154 0.002313 -0.004112 0.059008 0.003321
# 6 -0.001228 -0.001729 -0.001475 -0.011217 0.003321 0.029539
#
#
# Mechanical properties :
#
#
# Convention : Reuss Voigt Hill
#
# Bulk Modulus (GPa) = 21.29534 36.22702 28.76118
# Shear Modulus (GPa) = 26.12938 34.82959 30.47948
#
# Velocity S-wave (km/s) = 3.25099 3.75340 3.51119
# Velocity P-wave (km/s) = 4.76503 5.78249 5.29824
#
# Compressibility (1/GPa) = 0.04695863
#
# Stress axis : x y z
#
# Youngs Moduli (GPa) = 82.72329 41.21639 76.08928
#
# Poissons Ratio (x) = 0.04877 0.15382
# Poissons Ratio (y) = 0.09789 -0.14743
# Poissons Ratio (z) = 0.16723 -0.07986
#
# Static dielectric constant tensor:
#      x y z
#    x 1.961520 -0.029950 0.038180 
#    y -0.029950 1.983020 0.014610 
#    z 0.038180 0.014610 2.021460 
# 
# From -- ./inp_files/69037.got.cif
#   From: 2010.05.17/outbox.cif.g08.bks.cpg/sg2_35_cif.got.tgz:69037.got - 2010.06.03 11:33:40.
