data_PCOD9046388
_publ_section_title
;
Structure prediction by ZEFSAII (Michael W. Deem and Ramdas Pophale) SiO2 
 PCOD9046388
Probable space group: P -1
;
_chemical_formula_sum "Si O2"
_cell_formula_units_Z 15
_cell_length_a 14.660043
_cell_length_b 14.186451
_cell_length_c 14.542810
_cell_angle_alpha 140.972095
_cell_angle_beta 39.303942
_cell_angle_gamma 161.250084
_cell_volume 601.200037
_symmetry_space_group_name_H-M "P -1"
_symmetry_group_IT_number 2
_symmetry_cell_setting 'triclinic'
loop_
_space_group_symop_operation_xyz
x,y,z
-x,-y,-z
loop_
_atom_site_type_symbol
_atom_site_label
_atom_site_fract_x
_atom_site_fract_y
_atom_site_fract_z
Si Si1 0.973208 0.856668 0.228373
Si Si2 0.573368 0.381965 0.906541
Si Si3 0.544180 0.683625 0.667097
Si Si4 0.562466 0.966884 0.736656
Si Si5 0.000000 0.000000 0.000000
Si Si6 0.561440 0.229608 0.606480
Si Si7 0.941897 0.165512 0.426547
Si Si8 0.973163 0.582696 0.893930
O O1 0.639212 0.518029 0.251710
O O2 0.022412 0.067198 0.310911
O O3 0.068149 0.804544 0.052597
O O4 0.132398 0.998318 0.309554
O O5 0.659789 0.393037 0.748152
O O6 0.742272 0.431630 0.884467
O O7 0.230534 0.097785 0.955219
O O8 0.725442 0.678999 0.022034
O O9 0.500000 0.500000 0.500000
O O10 0.454626 0.745030 0.723930
O O11 0.276342 0.784582 0.778914
O O12 0.757416 0.066582 0.580039
O O13 0.775634 0.272594 0.855793
O O14 0.795200 0.489690 0.545283
O O15 0.500000 0.000000 0.500000
O O16 0.259083 0.019890 0.647082
#
# Coordination Sequence:
#
# PCOD9046388 Si02
#       8
#     2   2   2   2   1   2   2   2
#     4  12  28  48  78 117 152 202 254 331 374 468
#     4  11  25  47  72 105 154 200 250 310 383 446
#     4  12  26  50  80 114 154 196 262 313 395 459
#     4  12  27  48  78 112 152 211 248 323 392 471
#     4  10  24  42  72 100 134 206 248 292 372 448
#     4  12  27  47  74 110 150 198 257 325 373 450
#     4  12  27  47  79 111 151 201 272 308 385 459
#     4  12  28  48  75 115 163 197 259 319 392 454
#
# _framework density 24.950095999999998
#
# number of rings (size 3 to 8) (size 9 to 14) (size 15 to 20)
#    0.000    0.267    1.333    6.400    7.467    5.333 
#    0.000    0.000    0.000    0.000    0.000    0.000 
#    0.000    0.000    0.000    0.000    0.000    0.000 
#
# Total GULP energy -83735.103115 kJ/mol
# GULP energy per Si atom -5582.340208 kJ/mol
# Density = 2.489331 g / cm^3
# Si number density = 24.950096 Si / 1000 Ang^3
#
#
#
# Elastic Constant Matrix: (Units=GPa)
#
#
# Indices 1 2 3 4 5 6 
#
# 1 34.9310 81.2921 71.7372 87.6655 -21.2306 -9.2150
# 2 81.2921 135.4089 21.8110 -31.2825 -18.1599 5.6392
# 3 71.7372 21.8110 129.1659 -4.3450 -13.7318 2.8238
# 4 87.6655 -31.2825 -4.3450 -34.1984 -2.3718 10.5804
# 5 -21.2306 -18.1599 -13.7318 -2.3718 28.4609 5.6743
# 6 -9.2150 5.6392 2.8238 10.5804 5.6743 56.0723
#
#
#
# Elastic Compliance Matrix: (Units=1/GPa)
#
#
# Indices 1 2 3 4 5 6 
#
# 1 0.004886 0.000660 -0.001936 0.011320 0.004424 -0.001750
# 2 0.000660 0.006654 -0.001240 -0.004508 0.003769 -0.000029
# 3 -0.001936 -0.001240 0.009032 -0.005050 0.001674 0.000135
# 4 0.011320 -0.004508 -0.005050 0.004732 0.003257 0.001345
# 5 0.004424 0.003769 0.001674 0.003257 0.042855 -0.004688
# 6 -0.001750 -0.000029 0.000135 0.001345 -0.004688 0.017763
#
#
# Mechanical properties :
#
#
# Convention : Reuss Voigt Hill
#
# Bulk Modulus (GPa) = 64.35327 72.13181 68.24254
# Shear Modulus (GPa) = 52.01005 18.37799 35.19402
#
# Velocity S-wave (km/s) = 4.57065 2.71696 3.75984
# Velocity P-wave (km/s) = 7.32825 6.23023 6.80143
#
# Compressibility (1/GPa) = 0.01553923
#
# Stress axis : x y z
#
# Youngs Moduli (GPa) = 204.65778 150.28618 110.72085
#
# Poissons Ratio (x) = -0.09915 0.21433
# Poissons Ratio (y) = -0.13502 0.13732
# Poissons Ratio (z) = 0.39617 0.18640
#
# Static dielectric constant tensor:
#      x y z
#    x 2.011310 -0.090700 -0.014120 
#    y -0.090700 1.979980 -0.020930 
#    z -0.014120 -0.020930 2.038870 
# 
# From -- ./inp_files/533826.got.cif
#   From: 2010.05.17/outbox.cif.g08.bks.cpg/sg2_267_cif.got.tgz:533826.got - 2010.06.03 11:33:40.
