data_PCOD9046892
_publ_section_title
;
Structure prediction by ZEFSAII (Michael W. Deem and Ramdas Pophale) SiO2 
 PCOD9046892
Probable space group: P -1
;
_chemical_formula_sum "Si O2"
_cell_formula_units_Z 16
_cell_length_a 8.030294
_cell_length_b 19.579145
_cell_length_c 5.037376
_cell_angle_alpha 60.195794
_cell_angle_beta 90.912070
_cell_angle_gamma 112.301692
_cell_volume 620.955078
_symmetry_space_group_name_H-M "P -1"
_symmetry_group_IT_number 2
_symmetry_cell_setting 'triclinic'
loop_
_space_group_symop_operation_xyz
x,y,z
-x,-y,-z
loop_
_atom_site_type_symbol
_atom_site_label
_atom_site_fract_x
_atom_site_fract_y
_atom_site_fract_z
Si Si1 0.988190 0.920537 0.474899
Si Si2 0.373266 0.929980 0.416838
Si Si3 0.244034 0.228680 0.891860
Si Si4 0.564650 0.325687 0.035133
Si Si5 0.601845 0.852445 0.293373
Si Si6 0.880795 0.505743 0.743419
Si Si7 0.828256 0.257966 0.969520
Si Si8 0.937881 0.687856 0.611542
O O1 0.810227 0.897027 0.330331
O O2 0.187087 0.940594 0.315434
O O3 0.932720 0.836461 0.827219
O O4 0.000000 0.000000 0.500000
O O5 0.496906 0.912653 0.226205
O O6 0.290717 0.837865 0.744678
O O7 0.500000 0.000000 0.500000
O O8 0.356583 0.170552 0.955234
O O9 0.193314 0.265653 0.554174
O O10 0.377630 0.309119 0.913034
O O11 0.509582 0.244395 0.394251
O O12 0.707488 0.311989 0.868368
O O13 0.680989 0.424737 0.928311
O O14 0.865713 0.595565 0.636254
O O15 0.000000 0.500000 0.500000
O O16 0.000000 0.500000 0.000000
O O17 0.992498 0.306347 0.097509
O O18 0.885591 0.255812 0.673725
#
# Coordination Sequence:
#
# PCOD9046892 Si02
#       8
#     2   2   2   2   2   2   2   2
#     4  11  22  45  66  99 149 184 243 313 373 441
#     4  11  22  43  70 103 142 190 249 303 370 447
#     4  11  26  44  72 102 145 196 249 306 383 441
#     4  10  24  43  69 101 146 185 245 303 368 442
#     4  10  24  44  68  99 144 196 242 310 372 445
#     4  12  24  43  72 111 147 189 248 312 368 448
#     4  11  24  44  73 101 145 192 245 295 365 452
#     4  12  24  46  74 106 141 198 241 301 378 438
#
# _framework density 25.766760999999999
#
# number of rings (size 3 to 8) (size 9 to 14) (size 15 to 20)
#    0.000    1.000    5.000    0.750    7.000    1.000 
#    0.000    1.875    0.000    0.000    0.000    0.000 
#    0.000    0.000    0.000    0.000    0.000    0.000 
#
# Total GULP energy -89520.770685 kJ/mol
# GULP energy per Si atom -5595.048168 kJ/mol
# Density = 2.570811 g / cm^3
# Si number density = 25.766761 Si / 1000 Ang^3
#
#
#
# Elastic Constant Matrix: (Units=GPa)
#
#
# Indices 1 2 3 4 5 6 
#
# 1 172.6433 61.9930 36.3524 -1.0070 -4.6375 -5.4880
# 2 61.9930 177.0577 32.8861 -17.2648 0.0078 19.6747
# 3 36.3524 32.8861 75.3874 9.2872 2.1186 10.9839
# 4 -1.0070 -17.2648 9.2872 41.7846 -0.2932 0.7669
# 5 -4.6375 0.0078 2.1186 -0.2932 40.2993 2.8892
# 6 -5.4880 19.6747 10.9839 0.7669 2.8892 57.0979
#
#
#
# Elastic Compliance Matrix: (Units=1/GPa)
#
#
# Indices 1 2 3 4 5 6 
#
# 1 0.007283 -0.002263 -0.002817 -0.000164 0.000843 0.001981
# 2 -0.002263 0.007477 -0.002263 0.003583 0.000056 -0.002410
# 3 -0.002817 -0.002263 0.016586 -0.004649 -0.001046 -0.002566
# 4 -0.000164 0.003583 -0.004649 0.026459 0.000470 -0.000735
# 5 0.000843 0.000056 -0.001046 0.000470 0.025042 -0.001011
# 6 0.001981 -0.002410 -0.002566 -0.000735 -0.001011 0.019089
#
#
# Mechanical properties :
#
#
# Convention : Reuss Voigt Hill
#
# Bulk Modulus (GPa) = 60.01699 76.39460 68.20579
# Shear Modulus (GPa) = 40.92496 47.42683 44.17590
#
# Velocity S-wave (km/s) = 3.98965 4.29490 4.14509
# Velocity P-wave (km/s) = 6.67578 7.36938 7.03114
#
# Compressibility (1/GPa) = 0.01666195
#
# Stress axis : x y z
#
# Youngs Moduli (GPa) = 137.31339 133.73455 60.29116
#
# Poissons Ratio (x) = 0.30262 0.16983
# Poissons Ratio (y) = 0.31072 0.13641
# Poissons Ratio (z) = 0.38678 0.30258
#
# Static dielectric constant tensor:
#      x y z
#    x 0.799310 1.050750 -0.767690 
#    y 1.050750 1.189990 0.613800 
#    z -0.767690 0.613800 1.565640 
# 
# From -- ./inp_files/52490.got.cif
#   From: 2010.05.17/outbox.cif.g08.bks.cpg/sg2_27_cif.got.tgz:52490.got - 2010.06.03 11:33:40.
