data_PCOD9046028
_publ_section_title
;
Structure prediction by ZEFSAII (Michael W. Deem and Ramdas Pophale) SiO2 
 PCOD9046028
Probable space group: P -1
;
_chemical_formula_sum "Si O2"
_cell_formula_units_Z 16
_cell_length_a 7.627928
_cell_length_b 20.133398
_cell_length_c 12.232925
_cell_angle_alpha 29.793032
_cell_angle_beta 37.564185
_cell_angle_gamma 52.236090
_cell_volume 551.127669
_symmetry_space_group_name_H-M "P -1"
_symmetry_group_IT_number 2
_symmetry_cell_setting 'triclinic'
loop_
_space_group_symop_operation_xyz
x,y,z
-x,-y,-z
loop_
_atom_site_type_symbol
_atom_site_label
_atom_site_fract_x
_atom_site_fract_y
_atom_site_fract_z
Si Si1 0.338198 0.040030 0.318101
Si Si2 0.154146 0.155286 0.735224
Si Si3 0.915516 0.096370 0.165740
Si Si4 0.742731 0.346070 0.154956
Si Si5 0.419426 0.358165 0.865182
Si Si6 0.498129 0.238446 0.785884
Si Si7 0.030835 0.209470 0.483056
Si Si8 0.584974 0.448818 0.858356
O O1 0.389784 0.191943 0.127570
O O2 0.516972 0.092703 0.043192
O O3 0.000000 0.000000 0.500000
O O4 0.355968 0.944932 0.552060
O O5 0.516077 0.192874 0.502787
O O6 0.091865 0.238373 0.541842
O O7 0.977016 0.170852 0.910716
O O8 0.000000 0.000000 0.000000
O O9 0.988087 0.947329 0.318022
O O10 0.166408 0.200083 0.962447
O O11 0.740110 0.391393 0.963866
O O12 0.076133 0.367280 0.001402
O O13 0.552210 0.434069 0.190403
O O14 0.554899 0.361490 0.667683
O O15 0.668738 0.463925 0.666988
O O16 0.726703 0.252945 0.553578
O O17 0.302418 0.324752 0.138579
#
# Coordination Sequence:
#
# PCOD9046028 Si02
#       8
#     2   2   2   2   2   2   2   2
#     4   8  17  32  51  79 119 147 187 229 285 351
#     4   9  21  34  56  86 115 143 196 248 287 339
#     4  10  17  34  55  80 115 155 193 230 289 340
#     4  10  22  40  62  89 113 150 202 244 285 346
#     4  10  20  38  59  87 118 154 193 236 290 351
#     4   9  20  32  53  84 120 150 187 237 290 348
#     4  10  18  35  56  84 115 149 196 240 287 339
#     4  10  21  39  67  83 112 156 199 242 288 340
#
# _framework density 29.031386000000001
#
# number of rings (size 3 to 8) (size 9 to 14) (size 15 to 20)
#    0.750    1.750    1.250    0.750    1.750    4.000 
#    2.250    1.250    0.000    2.250    0.000    0.000 
#    0.000    0.000    0.000    0.000    0.000    0.000 
#
# Total GULP energy -89178.151807 kJ/mol
# GULP energy per Si atom -5573.634488 kJ/mol
# Density = 2.896531 g / cm^3
# Si number density = 29.031386 Si / 1000 Ang^3
#
#
#
# Elastic Constant Matrix: (Units=GPa)
#
#
# Indices 1 2 3 4 5 6 
#
# 1 141.7749 24.9119 4.6901 5.9733 13.8565 37.3998
# 2 24.9119 119.0454 -8.0242 -6.1096 3.7372 39.4102
# 3 4.6901 -8.0242 84.6761 6.2729 -1.8045 7.4736
# 4 5.9733 -6.1096 6.2729 37.2020 4.8915 3.9435
# 5 13.8565 3.7372 -1.8045 4.8915 25.7369 8.7059
# 6 37.3998 39.4102 7.4736 3.9435 8.7059 54.9918
#
#
#
# Elastic Compliance Matrix: (Units=1/GPa)
#
#
# Indices 1 2 3 4 5 6 
#
# 1 0.008799 0.000060 -0.000018 -0.000445 -0.002785 -0.005552
# 2 0.000060 0.011530 0.001713 0.002409 0.000953 -0.008860
# 3 -0.000018 0.001713 0.012419 -0.001746 0.002011 -0.003096
# 4 -0.000445 0.002409 -0.001746 0.028537 -0.004821 -0.002470
# 5 -0.002785 0.000953 0.002011 -0.004821 0.043149 -0.005548
# 6 -0.005552 -0.008860 -0.003096 -0.002470 -0.005548 0.029786
#
#
# Mechanical properties :
#
#
# Convention : Reuss Voigt Hill
#
# Bulk Modulus (GPa) = 27.58016 43.18354 35.38185
# Shear Modulus (GPa) = 35.01490 45.18072 40.09781
#
# Velocity S-wave (km/s) = 3.47667 3.94924 3.72047
# Velocity P-wave (km/s) = 5.06330 5.97515 5.53803
#
# Compressibility (1/GPa) = 0.03625795
#
# Stress axis : x y z
#
# Youngs Moduli (GPa) = 113.64931 86.73021 80.52484
#
# Poissons Ratio (x) = -0.00521 0.00145
# Poissons Ratio (y) = -0.00682 -0.13795
# Poissons Ratio (z) = 0.00205 -0.14858
#
# Static dielectric constant tensor:
#      x y z
#    x 2.509390 0.142650 0.157440 
#    y 0.142650 2.597020 0.339160 
#    z 0.157440 0.339160 2.566600 
# 
# From -- ./inp_files/437634.got.cif
#   From: 2010.05.17/outbox.cif.g08.bks.cpg/sg2_219_cif.got.tgz:437634.got - 2010.06.03 11:33:40.
