data_PCOD9046569
_publ_section_title
;
Structure prediction by ZEFSAII (Michael W. Deem and Ramdas Pophale) SiO2 
 PCOD9046569
Probable space group: P -1
;
_chemical_formula_sum "Si O2"
_cell_formula_units_Z 16
_cell_length_a 13.118956
_cell_length_b 16.092474
_cell_length_c 23.254197
_cell_angle_alpha 158.357406
_cell_angle_beta 23.815993
_cell_angle_gamma 155.064626
_cell_volume 676.618407
_symmetry_space_group_name_H-M "P -1"
_symmetry_group_IT_number 2
_symmetry_cell_setting 'triclinic'
loop_
_space_group_symop_operation_xyz
x,y,z
-x,-y,-z
loop_
_atom_site_type_symbol
_atom_site_label
_atom_site_fract_x
_atom_site_fract_y
_atom_site_fract_z
Si Si1 0.806150 0.747221 0.361141
Si Si2 0.415475 0.423827 0.897185
Si Si3 0.377804 0.018541 0.185590
Si Si4 0.094405 0.414203 0.335333
Si Si5 0.237010 0.537678 0.681569
Si Si6 0.740957 0.641997 0.620973
Si Si7 0.883913 0.002675 0.875750
Si Si8 0.336902 0.768008 0.250534
O O1 0.831582 0.628926 0.332706
O O2 0.564249 0.533755 0.315546
O O3 0.710666 0.977499 0.565056
O O4 0.103878 0.832581 0.233807
O O5 0.606032 0.460114 0.766125
O O6 0.498849 0.263280 0.798585
O O7 0.446128 0.672399 0.075509
O O8 0.103179 0.275288 0.942804
O O9 0.634948 0.170650 0.190946
O O10 0.293474 0.222463 0.330369
O O11 0.558979 0.939497 0.996838
O O12 0.065265 0.144875 0.192031
O O13 0.000000 0.500000 0.500000
O O14 0.896337 0.458618 0.419665
O O15 0.500000 0.500000 0.500000
O O16 0.967264 0.438240 0.719841
O O17 0.926078 0.864833 0.708695
#
# Coordination Sequence:
#
# PCOD9046569 Si02
#       8
#     2   2   2   2   2   2   2   2
#     4  11  24  40  67  97 132 173 221 273 338 404
#     4  11  25  43  68  97 138 175 223 278 332 405
#     4  11  23  40  68  98 133 172 222 279 341 391
#     4  10  24  43  67  96 130 178 225 272 331 398
#     4  11  23  40  65  96 131 175 219 273 335 403
#     4  10  24  43  64  97 131 175 227 276 333 396
#     4  11  24  43  67  98 132 177 224 278 338 391
#     4  11  23  44  65  99 134 180 219 272 341 393
#
# _framework density 23.647006000000001
#
# number of rings (size 3 to 8) (size 9 to 14) (size 15 to 20)
#    0.000    1.250    2.500    2.250    3.500    4.500 
#    0.000    1.875    0.000    0.000    0.000    0.000 
#    0.000    0.000    0.000    0.000    0.000    0.000 
#
# Total GULP energy -89163.923073 kJ/mol
# GULP energy per Si atom -5572.745192 kJ/mol
# Density = 2.359318 g / cm^3
# Si number density = 23.647006 Si / 1000 Ang^3
#
#
#
# Elastic Constant Matrix: (Units=GPa)
#
#
# Indices 1 2 3 4 5 6 
#
# 1 70.6378 35.8068 25.8207 3.8170 -4.3712 2.1395
# 2 35.8068 146.3516 29.5305 -27.1785 9.9256 3.1735
# 3 25.8207 29.5305 100.7565 -11.9427 -3.1527 -9.3326
# 4 3.8170 -27.1785 -11.9427 48.9842 3.8050 7.4180
# 5 -4.3712 9.9256 -3.1527 3.8050 29.1384 -3.4570
# 6 2.1395 3.1735 -9.3326 7.4180 -3.4570 30.9390
#
#
#
# Elastic Compliance Matrix: (Units=1/GPa)
#
#
# Indices 1 2 3 4 5 6 
#
# 1 0.018807 -0.005221 -0.003808 -0.005673 0.004928 -0.000003
# 2 -0.005221 0.010048 -0.001303 0.006594 -0.005596 -0.003269
# 3 -0.003808 -0.001303 0.011882 0.001804 0.001362 0.003701
# 4 -0.005673 0.006594 0.001804 0.026560 -0.007190 -0.006911
# 5 0.004928 -0.005596 0.001362 -0.007190 0.038847 0.006709
# 6 -0.000003 -0.003269 0.003701 -0.006911 0.006709 0.036180
#
#
# Mechanical properties :
#
#
# Convention : Reuss Voigt Hill
#
# Bulk Modulus (GPa) = 49.81843 55.56240 52.69041
# Shear Modulus (GPa) = 29.46748 36.91818 33.19283
#
# Velocity S-wave (km/s) = 3.53390 3.95551 3.75064
# Velocity P-wave (km/s) = 6.14529 6.66401 6.40990
#
# Compressibility (1/GPa) = 0.02007289
#
# Stress axis : x y z
#
# Youngs Moduli (GPa) = 53.17290 99.52178 84.16068
#
# Poissons Ratio (x) = 0.51956 0.32048
# Poissons Ratio (y) = 0.27759 0.10970
# Poissons Ratio (z) = 0.20248 0.12972
#
# Static dielectric constant tensor:
#      x y z
#    x 2.204550 0.034910 0.651330 
#    y 0.034910 1.873290 0.028100 
#    z 0.651330 0.028100 3.552380 
# 
# From -- ./inp_files/619754.got.cif
#   From: 2010.05.17/outbox.cif.g08.bks.cpg/sg2_310_cif.got.tgz:619754.got - 2010.06.03 11:33:40.
