data_PCOD9046613
_publ_section_title
;
Structure prediction by ZEFSAII (Michael W. Deem and Ramdas Pophale) SiO2 
 PCOD9046613
Probable space group: P -1
;
_chemical_formula_sum "Si O2"
_cell_formula_units_Z 14
_cell_length_a 10.366321
_cell_length_b 10.919724
_cell_length_c 17.568334
_cell_angle_alpha 52.795419
_cell_angle_beta 161.804033
_cell_angle_gamma 125.711537
_cell_volume 494.273984
_symmetry_space_group_name_H-M "P -1"
_symmetry_group_IT_number 2
_symmetry_cell_setting 'triclinic'
loop_
_space_group_symop_operation_xyz
x,y,z
-x,-y,-z
loop_
_atom_site_type_symbol
_atom_site_label
_atom_site_fract_x
_atom_site_fract_y
_atom_site_fract_z
Si Si1 0.079422 0.297640 0.422599
Si Si2 0.550318 0.542427 0.670518
Si Si3 0.829931 0.991519 0.753017
Si Si4 0.804467 0.222009 0.139294
Si Si5 0.264258 0.119603 0.744145
Si Si6 0.300787 0.338205 0.139610
Si Si7 0.925370 0.181695 0.866564
O O1 0.184465 0.473124 0.439511
O O2 0.052255 0.204905 0.522881
O O3 0.487334 0.226130 0.638903
O O4 0.766290 0.278580 0.183638
O O5 0.419862 0.579861 0.669751
O O6 0.850140 0.671425 0.750466
O O7 0.861454 0.399194 0.900324
O O8 0.888253 0.152939 0.767530
O O9 0.500000 0.000000 0.500000
O O10 0.653435 0.840493 0.753780
O O11 0.287104 0.937726 0.009693
O O12 0.943578 0.045962 0.290566
O O13 0.396968 0.214108 0.859350
O O14 0.232808 0.321469 0.016788
O O15 0.000000 0.000000 0.000000
#
# Coordination Sequence:
#
# PCOD9046613 Si02
#       7
#     2   2   2   2   2   2   2
#     4  11  20  36  57  84 110 146 186 224 275 324
#     4  10  17  34  56  81 113 137 181 228 269 330
#     4  11  19  33  55  82 108 141 188 230 265 322
#     4  11  22  33  55  84 112 149 177 221 287 331
#     4  11  21  37  52  82 120 138 179 236 274 319
#     4   9  17  32  55  79 104 142 180 226 278 304
#     4   9  16  29  51  76 102 137 179 225 261 306
#
# _framework density 28.324369999999998
#
# number of rings (size 3 to 8) (size 9 to 14) (size 15 to 20)
#    0.000    1.714    5.714    2.571    0.000    0.000 
#    0.000    0.000    0.000    4.286    0.000    0.000 
#    0.000    0.000    0.000    0.000    0.000    0.000 
#
# Total GULP energy -78146.717079 kJ/mol
# GULP energy per Si atom -5581.908363 kJ/mol
# Density = 2.825990 g / cm^3
# Si number density = 28.324370 Si / 1000 Ang^3
#
#
#
# Elastic Constant Matrix: (Units=GPa)
#
#
# Indices 1 2 3 4 5 6 
#
# 1 119.4315 69.0723 76.5119 35.4755 -35.1597 -12.5491
# 2 69.0723 185.5177 70.8711 42.0737 -38.1171 -16.3098
# 3 76.5119 70.8711 121.9091 33.0124 -39.3134 -25.1976
# 4 35.4755 42.0737 33.0124 63.9840 -27.1817 -28.8881
# 5 -35.1597 -38.1171 -39.3134 -27.1817 63.6858 13.1244
# 6 -12.5491 -16.3098 -25.1976 -28.8881 13.1244 67.9706
#
#
#
# Elastic Compliance Matrix: (Units=1/GPa)
#
#
# Indices 1 2 3 4 5 6 
#
# 1 0.015824 -0.001932 -0.007714 -0.003897 0.001644 -0.002375
# 2 -0.001932 0.007794 -0.002377 -0.002669 0.001140 -0.000722
# 3 -0.007714 -0.002377 0.016227 0.000750 0.003917 0.003583
# 4 -0.003897 -0.002669 0.000750 0.025539 0.005832 0.008646
# 5 0.001644 0.001140 0.003917 0.005832 0.022152 0.000231
# 6 -0.002375 -0.000722 0.003583 0.008646 0.000231 0.019059
#
#
# Mechanical properties :
#
#
# Convention : Reuss Voigt Hill
#
# Bulk Modulus (GPa) = 63.29456 95.52987 79.41221
# Shear Modulus (GPa) = 36.78985 53.15495 44.97240
#
# Velocity S-wave (km/s) = 3.60790 4.33673 3.98900
# Velocity P-wave (km/s) = 6.30482 7.67311 7.02237
#
# Compressibility (1/GPa) = 0.01579915
#
# Stress axis : x y z
#
# Youngs Moduli (GPa) = 63.19467 128.30584 61.62661
#
# Poissons Ratio (x) = 0.24789 0.47537
# Poissons Ratio (y) = 0.12209 0.14649
# Poissons Ratio (z) = 0.48746 0.30500
#
# Static dielectric constant tensor:
#      x y z
#    x 2.468800 0.012870 -0.357310 
#    y 0.012870 2.202620 0.121470 
#    z -0.357310 0.121470 3.060730 
# 
# From -- ./inp_files/442810.got.cif
#   From: 2010.05.17/outbox.cif.g08.bks.cpg/sg2_222_cif.got.tgz:442810.got - 2010.06.03 11:33:40.
