data_PCOD9046016
_publ_section_title
;
Structure prediction by ZEFSAII (Michael W. Deem and Ramdas Pophale) SiO2 
 PCOD9046016
Probable space group: P -1
;
_chemical_formula_sum "Si O2"
_cell_formula_units_Z 14
_cell_length_a 8.215313
_cell_length_b 13.413629
_cell_length_c 8.747553
_cell_angle_alpha 56.497401
_cell_angle_beta 74.297475
_cell_angle_gamma 111.792741
_cell_volume 588.983004
_symmetry_space_group_name_H-M "P -1"
_symmetry_group_IT_number 2
_symmetry_cell_setting 'triclinic'
loop_
_space_group_symop_operation_xyz
x,y,z
-x,-y,-z
loop_
_atom_site_type_symbol
_atom_site_label
_atom_site_fract_x
_atom_site_fract_y
_atom_site_fract_z
Si Si1 0.480452 0.880454 0.490049
Si Si2 0.963372 0.823555 0.316244
Si Si3 0.993314 0.627472 0.812914
Si Si4 0.597386 0.322338 0.042410
Si Si5 0.868172 0.814897 0.700416
Si Si6 0.200919 0.686340 0.282291
Si Si7 0.333621 0.149109 0.812101
O O1 0.473261 0.765148 0.703749
O O2 0.655557 0.935778 0.266401
O O3 0.237824 0.765880 0.570055
O O4 0.500000 0.000000 0.500000
O O5 0.874984 0.782576 0.546186
O O6 0.763580 0.772080 0.297701
O O7 0.092256 0.761968 0.291092
O O8 0.152579 0.012487 0.089132
O O9 0.957002 0.733654 0.825560
O O10 0.784141 0.507429 0.859657
O O11 0.000000 0.500000 0.000000
O O12 0.367789 0.271044 0.089001
O O13 0.702187 0.270161 0.951810
O O14 0.000000 0.000000 0.500000
O O15 0.419442 0.741308 0.273005
O O16 0.000000 0.500000 0.500000
#
# Coordination Sequence:
#
# PCOD9046016 Si02
#       7
#     2   2   2   2   2   2   2
#     4  11  21  41  69 101 135 177 237 292 345 423
#     4  11  25  45  72 100 146 184 236 295 360 421
#     4  10  24  42  66 103 142 182 224 296 363 416
#     4  11  23  43  66 101 139 180 233 287 355 420
#     4  12  23  43  73 106 138 183 243 297 349 423
#     4  12  26  47  69 101 143 188 234 292 364 429
#     4  11  24  45  70 102 143 187 234 292 360 422
#
# _framework density 23.769784000000001
#
# number of rings (size 3 to 8) (size 9 to 14) (size 15 to 20)
#    0.000    0.857    1.429    6.000    0.000    0.571 
#    7.714    0.000    0.000    0.000    0.000    0.000 
#    0.000    0.000    0.000    0.000    0.000    0.000 
#
# Total GULP energy -78116.118960 kJ/mol
# GULP energy per Si atom -5579.722783 kJ/mol
# Density = 2.371568 g / cm^3
# Si number density = 23.769784 Si / 1000 Ang^3
#
#
#
# Elastic Constant Matrix: (Units=GPa)
#
#
# Indices 1 2 3 4 5 6 
#
# 1 164.5422 60.2898 33.5937 -25.4903 -13.4803 -15.9904
# 2 60.2898 90.4200 45.0458 -9.1588 0.4187 -12.4522
# 3 33.5937 45.0458 73.1293 7.6515 -7.2317 -4.9429
# 4 -25.4903 -9.1588 7.6515 34.9090 -9.4524 -6.6966
# 5 -13.4803 0.4187 -7.2317 -9.4524 42.2251 -3.7119
# 6 -15.9904 -12.4522 -4.9429 -6.6966 -3.7119 40.9565
#
#
#
# Elastic Compliance Matrix: (Units=1/GPa)
#
#
# Indices 1 2 3 4 5 6 
#
# 1 0.010456 -0.004278 -0.002300 0.009371 0.005483 0.004533
# 2 -0.004278 0.020466 -0.011094 0.004857 -0.002045 0.003822
# 3 -0.002300 -0.011094 0.022463 -0.009913 0.000730 -0.003115
# 4 0.009371 0.004857 -0.009913 0.044643 0.012325 0.012355
# 5 0.005483 -0.002045 0.000730 0.012325 0.028886 0.006240
# 6 0.004533 0.003822 -0.003115 0.012355 0.006240 0.029558
#
#
# Mechanical properties :
#
#
# Convention : Reuss Voigt Hill
#
# Bulk Modulus (GPa) = 55.42481 67.32778 61.37629
# Shear Modulus (GPa) = 25.27431 36.22894 30.75162
#
# Velocity S-wave (km/s) = 3.26436 3.90828 3.60074
# Velocity P-wave (km/s) = 6.12993 6.98231 6.56996
#
# Compressibility (1/GPa) = 0.01804246
#
# Stress axis : x y z
#
# Youngs Moduli (GPa) = 95.64006 48.86067 44.51709
#
# Poissons Ratio (x) = 0.20902 0.10239
# Poissons Ratio (y) = 0.40913 0.49386
# Poissons Ratio (z) = 0.21997 0.54205
#
# Static dielectric constant tensor:
#      x y z
#    x 2.165570 0.042450 0.090100 
#    y 0.042450 1.948430 0.017670 
#    z 0.090100 0.017670 1.926200 
# 
# From -- ./inp_files/184962.got.cif
#   From: 2010.05.17/outbox.cif.g08.bks.cpg/sg2_93_cif.got.tgz:184962.got - 2010.06.03 11:33:40.
