data_PCOD9046967
_publ_section_title
;
Structure prediction by ZEFSAII (Michael W. Deem and Ramdas Pophale) SiO2 
 PCOD9046967
Probable space group: P -1
;
_chemical_formula_sum "Si O2"
_cell_formula_units_Z 14
_cell_length_a 9.200752
_cell_length_b 21.127003
_cell_length_c 20.317943
_cell_angle_alpha 21.039589
_cell_angle_beta 150.586698
_cell_angle_gamma 149.608969
_cell_volume 668.263961
_symmetry_space_group_name_H-M "P -1"
_symmetry_group_IT_number 2
_symmetry_cell_setting 'triclinic'
loop_
_space_group_symop_operation_xyz
x,y,z
-x,-y,-z
loop_
_atom_site_type_symbol
_atom_site_label
_atom_site_fract_x
_atom_site_fract_y
_atom_site_fract_z
Si Si1 0.852370 0.085132 0.537082
Si Si2 0.234639 0.006722 0.645512
Si Si3 0.801604 0.388095 0.969620
Si Si4 0.298101 0.597852 0.565597
Si Si5 0.118105 0.490060 0.392066
Si Si6 0.383058 0.173026 0.762709
Si Si7 0.847966 0.490692 0.138700
O O1 0.864529 0.289085 0.321455
O O2 0.014742 0.000284 0.627525
O O3 0.067257 0.091549 0.678570
O O4 0.500000 0.000000 0.500000
O O5 0.520675 0.189427 0.581698
O O6 0.000000 0.000000 0.500000
O O7 0.339677 0.822834 0.861550
O O8 0.542774 0.486688 0.757011
O O9 0.992234 0.389421 0.976312
O O10 0.000000 0.500000 0.000000
O O11 0.000000 0.500000 0.500000
O O12 0.178036 0.570713 0.619659
O O13 0.291073 0.328029 0.621866
O O14 0.353011 0.686637 0.313381
O O15 0.014447 0.521233 0.246181
O O16 0.500000 0.000000 0.000000
O O17 0.500000 0.500000 0.000000
#
# Coordination Sequence:
#
# PCOD9046967 Si02
#       7
#     2   2   2   2   2   2   2
#     4  11  24  42  67 105 135 173 236 288 344 415
#     4  12  26  45  73 101 141 184 236 291 349 423
#     4  12  25  47  72 101 141 189 234 291 359 422
#     4  12  27  47  71 104 150 185 234 290 356 425
#     4  10  25  44  69  99 139 181 230 287 347 414
#     4  10  24  43  69  99 136 178 228 284 346 413
#     4  11  23  42  71 101 138 181 234 292 347 413
#
# _framework density 20.949805999999999
#
# number of rings (size 3 to 8) (size 9 to 14) (size 15 to 20)
#    0.000    0.857    2.857    2.571   12.000    1.714 
#    0.000    0.000    0.000    0.000    0.000    0.000 
#    0.000    0.000    0.000    0.000    0.000    0.000 
#
# Total GULP energy -78164.191424 kJ/mol
# GULP energy per Si atom -5583.156530 kJ/mol
# Density = 2.090212 g / cm^3
# Si number density = 20.949806 Si / 1000 Ang^3
#
#
#
# Elastic Constant Matrix: (Units=GPa)
#
#
# Indices 1 2 3 4 5 6 
#
# 1 111.3693 49.3436 21.7561 -3.3834 -1.1400 18.7125
# 2 49.3436 161.6078 73.7043 -3.2653 -6.6028 13.6832
# 3 21.7561 73.7043 163.5516 -15.2885 4.5424 9.1964
# 4 -3.3834 -3.2653 -15.2885 41.4353 7.1019 -0.2694
# 5 -1.1400 -6.6028 4.5424 7.1019 27.2616 2.5791
# 6 18.7125 13.6832 9.1964 -0.2694 2.5791 33.6815
#
#
#
# Elastic Compliance Matrix: (Units=1/GPa)
#
#
# Indices 1 2 3 4 5 6 
#
# 1 0.011160 -0.003089 0.000259 0.000738 -0.000043 -0.005007
# 2 -0.003089 0.009087 -0.003849 -0.001516 0.003220 -0.001184
# 3 0.000259 -0.003849 0.008239 0.003285 -0.003096 -0.000567
# 4 0.000738 -0.001516 0.003285 0.026630 -0.007833 0.000121
# 5 -0.000043 0.003220 -0.003096 -0.007833 0.040356 -0.003592
# 6 -0.005007 -0.001184 -0.000567 0.000121 -0.003592 0.033383
#
#
# Mechanical properties :
#
#
# Convention : Reuss Voigt Hill
#
# Bulk Modulus (GPa) = 66.09402 80.68186 73.38794
# Shear Modulus (GPa) = 33.95434 39.92398 36.93916
#
# Velocity S-wave (km/s) = 4.03022 4.37016 4.20363
# Velocity P-wave (km/s) = 7.29891 8.00375 7.65944
#
# Compressibility (1/GPa) = 0.01512996
#
# Stress axis : x y z
#
# Youngs Moduli (GPa) = 89.60357 110.04255 121.37015
#
# Poissons Ratio (x) = 0.33988 -0.03144
# Poissons Ratio (y) = 0.27675 0.46715
# Poissons Ratio (z) = -0.02321 0.42355
#
# Static dielectric constant tensor:
#      x y z
#    x 1.747270 -0.038640 -0.011680 
#    y -0.038640 1.750430 -0.031490 
#    z -0.011680 -0.031490 1.758690 
# 
# From -- ./inp_files/501085.got.cif
#   From: 2010.05.17/outbox.cif.g08.bks.cpg/sg2_251_cif.got.tgz:501085.got - 2010.06.03 11:33:40.
