data_PCOD9046996
_publ_section_title
;
Structure prediction by ZEFSAII (Michael W. Deem and Ramdas Pophale) SiO2 
 PCOD9046996
Probable space group: P -1
;
_chemical_formula_sum "Si O2"
_cell_formula_units_Z 14
_cell_length_a 19.357495
_cell_length_b 9.816115
_cell_length_c 8.085094
_cell_angle_alpha 137.890378
_cell_angle_beta 140.773981
_cell_angle_gamma 43.823075
_cell_volume 611.176998
_symmetry_space_group_name_H-M "P -1"
_symmetry_group_IT_number 2
_symmetry_cell_setting 'triclinic'
loop_
_space_group_symop_operation_xyz
x,y,z
-x,-y,-z
loop_
_atom_site_type_symbol
_atom_site_label
_atom_site_fract_x
_atom_site_fract_y
_atom_site_fract_z
Si Si1 0.954850 0.340479 0.378171
Si Si2 0.468223 0.507439 0.253367
Si Si3 0.235326 0.853426 0.221375
Si Si4 0.812650 0.709128 0.689225
Si Si5 0.594717 0.792584 0.570427
Si Si6 0.665242 0.092513 0.188170
Si Si7 0.896293 0.933759 0.323508
O O1 0.878566 0.495451 0.518698
O O2 0.000000 0.500000 0.500000
O O3 0.062037 0.162755 0.506255
O O4 0.876681 0.220558 0.035497
O O5 0.500000 0.500000 0.500000
O O6 0.332594 0.650898 0.128332
O O7 0.533146 0.636010 0.383917
O O8 0.534070 0.264730 0.092760
O O9 0.289450 0.890827 0.529299
O O10 0.209012 0.074074 0.266712
O O11 0.693751 0.699362 0.534497
O O12 0.883045 0.750780 0.013487
O O13 0.500000 0.000000 0.500000
O O14 0.653111 0.868839 0.905212
O O15 0.766608 0.111621 0.269294
O O16 0.000000 0.000000 0.500000
#
# Coordination Sequence:
#
# PCOD9046996 Si02
#       7
#     2   2   2   2   2   2   2
#     4  12  28  45  73 101 136 185 236 282 342 415
#     4  10  24  43  70 103 139 179 223 277 346 410
#     4  11  24  45  68 106 136 181 231 282 349 405
#     4  11  25  44  71 102 138 179 229 291 339 407
#     4  11  24  44  70 104 136 180 230 276 346 409
#     4  10  26  43  70  97 145 180 223 287 342 405
#     4  11  24  45  68  98 137 179 230 281 345 396
#
# _framework density 22.906621999999999
#
# number of rings (size 3 to 8) (size 9 to 14) (size 15 to 20)
#    0.000    1.143    2.857    1.286    6.000   10.857 
#    0.000    0.000    0.000    0.000    0.000    0.000 
#    0.000    0.000    0.000    0.000    0.000    0.000 
#
# Total GULP energy -78259.829668 kJ/mol
# GULP energy per Si atom -5589.987833 kJ/mol
# Density = 2.285449 g / cm^3
# Si number density = 22.906622 Si / 1000 Ang^3
#
#
#
# Elastic Constant Matrix: (Units=GPa)
#
#
# Indices 1 2 3 4 5 6 
#
# 1 96.5103 8.2675 9.8714 4.0406 5.3080 -14.2084
# 2 8.2675 61.5429 2.2068 -1.8620 -5.1548 -9.5401
# 3 9.8714 2.2068 91.9116 -20.4701 -15.0690 0.9156
# 4 4.0406 -1.8620 -20.4701 20.1161 -8.3548 -2.9738
# 5 5.3080 -5.1548 -15.0690 -8.3548 32.4706 10.5563
# 6 -14.2084 -9.5401 0.9156 -2.9738 10.5563 56.3973
#
#
#
# Elastic Compliance Matrix: (Units=1/GPa)
#
#
# Indices 1 2 3 4 5 6 
#
# 1 0.012661 -0.001991 -0.005393 -0.011413 -0.009142 0.004050
# 2 -0.001991 0.017345 0.002072 0.006510 0.005137 0.001781
# 3 -0.005393 0.002072 0.021856 0.031557 0.020631 -0.003561
# 4 -0.011413 0.006510 0.031557 0.102936 0.045796 -0.005431
# 5 -0.009142 0.005137 0.020631 0.045796 0.057770 -0.010168
# 6 0.004050 0.001781 -0.003561 -0.005431 -0.010168 0.020727
#
#
# Mechanical properties :
#
#
# Convention : Reuss Voigt Hill
#
# Bulk Modulus (GPa) = 24.24988 32.29513 28.27250
# Shear Modulus (GPa) = 19.40503 37.10474 28.25488
#
# Velocity S-wave (km/s) = 2.91372 4.02907 3.51590
# Velocity P-wave (km/s) = 4.68285 5.98112 5.37135
#
# Compressibility (1/GPa) = 0.04123732
#
# Stress axis : x y z
#
# Youngs Moduli (GPa) = 78.98536 57.65280 45.75477
#
# Poissons Ratio (x) = 0.11477 0.24676
# Poissons Ratio (y) = 0.15723 -0.09479
# Poissons Ratio (z) = 0.42597 -0.11943
#
# Static dielectric constant tensor:
#      x y z
#    x 1.820580 -0.029660 -0.014330 
#    y -0.029660 1.827610 -0.027380 
#    z -0.014330 -0.027380 1.847530 
# 
# From -- ./inp_files/46577.got.cif
#   From: 2010.05.17/outbox.cif.g08.bks.cpg/sg2_24_cif.got.tgz:46577.got - 2010.06.03 11:33:40.
