data_PCOD9046428
_publ_section_title
;
Structure prediction by ZEFSAII (Michael W. Deem and Ramdas Pophale) SiO2 
 PCOD9046428
Probable space group: P -1
;
_chemical_formula_sum "Si O2"
_cell_formula_units_Z 16
_cell_length_a 11.002306
_cell_length_b 12.252211
_cell_length_c 9.299537
_cell_angle_alpha 95.746966
_cell_angle_beta 82.657895
_cell_angle_gamma 34.855821
_cell_volume 662.475355
_symmetry_space_group_name_H-M "P -1"
_symmetry_group_IT_number 2
_symmetry_cell_setting 'triclinic'
loop_
_space_group_symop_operation_xyz
x,y,z
-x,-y,-z
loop_
_atom_site_type_symbol
_atom_site_label
_atom_site_fract_x
_atom_site_fract_y
_atom_site_fract_z
Si Si1 0.965028 0.657862 0.547167
Si Si2 0.665268 0.273523 0.775817
Si Si3 0.071526 0.980555 0.824511
Si Si4 0.720180 0.901326 0.015803
Si Si5 0.457603 0.064036 0.680931
Si Si6 0.553450 0.267569 0.087106
Si Si7 0.772614 0.525548 0.241743
Si Si8 0.109696 0.681021 0.261291
O O1 0.973003 0.725524 0.412152
O O2 0.000000 0.500000 0.500000
O O3 0.160909 0.544501 0.612320
O O4 0.715620 0.869921 0.677444
O O5 0.601407 0.318450 0.960991
O O6 0.446241 0.382825 0.754499
O O7 0.720562 0.349758 0.711486
O O8 0.927459 0.026405 0.727757
O O9 0.342144 0.776602 0.780287
O O10 0.006038 0.155434 0.819548
O O11 0.000000 0.000000 0.000000
O O12 0.981476 0.673284 0.902498
O O13 0.671195 0.064104 0.003682
O O14 0.684288 0.910061 0.193788
O O15 0.500000 0.000000 0.000000
O O16 0.323909 0.278988 0.736323
O O17 0.500000 0.000000 0.500000
O O18 0.282252 0.457958 0.150881
#
# Coordination Sequence:
#
# PCOD9046428 Si02
#       8
#     2   2   2   2   2   2   2   2
#     4  12  26  48  74 107 148 203 256 303 372 461
#     4   9  23  43  66 110 146 191 242 309 375 437
#     4   8  20  40  65 102 147 194 245 298 366 450
#     4  12  27  47  74 111 148 198 248 318 390 432
#     4  12  27  48  74 106 150 198 260 309 375 453
#     4  11  22  40  75 104 146 193 250 303 371 451
#     4  12  27  47  76 105 157 193 250 323 372 448
#     4  10  24  42  72 106 150 195 250 299 373 445
#
# _framework density 24.151841999999998
#
# number of rings (size 3 to 8) (size 9 to 14) (size 15 to 20)
#    0.750    0.500    2.500    2.250    3.500    1.500 
#    0.000    0.625    0.000    0.000    0.000    0.000 
#    0.000    0.000    0.000    0.000    0.000    0.000 
#
# Total GULP energy -89100.127917 kJ/mol
# GULP energy per Si atom -5568.757995 kJ/mol
# Density = 2.409687 g / cm^3
# Si number density = 24.151842 Si / 1000 Ang^3
#
#
#
# Elastic Constant Matrix: (Units=GPa)
#
#
# Indices 1 2 3 4 5 6 
#
# 1 155.2676 76.5433 51.0103 7.3254 -5.3798 3.9567
# 2 76.5433 177.0207 42.8483 -16.4196 7.1333 7.1234
# 3 51.0103 42.8483 68.9382 0.6723 -14.4853 10.8061
# 4 7.3254 -16.4196 0.6723 35.9082 -11.7954 18.4359
# 5 -5.3798 7.1333 -14.4853 -11.7954 24.0044 -13.4314
# 6 3.9567 7.1234 10.8061 18.4359 -13.4314 47.7399
#
#
#
# Elastic Compliance Matrix: (Units=1/GPa)
#
#
# Indices 1 2 3 4 5 6 
#
# 1 0.010350 -0.003553 -0.006148 -0.005542 -0.001501 0.002782
# 2 -0.003553 0.008819 -0.003389 0.005026 -0.005009 -0.003604
# 3 -0.006148 -0.003389 0.024858 0.005716 0.016168 -0.002270
# 4 -0.005542 0.005026 0.005716 0.043078 0.013870 -0.014318
# 5 -0.001501 -0.005009 0.016168 0.013870 0.065070 0.010163
# 6 0.002782 -0.003604 -0.002270 -0.014318 0.010163 0.030156
#
#
# Mechanical properties :
#
#
# Convention : Reuss Voigt Hill
#
# Bulk Modulus (GPa) = 56.02729 82.44782 69.23756
# Shear Modulus (GPa) = 23.31445 36.91882 30.11664
#
# Velocity S-wave (km/s) = 3.11034 3.91399 3.53508
# Velocity P-wave (km/s) = 6.01226 7.39169 6.73737
#
# Compressibility (1/GPa) = 0.01784844
#
# Stress axis : x y z
#
# Youngs Moduli (GPa) = 96.61546 113.39620 40.22789
#
# Poissons Ratio (x) = 0.40288 0.24731
# Poissons Ratio (y) = 0.34326 0.13632
# Poissons Ratio (z) = 0.59397 0.38427
#
# Static dielectric constant tensor:
#      x y z
#    x 2.023520 -0.168720 0.029510 
#    y -0.168720 2.184030 0.026710 
#    z 0.029510 0.026710 2.093790 
# 
# From -- ./inp_files/520343.got.cif
#   From: 2010.05.17/outbox.cif.g08.bks.cpg/sg2_261_cif.got.tgz:520343.got - 2010.06.03 11:33:40.
