data_PCOD9046046
_publ_section_title
;
Structure prediction by ZEFSAII (Michael W. Deem and Ramdas Pophale) SiO2 
 PCOD9046046
Probable space group: P -1
;
_chemical_formula_sum "Si O2"
_cell_formula_units_Z 13
_cell_length_a 12.670912
_cell_length_b 9.792871
_cell_length_c 9.440722
_cell_angle_alpha 151.034082
_cell_angle_beta 86.795401
_cell_angle_gamma 98.740273
_cell_volume 553.420402
_symmetry_space_group_name_H-M "P -1"
_symmetry_group_IT_number 2
_symmetry_cell_setting 'triclinic'
loop_
_space_group_symop_operation_xyz
x,y,z
-x,-y,-z
loop_
_atom_site_type_symbol
_atom_site_label
_atom_site_fract_x
_atom_site_fract_y
_atom_site_fract_z
Si Si1 0.396464 0.454470 0.365940
Si Si2 0.564014 0.309063 0.733896
Si Si3 0.000000 0.000000 0.000000
Si Si4 0.757774 0.149640 0.234757
Si Si5 0.102747 0.271589 0.735786
Si Si6 0.797844 0.220192 0.629317
Si Si7 0.938859 0.441640 0.286613
O O1 0.500000 0.500000 0.500000
O O2 0.435330 0.617600 0.365270
O O3 0.300419 0.590369 0.560072
O O4 0.335367 0.132023 0.038638
O O5 0.688145 0.317465 0.767130
O O6 0.500000 0.000000 0.500000
O O7 0.500000 0.500000 0.000000
O O8 0.968767 0.744011 0.896611
O O9 0.963749 0.730236 0.638499
O O10 0.795116 0.173428 0.416931
O O11 0.860097 0.176856 0.145532
O O12 0.108940 0.459671 0.762806
O O13 0.195031 0.085282 0.579715
O O14 0.111813 0.517706 0.078249
O O15 0.000000 0.000000 0.500000
#
# Coordination Sequence:
#
# PCOD9046046 Si02
#       7
#     2   2   1   2   2   2   2
#     4  11  24  43  66 102 135 170 227 282 335 405
#     4  11  23  43  70 100 133 184 223 275 358 419
#     4  10  24  42  66  96 126 170 230 280 328 404
#     4  11  24  44  68  96 132 185 222 275 346 407
#     4  12  27  44  67 104 141 180 235 289 347 397
#     4  11  25  45  67  98 143 179 230 290 341 418
#     4  11  25  43  70  96 134 174 238 270 352 399
#
# _framework density 23.490279999999998
#
# number of rings (size 3 to 8) (size 9 to 14) (size 15 to 20)
#    0.000    0.923    0.000    7.385    6.462    3.692 
#    0.000    0.000    0.000    0.000    0.000    0.000 
#    0.000    0.000    0.000    0.000    0.000    0.000 
#
# Total GULP energy -72478.811748 kJ/mol
# GULP energy per Si atom -5575.293211 kJ/mol
# Density = 2.343681 g / cm^3
# Si number density = 23.490280 Si / 1000 Ang^3
#
#
#
# Elastic Constant Matrix: (Units=GPa)
#
#
# Indices 1 2 3 4 5 6 
#
# 1 80.9955 47.4872 30.5836 -0.2386 8.5614 -9.1003
# 2 47.4872 162.5095 60.7105 17.1689 15.9751 -27.8647
# 3 30.5836 60.7105 204.2653 20.6878 7.7028 -21.0895
# 4 -0.2386 17.1689 20.6878 26.9081 -10.3822 -4.4107
# 5 8.5614 15.9751 7.7028 -10.3822 49.3751 5.0036
# 6 -9.1003 -27.8647 -21.0895 -4.4107 5.0036 51.0098
#
#
#
# Elastic Compliance Matrix: (Units=1/GPa)
#
#
# Indices 1 2 3 4 5 6 
#
# 1 0.015489 -0.004368 -0.001392 0.003927 -0.000246 0.000165
# 2 -0.004368 0.009492 -0.001000 -0.006182 -0.003846 0.003835
# 3 -0.001392 -0.001000 0.006047 -0.004337 -0.001440 0.001471
# 4 0.003927 -0.006182 -0.004337 0.049046 0.012456 -0.001451
# 5 -0.000246 -0.003846 -0.001440 0.012456 0.024799 -0.004096
# 6 0.000165 0.003835 0.001471 -0.001451 -0.004096 0.022613
#
#
# Mechanical properties :
#
#
# Convention : Reuss Voigt Hill
#
# Bulk Modulus (GPa) = 57.11959 80.59254 68.85606
# Shear Modulus (GPa) = 34.04979 46.05788 40.05383
#
# Velocity S-wave (km/s) = 3.81140 4.43281 4.13379
# Velocity P-wave (km/s) = 6.61347 7.78351 7.22223
#
# Compressibility (1/GPa) = 0.01750713
#
# Stress axis : x y z
#
# Youngs Moduli (GPa) = 64.56031 105.34677 165.37741
#
# Poissons Ratio (x) = 0.46020 0.23023
# Poissons Ratio (y) = 0.28203 0.16539
# Poissons Ratio (z) = 0.08988 0.10536
#
# Static dielectric constant tensor:
#      x y z
#    x 1.721050 0.018910 0.137590 
#    y 0.018910 1.916030 -0.037630 
#    z 0.137590 -0.037630 1.790610 
# 
# From -- ./inp_files/297180.got.cif
#   From: 2010.05.17/outbox.cif.g08.bks.cpg/sg2_149_cif.got.tgz:297180.got - 2010.06.03 11:33:40.
