data_PCOD9046607
_publ_section_title
;
Structure prediction by ZEFSAII (Michael W. Deem and Ramdas Pophale) SiO2 
 PCOD9046607
Probable space group: P -1
;
_chemical_formula_sum "Si O2"
_cell_formula_units_Z 16
_cell_length_a 6.957658
_cell_length_b 10.743699
_cell_length_c 15.881646
_cell_angle_alpha 94.765762
_cell_angle_beta 38.508574
_cell_angle_gamma 82.543949
_cell_volume 699.377894
_symmetry_space_group_name_H-M "P -1"
_symmetry_group_IT_number 2
_symmetry_cell_setting 'triclinic'
loop_
_space_group_symop_operation_xyz
x,y,z
-x,-y,-z
loop_
_atom_site_type_symbol
_atom_site_label
_atom_site_fract_x
_atom_site_fract_y
_atom_site_fract_z
Si Si1 0.527783 0.489470 0.332349
Si Si2 0.624811 0.730327 0.394548
Si Si3 0.606948 0.211988 0.347120
Si Si4 0.690557 0.114974 0.646297
Si Si5 0.628869 0.054842 0.162501
Si Si6 0.731444 0.367292 0.730567
Si Si7 0.368226 0.150002 0.085766
Si Si8 0.307234 0.403926 0.025805
O O1 0.456914 0.618862 0.422495
O O2 0.448581 0.367880 0.395225
O O3 0.336954 0.522666 0.311443
O O4 0.918366 0.452133 0.177368
O O5 0.473088 0.817946 0.532581
O O6 0.566407 0.821798 0.336969
O O7 0.987226 0.652230 0.297912
O O8 0.556508 0.127790 0.281108
O O9 0.986558 0.188454 0.212080
O O10 0.814268 0.231074 0.644507
O O11 0.518323 0.063410 0.778608
O O12 0.000000 0.000000 0.500000
O O13 0.457194 0.151594 0.152704
O O14 0.000000 0.000000 0.000000
O O15 0.395254 0.389404 0.896647
O O16 0.461245 0.260366 0.007608
O O17 0.500000 0.000000 0.000000
O O18 0.500000 0.500000 0.000000
#
# Coordination Sequence:
#
# PCOD9046607 Si02
#       8
#     2   2   2   2   2   2   2   2
#     4  10  24  43  65  98 134 173 224 281 337 405
#     4  11  24  44  69  99 130 178 227 276 339 412
#     4  11  25  43  68  96 135 177 221 278 340 409
#     4  11  26  46  68  98 138 179 226 284 342 415
#     4  12  26  41  67 100 132 175 227 275 341 404
#     4  11  24  41  69  97 133 175 224 280 341 404
#     4  11  24  44  66  96 139 178 223 283 345 404
#     4  11  23  41  69  98 135 180 225 282 342 408
#
# _framework density 22.877473999999999
#
# number of rings (size 3 to 8) (size 9 to 14) (size 15 to 20)
#    0.000    1.000    2.500    3.000    5.250    4.500 
#    0.000    0.000    0.000    0.000    0.000    0.000 
#    0.000    0.000    0.000    0.000    0.000    0.000 
#
# Total GULP energy -89417.007650 kJ/mol
# GULP energy per Si atom -5588.562978 kJ/mol
# Density = 2.282540 g / cm^3
# Si number density = 22.877474 Si / 1000 Ang^3
#
#
#
# Elastic Constant Matrix: (Units=GPa)
#
#
# Indices 1 2 3 4 5 6 
#
# 1 96.8241 18.1143 -1.8660 2.8388 4.8643 -21.9702
# 2 18.1143 70.3317 9.1273 0.8998 -5.9351 -20.6301
# 3 -1.8660 9.1273 59.4715 6.5383 12.1090 2.0060
# 4 2.8388 0.8998 6.5383 32.0023 3.7928 9.9060
# 5 4.8643 -5.9351 12.1090 3.7928 38.3669 -1.6869
# 6 -21.9702 -20.6301 2.0060 9.9060 -1.6869 31.2253
#
#
#
# Elastic Compliance Matrix: (Units=1/GPa)
#
#
# Indices 1 2 3 4 5 6 
#
# 1 0.012882 -0.000559 0.000852 -0.004238 -0.001133 0.009923
# 2 -0.000559 0.019772 -0.004147 -0.004898 0.005573 0.014791
# 3 0.000852 -0.004147 0.019186 -0.002134 -0.006728 -0.003059
# 4 -0.004238 -0.004898 -0.002134 0.038414 -0.004157 -0.018492
# 5 -0.001133 0.005573 -0.006728 -0.004157 0.029879 0.006250
# 6 0.009923 0.014791 -0.003059 -0.018492 0.006250 0.055180
#
#
# Mechanical properties :
#
#
# Convention : Reuss Voigt Hill
#
# Bulk Modulus (GPa) = 22.65976 30.81982 26.73979
# Shear Modulus (GPa) = 25.28678 33.73568 29.51123
#
# Velocity S-wave (km/s) = 3.32823 3.84425 3.59551
# Velocity P-wave (km/s) = 4.96949 5.76240 5.38057
#
# Compressibility (1/GPa) = 0.04413110
#
# Stress axis : x y z
#
# Youngs Moduli (GPa) = 77.62885 50.57645 52.12187
#
# Poissons Ratio (x) = 0.02828 -0.04441
# Poissons Ratio (y) = 0.04341 0.21616
# Poissons Ratio (z) = -0.06614 0.20975
#
# Static dielectric constant tensor:
#      x y z
#    x 1.791380 -0.124610 -0.062740 
#    y -0.124610 1.580790 -0.061570 
#    z -0.062740 -0.061570 1.844750 
# 
# From -- ./inp_files/482860.got.cif
#   From: 2010.05.17/outbox.cif.g08.bks.cpg/sg2_242_cif.got.tgz:482860.got - 2010.06.03 11:33:40.
