data_PCOD9046369
_publ_section_title
;
Structure prediction by ZEFSAII (Michael W. Deem and Ramdas Pophale) SiO2 
 PCOD9046369
Probable space group: P -1
;
_chemical_formula_sum "Si O2"
_cell_formula_units_Z 15
_cell_length_a 5.456256
_cell_length_b 11.724151
_cell_length_c 21.684926
_cell_angle_alpha 150.013414
_cell_angle_beta 59.136403
_cell_angle_gamma 117.227886
_cell_volume 594.849824
_symmetry_space_group_name_H-M "P -1"
_symmetry_group_IT_number 2
_symmetry_cell_setting 'triclinic'
loop_
_space_group_symop_operation_xyz
x,y,z
-x,-y,-z
loop_
_atom_site_type_symbol
_atom_site_label
_atom_site_fract_x
_atom_site_fract_y
_atom_site_fract_z
Si Si1 0.288075 0.189861 0.487573
Si Si2 0.619382 0.013426 0.169111
Si Si3 0.496071 0.790522 0.949956
Si Si4 0.089979 0.426085 0.287210
Si Si5 0.851067 0.627914 0.189796
Si Si6 0.510793 0.233739 0.813665
Si Si7 0.500000 0.000000 0.500000
Si Si8 0.281662 0.408470 0.391229
O O1 0.977924 0.302489 0.579002
O O2 0.473386 0.404826 0.538317
O O3 0.359606 0.981480 0.339085
O O4 0.374239 0.124000 0.513946
O O5 0.852109 0.219360 0.224824
O O6 0.340653 0.157997 0.289778
O O7 0.672707 0.857448 0.147452
O O8 0.550746 0.882107 0.053855
O O9 0.220346 0.629493 0.898744
O O10 0.746075 0.625611 0.820114
O O11 0.500000 0.000000 0.000000
O O12 0.263109 0.397964 0.314697
O O13 0.687595 0.644912 0.153180
O O14 0.704280 0.819079 0.342180
O O15 0.192655 0.646623 0.147348
O O16 0.000000 0.500000 0.500000
#
# Coordination Sequence:
#
# PCOD9046369 Si02
#       8
#     2   2   2   2   2   2   1   2
#     4  10  24  42  71 109 147 195 242 316 379 451
#     4  11  26  45  72 106 150 201 250 311 373 447
#     4  12  27  50  75 108 146 201 259 314 373 446
#     4  11  24  43  74 108 147 195 256 311 374 448
#     4  11  29  47  78 111 150 202 248 313 379 458
#     4  11  27  48  74 111 152 198 250 310 388 452
#     4  10  24  44  72 106 152 184 246 306 384 442
#     4  11  22  40  71 107 146 189 248 308 374 442
#
# _framework density 25.216449999999998
#
# number of rings (size 3 to 8) (size 9 to 14) (size 15 to 20)
#    0.000    1.067    1.333    2.800   14.933    5.333 
#    0.000    0.000    0.000    0.000    0.000    0.000 
#    0.000    0.000    0.000    0.000    0.000    0.000 
#
# Total GULP energy -83764.155540 kJ/mol
# GULP energy per Si atom -5584.277036 kJ/mol
# Density = 2.515906 g / cm^3
# Si number density = 25.216450 Si / 1000 Ang^3
#
#
#
# Elastic Constant Matrix: (Units=GPa)
#
#
# Indices 1 2 3 4 5 6 
#
# 1 62.4790 8.4854 12.4312 -2.5536 12.3155 -15.5858
# 2 8.4854 85.9378 11.0172 -0.7049 12.2583 -20.4878
# 3 12.4312 11.0172 77.7628 15.0200 -1.7889 -6.3659
# 4 -2.5536 -0.7049 15.0200 35.0735 7.1262 3.2734
# 5 12.3155 12.2583 -1.7889 7.1262 23.3603 3.1222
# 6 -15.5858 -20.4878 -6.3659 3.2734 3.1222 42.1660
#
#
#
# Elastic Compliance Matrix: (Units=1/GPa)
#
#
# Indices 1 2 3 4 5 6 
#
# 1 0.022741 0.003323 -0.004925 0.006431 -0.017418 0.010068
# 2 0.003323 0.015652 -0.002977 0.003523 -0.012475 0.009034
# 3 -0.004925 -0.002977 0.015894 -0.008811 0.008169 -0.000788
# 4 0.006431 0.003523 -0.008811 0.036188 -0.017116 0.001217
# 5 -0.017418 -0.012475 0.008169 -0.017116 0.066368 -0.014852
# 6 0.010068 0.009034 -0.000788 0.001217 -0.014852 0.032713
#
#
# Mechanical properties :
#
#
# Convention : Reuss Voigt Hill
#
# Bulk Modulus (GPa) = 22.15784 32.22745 27.19264
# Shear Modulus (GPa) = 23.39107 33.06969 28.23038
#
# Velocity S-wave (km/s) = 3.04898 3.62530 3.34956
# Velocity P-wave (km/s) = 4.60447 5.50743 5.07607
#
# Compressibility (1/GPa) = 0.04513076
#
# Stress axis : x y z
#
# Youngs Moduli (GPa) = 43.97267 63.88949 62.91722
#
# Poissons Ratio (x) = -0.21232 0.30986
# Poissons Ratio (y) = -0.14613 0.18728
# Poissons Ratio (z) = 0.21656 0.19018
#
# Static dielectric constant tensor:
#      x y z
#    x 1.683840 0.009180 -0.011090 
#    y 0.009180 1.945010 0.041750 
#    z -0.011090 0.041750 2.044490 
# 
# From -- ./inp_files/118880.got.cif
#   From: 2010.05.17/outbox.cif.g08.bks.cpg/sg2_60_cif.got.tgz:118880.got - 2010.06.03 11:33:40.
