data_PCOD9046119
_publ_section_title
;
Structure prediction by ZEFSAII (Michael W. Deem and Ramdas Pophale) SiO2 
 PCOD9046119
Probable space group: P -1
;
_chemical_formula_sum "Si O2"
_cell_formula_units_Z 12
_cell_length_a 7.329168
_cell_length_b 16.719508
_cell_length_c 7.110647
_cell_angle_alpha 45.386635
_cell_angle_beta 83.126835
_cell_angle_gamma 53.840828
_cell_volume 429.943984
_symmetry_space_group_name_H-M "P -1"
_symmetry_group_IT_number 2
_symmetry_cell_setting 'triclinic'
loop_
_space_group_symop_operation_xyz
x,y,z
-x,-y,-z
loop_
_atom_site_type_symbol
_atom_site_label
_atom_site_fract_x
_atom_site_fract_y
_atom_site_fract_z
Si Si1 0.154108 0.759220 0.355222
Si Si2 0.389387 0.422107 0.869762
Si Si3 0.339361 0.333552 0.396501
Si Si4 0.015673 0.784220 0.750293
Si Si5 0.762147 0.712969 0.143805
Si Si6 0.320329 0.006624 0.244776
O O1 0.403975 0.725950 0.433313
O O2 0.014932 0.792560 0.514734
O O3 0.271014 0.591896 0.535888
O O4 0.933762 0.902137 0.006911
O O5 0.259443 0.449560 0.044185
O O6 0.693997 0.307870 0.071516
O O7 0.849196 0.619933 0.485899
O O8 0.377519 0.323943 0.891652
O O9 0.447934 0.176402 0.535081
O O10 0.793070 0.958272 0.588916
O O11 0.958711 0.689530 0.013770
O O12 0.608342 0.892288 0.939821
#
# Coordination Sequence:
#
# PCOD9046119 Si02
#       6
#     2   2   2   2   2   2
#     4  11  24  44  67  97 134 172 217 270 325 385
#     4  11  25  45  66  97 134 172 218 267 325 389
#     4  11  23  44  70  94 132 175 215 271 326 383
#     4   9  23  43  65 100 128 171 217 269 321 385
#     4  10  25  42  68 100 130 173 215 273 323 387
#     4  10  24  42  67  99 131 168 222 266 326 387
#
# _framework density 27.910609999999998
#
# number of rings (size 3 to 8) (size 9 to 14) (size 15 to 20)
#    1.000    0.667    0.000    4.000    2.333   10.000 
#    3.000    0.000    0.000    0.000    0.000    0.000 
#    0.000    0.000    0.000    0.000    0.000    0.000 
#
# Total GULP energy -67311.881151 kJ/mol
# GULP energy per Si atom -5609.323429 kJ/mol
# Density = 2.784708 g / cm^3
# Si number density = 27.910610 Si / 1000 Ang^3
#
#
#
# Elastic Constant Matrix: (Units=GPa)
#
#
# Indices 1 2 3 4 5 6 
#
# 1 107.6499 33.4376 -5.1201 -7.5913 7.2134 16.1124
# 2 33.4376 138.2654 7.0055 28.9940 -17.2170 -23.9505
# 3 -5.1201 7.0055 69.5542 7.4968 -3.8378 5.9917
# 4 -7.5913 28.9940 7.4968 40.8007 -0.3329 -8.6420
# 5 7.2134 -17.2170 -3.8378 -0.3329 38.0022 8.6426
# 6 16.1124 -23.9505 5.9917 -8.6420 8.6426 61.7181
#
#
#
# Elastic Compliance Matrix: (Units=1/GPa)
#
#
# Indices 1 2 3 4 5 6 
#
# 1 0.012131 -0.005152 0.001048 0.004829 -0.003558 -0.004093
# 2 -0.005152 0.011565 -0.000730 -0.008145 0.005153 0.004042
# 3 0.001048 -0.000730 0.015120 -0.002604 0.001568 -0.002609
# 4 0.004829 -0.008145 -0.002604 0.031839 -0.004810 0.000963
# 5 -0.003558 0.005153 0.001568 -0.004810 0.029915 -0.002086
# 6 -0.004093 0.004042 -0.002609 0.000963 -0.002086 0.019520
#
#
# Mechanical properties :
#
#
# Convention : Reuss Voigt Hill
#
# Bulk Modulus (GPa) = 34.30765 42.90172 38.60469
# Shear Modulus (GPa) = 35.84913 46.78063 41.31488
#
# Velocity S-wave (km/s) = 3.58778 4.09845 3.85159
# Velocity P-wave (km/s) = 5.42969 6.14824 5.80010
#
# Compressibility (1/GPa) = 0.02914802
#
# Stress axis : x y z
#
# Youngs Moduli (GPa) = 82.43377 86.46806 66.13813
#
# Poissons Ratio (x) = 0.44544 -0.06929
# Poissons Ratio (y) = 0.42466 0.04828
# Poissons Ratio (z) = -0.08636 0.06312
#
# Static dielectric constant tensor:
#      x y z
#    x 2.161630 -0.003290 0.005660 
#    y -0.003290 2.156410 0.005720 
#    z 0.005660 0.005720 2.139250 
# 
# From -- ./inp_files/212523.got.cif
#   From: 2010.05.17/outbox.cif.g08.bks.cpg/sg2_107_cif.got.tgz:212523.got - 2010.06.03 11:33:40.
