data_PCOD9046797
_publ_section_title
;
Structure prediction by ZEFSAII (Michael W. Deem and Ramdas Pophale) SiO2 
 PCOD9046797
Probable space group: P -1
;
_chemical_formula_sum "Si O2"
_cell_formula_units_Z 16
_cell_length_a 5.763273
_cell_length_b 18.132505
_cell_length_c 8.840009
_cell_angle_alpha 77.310925
_cell_angle_beta 129.324752
_cell_angle_gamma 97.433440
_cell_volume 697.110856
_symmetry_space_group_name_H-M "P -1"
_symmetry_group_IT_number 2
_symmetry_cell_setting 'triclinic'
loop_
_space_group_symop_operation_xyz
x,y,z
-x,-y,-z
loop_
_atom_site_type_symbol
_atom_site_label
_atom_site_fract_x
_atom_site_fract_y
_atom_site_fract_z
Si Si1 0.963989 0.328928 0.776985
Si Si2 0.008768 0.695031 0.558348
Si Si3 0.287782 0.913851 0.797655
Si Si4 0.306298 0.161721 0.494431
Si Si5 0.724319 0.542447 0.960200
Si Si6 0.293325 0.947053 0.126309
Si Si7 0.407895 0.417763 0.436860
Si Si8 0.384560 0.222057 0.163716
O O1 0.017032 0.318709 0.625202
O O2 0.621732 0.355579 0.631598
O O3 0.131485 0.397332 0.896021
O O4 0.087694 0.257672 0.951727
O O5 0.801816 0.769117 0.476387
O O6 0.911497 0.618059 0.638294
O O7 0.335651 0.720500 0.741674
O O8 0.512019 0.850363 0.855605
O O9 0.967392 0.896955 0.600194
O O10 0.430845 0.994731 0.789987
O O11 0.262667 0.907525 0.969996
O O12 0.609297 0.116999 0.685258
O O13 0.337004 0.197736 0.326416
O O14 0.551808 0.578525 0.728501
O O15 0.500000 0.500000 0.000000
O O16 0.000000 0.500000 0.000000
O O17 0.000000 0.000000 0.000000
O O18 0.500000 0.500000 0.500000
#
# Coordination Sequence:
#
# PCOD9046797 Si02
#       8
#     2   2   2   2   2   2   2   2
#     4  12  26  44  73  99 142 186 244 302 370 441
#     4  11  26  45  73 101 142 186 248 298 373 440
#     4  10  24  43  68 101 141 186 241 294 364 431
#     4  11  24  46  69  99 144 186 240 298 365 438
#     4  12  28  48  76 109 149 191 245 309 384 458
#     4  11  24  42  70 105 142 185 238 293 361 435
#     4  12  27  48  72 106 141 190 241 305 374 449
#     4  11  26  46  70 103 140 191 244 302 367 438
#
# _framework density 22.951875999999999
#
# number of rings (size 3 to 8) (size 9 to 14) (size 15 to 20)
#    0.000    0.750    1.250    4.875    3.500   13.000 
#    0.000    0.000    0.000    0.000    0.000    0.000 
#    0.000    0.000    0.000    0.000    0.000    0.000 
#
# Total GULP energy -89471.670383 kJ/mol
# GULP energy per Si atom -5591.979399 kJ/mol
# Density = 2.289964 g / cm^3
# Si number density = 22.951876 Si / 1000 Ang^3
#
#
#
# Elastic Constant Matrix: (Units=GPa)
#
#
# Indices 1 2 3 4 5 6 
#
# 1 71.9269 31.9529 34.1064 -7.5044 -5.2048 -11.0667
# 2 31.9529 81.3234 59.1443 22.3494 -4.6742 -6.9842
# 3 34.1064 59.1443 128.1615 -17.6280 2.5451 -8.1681
# 4 -7.5044 22.3494 -17.6280 58.1801 -10.2357 0.2618
# 5 -5.2048 -4.6742 2.5451 -10.2357 40.0504 4.4313
# 6 -11.0667 -6.9842 -8.1681 0.2618 4.4313 51.9717
#
#
#
# Elastic Compliance Matrix: (Units=1/GPa)
#
#
# Indices 1 2 3 4 5 6 
#
# 1 0.019108 -0.008854 -0.000016 0.006339 0.002782 0.002607
# 2 -0.008854 0.030974 -0.014320 -0.017581 -0.001142 0.000212
# 3 -0.000016 -0.014320 0.015865 0.010284 -0.000111 0.000523
# 4 0.006339 -0.017581 0.010284 0.028841 0.005490 -0.000010
# 5 0.002782 -0.001142 -0.000111 0.005490 0.026817 -0.001893
# 6 0.002607 0.000212 0.000523 -0.000010 -0.001893 0.020069
#
#
# Mechanical properties :
#
#
# Convention : Reuss Voigt Hill
#
# Bulk Modulus (GPa) = 51.10588 59.09100 55.09844
# Shear Modulus (GPa) = 25.69688 40.45431 33.07560
#
# Velocity S-wave (km/s) = 3.34967 4.20285 3.80028
# Velocity P-wave (km/s) = 6.10535 7.02520 6.58136
#
# Compressibility (1/GPa) = 0.01956722
#
# Stress axis : x y z
#
# Youngs Moduli (GPa) = 52.33439 32.28505 63.03055
#
# Poissons Ratio (x) = 0.28586 0.00102
# Poissons Ratio (y) = 0.46338 0.90258
# Poissons Ratio (z) = 0.00085 0.46231
#
# Static dielectric constant tensor:
#      x y z
#    x 1.982590 0.034710 0.125630 
#    y 0.034710 1.882740 -0.015840 
#    z 0.125630 -0.015840 1.882510 
# 
# From -- ./inp_files/139012.got.cif
#   From: 2010.05.17/outbox.cif.g08.bks.cpg/sg2_70_cif.got.tgz:139012.got - 2010.06.03 11:33:40.
