data_PCOD9046827
_publ_section_title
;
Structure prediction by ZEFSAII (Michael W. Deem and Ramdas Pophale) SiO2 
 PCOD9046827
Probable space group: P -1
;
_chemical_formula_sum "Si O2"
_cell_formula_units_Z 16
_cell_length_a 17.163952
_cell_length_b 16.249883
_cell_length_c 5.967678
_cell_angle_alpha 120.835923
_cell_angle_beta 52.038282
_cell_angle_gamma 148.013412
_cell_volume 694.982909
_symmetry_space_group_name_H-M "P -1"
_symmetry_group_IT_number 2
_symmetry_cell_setting 'triclinic'
loop_
_space_group_symop_operation_xyz
x,y,z
-x,-y,-z
loop_
_atom_site_type_symbol
_atom_site_label
_atom_site_fract_x
_atom_site_fract_y
_atom_site_fract_z
Si Si1 0.377316 0.680242 0.904699
Si Si2 0.102085 0.784906 0.252581
Si Si3 0.859130 0.670223 0.173216
Si Si4 0.437496 0.288674 0.763106
Si Si5 0.925694 0.421580 0.769408
Si Si6 0.167505 0.961814 0.753007
Si Si7 0.408290 0.408942 0.311748
Si Si8 0.397585 0.016835 0.757717
O O1 0.271589 0.507021 0.933027
O O2 0.469319 0.716765 0.565301
O O3 0.246094 0.659795 0.042823
O O4 0.492749 0.822569 0.076981
O O5 0.078722 0.696170 0.375853
O O6 0.149201 0.919899 0.469458
O O7 0.949702 0.679956 0.220279
O O8 0.252736 0.867398 0.957762
O O9 0.773034 0.696095 0.470998
O O10 0.997640 0.813562 0.963740
O O11 0.516802 0.446795 0.761571
O O12 0.249459 0.127846 0.835507
O O13 0.434845 0.318860 0.070846
O O14 0.000000 0.500000 0.500000
O O15 0.000000 0.500000 0.000000
O O16 0.302429 0.000692 0.704085
O O17 0.500000 0.500000 0.500000
O O18 0.500000 0.000000 0.500000
#
# Coordination Sequence:
#
# PCOD9046827 Si02
#       8
#     2   2   2   2   2   2   2   2
#     4  11  23  45  71 102 142 193 249 302 366 437
#     4  11  24  46  65 102 151 188 249 301 374 451
#     4  10  24  44  70 105 135 191 233 304 378 445
#     4  10  24  43  68 107 134 184 239 297 375 435
#     4  12  27  45  70 109 151 202 257 314 371 450
#     4  11  24  43  70  99 148 189 235 300 374 449
#     4  10  24  47  74 104 141 178 245 309 371 457
#     4  11  26  42  69 105 145 195 252 303 368 435
#
# _framework density 23.022148999999999
#
# number of rings (size 3 to 8) (size 9 to 14) (size 15 to 20)
#    0.000    1.250    2.500    1.500    8.750    4.500 
#    0.000    1.250    0.000    0.000    0.000    0.000 
#    0.000    0.000    0.000    0.000    0.000    0.000 
#
# Total GULP energy -89073.808030 kJ/mol
# GULP energy per Si atom -5567.113002 kJ/mol
# Density = 2.296975 g / cm^3
# Si number density = 23.022149 Si / 1000 Ang^3
#
#
#
# Elastic Constant Matrix: (Units=GPa)
#
#
# Indices 1 2 3 4 5 6 
#
# 1 69.3899 57.9762 4.1359 -7.7807 4.1872 -14.3195
# 2 57.9762 176.6830 12.2799 11.6736 26.6197 -26.5319
# 3 4.1359 12.2799 182.0423 -6.9716 -52.1384 45.4766
# 4 -7.7807 11.6736 -6.9716 53.1732 4.8892 1.3659
# 5 4.1872 26.6197 -52.1384 4.8892 47.1520 -29.7644
# 6 -14.3195 -26.5319 45.4766 1.3659 -29.7644 67.9455
#
#
#
# Elastic Compliance Matrix: (Units=1/GPa)
#
#
# Indices 1 2 3 4 5 6 
#
# 1 0.021645 -0.007722 0.000817 0.004454 0.004774 0.003001
# 2 -0.007722 0.009828 -0.002904 -0.003050 -0.007045 0.001129
# 3 0.000817 -0.002904 0.009258 0.001135 0.009887 -0.002850
# 4 0.004454 -0.003050 0.001135 0.020374 -0.000593 -0.001681
# 5 0.004774 -0.007045 0.009887 -0.000593 0.042136 0.010108
# 6 0.003001 0.001129 -0.002850 -0.001681 0.010108 0.022160
#
#
# Mechanical properties :
#
#
# Convention : Reuss Voigt Hill
#
# Bulk Modulus (GPa) = 47.36471 64.09993 55.73232
# Shear Modulus (GPa) = 32.88243 57.23568 45.05905
#
# Velocity S-wave (km/s) = 3.78338 4.99150 4.42883
# Velocity P-wave (km/s) = 6.30107 7.81814 7.10024
#
# Compressibility (1/GPa) = 0.02111276
#
# Stress axis : x y z
#
# Youngs Moduli (GPa) = 46.19952 101.74872 108.01835
#
# Poissons Ratio (x) = 0.78573 -0.08828
# Poissons Ratio (y) = 0.35676 0.31370
# Poissons Ratio (z) = -0.03776 0.29549
#
# Static dielectric constant tensor:
#      x y z
#    x 2.346700 0.110390 0.511270 
#    y 0.110390 1.995890 0.212960 
#    z 0.511270 0.212960 2.544130 
# 
# From -- ./inp_files/111684.got.cif
#   From: 2010.05.17/outbox.cif.g08.bks.cpg/sg2_56_cif.got.tgz:111684.got - 2010.06.03 11:33:40.
