data_PCOD9046181
_publ_section_title
;
Structure prediction by ZEFSAII (Michael W. Deem and Ramdas Pophale) SiO2 
 PCOD9046181
Probable space group: P -1
;
_chemical_formula_sum "Si O2"
_cell_formula_units_Z 14
_cell_length_a 5.323245
_cell_length_b 15.442384
_cell_length_c 8.925199
_cell_angle_alpha 74.252606
_cell_angle_beta 92.924458
_cell_angle_gamma 70.732865
_cell_volume 658.568569
_symmetry_space_group_name_H-M "P -1"
_symmetry_group_IT_number 2
_symmetry_cell_setting 'triclinic'
loop_
_space_group_symop_operation_xyz
x,y,z
-x,-y,-z
loop_
_atom_site_type_symbol
_atom_site_label
_atom_site_fract_x
_atom_site_fract_y
_atom_site_fract_z
Si Si1 0.884835 0.614658 0.617875
Si Si2 0.511447 0.988553 0.255724
Si Si3 0.885847 0.614659 0.267468
Si Si4 0.093799 0.088392 0.433001
Si Si5 0.291297 0.699300 0.079170
Si Si6 0.270583 0.911608 0.021393
Si Si7 0.689898 0.300700 0.278469
O O1 0.857353 0.642647 0.428677
O O2 0.607989 0.665896 0.675822
O O3 0.957493 0.500000 0.683459
O O4 0.132516 0.640500 0.677896
O O5 0.246956 0.061283 0.293336
O O6 0.694220 0.921469 0.422072
O O7 0.462842 0.921469 0.156460
O O8 0.630478 0.061283 0.145381
O O9 0.586482 0.640500 0.181606
O O10 0.060215 0.665897 0.158282
O O11 0.855119 0.189537 0.375919
O O12 0.000000 0.000000 0.500000
O O13 0.234193 0.810463 0.065456
O O14 0.311404 0.688596 0.905703
O O15 0.000000 0.000000 0.000000
#
# Coordination Sequence:
#
# PCOD9046181 Si02
#       7
#     2   2   2   2   2   2   2
#     4  11  27  50  74 105 142 184 240 300 362 430
#     4  10  24  42  68  94 146 186 232 286 346 406
#     4  11  27  50  74 105 142 184 240 300 362 430
#     4  11  25  43  67 102 142 186 235 286 345 420
#     4  12  27  44  76 107 144 189 238 295 358 427
#     4  11  25  43  67 102 142 186 235 286 345 420
#     4  12  27  44  76 107 144 189 238 295 358 427
#
# _framework density 21.258224999999999
#
# number of rings (size 3 to 8) (size 9 to 14) (size 15 to 20)
#    0.000    0.857    0.000    5.143   14.000    8.000 
#    0.000    0.000    0.000    0.000    0.000    0.000 
#    0.000    0.000    0.000    0.000    0.000    0.000 
#
# Total GULP energy -78385.889405 kJ/mol
# GULP energy per Si atom -5598.992100 kJ/mol
# Density = 2.120984 g / cm^3
# Si number density = 21.258225 Si / 1000 Ang^3
#
#
#
# Elastic Constant Matrix: (Units=GPa)
#
#
# Indices 1 2 3 4 5 6 
#
# 1 75.8801 5.5692 12.4120 2.2278 -16.7295 -6.4447
# 2 5.5692 68.4623 30.1600 -0.4947 -14.2758 -5.3711
# 3 12.4120 30.1600 90.3664 8.9192 -1.9633 -0.3986
# 4 2.2278 -0.4947 8.9192 23.6054 6.8262 1.4293
# 5 -16.7295 -14.2758 -1.9633 6.8262 51.5897 3.8953
# 6 -6.4447 -5.3711 -0.3986 1.4293 3.8953 42.4046
#
#
#
# Elastic Compliance Matrix: (Units=1/GPa)
#
#
# Indices 1 2 3 4 5 6 
#
# 1 0.014797 0.000873 -0.001985 -0.002224 0.005112 0.001946
# 2 0.000873 0.018478 -0.006287 0.001159 0.004858 0.001929
# 3 -0.001985 -0.006287 0.013883 -0.004811 -0.001166 -0.000698
# 4 -0.002224 0.001159 -0.004811 0.046406 -0.006634 -0.001191
# 5 0.005112 0.004858 -0.001166 -0.006634 0.023259 -0.000532
# 6 0.001946 0.001929 -0.000698 -0.001191 -0.000532 0.024205
#
#
# Mechanical properties :
#
#
# Convention : Reuss Voigt Hill
#
# Bulk Modulus (GPa) = 30.90163 36.77679 33.83921
# Shear Modulus (GPa) = 30.00972 35.95778 32.98375
#
# Velocity S-wave (km/s) = 3.76130 4.11722 3.94328
# Velocity P-wave (km/s) = 5.78196 6.31978 6.05684
#
# Compressibility (1/GPa) = 0.03236075
#
# Stress axis : x y z
#
# Youngs Moduli (GPa) = 67.58198 54.11831 72.02797
#
# Poissons Ratio (x) = -0.04725 0.14295
# Poissons Ratio (y) = -0.05901 0.45286
# Poissons Ratio (z) = 0.13412 0.34026
#
# Static dielectric constant tensor:
#      x y z
#    x 1.772580 0.018760 0.047940 
#    y 0.018760 1.735420 0.007940 
#    z 0.047940 0.007940 1.749470 
# 
# From -- ./inp_files/134066.got.cif
#   From: 2010.05.17/outbox.cif.g08.bks.cpg/sg2_68_cif.got.tgz:134066.got - 2010.06.03 11:33:40.
