data_PCOD9046799
_publ_section_title
;
Structure prediction by ZEFSAII (Michael W. Deem and Ramdas Pophale) SiO2 
 PCOD9046799
Probable space group: P -1
;
_chemical_formula_sum "Si O2"
_cell_formula_units_Z 16
_cell_length_a 8.578504
_cell_length_b 8.670477
_cell_length_c 21.561819
_cell_angle_alpha 148.226138
_cell_angle_beta 57.204272
_cell_angle_gamma 121.879609
_cell_volume 701.540418
_symmetry_space_group_name_H-M "P -1"
_symmetry_group_IT_number 2
_symmetry_cell_setting 'triclinic'
loop_
_space_group_symop_operation_xyz
x,y,z
-x,-y,-z
loop_
_atom_site_type_symbol
_atom_site_label
_atom_site_fract_x
_atom_site_fract_y
_atom_site_fract_z
Si Si1 0.543246 0.311845 0.763440
Si Si2 0.825127 0.242630 0.768931
Si Si3 0.752526 0.187766 0.315840
Si Si4 0.045367 0.752668 0.127438
Si Si5 0.405689 0.679896 0.386390
Si Si6 0.550407 0.119657 0.215740
Si Si7 0.557195 0.143843 0.971393
Si Si8 0.989326 0.803879 0.498637
O O1 0.752915 0.392848 0.774250
O O2 0.533582 0.387694 0.719712
O O3 0.450407 0.966420 0.667851
O O4 0.427164 0.507343 0.898403
O O5 0.931049 0.379772 0.854094
O O6 0.622924 0.094463 0.788788
O O7 0.942726 0.004664 0.634402
O O8 0.724993 0.164168 0.239555
O O9 0.826290 0.523166 0.432080
O O10 0.897718 0.979484 0.237275
O O11 0.246086 0.925783 0.120675
O O12 0.000000 0.500000 0.000000
O O13 0.475344 0.429517 0.327584
O O14 0.184274 0.687914 0.431375
O O15 0.500000 0.000000 0.500000
O O16 0.586652 0.969890 0.091217
O O17 0.500000 0.000000 0.000000
O O18 0.000000 0.000000 0.500000
#
# Coordination Sequence:
#
# PCOD9046799 Si02
#       8
#     2   2   2   2   2   2   2   2
#     4  11  24  44  69 100 134 184 223 278 344 408
#     4  10  25  42  70  97 134 180 226 276 341 402
#     4  11  26  44  70  98 139 176 232 276 339 406
#     4  11  24  43  67 103 133 175 231 282 335 401
#     4  12  26  43  69 101 140 176 227 280 343 409
#     4  10  24  43  68 102 133 183 225 273 347 405
#     4  11  22  43  68  95 139 176 224 281 342 400
#     4  12  25  46  70 102 140 176 228 289 335 402
#
# _framework density 22.806954999999999
#
# number of rings (size 3 to 8) (size 9 to 14) (size 15 to 20)
#    0.000    1.000    3.750    2.250    5.250    3.500 
#    2.250    0.625    0.000    0.000    0.000    0.000 
#    0.000    0.000    0.000    0.000    0.000    0.000 
#
# Total GULP energy -89377.462757 kJ/mol
# GULP energy per Si atom -5586.091422 kJ/mol
# Density = 2.275505 g / cm^3
# Si number density = 22.806955 Si / 1000 Ang^3
#
#
#
# Elastic Constant Matrix: (Units=GPa)
#
#
# Indices 1 2 3 4 5 6 
#
# 1 97.2013 5.3059 6.8083 -4.8820 10.3831 -16.0606
# 2 5.3059 34.8967 -3.1223 4.8758 8.4902 -12.8243
# 3 6.8083 -3.1223 75.2335 -6.9099 17.3696 1.9983
# 4 -4.8820 4.8758 -6.9099 38.8869 -3.9752 1.9298
# 5 10.3831 8.4902 17.3696 -3.9752 40.8290 -2.4059
# 6 -16.0606 -12.8243 1.9983 1.9298 -2.4059 27.3891
#
#
#
# Elastic Compliance Matrix: (Units=1/GPa)
#
#
# Indices 1 2 3 4 5 6 
#
# 1 0.011764 0.001395 -0.000558 0.000578 -0.002556 0.007327
# 2 0.001395 0.038378 0.002485 -0.006011 -0.008903 0.018248
# 3 -0.000558 0.002485 0.015179 0.001676 -0.006727 -0.000980
# 4 0.000578 -0.006011 0.001676 0.027338 0.002799 -0.004278
# 5 -0.002556 -0.008903 -0.006727 0.002799 0.029966 -0.002742
# 6 0.007327 0.018248 -0.000980 -0.004278 -0.002742 0.049483
#
#
# Mechanical properties :
#
#
# Convention : Reuss Voigt Hill
#
# Bulk Modulus (GPa) = 13.89570 25.03504 19.46537
# Shear Modulus (GPa) = 26.39191 34.64362 30.51777
#
# Velocity S-wave (km/s) = 3.40544 3.90166 3.66196
# Velocity P-wave (km/s) = 4.64420 5.59446 5.14133
#
# Compressibility (1/GPa) = 0.07196471
#
# Stress axis : x y z
#
# Youngs Moduli (GPa) = 85.00843 26.05660 65.88209
#
# Poissons Ratio (x) = -0.03635 0.03676
# Poissons Ratio (y) = -0.11860 -0.16372
# Poissons Ratio (z) = 0.04743 -0.06475
#
# Static dielectric constant tensor:
#      x y z
#    x 1.949440 -0.019930 0.002930 
#    y -0.019930 1.912880 0.015140 
#    z 0.002930 0.015140 1.849950 
# 
# From -- ./inp_files/185350.got.cif
#   From: 2010.05.17/outbox.cif.g08.bks.cpg/sg2_93_cif.got.tgz:185350.got - 2010.06.03 11:33:40.
