data_PCOD9046283
_publ_section_title
;
Structure prediction by ZEFSAII (Michael W. Deem and Ramdas Pophale) SiO2 
 PCOD9046283
Probable space group: P -1
;
_chemical_formula_sum "Si O2"
_cell_formula_units_Z 13
_cell_length_a 13.415813
_cell_length_b 6.591488
_cell_length_c 16.504853
_cell_angle_alpha 139.397761
_cell_angle_beta 141.296118
_cell_angle_gamma 41.361432
_cell_volume 547.321342
_symmetry_space_group_name_H-M "P -1"
_symmetry_group_IT_number 2
_symmetry_cell_setting 'triclinic'
loop_
_space_group_symop_operation_xyz
x,y,z
-x,-y,-z
loop_
_atom_site_type_symbol
_atom_site_label
_atom_site_fract_x
_atom_site_fract_y
_atom_site_fract_z
Si Si1 0.077130 0.001953 0.853110
Si Si2 0.500000 0.000000 0.500000
Si Si3 0.363027 0.831985 0.845794
Si Si4 0.793828 0.125483 0.416359
Si Si5 0.177930 0.225929 0.312958
Si Si6 0.426459 0.062073 0.657198
Si Si7 0.802175 0.706413 0.838501
O O1 0.914384 0.349940 0.840696
O O2 0.206675 0.960247 0.849773
O O3 0.167401 0.024737 0.001593
O O4 0.986265 0.737466 0.727232
O O5 0.348453 0.888836 0.325522
O O6 0.419511 0.977161 0.533602
O O7 0.288652 0.911522 0.731737
O O8 0.434211 0.429114 0.780903
O O9 0.500000 0.000000 0.000000
O O10 0.727086 0.529068 0.519227
O O11 0.734477 0.952584 0.399307
O O12 0.000000 0.000000 0.500000
O O13 0.129102 0.294103 0.209472
O O14 0.600324 0.796095 0.726872
#
# Coordination Sequence:
#
# PCOD9046283 Si02
#       7
#     2   1   2   2   2   2   2
#     4  11  25  45  72 102 153 190 244 301 364 443
#     4  10  24  42  70 102 138 184 234 300 356 416
#     4  12  28  49  72 106 148 199 246 298 372 444
#     4  12  27  44  73 110 145 194 243 300 371 439
#     4  11  24  41  70 104 141 184 241 297 363 424
#     4  11  26  48  74 105 148 188 247 303 367 432
#     4  10  25  44  71 106 139 199 243 302 362 431
#
# _framework density 23.752043
#
# number of rings (size 3 to 8) (size 9 to 14) (size 15 to 20)
#    0.000    0.923    1.538    3.231    6.462   12.308 
#    0.000    0.000    0.000    0.000    0.000    0.000 
#    0.000    0.000    0.000    0.000    0.000    0.000 
#
# Total GULP energy -72559.625785 kJ/mol
# GULP energy per Si atom -5581.509676 kJ/mol
# Density = 2.369798 g / cm^3
# Si number density = 23.752043 Si / 1000 Ang^3
#
#
#
# Elastic Constant Matrix: (Units=GPa)
#
#
# Indices 1 2 3 4 5 6 
#
# 1 208.3508 25.4704 93.9182 -4.6442 23.5824 15.4027
# 2 25.4704 61.6873 35.6220 -7.5856 4.8985 4.2964
# 3 93.9182 35.6220 122.6985 3.1901 -22.8918 21.4995
# 4 -4.6442 -7.5856 3.1901 38.2853 15.7667 -1.9348
# 5 23.5824 4.8985 -22.8918 15.7667 31.1065 -7.7451
# 6 15.4027 4.2964 21.4995 -1.9348 -7.7451 33.7756
#
#
#
# Elastic Compliance Matrix: (Units=1/GPa)
#
#
# Indices 1 2 3 4 5 6 
#
# 1 -4.443447 -4.363094 7.241179 -7.459905 13.314672 0.597941
# 2 -4.363094 -4.257742 7.098332 -7.310428 13.053687 0.587539
# 3 7.241179 7.098332-11.784190 12.145344-21.679624 -0.979706
# 4 -7.459905 -7.310428 12.145344-12.480640 22.320707 1.004343
# 5 13.314672 13.053687-21.679624 22.320707-39.830576 -1.787468
# 6 0.597941 0.587539 -0.979706 1.004343 -1.787468 -0.046543
#
#
# Mechanical properties :
#
#
# Convention : Reuss Voigt Hill
#
# Bulk Modulus (GPa) = -1.87778 78.08422 38.10322
# Shear Modulus (GPa) = -0.05378 36.48187 18.21405
#
# Velocity S-wave (km/s) = -0.15063 3.92337 2.77219
# Velocity P-wave (km/s) = 0.90694 7.31231 5.13066
#
# Compressibility (1/GPa) = -0.53254455
#
# Stress axis : x y z
#
# Youngs Moduli (GPa) = -0.22505 -0.23487 -0.08486
#
# Poissons Ratio (x) = -1.02474 0.61448
# Poissons Ratio (y) = -0.98192 0.60236
# Poissons Ratio (z) = 1.62963 1.66716
#
# Static dielectric constant tensor:
#      x y z
#    x 1.846820 0.108850 0.017830 
#    y 0.108850 1.538510 0.084960 
#    z 0.017830 0.084960 1.895460 
# 
# From -- ./inp_files/72528.got.cif
#   From: 2010.05.17/outbox.cif.g08.bks.cpg/sg2_37_cif.got.tgz:72528.got - 2010.06.03 11:33:40.
