data_PCOD9046381
_publ_section_title
;
Structure prediction by ZEFSAII (Michael W. Deem and Ramdas Pophale) SiO2 
 PCOD9046381
Probable space group: P -1
;
_chemical_formula_sum "Si O2"
_cell_formula_units_Z 16
_cell_length_a 15.296331
_cell_length_b 8.908596
_cell_length_c 10.647475
_cell_angle_alpha 61.423302
_cell_angle_beta 79.323312
_cell_angle_gamma 129.724988
_cell_volume 672.990204
_symmetry_space_group_name_H-M "P -1"
_symmetry_group_IT_number 2
_symmetry_cell_setting 'triclinic'
loop_
_space_group_symop_operation_xyz
x,y,z
-x,-y,-z
loop_
_atom_site_type_symbol
_atom_site_label
_atom_site_fract_x
_atom_site_fract_y
_atom_site_fract_z
Si Si1 0.725840 0.693532 0.877146
Si Si2 0.693341 0.351290 0.818590
Si Si3 0.956302 0.819008 0.893104
Si Si4 0.203248 0.676007 0.663730
Si Si5 0.561089 0.752849 0.299583
Si Si6 0.098866 0.567588 0.130056
Si Si7 0.426178 0.328096 0.277625
Si Si8 0.269931 0.503828 0.523263
O O1 0.703538 0.489380 0.880225
O O2 0.882025 0.882161 0.842104
O O3 0.711293 0.819600 0.724837
O O4 0.575700 0.492653 0.090696
O O5 0.765866 0.550585 0.593931
O O6 0.801984 0.360162 0.812464
O O7 0.500000 0.000000 0.000000
O O8 0.833399 0.528310 0.140534
O O9 0.974178 0.705414 0.824483
O O10 0.139710 0.161095 0.756252
O O11 0.247994 0.648954 0.535971
O O12 0.345262 0.047770 0.494652
O O13 0.036424 0.515286 0.764032
O O14 0.500000 0.500000 0.500000
O O15 0.500434 0.598519 0.237332
O O16 0.458762 0.749441 0.376831
O O17 0.754644 0.100690 0.116539
#
# Coordination Sequence:
#
# PCOD9046381 Si02
#       8
#     2   2   2   2   2   2   2   2
#     4  10  24  42  71  98 133 183 226 280 338 402
#     4  11  21  44  68 100 134 178 230 280 337 405
#     4  11  26  46  70  96 142 180 229 275 346 403
#     4  12  27  44  69 106 138 175 230 284 340 407
#     4  12  25  44  72 100 139 184 225 277 344 404
#     4  11  25  43  72  98 137 179 229 279 337 405
#     4  11  24  45  71 100 141 175 233 277 342 402
#     4  12  26  44  71 100 141 177 226 283 342 403
#
# _framework density 23.774493
#
# number of rings (size 3 to 8) (size 9 to 14) (size 15 to 20)
#    0.000    0.750    2.500    3.750    7.000    3.000 
#    0.000    0.000    0.000    0.000    0.000    0.000 
#    0.000    0.000    0.000    0.000    0.000    0.000 
#
# Total GULP energy -89482.148348 kJ/mol
# GULP energy per Si atom -5592.634272 kJ/mol
# Density = 2.372038 g / cm^3
# Si number density = 23.774493 Si / 1000 Ang^3
#
#
#
# Elastic Constant Matrix: (Units=GPa)
#
#
# Indices 1 2 3 4 5 6 
#
# 1 113.2121 26.1714 22.7558 20.8750 -24.9525 -19.4174
# 2 26.1714 67.6961 23.9767 -1.1857 -22.2690 -21.5385
# 3 22.7558 23.9767 88.5358 -0.6329 -6.6887 -15.2537
# 4 20.8750 -1.1857 -0.6329 36.5922 -7.4529 3.5504
# 5 -24.9525 -22.2690 -6.6887 -7.4529 45.9271 10.5209
# 6 -19.4174 -21.5385 -15.2537 3.5504 10.5209 29.0950
#
#
#
# Elastic Compliance Matrix: (Units=1/GPa)
#
#
# Indices 1 2 3 4 5 6 
#
# 1 0.012600 -0.001337 -0.001598 -0.007177 0.003371 0.006238
# 2 -0.001337 0.022456 -0.003248 0.001874 0.007449 0.011106
# 3 -0.001598 -0.003248 0.013152 0.000384 -0.001351 0.003866
# 4 -0.007177 0.001874 0.000384 0.033269 0.004500 -0.008889
# 5 0.003371 0.007449 -0.001351 0.004500 0.028631 -0.003847
# 6 0.006238 0.011106 0.003866 -0.008889 -0.003847 0.051258
#
#
# Mechanical properties :
#
#
# Convention : Reuss Voigt Hill
#
# Bulk Modulus (GPa) = 27.90137 46.13910 37.02023
# Shear Modulus (GPa) = 26.92814 35.42554 31.17684
#
# Velocity S-wave (km/s) = 3.36914 3.86432 3.62519
# Velocity P-wave (km/s) = 5.18614 6.27374 5.75569
#
# Compressibility (1/GPa) = 0.03584053
#
# Stress axis : x y z
#
# Youngs Moduli (GPa) = 79.36782 44.53152 76.03415
#
# Poissons Ratio (x) = 0.05955 0.12152
# Poissons Ratio (y) = 0.10613 0.24697
# Poissons Ratio (z) = 0.12685 0.14464
#
# Static dielectric constant tensor:
#      x y z
#    x 1.966990 0.067570 0.054540 
#    y 0.067570 1.889640 0.018220 
#    z 0.054540 0.018220 1.909620 
# 
# From -- ./inp_files/189788.got.cif
#   From: 2010.05.17/outbox.cif.g08.bks.cpg/sg2_95_cif.got.tgz:189788.got - 2010.06.03 11:33:40.
