data_PCOD9046380
_publ_section_title
;
Structure prediction by ZEFSAII (Michael W. Deem and Ramdas Pophale) SiO2 
 PCOD9046380
Probable space group: P -1
;
_chemical_formula_sum "Si O2"
_cell_formula_units_Z 14
_cell_length_a 9.373463
_cell_length_b 17.264503
_cell_length_c 9.059124
_cell_angle_alpha 54.704798
_cell_angle_beta 51.568200
_cell_angle_gamma 33.555378
_cell_volume 628.691553
_symmetry_space_group_name_H-M "P -1"
_symmetry_group_IT_number 2
_symmetry_cell_setting 'triclinic'
loop_
_space_group_symop_operation_xyz
x,y,z
-x,-y,-z
loop_
_atom_site_type_symbol
_atom_site_label
_atom_site_fract_x
_atom_site_fract_y
_atom_site_fract_z
Si Si1 0.976719 0.662569 0.771236
Si Si2 0.324798 0.643747 0.040515
Si Si3 0.036435 0.059364 0.777440
Si Si4 0.354746 0.884684 0.467328
Si Si5 0.868023 0.771307 0.396498
Si Si6 0.432178 0.338273 0.886267
Si Si7 0.944471 0.178936 0.264323
O O1 0.871112 0.728989 0.604469
O O2 0.247819 0.494065 0.770662
O O3 0.034044 0.735720 0.744899
O O4 0.749384 0.685818 0.971521
O O5 0.503411 0.655226 0.992527
O O6 0.163753 0.653834 0.262983
O O7 0.500000 0.500000 0.000000
O O8 0.110399 0.770425 0.924361
O O9 0.728961 0.209067 0.768924
O O10 0.190062 0.093697 0.699592
O O11 0.194510 0.961521 0.641341
O O12 0.000000 0.000000 0.000000
O O13 0.657974 0.798709 0.397990
O O14 0.303061 0.795389 0.560204
O O15 0.208200 0.011800 0.306992
#
# Coordination Sequence:
#
# PCOD9046380 Si02
#       7
#     2   2   2   2   2   2   2
#     4  11  22  45  70  99 128 175 227 276 317 401
#     4  11  23  45  66  95 134 175 209 277 334 391
#     4  11  22  39  68  98 132 176 217 271 325 394
#     4  11  24  44  64 100 132 178 220 270 330 395
#     4  11  24  42  71  95 129 178 222 269 330 391
#     4  10  24  42  71  97 134 173 224 268 338 385
#     4  11  24  43  67  92 142 169 218 279 326 385
#
# _framework density 22.268473
#
# number of rings (size 3 to 8) (size 9 to 14) (size 15 to 20)
#    0.000    1.143    2.857    3.857    2.000    4.000 
#    5.143    2.857    0.000    0.000    0.000    0.000 
#    0.000    0.000    0.000    0.000    0.000    0.000 
#
# Total GULP energy -78344.550036 kJ/mol
# GULP energy per Si atom -5596.039288 kJ/mol
# Density = 2.221779 g / cm^3
# Si number density = 22.268473 Si / 1000 Ang^3
#
#
#
# Elastic Constant Matrix: (Units=GPa)
#
#
# Indices 1 2 3 4 5 6 
#
# 1 139.2496 19.9808 18.6698 -16.0936 -34.5728 0.6727
# 2 19.9808 42.5536 7.9083 2.4641 -18.8749 5.1610
# 3 18.6698 7.9083 48.6441 -20.0949 -9.4105 3.3491
# 4 -16.0936 2.4641 -20.0949 30.0851 -2.2821 5.1150
# 5 -34.5728 -18.8749 -9.4105 -2.2821 46.9657 -5.2495
# 6 0.6727 5.1610 3.3491 5.1150 -5.2495 38.8366
#
#
#
# Elastic Compliance Matrix: (Units=1/GPa)
#
#
# Indices 1 2 3 4 5 6 
#
# 1 0.009826 -0.002050 0.000430 0.006199 0.006815 0.000170
# 2 -0.002050 0.029870 -0.004500 -0.005587 0.009146 -0.001574
# 3 0.000430 -0.004500 0.032105 0.023228 0.005568 -0.004485
# 4 0.006199 -0.005587 0.023228 0.054444 0.008796 -0.007350
# 5 0.006815 0.009146 0.005568 0.008796 0.031674 0.001309
# 6 0.000170 -0.001574 -0.004485 -0.007350 0.001309 0.027487
#
#
# Mechanical properties :
#
#
# Convention : Reuss Voigt Hill
#
# Bulk Modulus (GPa) = 16.78946 35.95169 26.37058
# Shear Modulus (GPa) = 22.98855 35.43672 29.21263
#
# Velocity S-wave (km/s) = 3.21648 3.99349 3.62586
# Velocity P-wave (km/s) = 4.62064 6.11912 5.42190
#
# Compressibility (1/GPa) = 0.05956117
#
# Stress axis : x y z
#
# Youngs Moduli (GPa) = 101.77449 33.47861 31.14737
#
# Poissons Ratio (x) = 0.06863 -0.01339
# Poissons Ratio (y) = 0.20864 0.14015
# Poissons Ratio (z) = -0.04375 0.15064
#
# Static dielectric constant tensor:
#      x y z
#    x 1.836120 0.008420 0.001210 
#    y 0.008420 1.823300 -0.023640 
#    z 0.001210 -0.023640 1.803370 
# 
# From -- ./inp_files/211830.got.cif
#   From: 2010.05.17/outbox.cif.g08.bks.cpg/sg2_106_cif.got.tgz:211830.got - 2010.06.03 11:33:40.
