data_PCOD9046423
_publ_section_title
;
Structure prediction by ZEFSAII (Michael W. Deem and Ramdas Pophale) SiO2 
 PCOD9046423
Probable space group: P -1
;
_chemical_formula_sum "Si O2"
_cell_formula_units_Z 13
_cell_length_a 10.083988
_cell_length_b 12.943177
_cell_length_c 9.877596
_cell_angle_alpha 132.375715
_cell_angle_beta 40.787699
_cell_angle_gamma 139.019524
_cell_volume 536.298298
_symmetry_space_group_name_H-M "P -1"
_symmetry_group_IT_number 2
_symmetry_cell_setting 'triclinic'
loop_
_space_group_symop_operation_xyz
x,y,z
-x,-y,-z
loop_
_atom_site_type_symbol
_atom_site_label
_atom_site_fract_x
_atom_site_fract_y
_atom_site_fract_z
Si Si1 0.205156 0.963053 0.842967
Si Si2 0.449174 0.479232 0.182540
Si Si3 0.162227 0.240976 0.410346
Si Si4 0.000000 0.500000 0.500000
Si Si5 0.261393 0.785420 0.412806
Si Si6 0.241761 0.957959 0.127769
Si Si7 0.134094 0.398367 0.815705
O O1 0.176069 0.804429 0.646603
O O2 0.461999 0.107743 0.724282
O O3 0.205389 0.937023 0.976946
O O4 0.000000 0.000000 0.000000
O O5 0.303825 0.301598 0.211527
O O6 0.681451 0.560942 0.168726
O O7 0.256729 0.535436 0.394564
O O8 0.500000 0.500000 0.000000
O O9 0.239736 0.392928 0.583006
O O10 0.884531 0.160205 0.519816
O O11 0.212003 0.109503 0.320868
O O12 0.862367 0.406136 0.666723
O O13 0.060621 0.789182 0.183110
O O14 0.500000 0.000000 0.000000
O O15 0.000000 0.500000 0.000000
#
# Coordination Sequence:
#
# PCOD9046423 Si02
#       7
#     2   2   2   1   2   2   2
#     4  11  24  44  71 106 145 197 252 309 382 449
#     4  11  28  47  78 113 155 199 263 321 392 462
#     4  11  25  51  74 114 157 204 253 329 386 467
#     4  10  26  40  72 108 150 192 248 318 378 442
#     4  10  24  42  72 105 152 190 250 312 382 449
#     4  12  27  45  78 111 155 200 263 313 396 458
#     4  12  29  49  80 110 158 211 259 321 398 472
#
# _framework density 24.240238999999999
#
# number of rings (size 3 to 8) (size 9 to 14) (size 15 to 20)
#    0.000    0.923    1.538    2.769   12.923    1.231 
#    0.000    0.000    0.000    0.000    0.000    0.000 
#    0.000    0.000    0.000    0.000    0.000    0.000 
#
# Total GULP energy -72433.729053 kJ/mol
# GULP energy per Si atom -5571.825312 kJ/mol
# Density = 2.418507 g / cm^3
# Si number density = 24.240239 Si / 1000 Ang^3
#
#
#
# Elastic Constant Matrix: (Units=GPa)
#
#
# Indices 1 2 3 4 5 6 
#
# 1 209.8130 33.7107 66.9314 7.1917 -33.4835 3.4886
# 2 33.7107 75.7290 26.0509 -16.1136 -22.6435 -10.5446
# 3 66.9314 26.0509 128.3550 11.1872 0.1111 -0.8835
# 4 7.1917 -16.1136 11.1872 44.6436 -4.1199 -9.8683
# 5 -33.4835 -22.6435 0.1111 -4.1199 64.4981 -3.0403
# 6 3.4886 -10.5446 -0.8835 -9.8683 -3.0403 47.2644
#
#
#
# Elastic Compliance Matrix: (Units=1/GPa)
#
#
# Indices 1 2 3 4 5 6 
#
# 1 0.006421 -0.001179 -0.003065 -0.000591 0.002852 -0.000734
# 2 -0.001179 0.021180 -0.004633 0.011410 0.007920 0.007617
# 3 -0.003065 -0.004633 0.010721 -0.004596 -0.003614 -0.001799
# 4 -0.000591 0.011410 -0.004596 0.030368 0.006082 0.009235
# 5 0.002852 0.007920 -0.003614 0.006082 0.020352 0.004068
# 6 -0.000734 0.007617 -0.001799 0.009235 0.004068 0.025067
#
#
# Mechanical properties :
#
#
# Convention : Reuss Voigt Hill
#
# Bulk Modulus (GPa) = 48.61881 74.14255 61.38068
# Shear Modulus (GPa) = 36.04428 50.42816 43.23622
#
# Velocity S-wave (km/s) = 3.86030 4.56603 4.22792
# Velocity P-wave (km/s) = 6.32217 7.64534 7.01502
#
# Compressibility (1/GPa) = 0.02056817
#
# Stress axis : x y z
#
# Youngs Moduli (GPa) = 155.73906 47.21430 93.27705
#
# Poissons Ratio (x) = 0.05567 0.28589
# Poissons Ratio (y) = 0.18362 0.43213
# Poissons Ratio (z) = 0.47734 0.21873
#
# Static dielectric constant tensor:
#      x y z
#    x 1.898980 0.033810 0.107580 
#    y 0.033810 1.621340 -0.294640 
#    z 0.107580 -0.294640 1.851120 
# 
# From -- ./inp_files/182178.got.cif
#   From: 2010.05.17/outbox.cif.g08.bks.cpg/sg2_92_cif.got.tgz:182178.got - 2010.06.03 11:33:40.
