data_PCOD9046998
_publ_section_title
;
Structure prediction by ZEFSAII (Michael W. Deem and Ramdas Pophale) SiO2 
 PCOD9046998
Probable space group: P -1
;
_chemical_formula_sum "Si O2"
_cell_formula_units_Z 16
_cell_length_a 10.941452
_cell_length_b 16.204354
_cell_length_c 4.983281
_cell_angle_alpha 97.692607
_cell_angle_beta 98.233151
_cell_angle_gamma 46.899824
_cell_volume 637.677345
_symmetry_space_group_name_H-M "P -1"
_symmetry_group_IT_number 2
_symmetry_cell_setting 'triclinic'
loop_
_space_group_symop_operation_xyz
x,y,z
-x,-y,-z
loop_
_atom_site_type_symbol
_atom_site_label
_atom_site_fract_x
_atom_site_fract_y
_atom_site_fract_z
Si Si1 0.625747 0.487859 0.246090
Si Si2 0.307146 0.294711 0.096147
Si Si3 0.545473 0.280365 0.846398
Si Si4 0.099157 0.153177 0.521316
Si Si5 0.110058 0.330327 0.525910
Si Si6 0.835306 0.380444 0.761509
Si Si7 0.129571 0.880088 0.841329
Si Si8 0.368986 0.897751 0.600972
O O1 0.781626 0.426439 0.062801
O O2 0.500000 0.500000 0.000000
O O3 0.537952 0.616093 0.332145
O O4 0.690814 0.419888 0.517252
O O5 0.163791 0.361006 0.305569
O O6 0.459931 0.170456 0.210812
O O7 0.409821 0.330776 0.062172
O O8 0.229030 0.297200 0.798888
O O9 0.579700 0.174260 0.684756
O O10 0.726528 0.227606 0.978854
O O11 0.136326 0.221327 0.404184
O O12 0.980533 0.244002 0.758323
O O13 0.981743 0.139013 0.338008
O O14 0.267612 0.028604 0.594796
O O15 0.926420 0.413019 0.639039
O O16 0.240038 0.890114 0.690919
O O17 0.000000 0.000000 0.000000
#
# Coordination Sequence:
#
# PCOD9046998 Si02
#       8
#     2   2   2   2   2   2   2   2
#     4  12  26  46  74 103 143 185 232 288 349 419
#     4  11  23  48  67 105 139 186 238 288 352 413
#     4  11  26  43  74 103 144 184 232 293 353 422
#     4  10  24  43  70 103 142 186 233 290 351 422
#     4  10  24  45  74  95 147 183 239 291 338 418
#     4  10  26  46  68 104 135 182 243 278 349 402
#     4  11  23  40  69 107 146 181 229 285 361 426
#     4  11  24  42  69 107 143 185 232 289 362 418
#
# _framework density 25.091059999999999
#
# number of rings (size 3 to 8) (size 9 to 14) (size 15 to 20)
#    0.750    0.500    2.500    2.250    5.250    3.000 
#    0.000    3.750    0.000    0.000    0.000    0.000 
#    0.000    0.000    0.000    0.000    0.000    0.000 
#
# Total GULP energy -89425.018929 kJ/mol
# GULP energy per Si atom -5589.063683 kJ/mol
# Density = 2.503395 g / cm^3
# Si number density = 25.091060 Si / 1000 Ang^3
#
#
#
# Elastic Constant Matrix: (Units=GPa)
#
#
# Indices 1 2 3 4 5 6 
#
# 1 94.0955 -20.4350 24.1811 11.7261 -7.6737 -13.5258
# 2 -20.4350 65.7723 2.2809 6.7799 9.7085 23.7456
# 3 24.1811 2.2809 114.3955 3.5084 -6.9871 -6.3106
# 4 11.7261 6.7799 3.5084 18.4664 -10.8017 2.1142
# 5 -7.6737 9.7085 -6.9871 -10.8017 40.0693 -2.7563
# 6 -13.5258 23.7456 -6.3106 2.1142 -2.7563 34.2273
#
#
#
# Elastic Compliance Matrix: (Units=1/GPa)
#
#
# Indices 1 2 3 4 5 6 
#
# 1 0.014058 0.005294 -0.002737 -0.011811 -0.002118 0.001937
# 2 0.005294 0.026506 -0.002747 -0.017544 -0.011763 -0.016667
# 3 -0.002737 -0.002747 0.009615 0.002119 0.002573 0.002673
# 4 -0.011811 -0.017544 0.002119 0.081574 0.024682 0.004843
# 5 -0.002118 -0.011763 0.002573 0.024682 0.035130 0.009103
# 6 0.001937 -0.016667 0.002673 0.004843 0.009103 0.042472
#
#
# Mechanical properties :
#
#
# Convention : Reuss Voigt Hill
#
# Bulk Modulus (GPa) = 20.08179 31.81304 25.94741
# Shear Modulus (GPa) = 22.09107 36.43502 29.26304
#
# Velocity S-wave (km/s) = 2.97043 3.81479 3.41878
# Velocity P-wave (km/s) = 4.44810 5.66658 5.09390
#
# Compressibility (1/GPa) = 0.04979637
#
# Stress axis : x y z
#
# Youngs Moduli (GPa) = 71.13277 37.72729 104.00777
#
# Poissons Ratio (x) = -0.19971 0.28472
# Poissons Ratio (y) = -0.37654 0.28574
# Poissons Ratio (z) = 0.19472 0.10365
#
# Static dielectric constant tensor:
#      x y z
#    x 2.083910 -0.028860 -0.019870 
#    y -0.028860 2.061040 -0.010240 
#    z -0.019870 -0.010240 1.998560 
# 
# From -- ./inp_files/80712.got.cif
#   From: 2010.05.17/outbox.cif.g08.bks.cpg/sg2_41_cif.got.tgz:80712.got - 2010.06.03 11:33:40.
