data_PCOD9046986
_publ_section_title
;
Structure prediction by ZEFSAII (Michael W. Deem and Ramdas Pophale) SiO2 
 PCOD9046986
Probable space group: P -1
;
_chemical_formula_sum "Si O2"
_cell_formula_units_Z 16
_cell_length_a 8.448319
_cell_length_b 15.773808
_cell_length_c 9.206722
_cell_angle_alpha 103.007967
_cell_angle_beta 58.912156
_cell_angle_gamma 61.349500
_cell_volume 716.853531
_symmetry_space_group_name_H-M "P -1"
_symmetry_group_IT_number 2
_symmetry_cell_setting 'triclinic'
loop_
_space_group_symop_operation_xyz
x,y,z
-x,-y,-z
loop_
_atom_site_type_symbol
_atom_site_label
_atom_site_fract_x
_atom_site_fract_y
_atom_site_fract_z
Si Si1 0.303977 0.484024 0.102595
Si Si2 0.780367 0.688387 0.255539
Si Si3 0.018750 0.091927 0.075504
Si Si4 0.365416 0.262174 0.984747
Si Si5 0.438817 0.066423 0.404609
Si Si6 0.711295 0.985001 0.797485
Si Si7 0.547408 0.352495 0.472732
Si Si8 0.156543 0.581397 0.530915
O O1 0.423789 0.346044 0.989961
O O2 0.173266 0.540027 0.344936
O O3 0.076432 0.567798 0.120423
O O4 0.500000 0.500000 0.000000
O O5 0.666492 0.803295 0.455724
O O6 0.594840 0.668775 0.366575
O O7 0.753438 0.720461 0.111248
O O8 0.762659 0.234574 0.220840
O O9 0.049733 0.084281 0.231937
O O10 0.284036 0.033563 0.849900
O O11 0.000000 0.000000 0.000000
O O12 0.140516 0.317644 0.231703
O O13 0.597958 0.117017 0.856509
O O14 0.500000 0.000000 0.500000
O O15 0.236556 0.085892 0.400918
O O16 0.500000 0.000000 0.000000
O O17 0.322791 0.467426 0.520873
O O18 0.701175 0.373331 0.500482
#
# Coordination Sequence:
#
# PCOD9046986 Si02
#       8
#     2   2   2   2   2   2   2   2
#     4  12  29  46  71 108 144 185 245 296 359 423
#     4  12  26  46  73  98 152 185 233 301 357 431
#     4  11  24  42  71  99 140 181 238 293 352 419
#     4  12  25  48  74 104 144 191 238 294 367 423
#     4  11  23  45  67 103 134 189 238 286 358 416
#     4  10  24  43  70 101 142 182 238 295 349 428
#     4  11  25  45  69 103 142 187 238 284 362 418
#     4  11  26  43  75 102 139 186 240 290 353 430
#
# _framework density 22.319761
#
# number of rings (size 3 to 8) (size 9 to 14) (size 15 to 20)
#    0.000    0.750    3.750    3.000   10.500    0.000 
#    0.000    1.250    0.000    0.000    0.000    0.000 
#    0.000    0.000    0.000    0.000    0.000    0.000 
#
# Total GULP energy -89536.397453 kJ/mol
# GULP energy per Si atom -5596.024841 kJ/mol
# Density = 2.226896 g / cm^3
# Si number density = 22.319761 Si / 1000 Ang^3
#
#
#
# Elastic Constant Matrix: (Units=GPa)
#
#
# Indices 1 2 3 4 5 6 
#
# 1 67.9778 14.0894 16.5736 -14.8888 9.8200 11.0160
# 2 14.0894 93.5579 13.9623 -0.6307 4.5063 11.9444
# 3 16.5736 13.9623 76.6734 -5.2186 20.2461 4.0906
# 4 -14.8888 -0.6307 -5.2186 34.4299 -5.3086 8.1903
# 5 9.8200 4.5063 20.2461 -5.3086 37.5318 -2.8154
# 6 11.0160 11.9444 4.0906 8.1903 -2.8154 28.3550
#
#
#
# Elastic Compliance Matrix: (Units=1/GPa)
#
#
# Indices 1 2 3 4 5 6 
#
# 1 0.019776 -0.001160 -0.001957 0.010143 -0.003307 -0.010170
# 2 -0.001160 0.011680 -0.001453 0.000461 -0.000584 -0.004451
# 3 -0.001957 -0.001453 0.015994 0.000786 -0.007977 -0.001954
# 4 0.010143 0.000461 0.000786 0.037263 0.001019 -0.014910
# 5 -0.003307 -0.000584 -0.007977 0.001019 0.032447 0.005609
# 6 -0.010170 -0.004451 -0.001954 -0.014910 0.005609 0.046239
#
#
# Mechanical properties :
#
#
# Convention : Reuss Voigt Hill
#
# Bulk Modulus (GPa) = 26.10369 36.38440 31.24404
# Shear Modulus (GPa) = 26.98207 32.96892 29.97550
#
# Velocity S-wave (km/s) = 3.48068 3.84750 3.66868
# Velocity P-wave (km/s) = 5.27960 6.00620 5.65459
#
# Compressibility (1/GPa) = 0.03830877
#
# Stress axis : x y z
#
# Youngs Moduli (GPa) = 50.56683 85.61971 62.52316
#
# Poissons Ratio (x) = 0.09932 0.12237
# Poissons Ratio (y) = 0.05866 0.09086
# Poissons Ratio (z) = 0.09897 0.12442
#
# Static dielectric constant tensor:
#      x y z
#    x 1.849060 -0.009140 0.023890 
#    y -0.009140 1.876200 -0.024650 
#    z 0.023890 -0.024650 1.820250 
# 
# From -- ./inp_files/207602.got.cif
#   From: 2010.05.17/outbox.cif.g08.bks.cpg/sg2_104_cif.got.tgz:207602.got - 2010.06.03 11:33:40.
