data_PCOD9046073
_publ_section_title
;
Structure prediction by ZEFSAII (Michael W. Deem and Ramdas Pophale) SiO2 
 PCOD9046073
Probable space group: P -1
;
_chemical_formula_sum "Si O2"
_cell_formula_units_Z 12
_cell_length_a 12.646176
_cell_length_b 9.487858
_cell_length_c 6.119060
_cell_angle_alpha 64.555540
_cell_angle_beta 119.257638
_cell_angle_gamma 86.794270
_cell_volume 544.463112
_symmetry_space_group_name_H-M "P -1"
_symmetry_group_IT_number 2
_symmetry_cell_setting 'triclinic'
loop_
_space_group_symop_operation_xyz
x,y,z
-x,-y,-z
loop_
_atom_site_type_symbol
_atom_site_label
_atom_site_fract_x
_atom_site_fract_y
_atom_site_fract_z
Si Si1 0.795223 0.884243 0.356282
Si Si2 0.761451 0.186254 0.410034
Si Si3 0.251678 0.334325 0.193631
Si Si4 0.950609 0.368444 0.413808
Si Si5 0.357953 0.005609 0.277510
Si Si6 0.443012 0.513166 0.185696
O O1 0.749242 0.745915 0.520304
O O2 0.928960 0.782017 0.446950
O O3 0.825001 0.012194 0.467379
O O4 0.676097 0.985777 0.016068
O O5 0.858254 0.285162 0.501877
O O6 0.682589 0.140450 0.557170
O O7 0.663513 0.305833 0.060975
O O8 0.256547 0.182236 0.141390
O O9 0.376460 0.374501 0.223515
O O10 0.137039 0.508828 0.940399
O O11 0.000000 0.500000 0.500000
O O12 0.500000 0.000000 0.500000
O O13 0.500000 0.500000 0.500000
O O14 0.500000 0.500000 0.000000
#
# Coordination Sequence:
#
# PCOD9046073 Si02
#       6
#     2   2   2   2   2   2
#     4  11  24  44  69  98 141 186 231 302 358 432
#     4  10  26  43  67 106 135 187 240 296 363 432
#     4  10  24  42  67 102 131 188 240 290 360 429
#     4  11  22  47  70  97 137 184 242 302 360 432
#     4  11  24  42  68  99 143 181 236 286 363 433
#     4  11  26  44  72 103 148 192 242 302 362 437
#
# _framework density 22.040061000000001
#
# number of rings (size 3 to 8) (size 9 to 14) (size 15 to 20)
#    0.000    1.333    1.667    2.000    9.333    2.000 
#    6.000    0.000    0.000    0.000    0.000    0.000 
#    0.000    0.000    0.000    0.000    0.000    0.000 
#
# Total GULP energy -66810.394256 kJ/mol
# GULP energy per Si atom -5567.532855 kJ/mol
# Density = 2.198990 g / cm^3
# Si number density = 22.040061 Si / 1000 Ang^3
#
#
#
# Elastic Constant Matrix: (Units=GPa)
#
#
# Indices 1 2 3 4 5 6 
#
# 1 133.9452 44.8206 63.9488 -2.6770 -12.7854 41.0300
# 2 44.8206 96.4652 35.0128 -11.2397 2.6361 26.8853
# 3 63.9488 35.0128 107.9802 -3.2421 -12.3163 31.1308
# 4 -2.6770 -11.2397 -3.2421 31.5025 0.7180 -5.4489
# 5 -12.7854 2.6361 -12.3163 0.7180 24.6512 -20.6982
# 6 41.0300 26.8853 31.1308 -5.4489 -20.6982 48.8700
#
#
#
# Elastic Compliance Matrix: (Units=1/GPa)
#
#
# Indices 1 2 3 4 5 6 
#
# 1 0.012503 -0.002212 -0.004896 -0.001401 -0.001535 -0.006968
# 2 -0.002212 0.015914 -0.002163 0.003733 -0.012918 -0.010576
# 3 -0.004896 -0.002163 0.013859 -0.000248 0.002542 -0.002479
# 4 -0.001401 0.003733 -0.000248 0.033476 0.000474 0.003214
# 5 -0.001535 -0.012918 0.002542 0.000474 0.074709 0.038471
# 6 -0.006968 -0.010576 -0.002479 0.003214 0.038471 0.050362
#
#
# Mechanical properties :
#
#
# Convention : Reuss Voigt Hill
#
# Bulk Modulus (GPa) = 42.13024 69.55054 55.84039
# Shear Modulus (GPa) = 21.99971 33.97863 27.98917
#
# Velocity S-wave (km/s) = 3.16281 3.93068 3.56746
# Velocity P-wave (km/s) = 5.70040 7.22670 6.50845
#
# Compressibility (1/GPa) = 0.02373592
#
# Stress axis : x y z
#
# Youngs Moduli (GPa) = 79.97992 62.83602 72.15575
#
# Poissons Ratio (x) = 0.13897 0.35326
# Poissons Ratio (y) = 0.17688 0.15607
# Poissons Ratio (z) = 0.39156 0.13591
#
# Static dielectric constant tensor:
#      x y z
#    x 1.870650 -0.051780 0.002050 
#    y -0.051780 1.806550 0.048700 
#    z 0.002050 0.048700 1.894390 
# 
# From -- ./inp_files/21106.got.cif
#   From: 2010.05.17/outbox.cif.g08.bks.cpg/sg2_11_cif.got.tgz:21106.got - 2010.06.03 11:33:40.
