data_PCOD9046914
_publ_section_title
;
Structure prediction by ZEFSAII (Michael W. Deem and Ramdas Pophale) SiO2 
 PCOD9046914
Probable space group: P -1
;
_chemical_formula_sum "Si O2"
_cell_formula_units_Z 10
_cell_length_a 5.403869
_cell_length_b 12.784433
_cell_length_c 15.621569
_cell_angle_alpha 29.691594
_cell_angle_beta 58.495283
_cell_angle_gamma 69.988533
_cell_volume 439.529175
_symmetry_space_group_name_H-M "P -1"
_symmetry_group_IT_number 2
_symmetry_cell_setting 'triclinic'
loop_
_space_group_symop_operation_xyz
x,y,z
-x,-y,-z
loop_
_atom_site_type_symbol
_atom_site_label
_atom_site_fract_x
_atom_site_fract_y
_atom_site_fract_z
Si Si1 0.659779 0.150489 0.942791
Si Si2 0.330969 0.962748 0.466260
Si Si3 0.180419 0.322001 0.616315
Si Si4 0.753113 0.101101 0.142617
Si Si5 0.318332 0.496483 0.720371
O O1 0.547427 0.370079 0.809060
O O2 0.014438 0.217743 0.807463
O O3 0.581239 0.038060 0.128362
O O4 0.500000 0.000000 0.000000
O O5 0.540748 0.117158 0.247679
O O6 0.500000 0.000000 0.500000
O O7 0.307718 0.717175 0.612702
O O8 0.000000 0.000000 0.500000
O O9 0.530197 0.433254 0.450847
O O10 0.000000 0.500000 0.500000
O O11 0.111567 0.107260 0.719031
O O12 0.000795 0.321246 0.917104
#
# Coordination Sequence:
#
# PCOD9046914 Si02
#       5
#     2   2   2   2   2
#     4  11  22  40  68 103 147 183 224 281 351 433
#     4  11  29  52  74 101 139 185 245 312 362 402
#     4   9  20  40  60  98 140 181 216 272 342 422
#     4  11  24  43  69 100 139 184 241 289 347 434
#     4  10  24  43  69 103 135 186 237 285 352 431
#
# _framework density 22.751619999999999
#
# number of rings (size 3 to 8) (size 9 to 14) (size 15 to 20)
#    0.000    1.600    2.000    0.600    5.600    2.400 
#   14.400    0.000    0.000    0.000    0.000    0.000 
#    0.000    0.000    0.000    0.000    0.000    0.000 
#
# Total GULP energy -55791.329839 kJ/mol
# GULP energy per Si atom -5579.132984 kJ/mol
# Density = 2.269984 g / cm^3
# Si number density = 22.751620 Si / 1000 Ang^3
#
#
#
# Elastic Constant Matrix: (Units=GPa)
#
#
# Indices 1 2 3 4 5 6 
#
# 1 108.7903 75.6019 61.5403 24.2113 -15.7838 -0.3125
# 2 75.6019 166.1995 77.3224 24.3913 -5.8627 -18.0979
# 3 61.5403 77.3224 177.2445 29.5951 -20.5139 0.3942
# 4 24.2113 24.3913 29.5951 68.1069 -3.3157 4.4322
# 5 -15.7838 -5.8627 -20.5139 -3.3157 47.0795 -0.1291
# 6 -0.3125 -18.0979 0.3942 4.4322 -0.1291 35.6847
#
#
#
# Elastic Compliance Matrix: (Units=1/GPa)
#
#
# Indices 1 2 3 4 5 6 
#
# 1 0.015404 -0.005915 -0.002010 -0.002152 0.003393 -0.002563
# 2 -0.005915 0.010612 -0.002637 -0.000999 -0.001866 0.005476
# 3 -0.002010 -0.002637 0.008042 -0.001640 0.002383 -0.001231
# 4 -0.002152 -0.000999 -0.001640 0.016667 -0.000394 -0.002579
# 5 0.003393 -0.001866 0.002383 -0.000394 0.023154 -0.000810
# 6 -0.002563 0.005476 -0.001231 -0.002579 -0.000810 0.031109
#
#
# Mechanical properties :
#
#
# Convention : Reuss Voigt Hill
#
# Bulk Modulus (GPa) = 77.31895 97.90706 87.61301
# Shear Modulus (GPa) = 38.33670 46.02552 42.18111
#
# Velocity S-wave (km/s) = 4.10934 4.50261 4.31046
# Velocity P-wave (km/s) = 7.52152 8.37602 7.96025
#
# Compressibility (1/GPa) = 0.01293344
#
# Stress axis : x y z
#
# Youngs Moduli (GPa) = 64.91969 94.23682 124.34087
#
# Poissons Ratio (x) = 0.55745 0.24991
# Poissons Ratio (y) = 0.38403 0.32785
# Poissons Ratio (z) = 0.13048 0.24848
#
# Static dielectric constant tensor:
#      x y z
#    x 1.982990 0.002340 0.017920 
#    y 0.002340 1.839330 -0.016060 
#    z 0.017920 -0.016060 1.953640 
# 
# From -- ./inp_files/60083.got.cif
#   From: 2010.05.17/outbox.cif.g08.bks.cpg/sg2_31_cif.got.tgz:60083.got - 2010.06.03 11:33:40.
