data_PCOD9046520
_publ_section_title
;
Structure prediction by ZEFSAII (Michael W. Deem and Ramdas Pophale) SiO2 
 PCOD9046520
Probable space group: P -1
;
_chemical_formula_sum "Si O2"
_cell_formula_units_Z 14
_cell_length_a 12.104794
_cell_length_b 11.728545
_cell_length_c 9.554753
_cell_angle_alpha 36.575503
_cell_angle_beta 57.335780
_cell_angle_gamma 64.433414
_cell_volume 680.474133
_symmetry_space_group_name_H-M "P -1"
_symmetry_group_IT_number 2
_symmetry_cell_setting 'triclinic'
loop_
_space_group_symop_operation_xyz
x,y,z
-x,-y,-z
loop_
_atom_site_type_symbol
_atom_site_label
_atom_site_fract_x
_atom_site_fract_y
_atom_site_fract_z
Si Si1 0.145979 0.461011 0.048130
Si Si2 0.888355 0.260990 0.427158
Si Si3 0.384508 0.349155 0.184777
Si Si4 0.347570 0.270696 0.587760
Si Si5 0.796914 0.863201 0.899613
Si Si6 0.449676 0.047577 0.202171
Si Si7 0.391543 0.627088 0.366306
O O1 0.273848 0.451447 0.065371
O O2 0.168338 0.321760 0.034707
O O3 0.014110 0.373516 0.292110
O O4 0.118944 0.669501 0.797805
O O5 0.748874 0.330900 0.513131
O O6 0.900978 0.035191 0.667229
O O7 0.314528 0.259167 0.458628
O O8 0.435206 0.172018 0.230414
O O9 0.500000 0.500000 0.000000
O O10 0.365673 0.494646 0.381587
O O11 0.484024 0.155931 0.621479
O O12 0.256074 0.195229 0.852444
O O13 0.684512 0.957760 0.785733
O O14 0.544123 0.174755 0.914949
O O15 0.500000 0.500000 0.500000
#
# Coordination Sequence:
#
# PCOD9046520 Si02
#       7
#     2   2   2   2   2   2   2
#     4  10  24  43  60  90 120 161 201 248 300 357
#     4  11  22  40  67  87 120 157 206 251 296 350
#     4  11  24  40  62  88 128 158 196 247 304 363
#     4  12  22  36  59  91 124 157 196 249 301 354
#     4  11  21  36  66  90 117 155 206 252 290 352
#     4  11  22  37  59  94 120 156 201 248 301 350
#     4  12  20  35  62  94 121 152 201 254 294 344
#
# _framework density 20.573889000000001
#
# number of rings (size 3 to 8) (size 9 to 14) (size 15 to 20)
#    0.000    0.857    5.714    3.000    2.000    0.000 
#    0.000    1.429    0.000    0.000    0.000    0.000 
#    0.000    0.000    0.000    0.000    0.000    0.000 
#
# Total GULP energy -78120.224119 kJ/mol
# GULP energy per Si atom -5580.016009 kJ/mol
# Density = 2.052706 g / cm^3
# Si number density = 20.573889 Si / 1000 Ang^3
#
#
#
# Elastic Constant Matrix: (Units=GPa)
#
#
# Indices 1 2 3 4 5 6 
#
# 1 86.1515 21.7534 22.5740 10.5765 -5.0253 -1.7071
# 2 21.7534 90.3510 24.1925 10.0210 -0.1596 5.1991
# 3 22.5740 24.1925 73.9234 3.6507 -1.3559 11.4618
# 4 10.5765 10.0210 3.6507 36.7740 1.5909 3.4205
# 5 -5.0253 -0.1596 -1.3559 1.5909 32.9747 -1.4522
# 6 -1.7071 5.1991 11.4618 3.4205 -1.4522 24.9329
#
#
#
# Elastic Compliance Matrix: (Units=1/GPa)
#
#
# Indices 1 2 3 4 5 6 
#
# 1 0.013792 -0.002108 -0.003896 -0.003455 0.002265 0.003781
# 2 -0.002108 0.012779 -0.003270 -0.002446 -0.000319 -0.000989
# 3 -0.003896 -0.003270 0.016895 0.001046 -0.000296 -0.007512
# 4 -0.003455 -0.002446 0.001046 0.029244 -0.002097 -0.004342
# 5 0.002265 -0.000319 -0.000296 -0.002097 0.030866 0.002443
# 6 0.003781 -0.000989 -0.007512 -0.004342 0.002443 0.044764
#
#
# Mechanical properties :
#
#
# Convention : Reuss Voigt Hill
#
# Bulk Modulus (GPa) = 40.13157 43.05173 41.59165
# Shear Modulus (GPa) = 28.53991 31.06338 29.80164
#
# Velocity S-wave (km/s) = 3.72854 3.88989 3.81007
# Velocity P-wave (km/s) = 6.17126 6.41450 6.29406
#
# Compressibility (1/GPa) = 0.02491804
#
# Stress axis : x y z
#
# Youngs Moduli (GPa) = 72.50767 78.25579 59.18881
#
# Poissons Ratio (x) = 0.16494 0.23059
# Poissons Ratio (y) = 0.15283 0.19355
# Poissons Ratio (z) = 0.28247 0.25591
#
# Static dielectric constant tensor:
#      x y z
#    x 1.763430 -0.016860 -0.048130 
#    y -0.016860 1.805230 0.028340 
#    z -0.048130 0.028340 1.791850 
# 
# From -- ./inp_files/183782.got.cif
#   From: 2010.05.17/outbox.cif.g08.bks.cpg/sg2_92_cif.got.tgz:183782.got - 2010.06.03 11:33:40.
