data_PCOD9046689
_publ_section_title
;
Structure prediction by ZEFSAII (Michael W. Deem and Ramdas Pophale) SiO2 
 PCOD9046689
Probable space group: P -1
;
_chemical_formula_sum "Si O2"
_cell_formula_units_Z 12
_cell_length_a 8.945409
_cell_length_b 22.755529
_cell_length_c 20.636093
_cell_angle_alpha 11.486948
_cell_angle_beta 37.163055
_cell_angle_gamma 36.084755
_cell_volume 492.261926
_symmetry_space_group_name_H-M "P -1"
_symmetry_group_IT_number 2
_symmetry_cell_setting 'triclinic'
loop_
_space_group_symop_operation_xyz
x,y,z
-x,-y,-z
loop_
_atom_site_type_symbol
_atom_site_label
_atom_site_fract_x
_atom_site_fract_y
_atom_site_fract_z
Si Si1 0.602963 0.438959 0.100887
Si Si2 0.270756 0.644331 0.549937
Si Si3 0.102805 0.299912 0.861800
Si Si4 0.109708 0.447501 0.945676
Si Si5 0.151021 0.657128 0.328860
Si Si6 0.421685 0.884188 0.787685
O O1 0.441350 0.227190 0.419538
O O2 0.500000 0.500000 0.000000
O O3 0.561376 0.754363 0.812649
O O4 0.900813 0.276187 0.174773
O O5 0.120169 0.482365 0.725127
O O6 0.126405 0.682286 0.628348
O O7 0.548080 0.426477 0.698085
O O8 0.294522 0.972022 0.161091
O O9 0.140916 0.521070 0.551583
O O10 0.849744 0.188279 0.049261
O O11 0.400293 0.288525 0.030852
O O12 0.000000 0.500000 0.000000
O O13 0.000000 0.500000 0.500000
O O14 0.000000 0.000000 0.000000
#
# Coordination Sequence:
#
# PCOD9046689 Si02
#       6
#     2   2   2   2   2   2
#     4  11  22  39  61  91 129 177 230 286 341 405
#     4  12  26  46  72 104 145 190 236 294 357 421
#     4  12  25  45  71 106 143 186 236 293 357 430
#     4  10  24  43  67 100 141 189 241 293 348 415
#     4  12  26  48  77 109 142 184 234 294 361 432
#     4  11  23  39  62  92 131 176 227 284 342 407
#
# _framework density 24.377265999999999
#
# number of rings (size 3 to 8) (size 9 to 14) (size 15 to 20)
#    0.000    0.667    0.000    8.000    0.000    8.000 
#    0.000    0.000    0.000    0.000    0.000    0.000 
#    0.000    0.000    0.000    0.000    0.000    0.000 
#
# Total GULP energy -66995.859303 kJ/mol
# GULP energy per Si atom -5582.988275 kJ/mol
# Density = 2.432178 g / cm^3
# Si number density = 24.377266 Si / 1000 Ang^3
#
#
#
# Elastic Constant Matrix: (Units=GPa)
#
#
# Indices 1 2 3 4 5 6 
#
# 1 173.5396 52.6113 44.0006 4.1548 16.6373 -7.1847
# 2 52.6113 88.6040 44.9742 9.4908 20.7421 -6.6811
# 3 44.0006 44.9742 137.4174 -11.4043 22.0855 19.0295
# 4 4.1548 9.4908 -11.4043 45.9190 7.7821 4.2350
# 5 16.6373 20.7421 22.0855 7.7821 46.3261 7.5956
# 6 -7.1847 -6.6811 19.0295 4.2350 7.5956 39.0202
#
#
#
# Elastic Compliance Matrix: (Units=1/GPa)
#
#
# Indices 1 2 3 4 5 6 
#
# 1 0.007251 -0.003277 -0.001395 -0.000360 -0.000677 0.001625
# 2 -0.003277 0.018034 -0.005392 -0.004587 -0.004624 0.006512
# 3 -0.001395 -0.005392 0.011186 0.005007 -0.002150 -0.006760
# 4 -0.000360 -0.004587 0.005007 0.025094 -0.003546 -0.005327
# 5 -0.000677 -0.004624 -0.002150 -0.003546 0.026274 -0.004598
# 6 0.001625 0.006512 -0.006760 -0.005327 -0.004598 0.031812
#
#
# Mechanical properties :
#
#
# Convention : Reuss Voigt Hill
#
# Bulk Modulus (GPa) = 61.19493 75.85926 68.52709
# Shear Modulus (GPa) = 34.42908 43.45138 38.94023
#
# Velocity S-wave (km/s) = 3.76219 4.22649 4.00108
# Velocity P-wave (km/s) = 6.63550 7.41647 7.03683
#
# Compressibility (1/GPa) = 0.01634122
#
# Stress axis : x y z
#
# Youngs Moduli (GPa) = 137.92100 55.45075 89.40002
#
# Poissons Ratio (x) = 0.18174 0.12472
# Poissons Ratio (y) = 0.45203 0.48205
# Poissons Ratio (z) = 0.19240 0.29899
#
# Static dielectric constant tensor:
#      x y z
#    x 1.897790 -0.055980 0.022840 
#    y -0.055980 2.053810 0.007050 
#    z 0.022840 0.007050 1.914150 
# 
# From -- ./inp_files/132226.got.cif
#   From: 2010.05.17/outbox.cif.g08.bks.cpg/sg2_67_cif.got.tgz:132226.got - 2010.06.03 11:33:40.
