data_PCOD9046263
_publ_section_title
;
Structure prediction by ZEFSAII (Michael W. Deem and Ramdas Pophale) SiO2 
 PCOD9046263
Probable space group: P -1
;
_chemical_formula_sum "Si O2"
_cell_formula_units_Z 14
_cell_length_a 12.595733
_cell_length_b 9.742040
_cell_length_c 13.988629
_cell_angle_alpha 142.458533
_cell_angle_beta 37.375678
_cell_angle_gamma 120.149817
_cell_volume 595.794865
_symmetry_space_group_name_H-M "P -1"
_symmetry_group_IT_number 2
_symmetry_cell_setting 'triclinic'
loop_
_space_group_symop_operation_xyz
x,y,z
-x,-y,-z
loop_
_atom_site_type_symbol
_atom_site_label
_atom_site_fract_x
_atom_site_fract_y
_atom_site_fract_z
Si Si1 0.321743 0.530744 0.530148
Si Si2 0.958474 0.647605 0.971452
Si Si3 0.645623 0.248445 0.721295
Si Si4 0.993454 0.144907 0.744741
Si Si5 0.623979 0.049784 0.022960
Si Si6 0.396301 0.001087 0.674634
Si Si7 0.205315 0.464791 0.366785
O O1 0.496444 0.293783 0.298279
O O2 0.224973 0.473483 0.471553
O O3 0.166341 0.604945 0.763287
O O4 0.612034 0.251957 0.427278
O O5 0.939653 0.387146 0.854771
O O6 0.810547 0.809534 0.090991
O O7 0.934257 0.779837 0.164527
O O8 0.521964 0.085912 0.703105
O O9 0.724751 0.333240 0.615755
O O10 0.500000 0.500000 0.000000
O O11 0.836326 0.080524 0.543577
O O12 0.811240 0.079571 0.863386
O O13 0.500000 0.000000 0.000000
O O14 0.680141 0.800422 0.900782
O O15 0.500000 0.000000 0.500000
O O16 0.000000 0.500000 0.500000
#
# Coordination Sequence:
#
# PCOD9046263 Si02
#       7
#     2   2   2   2   2   2   2
#     4  11  25  45  72 103 136 186 234 284 351 417
#     4  11  26  42  73 103 138 181 233 291 344 410
#     4  12  28  44  72 104 138 187 230 286 349 419
#     4  11  24  48  66 102 144 180 232 290 343 407
#     4  10  24  42  69  98 142 185 222 286 351 407
#     4  12  23  47  72 100 141 181 231 288 353 409
#     4  11  23  45  68 100 142 180 232 289 345 408
#
# _framework density 23.498021000000001
#
# number of rings (size 3 to 8) (size 9 to 14) (size 15 to 20)
#    0.000    0.857    4.286    1.286    8.000    1.714 
#    0.000    3.571    0.000    0.000    0.000    0.000 
#    0.000    0.000    0.000    0.000    0.000    0.000 
#
# Total GULP energy -78339.967181 kJ/mol
# GULP energy per Si atom -5595.711941 kJ/mol
# Density = 2.344454 g / cm^3
# Si number density = 23.498021 Si / 1000 Ang^3
#
#
#
# Elastic Constant Matrix: (Units=GPa)
#
#
# Indices 1 2 3 4 5 6 
#
# 1 52.4038 19.6335 22.9204 -2.8985 -17.3292 16.6638
# 2 19.6335 131.7159 40.7033 28.5398 -1.6593 17.0403
# 3 22.9204 40.7033 163.1016 19.8959 -22.9806 9.1325
# 4 -2.8985 28.5398 19.8959 41.9504 -8.8690 -9.0921
# 5 -17.3292 -1.6593 -22.9806 -8.8690 34.4012 -6.3102
# 6 16.6638 17.0403 9.1325 -9.0921 -6.3102 37.4294
#
#
#
# Elastic Compliance Matrix: (Units=1/GPa)
#
#
# Indices 1 2 3 4 5 6 
#
# 1 0.028268 -0.004336 -0.001481 0.007172 0.013755 -0.006188
# 2 -0.004336 0.011765 -0.001617 -0.010375 -0.006594 -0.006663
# 3 -0.001481 -0.001617 0.007498 -0.001841 0.003662 -0.000264
# 4 0.007172 -0.010375 -0.001841 0.038240 0.014249 0.013671
# 5 0.013755 -0.006594 0.003662 0.014249 0.043029 0.006700
# 6 -0.006188 -0.006663 -0.000264 0.013671 0.006700 0.037020
#
#
# Mechanical properties :
#
#
# Convention : Reuss Voigt Hill
#
# Bulk Modulus (GPa) = 30.61532 57.08174 43.84853
# Shear Modulus (GPa) = 26.09928 40.35381 33.22654
#
# Velocity S-wave (km/s) = 3.33633 4.14856 3.76442
# Velocity P-wave (km/s) = 5.28192 6.87694 6.13152
#
# Compressibility (1/GPa) = 0.03266338
#
# Stress axis : x y z
#
# Youngs Moduli (GPa) = 35.37558 84.99678 133.36650
#
# Poissons Ratio (x) = 0.36857 0.19746
# Poissons Ratio (y) = 0.15340 0.21567
# Poissons Ratio (z) = 0.05238 0.13745
#
# Static dielectric constant tensor:
#      x y z
#    x 1.908520 -0.007600 0.055140 
#    y -0.007600 1.816110 0.019030 
#    z 0.055140 0.019030 1.960130 
# 
# From -- ./inp_files/573638.got.cif
#   From: 2010.05.17/outbox.cif.g08.bks.cpg/sg2_287_cif.got.tgz:573638.got - 2010.06.03 11:33:40.
