data_PCOD9046050
_publ_section_title
;
Structure prediction by ZEFSAII (Michael W. Deem and Ramdas Pophale) SiO2 
 PCOD9046050
Probable space group: P -1
;
_chemical_formula_sum "Si O2"
_cell_formula_units_Z 14
_cell_length_a 11.370346
_cell_length_b 4.940996
_cell_length_c 10.051483
_cell_angle_alpha 87.967416
_cell_angle_beta 72.162217
_cell_angle_gamma 73.178535
_cell_volume 513.675794
_symmetry_space_group_name_H-M "P -1"
_symmetry_group_IT_number 2
_symmetry_cell_setting 'triclinic'
loop_
_space_group_symop_operation_xyz
x,y,z
-x,-y,-z
loop_
_atom_site_type_symbol
_atom_site_label
_atom_site_fract_x
_atom_site_fract_y
_atom_site_fract_z
Si Si1 0.494037 0.033848 0.291530
Si Si2 0.167235 0.700587 0.368150
Si Si3 0.358238 0.556077 0.813630
Si Si4 0.777016 0.852121 0.492840
Si Si5 0.898067 0.033377 0.190289
Si Si6 0.650322 0.629044 0.898906
Si Si7 0.938222 0.543662 0.829198
O O1 0.611810 0.750153 0.256330
O O2 0.375081 0.024957 0.424213
O O3 0.551068 0.290608 0.295457
O O4 0.436319 0.108004 0.159631
O O5 0.150795 0.010715 0.422360
O O6 0.293769 0.605924 0.231241
O O7 0.065109 0.618635 0.308829
O O8 0.191264 0.481592 0.485908
O O9 0.213432 0.757749 0.861504
O O10 0.399379 0.494427 0.953431
O O11 0.817581 0.949836 0.339002
O O12 0.991163 0.216148 0.201875
O O13 0.982524 0.730852 0.107217
O O14 0.785104 0.680260 0.904849
#
# Coordination Sequence:
#
# PCOD9046050 Si02
#       7
#     2   2   2   2   2   2   2
#     4  11  24  43  66  95 122 170 216 272 303 364
#     4   9  21  39  64  94 122 162 202 271 309 355
#     4  12  26  42  67  92 134 168 213 253 321 381
#     4  11  22  41  64  94 132 157 219 257 319 368
#     4  12  26  41  62 100 129 179 198 249 326 397
#     4   9  23  44  68  98 121 162 217 273 314 360
#     4  10  24  42  66  97 130 160 216 255 327 372
#
# _framework density 27.254545
#
# number of rings (size 3 to 8) (size 9 to 14) (size 15 to 20)
#    0.857    0.571    0.000    5.143    0.000    9.143 
#    0.000    0.000    0.000    0.000    0.000    0.000 
#    0.000    0.000    0.000    0.000    0.000    0.000 
#
# Total GULP energy -78433.097836 kJ/mol
# GULP energy per Si atom -5602.364131 kJ/mol
# Density = 2.719251 g / cm^3
# Si number density = 27.254545 Si / 1000 Ang^3
#
#
#
# Elastic Constant Matrix: (Units=GPa)
#
#
# Indices 1 2 3 4 5 6 
#
# 1 101.9729 37.9437 11.6882 -14.0458 -8.0362 6.3765
# 2 37.9437 158.2935 18.7637 -19.4833 -4.5317 5.4465
# 3 11.6882 18.7637 108.3085 -6.0118 -16.4431 6.4859
# 4 -14.0458 -19.4833 -6.0118 29.1247 -0.9074 2.7003
# 5 -8.0362 -4.5317 -16.4431 -0.9074 29.6507 -12.5382
# 6 6.3765 5.4465 6.4859 2.7003 -12.5382 47.1615
#
#
#
# Elastic Compliance Matrix: (Units=1/GPa)
#
#
# Indices 1 2 3 4 5 6 
#
# 1 0.011439 -0.002097 -0.000217 0.004225 0.002419 -0.000873
# 2 -0.002097 0.007411 -0.000812 0.003842 -0.000063 -0.000698
# 3 -0.000217 -0.000812 0.010340 0.001652 0.005647 0.000108
# 4 0.004225 0.003842 0.001652 0.039627 0.002678 -0.002799
# 5 0.002419 -0.000063 0.005647 0.002678 0.041751 0.009850
# 6 -0.000873 -0.000698 0.000108 -0.002799 0.009850 0.024167
#
#
# Mechanical properties :
#
#
# Convention : Reuss Voigt Hill
#
# Bulk Modulus (GPa) = 43.59672 56.15181 49.87426
# Shear Modulus (GPa) = 33.64005 41.19932 37.41968
#
# Velocity S-wave (km/s) = 3.51706 3.89221 3.70938
# Velocity P-wave (km/s) = 5.70296 6.39113 6.05683
#
# Compressibility (1/GPa) = 0.02293751
#
# Stress axis : x y z
#
# Youngs Moduli (GPa) = 87.42084 134.92875 96.71538
#
# Poissons Ratio (x) = 0.28292 0.02099
# Poissons Ratio (y) = 0.18331 0.07856
# Poissons Ratio (z) = 0.01897 0.10960
#
# Static dielectric constant tensor:
#      x y z
#    x 2.210840 -0.055770 0.054810 
#    y -0.055770 2.050480 -0.003090 
#    z 0.054810 -0.003090 2.131390 
# 
# From -- ./inp_files/410009.got.cif
#   From: 2010.05.17/outbox.cif.g08.bks.cpg/sg2_206_cif.got.tgz:410009.got - 2010.06.03 11:33:40.
