data_PCOD9046059
_publ_section_title
;
Structure prediction by ZEFSAII (Michael W. Deem and Ramdas Pophale) SiO2 
 PCOD9046059
Probable space group: P -1
;
_chemical_formula_sum "Si O2"
_cell_formula_units_Z 16
_cell_length_a 22.837629
_cell_length_b 8.373215
_cell_length_c 15.039027
_cell_angle_alpha 124.198567
_cell_angle_beta 18.702314
_cell_angle_gamma 129.123061
_cell_volume 708.020927
_symmetry_space_group_name_H-M "P -1"
_symmetry_group_IT_number 2
_symmetry_cell_setting 'triclinic'
loop_
_space_group_symop_operation_xyz
x,y,z
-x,-y,-z
loop_
_atom_site_type_symbol
_atom_site_label
_atom_site_fract_x
_atom_site_fract_y
_atom_site_fract_z
Si Si1 0.641347 0.016204 0.886795
Si Si2 0.761275 0.115646 0.167655
Si Si3 0.589277 0.353965 0.773216
Si Si4 0.536805 0.740449 0.276963
Si Si5 0.932481 0.233068 0.250324
Si Si6 0.165066 0.111226 0.575415
Si Si7 0.303928 0.167086 0.657194
Si Si8 0.433333 0.644268 0.817829
O O1 0.794674 0.927328 0.596594
O O2 0.705662 0.244337 0.907450
O O3 0.500000 0.000000 0.000000
O O4 0.512993 0.867382 0.100797
O O5 0.680657 0.981578 0.152914
O O6 0.683379 0.933484 0.298185
O O7 0.658459 0.273114 0.391831
O O8 0.994635 0.200234 0.860103
O O9 0.525300 0.332905 0.756526
O O10 0.821944 0.394446 0.458150
O O11 0.500000 0.500000 0.000000
O O12 0.636862 0.595204 0.132580
O O13 0.907667 0.114801 0.343260
O O14 0.810152 0.043395 0.301139
O O15 0.157216 0.292477 0.915958
O O16 0.361553 0.253569 0.388671
O O17 0.498028 0.296551 0.363531
#
# Coordination Sequence:
#
# PCOD9046059 Si02
#       8
#     2   2   2   2   2   2   2   2
#     4  10  17  34  55  81 106 139 187 230 270 316
#     4  10  21  40  56  77 119 152 179 221 283 342
#     4  12  21  34  56  82 117 147 178 230 282 334
#     4  11  24  36  54  85 117 150 178 221 290 338
#     4   9  16  30  56  83 105 137 188 229 276 311
#     4   9  18  34  60  81 106 148 186 237 267 313
#     4   9  16  34  58  77 103 145 187 233 263 314
#     4  10  19  33  57  86 109 138 193 237 266 317
#
# _framework density 22.598202000000001
#
# number of rings (size 3 to 8) (size 9 to 14) (size 15 to 20)
#    0.000    2.000    5.000    2.250    0.000    1.000 
#    2.250    1.250    0.000    0.000    0.000    0.000 
#    0.000    0.000    0.000    0.000    0.000    0.000 
#
# Total GULP energy -89285.300487 kJ/mol
# GULP energy per Si atom -5580.331280 kJ/mol
# Density = 2.254677 g / cm^3
# Si number density = 22.598202 Si / 1000 Ang^3
#
#
#
# Elastic Constant Matrix: (Units=GPa)
#
#
# Indices 1 2 3 4 5 6 
#
# 1 32.2088 9.5294 14.2957 -2.2784 12.9123 -1.7949
# 2 9.5294 51.1727 11.0927 23.3889 6.2087 1.3346
# 3 14.2957 11.0927 82.0472 28.3885 10.0551 13.3296
# 4 -2.2784 23.3889 28.3885 32.0411 -2.0514 1.5211
# 5 12.9123 6.2087 10.0551 -2.0514 30.9310 0.2988
# 6 -1.7949 1.3346 13.3296 1.5211 0.2988 26.6497
#
#
#
# Elastic Compliance Matrix: (Units=1/GPa)
#
#
# Indices 1 2 3 4 5 6 
#
# 1 0.052575 -0.020640 -0.019203 0.034634 -0.009384 0.012308
# 2 -0.020640 0.042865 0.016889 -0.047835 -0.008562 -0.009158
# 3 -0.019203 0.016889 0.030782 -0.040757 -0.007937 -0.015120
# 4 0.034634 -0.047835 -0.040757 0.104772 0.015159 0.018964
# 5 -0.009384 -0.008562 -0.007937 0.015159 0.041528 0.002436
# 6 0.012308 -0.009158 -0.015120 0.018964 0.002436 0.045265
#
#
# Mechanical properties :
#
#
# Convention : Reuss Voigt Hill
#
# Bulk Modulus (GPa) = 12.45100 26.14047 19.29574
# Shear Modulus (GPa) = 12.80518 26.62508 19.71513
#
# Velocity S-wave (km/s) = 2.38302 3.43621 2.95688
# Velocity P-wave (km/s) = 3.61848 5.22838 4.49607
#
# Compressibility (1/GPa) = 0.08031484
#
# Stress axis : x y z
#
# Youngs Moduli (GPa) = 19.02041 23.32883 32.48651
#
# Poissons Ratio (x) = 0.48151 0.62384
# Poissons Ratio (y) = 0.39258 -0.54867
# Poissons Ratio (z) = 0.36525 -0.39401
#
# Static dielectric constant tensor:
#      x y z
#    x 1.882890 0.016380 -0.006880 
#    y 0.016380 1.896260 0.030990 
#    z -0.006880 0.030990 1.892360 
# 
# From -- ./inp_files/278680.got.cif
#   From: 2010.05.17/outbox.cif.g08.bks.cpg/sg2_140_cif.got.tgz:278680.got - 2010.06.03 11:33:40.
