data_PCOD9046541
_publ_section_title
;
Structure prediction by ZEFSAII (Michael W. Deem and Ramdas Pophale) SiO2 
 PCOD9046541
Probable space group: P -1
;
_chemical_formula_sum "Si O2"
_cell_formula_units_Z 16
_cell_length_a 15.347906
_cell_length_b 16.172500
_cell_length_c 5.741365
_cell_angle_alpha 102.063493
_cell_angle_beta 79.292952
_cell_angle_gamma 35.760895
_cell_volume 637.821220
_symmetry_space_group_name_H-M "P -1"
_symmetry_group_IT_number 2
_symmetry_cell_setting 'triclinic'
loop_
_space_group_symop_operation_xyz
x,y,z
-x,-y,-z
loop_
_atom_site_type_symbol
_atom_site_label
_atom_site_fract_x
_atom_site_fract_y
_atom_site_fract_z
Si Si1 0.900495 0.462827 0.669720
Si Si2 0.610380 0.321862 0.400883
Si Si3 0.175323 0.741220 0.450357
Si Si4 0.602397 0.594102 0.108453
Si Si5 0.960243 0.797885 0.879687
Si Si6 0.238279 0.142193 0.638707
Si Si7 0.380248 0.152263 0.957715
Si Si8 0.769499 0.070887 0.796028
O O1 0.765273 0.524834 0.951252
O O2 0.937823 0.369558 0.379447
O O3 0.100679 0.301960 0.610856
O O4 0.781317 0.645516 0.766342
O O5 0.500000 0.500000 0.500000
O O6 0.737936 0.243063 0.510894
O O7 0.732623 0.181193 0.050625
O O8 0.460630 0.377062 0.585101
O O9 0.322789 0.555173 0.140800
O O10 0.102220 0.756619 0.736158
O O11 0.018345 0.094468 0.504766
O O12 0.410996 0.784096 0.189136
O O13 0.870776 0.847421 0.197395
O O14 0.791117 0.969336 0.889021
O O15 0.275666 0.174912 0.851624
O O16 0.448989 0.946070 0.325298
O O17 0.500000 0.000000 0.000000
#
# Coordination Sequence:
#
# PCOD9046541 Si02
#       8
#     2   2   2   2   2   2   2   2
#     4  11  26  44  72  99 140 182 221 283 338 405
#     4  12  24  41  67  96 138 179 230 286 338 396
#     4   9  22  45  61  96 133 179 220 283 333 396
#     4  11  25  42  67  98 133 182 229 276 343 399
#     4   9  24  44  68  99 138 173 231 277 338 401
#     4  11  25  46  71 106 135 177 223 276 340 414
#     4  11  27  47  74 105 139 176 223 276 343 409
#     4  10  24  43  63  96 132 178 231 281 337 399
#
# _framework density 25.085397
#
# number of rings (size 3 to 8) (size 9 to 14) (size 15 to 20)
#    0.750    0.750    1.250    1.875    7.000    4.500 
#    2.250    0.000    0.000    0.000    0.000    0.000 
#    0.000    0.000    0.000    0.000    0.000    0.000 
#
# Total GULP energy -89535.341578 kJ/mol
# GULP energy per Si atom -5595.958849 kJ/mol
# Density = 2.502830 g / cm^3
# Si number density = 25.085397 Si / 1000 Ang^3
#
#
#
# Elastic Constant Matrix: (Units=GPa)
#
#
# Indices 1 2 3 4 5 6 
#
# 1 91.3365 24.8604 14.9224 12.6427 -0.4786 -6.5318
# 2 24.8604 148.8017 18.7586 29.7485 3.8734 -6.0543
# 3 14.9224 18.7586 72.7226 18.1578 -23.8677 12.9767
# 4 12.6427 29.7485 18.1578 38.2260 7.5822 0.7721
# 5 -0.4786 3.8734 -23.8677 7.5822 43.5735 9.8173
# 6 -6.5318 -6.0543 12.9767 0.7721 9.8173 41.8618
#
#
#
# Elastic Compliance Matrix: (Units=1/GPa)
#
#
# Indices 1 2 3 4 5 6 
#
# 1 0.012172 -0.001208 -0.003035 -0.001331 -0.001896 0.003135
# 2 -0.001208 0.008215 -0.001064 -0.005372 -0.000753 0.001605
# 3 -0.003035 -0.001064 0.027921 -0.015349 0.021172 -0.013965
# 4 -0.001331 -0.005372 -0.015349 0.041240 -0.016681 0.006925
# 5 -0.001896 -0.000753 0.021172 -0.016681 0.041172 -0.016316
# 6 0.003135 0.001605 -0.013965 0.006925 -0.016316 0.032637
#
#
# Mechanical properties :
#
#
# Convention : Reuss Voigt Hill
#
# Bulk Modulus (GPa) = 26.52926 47.77154 37.15040
# Shear Modulus (GPa) = 26.80454 41.68688 34.24571
#
# Velocity S-wave (km/s) = 3.27239 4.08094 3.69882
# Velocity P-wave (km/s) = 4.98764 6.42575 5.75182
#
# Compressibility (1/GPa) = 0.03769423
#
# Stress axis : x y z
#
# Youngs Moduli (GPa) = 82.15793 121.72843 35.81506
#
# Poissons Ratio (x) = 0.14704 0.10871
# Poissons Ratio (y) = 0.09924 0.03809
# Poissons Ratio (z) = 0.24938 0.12946
#
# Static dielectric constant tensor:
#      x y z
#    x 1.980320 0.000270 -0.029080 
#    y 0.000270 2.006100 -0.052890 
#    z -0.029080 -0.052890 1.961770 
# 
# From -- ./inp_files/98025.got.cif
#   From: 2010.05.17/outbox.cif.g08.bks.cpg/sg2_50_cif.got.tgz:98025.got - 2010.06.03 11:33:40.
