data_PCOD9046657
_publ_section_title
;
Structure prediction by ZEFSAII (Michael W. Deem and Ramdas Pophale) SiO2 
 PCOD9046657
Probable space group: P -1
;
_chemical_formula_sum "Si O2"
_cell_formula_units_Z 14
_cell_length_a 7.787958
_cell_length_b 9.956919
_cell_length_c 10.793525
_cell_angle_alpha 55.373740
_cell_angle_beta 121.193540
_cell_angle_gamma 96.311609
_cell_volume 568.584946
_symmetry_space_group_name_H-M "P -1"
_symmetry_group_IT_number 2
_symmetry_cell_setting 'triclinic'
loop_
_space_group_symop_operation_xyz
x,y,z
-x,-y,-z
loop_
_atom_site_type_symbol
_atom_site_label
_atom_site_fract_x
_atom_site_fract_y
_atom_site_fract_z
Si Si1 0.190304 0.243228 0.677979
Si Si2 0.464916 0.787261 0.480336
Si Si3 0.598071 0.058100 0.239332
Si Si4 0.178303 0.535247 0.134360
Si Si5 0.571187 0.613088 0.126496
Si Si6 0.086418 0.802675 0.170220
Si Si7 0.815355 0.253905 0.369520
O O1 0.308634 0.376104 0.704013
O O2 0.046160 0.225387 0.747429
O O3 0.036742 0.273975 0.486540
O O4 0.349300 0.068880 0.789505
O O5 0.670516 0.636643 0.661387
O O6 0.326517 0.758422 0.327203
O O7 0.312556 0.796508 0.535899
O O8 0.522574 0.958945 0.374151
O O9 0.794794 0.123716 0.323685
O O10 0.432903 0.225107 0.043296
O O11 0.339462 0.612567 0.077286
O O12 0.075895 0.673269 0.125977
O O13 0.000000 0.500000 0.000000
O O14 0.684218 0.442172 0.190134
O O15 0.000000 0.000000 0.000000
#
# Coordination Sequence:
#
# PCOD9046657 Si02
#       7
#     2   2   2   2   2   2   2
#     4  11  24  40  65  98 132 172 217 268 331 394
#     4  10  24  44  68  98 136 179 221 268 330 401
#     4  12  23  41  67  98 133 172 217 276 326 381
#     4  11  26  47  70  97 132 178 225 273 330 395
#     4  11  24  44  66  96 129 171 221 274 329 392
#     4  11  23  43  70 101 136 177 220 269 332 404
#     4  10  24  43  66  96 133 173 219 270 330 391
#
# _framework density 24.622530000000001
#
# number of rings (size 3 to 8) (size 9 to 14) (size 15 to 20)
#    0.000    1.143    0.000    5.143    0.000   13.714 
#    0.000    0.000    0.000    0.000    0.000    0.000 
#    0.000    0.000    0.000    0.000    0.000    0.000 
#
# Total GULP energy -78418.759586 kJ/mol
# GULP energy per Si atom -5601.339970 kJ/mol
# Density = 2.456649 g / cm^3
# Si number density = 24.622530 Si / 1000 Ang^3
#
#
#
# Elastic Constant Matrix: (Units=GPa)
#
#
# Indices 1 2 3 4 5 6 
#
# 1 84.5383 23.0759 33.1640 -0.7570 -3.0400 16.2232
# 2 23.0759 108.7834 26.9333 26.7245 -3.6187 17.8155
# 3 33.1640 26.9333 130.6360 4.3885 5.9334 23.5789
# 4 -0.7570 26.7245 4.3885 50.2741 17.4004 2.6811
# 5 -3.0400 -3.6187 5.9334 17.4004 29.2082 10.9832
# 6 16.2232 17.8155 23.5789 2.6811 10.9832 30.7401
#
#
#
# Elastic Compliance Matrix: (Units=1/GPa)
#
#
# Indices 1 2 3 4 5 6 
#
# 1 0.014558 -0.001220 -0.002436 -0.000096 0.004429 -0.006681
# 2 -0.001220 0.014744 -0.000987 -0.011655 0.012878 -0.010729
# 3 -0.002436 -0.000987 0.009441 0.000067 -0.000355 -0.005262
# 4 -0.000096 -0.011655 0.000067 0.034795 -0.027257 0.013458
# 5 0.004429 0.012878 -0.000355 -0.027257 0.063874 -0.029973
# 6 -0.006681 -0.010729 -0.005262 0.013458 -0.029973 0.055847
#
#
# Mechanical properties :
#
#
# Convention : Reuss Voigt Hill
#
# Bulk Modulus (GPa) = 33.94788 54.47822 44.21305
# Shear Modulus (GPa) = 23.54432 38.09679 30.82056
#
# Velocity S-wave (km/s) = 3.09562 3.93776 3.54181
# Velocity P-wave (km/s) = 5.15698 6.54583 5.89247
#
# Compressibility (1/GPa) = 0.02945692
#
# Stress axis : x y z
#
# Youngs Moduli (GPa) = 68.68941 67.82199 105.92582
#
# Poissons Ratio (x) = 0.08273 0.25807
# Poissons Ratio (y) = 0.08379 0.10456
# Poissons Ratio (z) = 0.16735 0.06695
#
# Static dielectric constant tensor:
#      x y z
#    x 1.953480 0.023420 0.023370 
#    y 0.023420 1.942750 0.047560 
#    z 0.023370 0.047560 2.016080 
# 
# From -- ./inp_files/292329.got.cif
#   From: 2010.05.17/outbox.cif.g08.bks.cpg/sg2_147_cif.got.tgz:292329.got - 2010.06.03 11:33:40.
