data_PCOD9046638
_publ_section_title
;
Structure prediction by ZEFSAII (Michael W. Deem and Ramdas Pophale) SiO2 
 PCOD9046638
Probable space group: P -1
;
_chemical_formula_sum "Si O2"
_cell_formula_units_Z 12
_cell_length_a 5.414093
_cell_length_b 14.650684
_cell_length_c 15.357588
_cell_angle_alpha 148.823496
_cell_angle_beta 129.387033
_cell_angle_gamma 59.601814
_cell_volume 485.310797
_symmetry_space_group_name_H-M "P -1"
_symmetry_group_IT_number 2
_symmetry_cell_setting 'triclinic'
loop_
_space_group_symop_operation_xyz
x,y,z
-x,-y,-z
loop_
_atom_site_type_symbol
_atom_site_label
_atom_site_fract_x
_atom_site_fract_y
_atom_site_fract_z
Si Si1 0.530687 0.513130 0.764140
Si Si2 0.787210 0.380991 0.939150
Si Si3 0.702621 0.193807 0.944761
Si Si4 0.326407 0.603251 0.617600
Si Si5 0.971269 0.055947 0.640842
Si Si6 0.101443 0.149131 0.360820
O O1 0.568249 0.610529 0.758960
O O2 0.378254 0.312946 0.553380
O O3 0.273754 0.634615 0.848783
O O4 0.854678 0.514467 0.896502
O O5 0.819070 0.265749 0.937818
O O6 0.736123 0.213721 0.725400
O O7 0.500000 0.500000 0.000000
O O8 0.321398 0.147179 0.816074
O O9 0.835942 0.002965 0.819777
O O10 0.500000 0.500000 0.500000
O O11 0.000000 0.500000 0.500000
O O12 0.219416 0.774721 0.684738
O O13 0.914377 0.917595 0.596069
O O14 0.000000 0.000000 0.500000
#
# Coordination Sequence:
#
# PCOD9046638 Si02
#       6
#     2   2   2   2   2   2
#     4  10  24  45  74 102 146 187 244 304 368 439
#     4  10  24  46  68 103 142 189 248 301 371 440
#     4  10  24  43  66 106 136 189 240 298 366 446
#     4  10  24  45  73 117 142 193 249 303 373 448
#     4  10  24  46  68 103 142 189 248 301 371 440
#     4  10  24  45  74 102 146 187 244 304 368 439
#
# _framework density 24.726424000000002
#
# number of rings (size 3 to 8) (size 9 to 14) (size 15 to 20)
#    0.000    2.000    0.000    0.000    9.333   10.000 
#    0.000   12.500    0.000    0.000    0.000    0.000 
#    0.000    0.000    0.000    0.000    0.000    0.000 
#
# Total GULP energy -66859.762628 kJ/mol
# GULP energy per Si atom -5571.646886 kJ/mol
# Density = 2.467015 g / cm^3
# Si number density = 24.726424 Si / 1000 Ang^3
#
#
#
# Elastic Constant Matrix: (Units=GPa)
#
#
# Indices 1 2 3 4 5 6 
#
# 1 76.6504 23.4389 25.4703 9.2325 -34.6069 -12.7320
# 2 23.4389 150.8944 49.4019 5.0193 -12.1850 -9.3720
# 3 25.4703 49.4019 49.1754 19.2815 -23.0072 -15.5503
# 4 9.2325 5.0193 19.2815 45.6854 -8.4533 -7.4790
# 5 -34.6069 -12.1850 -23.0072 -8.4533 62.4847 3.7163
# 6 -12.7320 -9.3720 -15.5503 -7.4790 3.7163 46.5470
#
#
#
# Elastic Compliance Matrix: (Units=1/GPa)
#
#
# Indices 1 2 3 4 5 6 
#
# 1 0.019076 -0.000709 -0.004173 0.000089 0.008724 0.002999
# 2 -0.000709 0.010844 -0.013981 0.004043 -0.002771 -0.001810
# 3 -0.004173 -0.013981 0.050798 -0.015444 0.011003 0.009654
# 4 0.000089 0.004043 -0.015444 0.027778 -0.001104 0.000231
# 5 0.008724 -0.002771 0.011003 -0.001104 0.023994 0.003411
# 6 0.002999 -0.001810 0.009654 0.000231 0.003411 0.024929
#
#
# Mechanical properties :
#
#
# Convention : Reuss Voigt Hill
#
# Bulk Modulus (GPa) = 23.26028 52.59360 37.92694
# Shear Modulus (GPa) = 23.86902 42.83737 33.35319
#
# Velocity S-wave (km/s) = 3.11034 4.16679 3.67671
# Velocity P-wave (km/s) = 4.72508 6.66828 5.77894
#
# Compressibility (1/GPa) = 0.04299175
#
# Stress axis : x y z
#
# Youngs Moduli (GPa) = 52.42215 92.21805 19.68572
#
# Poissons Ratio (x) = 0.06540 0.08215
# Poissons Ratio (y) = 0.03718 0.27523
# Poissons Ratio (z) = 0.21876 1.28930
#
# Static dielectric constant tensor:
#      x y z
#    x 2.168210 0.047780 -0.146650 
#    y 0.047780 1.979340 0.004340 
#    z -0.146650 0.004340 2.159630 
# 
# From -- ./inp_files/229287.got.cif
#   From: 2010.05.17/outbox.cif.g08.bks.cpg/sg2_115_cif.got.tgz:229287.got - 2010.06.03 11:33:40.
