data_PCOD9046873
_publ_section_title
;
Structure prediction by ZEFSAII (Michael W. Deem and Ramdas Pophale) SiO2 
 PCOD9046873
Probable space group: P -1
;
_chemical_formula_sum "Si O2"
_cell_formula_units_Z 16
_cell_length_a 9.028353
_cell_length_b 12.642588
_cell_length_c 8.210389
_cell_angle_alpha 99.458922
_cell_angle_beta 80.373260
_cell_angle_gamma 132.303326
_cell_volume 681.621504
_symmetry_space_group_name_H-M "P -1"
_symmetry_group_IT_number 2
_symmetry_cell_setting 'triclinic'
loop_
_space_group_symop_operation_xyz
x,y,z
-x,-y,-z
loop_
_atom_site_type_symbol
_atom_site_label
_atom_site_fract_x
_atom_site_fract_y
_atom_site_fract_z
Si Si1 0.361103 0.225851 0.807346
Si Si2 0.574886 0.415240 0.494333
Si Si3 0.896140 0.753642 0.896949
Si Si4 0.937616 0.563897 0.686133
Si Si5 0.658122 0.260597 0.214662
Si Si6 0.735773 0.049521 0.881390
Si Si7 0.240421 0.700006 0.143793
Si Si8 0.965240 0.953211 0.680409
O O1 0.446031 0.315230 0.647970
O O2 0.535043 0.237518 0.854449
O O3 0.262404 0.264480 0.958759
O O4 0.180527 0.063963 0.751965
O O5 0.500000 0.500000 0.500000
O O6 0.806112 0.520368 0.538999
O O7 0.559271 0.320369 0.326940
O O8 0.848332 0.607225 0.842069
O O9 0.883374 0.804731 0.735117
O O10 0.120183 0.867301 0.964363
O O11 0.890282 0.425006 0.732705
O O12 0.176161 0.698417 0.672646
O O13 0.499716 0.095596 0.137115
O O14 0.790802 0.346086 0.051034
O O15 0.771606 0.177370 0.810801
O O16 0.834180 0.989163 0.777296
O O17 0.000000 0.000000 0.500000
#
# Coordination Sequence:
#
# PCOD9046873 Si02
#       8
#     2   2   2   2   2   2   2   2
#     4  10  24  43  68  99 143 179 240 291 347 414
#     4  11  28  46  69 102 144 193 236 290 355 418
#     4  11  24  45  73 106 140 185 237 295 352 420
#     4  11  27  45  69 102 147 187 235 288 358 424
#     4  12  24  44  72 102 144 183 240 289 354 415
#     4  11  24  44  73 106 141 186 234 295 350 419
#     4  11  24  44  69 107 138 187 241 284 357 420
#     4  11  24  44  69 105 139 182 236 292 358 412
#
# _framework density 23.473437000000001
#
# number of rings (size 3 to 8) (size 9 to 14) (size 15 to 20)
#    0.000    1.000    1.250    4.875    8.750    2.000 
#    4.500    3.125    0.000    0.000    0.000    0.000 
#    0.000    0.000    0.000    0.000    0.000    0.000 
#
# Total GULP energy -89323.604085 kJ/mol
# GULP energy per Si atom -5582.725255 kJ/mol
# Density = 2.342001 g / cm^3
# Si number density = 23.473437 Si / 1000 Ang^3
#
#
#
# Elastic Constant Matrix: (Units=GPa)
#
#
# Indices 1 2 3 4 5 6 
#
# 1 123.2495 62.8347 13.7442 -2.8489 19.0828 -2.3503
# 2 62.8347 103.4547 31.4625 9.1118 3.2865 -18.8123
# 3 13.7442 31.4625 62.2014 7.1880 -6.1563 -13.2502
# 4 -2.8489 9.1118 7.1880 39.1715 1.5284 9.3155
# 5 19.0828 3.2865 -6.1563 1.5284 20.8086 -4.0640
# 6 -2.3503 -18.8123 -13.2502 9.3155 -4.0640 52.8802
#
#
#
# Elastic Compliance Matrix: (Units=1/GPa)
#
#
# Indices 1 2 3 4 5 6 
#
# 1 0.015768 -0.010089 -0.001665 0.005673 -0.014839 -0.005445
# 2 -0.010089 0.018678 -0.004419 -0.006121 0.006750 0.006686
# 3 -0.001665 -0.004419 0.021321 -0.004647 0.009905 0.005276
# 4 0.005673 -0.006121 -0.004647 0.030798 -0.009681 -0.009259
# 5 -0.014839 0.006750 0.009905 -0.009681 0.066396 0.011032
# 6 -0.005445 0.006686 0.005276 -0.009259 0.011032 0.024848
#
#
# Mechanical properties :
#
#
# Convention : Reuss Voigt Hill
#
# Bulk Modulus (GPa) = 42.69607 56.10983 49.40295
# Shear Modulus (GPa) = 22.93996 34.62968 28.78482
#
# Velocity S-wave (km/s) = 3.12953 3.84509 3.50562
# Velocity P-wave (km/s) = 5.59349 6.60821 6.12191
#
# Compressibility (1/GPa) = 0.02342136
#
# Stress axis : x y z
#
# Youngs Moduli (GPa) = 63.42138 53.53944 46.90192
#
# Poissons Ratio (x) = 0.54014 0.07811
# Poissons Ratio (y) = 0.63983 0.20724
# Poissons Ratio (z) = 0.10562 0.23657
#
# Static dielectric constant tensor:
#      x y z
#    x 1.923090 0.073870 0.020550 
#    y 0.073870 1.869760 -0.002530 
#    z 0.020550 -0.002530 1.986720 
# 
# From -- ./inp_files/188450.got.cif
#   From: 2010.05.17/outbox.cif.g08.bks.cpg/sg2_95_cif.got.tgz:188450.got - 2010.06.03 11:33:40.
