data_PCOD9046131
_publ_section_title
;
Structure prediction by ZEFSAII (Michael W. Deem and Ramdas Pophale) SiO2 
 PCOD9046131
Probable space group: P -1
;
_chemical_formula_sum "Si O2"
_cell_formula_units_Z 14
_cell_length_a 11.099836
_cell_length_b 10.255525
_cell_length_c 9.717411
_cell_angle_alpha 136.834646
_cell_angle_beta 78.300976
_cell_angle_gamma 114.872925
_cell_volume 676.840250
_symmetry_space_group_name_H-M "P -1"
_symmetry_group_IT_number 2
_symmetry_cell_setting 'triclinic'
loop_
_space_group_symop_operation_xyz
x,y,z
-x,-y,-z
loop_
_atom_site_type_symbol
_atom_site_label
_atom_site_fract_x
_atom_site_fract_y
_atom_site_fract_z
Si Si1 0.081863 0.421101 0.027052
Si Si2 0.917264 0.934311 0.111593
Si Si3 0.228222 0.481361 0.776961
Si Si4 0.402907 0.358092 0.036955
Si Si5 0.026132 0.623167 0.443812
Si Si6 0.458207 0.354845 0.532888
Si Si7 0.448279 0.921963 0.103676
O O1 0.115574 0.560840 0.264749
O O2 0.007097 0.185609 0.914879
O O3 0.194288 0.417839 0.894428
O O4 0.000000 0.500000 0.000000
O O5 0.760050 0.770040 0.019741
O O6 0.919836 0.136706 0.343490
O O7 0.000000 0.000000 0.000000
O O8 0.109442 0.433168 0.657643
O O9 0.319445 0.365576 0.617302
O O10 0.306500 0.729921 0.962607
O O11 0.435770 0.522777 0.280571
O O12 0.500000 0.500000 0.000000
O O13 0.461811 0.184810 0.927267
O O14 0.000000 0.500000 0.500000
O O15 0.500000 0.500000 0.500000
O O16 0.445913 0.122130 0.334880
O O17 0.500000 0.000000 0.000000
#
# Coordination Sequence:
#
# PCOD9046131 Si02
#       7
#     2   2   2   2   2   2   2
#     4  10  24  46  65  96 140 175 229 282 341 416
#     4  12  26  42  73 107 141 184 233 289 353 416
#     4  10  24  42  68 100 140 173 238 292 342 411
#     4  11  27  47  67 105 147 178 233 296 352 413
#     4  11  25  42  68 102 139 186 225 287 353 417
#     4  11  23  42  71 100 131 185 238 289 339 412
#     4  11  23  42  72  97 129 188 236 284 343 414
#
# _framework density 20.684350999999999
#
# number of rings (size 3 to 8) (size 9 to 14) (size 15 to 20)
#    0.000    1.143    4.286    1.714    4.000    8.571 
#    0.000    0.000    0.000    0.000    0.000    0.000 
#    0.000    0.000    0.000    0.000    0.000    0.000 
#
# Total GULP energy -78034.840370 kJ/mol
# GULP energy per Si atom -5573.917169 kJ/mol
# Density = 2.063727 g / cm^3
# Si number density = 20.684351 Si / 1000 Ang^3
#
#
#
# Elastic Constant Matrix: (Units=GPa)
#
#
# Indices 1 2 3 4 5 6 
#
# 1 104.8654 48.1972 57.8137 4.4728 -1.3048 3.8966
# 2 48.1972 183.6985 73.3598 -16.6067 -7.9097 -12.7556
# 3 57.8137 73.3598 195.2780 3.5963 -18.3853 -5.8097
# 4 4.4728 -16.6067 3.5963 49.0811 0.6055 -12.0227
# 5 -1.3048 -7.9097 -18.3853 0.6055 47.6310 5.1346
# 6 3.8966 -12.7556 -5.8097 -12.0227 5.1346 29.8367
#
#
#
# Elastic Compliance Matrix: (Units=1/GPa)
#
#
# Indices 1 2 3 4 5 6 
#
# 1 0.012678 -0.002802 -0.002845 -0.002987 -0.000694 -0.004492
# 2 -0.002802 0.007705 -0.002010 0.004238 -0.000166 0.005005
# 3 -0.002845 -0.002010 0.006952 -0.000934 0.002273 0.000098
# 4 -0.002987 0.004238 -0.000934 0.025208 -0.001398 0.012418
# 5 -0.000694 -0.000166 0.002273 -0.001398 0.022267 -0.003933
# 6 -0.004492 0.005005 0.000098 0.012418 -0.003933 0.041942
#
#
# Mechanical properties :
#
#
# Convention : Reuss Voigt Hill
#
# Bulk Modulus (GPa) = 83.18048 93.62034 88.40041
# Shear Modulus (GPa) = 36.74523 45.60785 41.17654
#
# Velocity S-wave (km/s) = 4.21940 4.70078 4.46658
# Velocity P-wave (km/s) = 8.00245 8.65002 8.33253
#
# Compressibility (1/GPa) = 0.01202205
#
# Stress axis : x y z
#
# Youngs Moduli (GPa) = 78.87764 129.78769 143.83848
#
# Poissons Ratio (x) = 0.36367 0.40918
# Poissons Ratio (y) = 0.22102 0.28908
# Poissons Ratio (z) = 0.22438 0.26084
#
# Static dielectric constant tensor:
#      x y z
#    x 1.845710 0.058360 -0.026530 
#    y 0.058360 1.732950 -0.016420 
#    z -0.026530 -0.016420 1.712560 
# 
# From -- ./inp_files/245902.got.cif
#   From: 2010.05.17/outbox.cif.g08.bks.cpg/sg2_123_cif.got.tgz:245902.got - 2010.06.03 11:33:40.
