data_PCOD9046748
_publ_section_title
;
Structure prediction by ZEFSAII (Michael W. Deem and Ramdas Pophale) SiO2 
 PCOD9046748
Probable space group: P -1
;
_chemical_formula_sum "Si O2"
_cell_formula_units_Z 16
_cell_length_a 25.760369
_cell_length_b 19.001846
_cell_length_c 6.847246
_cell_angle_alpha 99.625035
_cell_angle_beta 112.581742
_cell_angle_gamma 19.092991
_cell_volume 771.100268
_symmetry_space_group_name_H-M "P -1"
_symmetry_group_IT_number 2
_symmetry_cell_setting 'triclinic'
loop_
_space_group_symop_operation_xyz
x,y,z
-x,-y,-z
loop_
_atom_site_type_symbol
_atom_site_label
_atom_site_fract_x
_atom_site_fract_y
_atom_site_fract_z
Si Si1 0.153987 0.257516 0.739404
Si Si2 0.866982 0.539197 0.788291
Si Si3 0.407938 0.691136 0.412490
Si Si4 0.447244 0.021878 0.131781
Si Si5 0.627663 0.158679 0.206388
Si Si6 0.132210 0.731538 0.607669
Si Si7 0.127406 0.851116 0.318987
Si Si8 0.079651 0.132513 0.838914
O O1 0.000000 0.500000 0.500000
O O2 0.025563 0.395813 0.820673
O O3 0.224005 0.095571 0.670357
O O4 0.382178 0.020536 0.992520
O O5 0.766154 0.690884 0.915420
O O6 0.989716 0.314159 0.893187
O O7 0.659020 0.775233 0.458601
O O8 0.500000 0.500000 0.500000
O O9 0.369655 0.790627 0.584780
O O10 0.611151 0.475882 0.487388
O O11 0.193931 0.946767 0.086528
O O12 0.500000 0.000000 0.000000
O O13 0.737563 0.065725 0.142896
O O14 0.375103 0.448217 0.916854
O O15 0.076391 0.852224 0.401517
O O16 0.098765 0.693565 0.459437
O O17 0.950737 0.977838 0.621088
O O18 0.000000 0.000000 0.000000
#
# Coordination Sequence:
#
# PCOD9046748 Si02
#       8
#     2   2   2   2   2   2   2   2
#     4  11  23  43  70  97 135 180 221 279 341 394
#     4  10  24  43  67  97 137 174 224 277 338 404
#     4  12  25  42  67  97 134 173 223 273 335 396
#     4  11  22  43  68 100 133 175 226 275 337 407
#     4  11  25  45  66  98 133 173 226 273 329 409
#     4  11  23  42  67  90 133 173 219 275 330 390
#     4  11  22  40  63  94 128 170 219 270 329 393
#     4  11  25  43  65  99 130 175 220 274 333 395
#
# _framework density 20.749571
#
# number of rings (size 3 to 8) (size 9 to 14) (size 15 to 20)
#    0.000    1.000    3.750    2.625    3.500    1.000 
#    2.250    0.000    0.000    0.000    0.000    0.000 
#    0.000    0.000    0.000    0.000    0.000    0.000 
#
# Total GULP energy -89352.716073 kJ/mol
# GULP energy per Si atom -5584.544755 kJ/mol
# Density = 2.070234 g / cm^3
# Si number density = 20.749571 Si / 1000 Ang^3
#
#
#
# Elastic Constant Matrix: (Units=GPa)
#
#
# Indices 1 2 3 4 5 6 
#
# 1 97.2025 42.0566 31.4923 15.7094 1.4900 12.8085
# 2 42.0566 102.5619 28.5818 18.7712 -9.1425 7.7619
# 3 31.4923 28.5818 96.5112 5.0790 3.2261 9.1833
# 4 15.7094 18.7712 5.0790 30.0160 2.0783 4.5177
# 5 1.4900 -9.1425 3.2261 2.0783 36.8627 -6.9207
# 6 12.8085 7.7619 9.1833 4.5177 -6.9207 28.7212
#
#
#
# Elastic Compliance Matrix: (Units=1/GPa)
#
#
# Indices 1 2 3 4 5 6 
#
# 1 0.014167 -0.004270 -0.002705 -0.003512 -0.001990 -0.004226
# 2 -0.004270 0.013688 -0.002574 -0.006353 0.004353 0.001076
# 3 -0.002705 -0.002574 0.012266 0.001523 -0.002213 -0.002793
# 4 -0.003512 -0.006353 0.001523 0.039886 -0.004680 -0.004606
# 5 -0.001990 0.004353 -0.002213 -0.004680 0.030334 0.008464
# 6 -0.004226 0.001076 -0.002793 -0.004606 0.008464 0.040068
#
#
# Mechanical properties :
#
#
# Convention : Reuss Voigt Hill
#
# Bulk Modulus (GPa) = 47.56683 55.61523 51.59103
# Shear Modulus (GPa) = 28.32631 32.06297 30.19464
#
# Velocity S-wave (km/s) = 3.69880 3.93521 3.81884
# Velocity P-wave (km/s) = 6.41993 6.89269 6.66051
#
# Compressibility (1/GPa) = 0.02102305
#
# Stress axis : x y z
#
# Youngs Moduli (GPa) = 70.58816 73.05751 81.52734
#
# Poissons Ratio (x) = 0.31197 0.22050
# Poissons Ratio (y) = 0.30143 0.20984
# Poissons Ratio (z) = 0.19091 0.18804
#
# Static dielectric constant tensor:
#      x y z
#    x 1.789880 0.007300 -0.014890 
#    y 0.007300 1.807730 0.001680 
#    z -0.014890 0.001680 1.768410 
# 
# From -- ./inp_files/124840.got.cif
#   From: 2010.05.17/outbox.cif.g08.bks.cpg/sg2_63_cif.got.tgz:124840.got - 2010.06.03 11:33:40.
