data_PCOD9046330
_publ_section_title
;
Structure prediction by ZEFSAII (Michael W. Deem and Ramdas Pophale) SiO2 
 PCOD9046330
Probable space group: P -1
;
_chemical_formula_sum "Si O2"
_cell_formula_units_Z 13
_cell_length_a 6.954622
_cell_length_b 7.470500
_cell_length_c 17.633526
_cell_angle_alpha 57.523991
_cell_angle_beta 101.446300
_cell_angle_gamma 120.978040
_cell_volume 658.776156
_symmetry_space_group_name_H-M "P -1"
_symmetry_group_IT_number 2
_symmetry_cell_setting 'triclinic'
loop_
_space_group_symop_operation_xyz
x,y,z
-x,-y,-z
loop_
_atom_site_type_symbol
_atom_site_label
_atom_site_fract_x
_atom_site_fract_y
_atom_site_fract_z
Si Si1 0.268535 0.027881 0.130560
Si Si2 0.920246 0.525395 0.295929
Si Si3 0.312134 0.866719 0.762433
Si Si4 0.500000 0.000000 0.000000
Si Si5 0.843862 0.714993 0.535668
Si Si6 0.936411 0.231405 0.083494
Si Si7 0.650016 0.622937 0.378413
O O1 0.098455 0.756827 0.209255
O O2 0.483640 0.141257 0.177331
O O3 0.352644 0.018827 0.055410
O O4 0.135421 0.177201 0.091281
O O5 0.771140 0.308454 0.276006
O O6 0.767974 0.599192 0.317954
O O7 0.047119 0.430859 0.383129
O O8 0.111770 0.785938 0.826569
O O9 0.384192 0.142418 0.682787
O O10 0.705182 0.046931 0.065462
O O11 0.805595 0.664032 0.454601
O O12 0.593000 0.612370 0.573376
O O13 0.000000 0.000000 0.500000
O O14 0.000000 0.500000 0.000000
#
# Coordination Sequence:
#
# PCOD9046330 Si02
#       7
#     2   2   2   1   2   2   2
#     4  11  24  44  68 100 139 175 223 282 334 401
#     4  12  24  42  71  97 136 183 220 278 337 388
#     4  11  24  42  66 102 132 176 231 271 335 405
#     4  10  24  42  70  96 132 174 226 264 344 398
#     4  11  24  44  69  98 138 176 225 280 333 395
#     4  11  24  44  67  98 134 174 224 281 336 400
#     4  11  24  44  66  99 138 175 230 275 329 409
#
# _framework density 19.733561999999999
#
# number of rings (size 3 to 8) (size 9 to 14) (size 15 to 20)
#    0.000    0.923    4.615    1.846    0.000    6.769 
#    0.000    0.000    0.000    0.000    0.000    0.000 
#    0.000    0.000    0.000    0.000    0.000    0.000 
#
# Total GULP energy -72442.339825 kJ/mol
# GULP energy per Si atom -5572.487679 kJ/mol
# Density = 1.968865 g / cm^3
# Si number density = 19.733562 Si / 1000 Ang^3
#
#
#
# Elastic Constant Matrix: (Units=GPa)
#
#
# Indices 1 2 3 4 5 6 
#
# 1 125.4906 62.9766 36.9769 11.3242 -6.4725 -24.2087
# 2 62.9766 95.9384 45.9472 6.6491 -9.2023 -7.7337
# 3 36.9769 45.9472 72.7606 4.2029 1.8571 -12.8775
# 4 11.3242 6.6491 4.2029 44.8787 -5.7344 1.6225
# 5 -6.4725 -9.2023 1.8571 -5.7344 36.3955 -3.0936
# 6 -24.2087 -7.7337 -12.8775 1.6225 -3.0936 25.6293
#
#
#
# Elastic Compliance Matrix: (Units=1/GPa)
#
#
# Indices 1 2 3 4 5 6 
#
# 1 0.014779 -0.008495 0.000063 -0.002768 0.001038 0.011729
# 2 -0.008495 0.020550 -0.009933 0.000742 0.003764 -0.006406
# 3 0.000063 -0.009933 0.021471 -0.001230 -0.003148 0.007548
# 4 -0.002768 0.000742 -0.001230 0.023533 0.003115 -0.004123
# 5 0.001038 0.003764 -0.003148 0.003115 0.029596 0.003910
# 6 0.011729 -0.006406 0.007548 -0.004123 0.003910 0.052689
#
#
# Mechanical properties :
#
#
# Convention : Reuss Voigt Hill
#
# Bulk Modulus (GPa) = 49.82239 65.11010 57.46624
# Shear Modulus (GPa) = 24.26735 31.26661 27.76698
#
# Velocity S-wave (km/s) = 3.51058 3.98482 3.75520
# Velocity P-wave (km/s) = 6.46023 7.36464 6.92721
#
# Compressibility (1/GPa) = 0.02007130
#
# Stress axis : x y z
#
# Youngs Moduli (GPa) = 67.66278 48.66270 46.57345
#
# Poissons Ratio (x) = 0.41337 -0.00292
# Poissons Ratio (y) = 0.57477 0.46259
# Poissons Ratio (z) = -0.00424 0.48334
#
# Static dielectric constant tensor:
#      x y z
#    x 1.671900 0.012000 0.003720 
#    y 0.012000 1.686600 -0.031200 
#    z 0.003720 -0.031200 1.700810 
# 
# From -- ./inp_files/5795.got.cif
#   From: 2010.05.17/outbox.cif.g08.bks.cpg/sg2_3_cif.got.tgz:5795.got - 2010.06.03 11:33:40.
