data_PCOD9046158
_publ_section_title
;
Structure prediction by ZEFSAII (Michael W. Deem and Ramdas Pophale) SiO2 
 PCOD9046158
Probable space group: P -1
;
_chemical_formula_sum "Si O2"
_cell_formula_units_Z 14
_cell_length_a 5.842588
_cell_length_b 10.974833
_cell_length_c 12.719324
_cell_angle_alpha 61.009948
_cell_angle_beta 65.589440
_cell_angle_gamma 52.230028
_cell_volume 555.867901
_symmetry_space_group_name_H-M "P -1"
_symmetry_group_IT_number 2
_symmetry_cell_setting 'triclinic'
loop_
_space_group_symop_operation_xyz
x,y,z
-x,-y,-z
loop_
_atom_site_type_symbol
_atom_site_label
_atom_site_fract_x
_atom_site_fract_y
_atom_site_fract_z
Si Si1 0.877121 0.235709 0.725264
Si Si2 0.180227 0.652446 0.096390
Si Si3 0.828018 0.968110 0.947598
Si Si4 0.421808 0.566139 0.603933
Si Si5 0.594709 0.818505 0.489263
Si Si6 0.762136 0.852354 0.665539
Si Si7 0.732124 0.634774 0.926811
O O1 0.998178 0.273809 0.793699
O O2 0.556988 0.397948 0.710952
O O3 0.100451 0.208632 0.601974
O O4 0.853656 0.077692 0.808640
O O5 0.269910 0.470801 0.129173
O O6 0.462193 0.671340 0.036207
O O7 0.008133 0.773620 0.982508
O O8 0.500000 0.000000 0.000000
O O9 0.000000 0.000000 0.000000
O O10 0.500000 0.500000 0.500000
O O11 0.610796 0.649220 0.551830
O O12 0.092406 0.707603 0.635707
O O13 0.561740 0.857647 0.603365
O O14 0.331152 0.958587 0.408428
O O15 0.700804 0.795044 0.812208
O O16 0.000000 0.500000 0.000000
#
# Coordination Sequence:
#
# PCOD9046158 Si02
#       7
#     2   2   2   2   2   2   2
#     4  11  23  45  74 103 142 187 239 310 369 444
#     4  10  24  43  67 101 141 188 244 302 370 449
#     4  10  24  42  68 105 145 188 239 300 372 439
#     4  12  25  41  69 108 138 186 246 298 369 436
#     4  11  25  47  70 105 145 190 240 300 376 440
#     4  11  25  46  72  98 147 187 240 301 371 446
#     4  11  24  43  70 101 140 192 246 304 379 441
#
# _framework density 25.185842000000001
#
# number of rings (size 3 to 8) (size 9 to 14) (size 15 to 20)
#    0.000    1.143    1.429    3.429    8.000    2.286 
#    2.571    0.000    0.000    0.000    0.000    0.000 
#    0.000    0.000    0.000    0.000    0.000    0.000 
#
# Total GULP energy -78132.802772 kJ/mol
# GULP energy per Si atom -5580.914484 kJ/mol
# Density = 2.512852 g / cm^3
# Si number density = 25.185842 Si / 1000 Ang^3
#
#
#
# Elastic Constant Matrix: (Units=GPa)
#
#
# Indices 1 2 3 4 5 6 
#
# 1 59.0131 -0.0809 24.3113 4.0028 0.3162 -19.9341
# 2 -0.0809 81.7078 3.1466 -13.4084 9.0796 -25.2118
# 3 24.3113 3.1466 113.0464 -8.6500 23.3194 -7.9507
# 4 4.0028 -13.4084 -8.6500 47.7672 -9.0077 10.9745
# 5 0.3162 9.0796 23.3194 -9.0077 27.4524 -0.7373
# 6 -19.9341 -25.2118 -7.9507 10.9745 -0.7373 56.2634
#
#
#
# Elastic Compliance Matrix: (Units=1/GPa)
#
#
# Indices 1 2 3 4 5 6 
#
# 1 0.022242 0.002077 -0.004977 -0.003792 0.002279 0.008878
# 2 0.002077 0.015296 0.000806 0.001634 -0.005034 0.007319
# 3 -0.004977 0.000806 0.012057 0.000915 -0.010151 -0.000010
# 4 -0.003792 0.001634 0.000915 0.024294 0.006560 -0.005134
# 5 0.002279 -0.005034 -0.010151 0.006560 0.048746 -0.003524
# 6 0.008878 0.007319 -0.000010 -0.005134 -0.003524 0.025153
#
#
# Mechanical properties :
#
#
# Convention : Reuss Voigt Hill
#
# Bulk Modulus (GPa) = 22.02257 34.28015 28.15136
# Shear Modulus (GPa) = 29.92022 41.38929 35.65475
#
# Velocity S-wave (km/s) = 3.45044 4.05823 3.76662
# Velocity P-wave (km/s) = 4.96358 5.96652 5.48801
#
# Compressibility (1/GPa) = 0.04540796
#
# Stress axis : x y z
#
# Youngs Moduli (GPa) = 44.95929 65.37724 82.93840
#
# Poissons Ratio (x) = -0.13582 0.41278
# Poissons Ratio (y) = -0.09340 -0.06683
# Poissons Ratio (z) = 0.22376 -0.05268
#
# Static dielectric constant tensor:
#      x y z
#    x 2.027140 0.081810 0.014160 
#    y 0.081810 1.804010 0.043070 
#    z 0.014160 0.043070 2.089810 
# 
# From -- ./inp_files/365378.got.cif
#   From: 2010.05.17/outbox.cif.g08.bks.cpg/sg2_183_cif.got.tgz:365378.got - 2010.06.03 11:33:40.
