data_PCOD9046286
_publ_section_title
;
Structure prediction by ZEFSAII (Michael W. Deem and Ramdas Pophale) SiO2 
 PCOD9046286
Probable space group: P -1
;
_chemical_formula_sum "Si O2"
_cell_formula_units_Z 14
_cell_length_a 11.963608
_cell_length_b 18.797768
_cell_length_c 9.820636
_cell_angle_alpha 155.561543
_cell_angle_beta 129.930077
_cell_angle_gamma 38.698116
_cell_volume 550.766526
_symmetry_space_group_name_H-M "P -1"
_symmetry_group_IT_number 2
_symmetry_cell_setting 'triclinic'
loop_
_space_group_symop_operation_xyz
x,y,z
-x,-y,-z
loop_
_atom_site_type_symbol
_atom_site_label
_atom_site_fract_x
_atom_site_fract_y
_atom_site_fract_z
Si Si1 0.500341 0.644301 0.409512
Si Si2 0.286883 0.215306 0.244517
Si Si3 0.254314 0.962033 0.296112
Si Si4 0.852610 0.958868 0.339956
Si Si5 0.637071 0.591052 0.987114
Si Si6 0.290991 0.540926 0.494564
Si Si7 0.105969 0.317639 0.565996
O O1 0.684705 0.598359 0.411001
O O2 0.328014 0.839122 0.529628
O O3 0.449135 0.480959 0.098762
O O4 0.543858 0.652592 0.618227
O O5 0.219749 0.201327 0.314186
O O6 0.500000 0.000000 0.000000
O O7 0.141488 0.235122 0.061203
O O8 0.168173 0.041087 0.515244
O O9 0.164794 0.144979 0.431010
O O10 0.471310 0.847191 0.285798
O O11 0.245841 0.767560 0.904340
O O12 0.000000 0.000000 0.500000
O O13 0.663901 0.490337 0.683716
O O14 0.825184 0.544295 0.095534
O O15 0.110835 0.555609 0.399965
#
# Coordination Sequence:
#
# PCOD9046286 Si02
#       7
#     2   2   2   2   2   2   2
#     4  10  24  44  67  91 148 174 234 266 363 400
#     4  10  24  42  70 102 140 185 224 291 346 405
#     4  11  25  45  71 104 140 183 236 279 350 423
#     4  11  25  43  73 106 138 184 230 293 347 407
#     4  11  25  43  72 105 138 187 224 294 350 403
#     4  11  26  44  71 105 140 185 223 299 352 400
#     4  12  26  44  74 106 139 180 245 279 346 421
#
# _framework density 25.419118999999998
#
# number of rings (size 3 to 8) (size 9 to 14) (size 15 to 20)
#    0.000    1.143    0.000    5.571   12.000    6.857 
#    0.000    0.000    0.000    0.000    0.000    0.000 
#    0.000    0.000    0.000    0.000    0.000    0.000 
#
# Total GULP energy -78278.350464 kJ/mol
# GULP energy per Si atom -5591.310747 kJ/mol
# Density = 2.536126 g / cm^3
# Si number density = 25.419119 Si / 1000 Ang^3
#
#
#
# Elastic Constant Matrix: (Units=GPa)
#
#
# Indices 1 2 3 4 5 6 
#
# 1 209.2851 88.0902 75.7584 -27.5758 18.9588 5.9900
# 2 88.0902 108.9153 45.1891 -18.2186 2.5053 7.9661
# 3 75.7584 45.1891 99.2396 -40.0141 5.1044 11.7895
# 4 -27.5758 -18.2186 -40.0141 44.2640 2.8844 9.9516
# 5 18.9588 2.5053 5.1044 2.8844 51.7188 -9.5231
# 6 5.9900 7.9661 11.7895 9.9516 -9.5231 47.9023
#
#
#
# Elastic Compliance Matrix: (Units=1/GPa)
#
#
# Indices 1 2 3 4 5 6 
#
# 1 0.008747 -0.005320 -0.004544 -0.000835 -0.002340 0.000618
# 2 -0.005320 0.014581 -0.002094 0.000991 0.001171 -0.001217
# 3 -0.004544 -0.002094 0.024238 0.020720 -0.003636 -0.010076
# 4 -0.000835 0.000991 0.020720 0.045283 -0.007260 -0.016011
# 5 -0.002340 0.001171 -0.003636 -0.007260 0.022172 0.006909
# 6 0.000618 -0.001217 -0.010076 -0.016011 0.006909 0.028181
#
#
# Mechanical properties :
#
#
# Convention : Reuss Voigt Hill
#
# Bulk Modulus (GPa) = 42.28636 92.83505 67.56070
# Shear Modulus (GPa) = 28.57136 42.67052 35.62094
#
# Velocity S-wave (km/s) = 3.35626 4.10161 3.74751
# Velocity P-wave (km/s) = 5.62949 7.68323 6.73510
#
# Compressibility (1/GPa) = 0.02364829
#
# Stress axis : x y z
#
# Youngs Moduli (GPa) = 114.33060 68.58287 41.25779
#
# Poissons Ratio (x) = 0.36484 0.18749
# Poissons Ratio (y) = 0.60821 0.08641
# Poissons Ratio (z) = 0.51956 0.14364
#
# Static dielectric constant tensor:
#      x y z
#    x 2.007770 0.018970 0.066100 
#    y 0.018970 2.010070 0.077410 
#    z 0.066100 0.077410 2.222880 
# 
# From -- ./inp_files/189834.got.cif
#   From: 2010.05.17/outbox.cif.g08.bks.cpg/sg2_95_cif.got.tgz:189834.got - 2010.06.03 11:33:40.
