data_PCOD9046871
_publ_section_title
;
Structure prediction by ZEFSAII (Michael W. Deem and Ramdas Pophale) SiO2 
 PCOD9046871
Probable space group: P -1
;
_chemical_formula_sum "Si O2"
_cell_formula_units_Z 16
_cell_length_a 8.589437
_cell_length_b 15.026466
_cell_length_c 11.763916
_cell_angle_alpha 153.610500
_cell_angle_beta 86.932129
_cell_angle_gamma 88.978564
_cell_volume 666.458050
_symmetry_space_group_name_H-M "P -1"
_symmetry_group_IT_number 2
_symmetry_cell_setting 'triclinic'
loop_
_space_group_symop_operation_xyz
x,y,z
-x,-y,-z
loop_
_atom_site_type_symbol
_atom_site_label
_atom_site_fract_x
_atom_site_fract_y
_atom_site_fract_z
Si Si1 0.084811 0.833383 0.125799
Si Si2 0.473018 0.644800 0.425456
Si Si3 0.655456 0.882247 0.528032
Si Si4 0.412745 0.225827 0.941366
Si Si5 0.089242 0.420625 0.518519
Si Si6 0.132750 0.351504 0.937812
Si Si7 0.116255 0.772311 0.512809
Si Si8 0.428746 0.217540 0.202691
O O1 0.016002 0.764416 0.169223
O O2 0.955681 0.006027 0.271875
O O3 0.235911 0.947404 0.255155
O O4 0.119714 0.622655 0.815341
O O5 0.607629 0.757215 0.494500
O O6 0.495063 0.416310 0.117938
O O7 0.300180 0.750536 0.513533
O O8 0.478988 0.642554 0.559849
O O9 0.751850 0.734134 0.264949
O O10 0.491550 0.013063 0.644337
O O11 0.433793 0.211614 0.059999
O O12 0.235561 0.294079 0.983601
O O13 0.248544 0.282329 0.318167
O O14 0.000000 0.500000 0.500000
O O15 0.983187 0.292889 0.451790
O O16 0.095144 0.594390 0.218883
O O17 0.500000 0.000000 0.000000
#
# Coordination Sequence:
#
# PCOD9046871 Si02
#       8
#     2   2   2   2   2   2   2   2
#     4  11  24  43  69  97 137 180 231 283 353 413
#     4  11  24  42  67 101 143 180 232 285 348 418
#     4  12  24  41  69 102 136 183 231 287 347 417
#     4  11  24  44  67  97 138 182 227 287 346 411
#     4  11  25  46  69 102 141 184 234 287 350 416
#     4  10  24  45  68  99 137 180 234 290 343 410
#     4  10  24  43  68  99 138 184 229 284 346 420
#     4  12  24  44  72 100 141 181 232 290 343 413
#
# _framework density 24.007511000000001
#
# number of rings (size 3 to 8) (size 9 to 14) (size 15 to 20)
#    0.000    1.000    1.250    5.625    1.750    6.000 
#    0.000    0.000    0.000    0.000    0.000    0.000 
#    0.000    0.000    0.000    0.000    0.000    0.000 
#
# Total GULP energy -89557.953157 kJ/mol
# GULP energy per Si atom -5597.372072 kJ/mol
# Density = 2.395287 g / cm^3
# Si number density = 24.007511 Si / 1000 Ang^3
#
#
#
# Elastic Constant Matrix: (Units=GPa)
#
#
# Indices 1 2 3 4 5 6 
#
# 1 84.8503 45.1336 21.6797 10.9396 -13.1248 16.4509
# 2 45.1336 127.7023 52.5027 8.9746 -7.3044 8.1089
# 3 21.6797 52.5027 104.3972 -3.3011 -27.0669 13.5723
# 4 10.9396 8.9746 -3.3011 28.8390 1.5673 -5.3883
# 5 -13.1248 -7.3044 -27.0669 1.5673 46.7359 12.2546
# 6 16.4509 8.1089 13.5723 -5.3883 12.2546 37.6616
#
#
#
# Elastic Compliance Matrix: (Units=1/GPa)
#
#
# Indices 1 2 3 4 5 6 
#
# 1 0.019195 -0.006103 0.002952 -0.007888 0.009664 -0.012408
# 2 -0.006103 0.012311 -0.006626 -0.001337 -0.004551 0.003692
# 3 0.002952 -0.006626 0.016683 0.000384 0.011992 -0.009722
# 4 -0.007888 -0.001337 0.000384 0.040645 -0.006595 0.011556
# 5 0.009664 -0.004551 0.011992 -0.006595 0.035856 -0.020174
# 6 -0.012408 0.003692 -0.009722 0.011556 -0.020174 0.042898
#
#
# Mechanical properties :
#
#
# Convention : Reuss Voigt Hill
#
# Bulk Modulus (GPa) = 34.92104 61.73129 48.32616
# Shear Modulus (GPa) = 25.42106 35.82288 30.62197
#
# Velocity S-wave (km/s) = 3.25757 3.86703 3.57531
# Velocity P-wave (km/s) = 5.35971 6.76075 6.10058
#
# Compressibility (1/GPa) = 0.02863603
#
# Stress axis : x y z
#
# Youngs Moduli (GPa) = 52.09742 81.22717 59.93996
#
# Poissons Ratio (x) = 0.49572 -0.17697
# Poissons Ratio (y) = 0.31794 0.39718
# Poissons Ratio (z) = -0.15381 0.53823
#
# Static dielectric constant tensor:
#      x y z
#    x 1.978170 -0.029840 0.044310 
#    y -0.029840 1.910410 -0.003560 
#    z 0.044310 -0.003560 1.971450 
# 
# From -- ./inp_files/399941.got.cif
#   From: 2010.05.17/outbox.cif.g08.bks.cpg/sg2_200_cif.got.tgz:399941.got - 2010.06.03 11:33:40.
