data_PCOD9046753
_publ_section_title
;
Structure prediction by ZEFSAII (Michael W. Deem and Ramdas Pophale) SiO2 
 PCOD9046753
Probable space group: P -1
;
_chemical_formula_sum "Si O2"
_cell_formula_units_Z 16
_cell_length_a 9.786750
_cell_length_b 20.258938
_cell_length_c 12.367626
_cell_angle_alpha 159.801221
_cell_angle_beta 111.497149
_cell_angle_gamma 68.136240
_cell_volume 784.663489
_symmetry_space_group_name_H-M "P -1"
_symmetry_group_IT_number 2
_symmetry_cell_setting 'triclinic'
loop_
_space_group_symop_operation_xyz
x,y,z
-x,-y,-z
loop_
_atom_site_type_symbol
_atom_site_label
_atom_site_fract_x
_atom_site_fract_y
_atom_site_fract_z
Si Si1 0.647837 0.024570 0.649529
Si Si2 0.135767 0.342895 0.285749
Si Si3 0.033064 0.000195 0.385883
Si Si4 0.091118 0.714391 0.377508
Si Si5 0.350959 0.815275 0.730652
Si Si6 0.659550 0.393948 0.374535
Si Si7 0.781361 0.669146 0.283050
Si Si8 0.355054 0.257465 0.418360
O O1 0.688480 0.840739 0.456458
O O2 0.500000 0.000000 0.500000
O O3 0.792370 0.036446 0.636248
O O4 0.646681 0.217787 0.017321
O O5 0.238298 0.444977 0.387911
O O6 0.229751 0.302086 0.359711
O O7 0.000000 0.500000 0.500000
O O8 0.062105 0.155886 0.937010
O O9 0.980842 0.201228 0.623497
O O10 0.000000 0.000000 0.500000
O O11 0.212623 0.842634 0.653803
O O12 0.951871 0.718747 0.425488
O O13 0.182447 0.513362 0.065702
O O14 0.302389 0.696798 0.637014
O O15 0.490980 0.708409 0.544210
O O16 0.381719 0.029743 0.103848
O O17 0.500000 0.500000 0.500000
O O18 0.698750 0.639021 0.326267
#
# Coordination Sequence:
#
# PCOD9046753 Si02
#       8
#     2   2   2   2   2   2   2   2
#     4  11  26  45  67 101 139 177 225 279 342 403
#     4  12  26  44  68 101 138 179 229 276 335 404
#     4  11  26  45  67  99 138 180 225 279 337 401
#     4  10  24  43  67  98 130 175 223 272 339 399
#     4  11  24  43  69  97 131 175 225 276 335 392
#     4  12  26  44  68 103 139 180 225 276 342 402
#     4  10  24  43  68  97 132 173 222 276 337 401
#     4  11  24  43  68  98 132 172 226 279 329 396
#
# _framework density 20.390906000000001
#
# number of rings (size 3 to 8) (size 9 to 14) (size 15 to 20)
#    0.000    1.000    5.000    0.000    7.000    3.000 
#    0.000    0.000    0.000    0.000    0.000    0.000 
#    0.000    0.000    0.000    0.000    0.000    0.000 
#
# Total GULP energy -89276.595666 kJ/mol
# GULP energy per Si atom -5579.787229 kJ/mol
# Density = 2.034450 g / cm^3
# Si number density = 20.390906 Si / 1000 Ang^3
#
#
#
# Elastic Constant Matrix: (Units=GPa)
#
#
# Indices 1 2 3 4 5 6 
#
# 1 137.3673 54.1203 25.5835 -12.6206 -3.3104 -0.5323
# 2 54.1203 98.6006 18.5618 -2.9792 -6.9708 4.8780
# 3 25.5835 18.5618 54.2978 6.5501 -4.0568 -3.8527
# 4 -12.6206 -2.9792 6.5501 31.5973 -1.3234 1.0341
# 5 -3.3104 -6.9708 -4.0568 -1.3234 36.0022 -0.9994
# 6 -0.5323 4.8780 -3.8527 1.0341 -0.9994 39.8418
#
#
#
# Elastic Compliance Matrix: (Units=1/GPa)
#
#
# Indices 1 2 3 4 5 6 
#
# 1 0.010278 -0.004838 -0.003720 0.004402 -0.000242 0.000250
# 2 -0.004838 0.013455 -0.002311 -0.000046 0.001846 -0.001888
# 3 -0.003720 -0.002311 0.022015 -0.006287 0.001531 0.002564
# 4 0.004402 -0.000046 -0.006287 0.034791 0.000927 -0.001423
# 5 -0.000242 0.001846 0.001531 0.000927 0.028335 0.000606
# 6 0.000250 -0.001888 0.002564 -0.001423 0.000606 0.025634
#
#
# Mechanical properties :
#
#
# Convention : Reuss Voigt Hill
#
# Bulk Modulus (GPa) = 41.64945 54.08855 47.86900
# Shear Modulus (GPa) = 30.44184 34.28829 32.36506
#
# Velocity S-wave (km/s) = 3.86801 4.10512 3.98833
# Velocity P-wave (km/s) = 6.35756 7.00376 6.68847
#
# Compressibility (1/GPa) = 0.02400992
#
# Stress axis : x y z
#
# Youngs Moduli (GPa) = 97.29378 74.32341 45.42444
#
# Poissons Ratio (x) = 0.35955 0.16900
# Poissons Ratio (y) = 0.47067 0.10496
# Poissons Ratio (z) = 0.36198 0.17174
#
# Static dielectric constant tensor:
#      x y z
#    x 1.780130 0.163080 -0.020040 
#    y 0.163080 2.027900 -0.032750 
#    z -0.020040 -0.032750 1.719550 
# 
# From -- ./inp_files/218262.got.cif
#   From: 2010.05.17/outbox.cif.g08.bks.cpg/sg2_110_cif.got.tgz:218262.got - 2010.06.03 11:33:40.
