data_PCOD9046559
_publ_section_title
;
Structure prediction by ZEFSAII (Michael W. Deem and Ramdas Pophale) SiO2 
 PCOD9046559
Probable space group: P -1
;
_chemical_formula_sum "Si O2"
_cell_formula_units_Z 14
_cell_length_a 21.403850
_cell_length_b 15.470297
_cell_length_c 8.379228
_cell_angle_alpha 67.972617
_cell_angle_beta 121.706664
_cell_angle_gamma 161.876537
_cell_volume 648.006890
_symmetry_space_group_name_H-M "P -1"
_symmetry_group_IT_number 2
_symmetry_cell_setting 'triclinic'
loop_
_space_group_symop_operation_xyz
x,y,z
-x,-y,-z
loop_
_atom_site_type_symbol
_atom_site_label
_atom_site_fract_x
_atom_site_fract_y
_atom_site_fract_z
Si Si1 0.652672 0.395144 0.042850
Si Si2 0.903911 0.343762 0.148099
Si Si3 0.708155 0.322205 0.624459
Si Si4 0.230069 0.638541 0.943046
Si Si5 0.331113 0.333792 0.631342
Si Si6 0.284616 0.342176 0.197517
Si Si7 0.221904 0.390646 0.593244
O O1 0.765523 0.579389 0.221906
O O2 0.822718 0.518070 0.119105
O O3 0.616899 0.432782 0.839664
O O4 0.386074 0.030505 0.985842
O O5 0.049038 0.424280 0.314272
O O6 0.941656 0.478153 0.222230
O O7 0.000000 0.500000 0.000000
O O8 0.745258 0.356916 0.839997
O O9 0.669194 0.382600 0.491117
O O10 0.500000 0.000000 0.500000
O O11 0.500000 0.000000 0.000000
O O12 0.299332 0.325007 0.410026
O O13 0.552132 0.527032 0.788198
O O14 0.365971 0.472133 0.678809
O O15 0.068679 0.973698 0.589113
O O16 0.000000 0.000000 0.000000
#
# Coordination Sequence:
#
# PCOD9046559 Si02
#       7
#     2   2   2   2   2   2   2
#     4  11  21  39  63  88 122 166 204 254 319 366
#     4   9  19  37  57  88 119 158 206 247 304 376
#     4  11  21  38  60  88 124 159 203 261 312 367
#     4   9  19  37  58  85 118 156 204 248 302 376
#     4  10  24  43  64  92 130 159 219 262 306 380
#     4  11  22  44  62  92 122 167 208 260 318 366
#     4  11  22  41  61  94 124 165 207 264 316 369
#
# _framework density 21.604709
#
# number of rings (size 3 to 8) (size 9 to 14) (size 15 to 20)
#    0.000    1.714    1.429    4.286    0.000    0.571 
#   10.286    7.857    0.000    0.000    0.000    0.000 
#    0.000    0.000    0.000    0.000    0.000    0.000 
#
# Total GULP energy -78144.054099 kJ/mol
# GULP energy per Si atom -5581.718150 kJ/mol
# Density = 2.155554 g / cm^3
# Si number density = 21.604709 Si / 1000 Ang^3
#
#
#
# Elastic Constant Matrix: (Units=GPa)
#
#
# Indices 1 2 3 4 5 6 
#
# 1 191.8075 18.6453 14.1442 12.8392 5.1713 -11.1705
# 2 18.6453 80.6360 -2.9011 -10.3073 6.3111 -13.8121
# 3 14.1442 -2.9011 28.4564 0.9575 -2.4401 -3.6955
# 4 12.8392 -10.3073 0.9575 25.3155 -0.4305 4.8660
# 5 5.1713 6.3111 -2.4401 -0.4305 25.5978 -1.1883
# 6 -11.1705 -13.8121 -3.6955 4.8660 -1.1883 33.6777
#
#
#
# Elastic Compliance Matrix: (Units=1/GPa)
#
#
# Indices 1 2 3 4 5 6 
#
# 1 0.005964 -0.001637 -0.002896 -0.003891 -0.001072 0.001513
# 2 -0.001637 0.014639 0.002505 0.005725 -0.002720 0.004813
# 3 -0.002896 0.002505 0.037707 0.000301 0.003766 0.004294
# 4 -0.003891 0.005725 0.000301 0.044829 -0.000093 -0.005390
# 5 -0.001072 -0.002720 0.003766 -0.000093 0.040328 0.000378
# 6 0.001513 0.004813 0.004294 -0.005390 0.000378 0.033432
#
#
# Mechanical properties :
#
#
# Convention : Reuss Voigt Hill
#
# Bulk Modulus (GPa) = 18.43172 40.07517 29.25344
# Shear Modulus (GPa) = 25.12073 34.98564 30.05319
#
# Velocity S-wave (km/s) = 3.41360 4.02848 3.73372
# Velocity P-wave (km/s) = 4.90783 6.34254 5.67074
#
# Compressibility (1/GPa) = 0.05425430
#
# Stress axis : x y z
#
# Youngs Moduli (GPa) = 167.67988 68.30988 26.52050
#
# Poissons Ratio (x) = 0.11185 0.07680
# Poissons Ratio (y) = 0.27456 -0.06645
# Poissons Ratio (z) = 0.48555 -0.17115
#
# Static dielectric constant tensor:
#      x y z
#    x 1.831470 -0.012170 0.027920 
#    y -0.012170 1.813990 -0.027270 
#    z 0.027920 -0.027270 1.894910 
# 
# From -- ./inp_files/178359.got.cif
#   From: 2010.05.17/outbox.cif.g08.bks.cpg/sg2_90_cif.got.tgz:178359.got - 2010.06.03 11:33:40.
