data_PCOD9046312
_publ_section_title
;
Structure prediction by ZEFSAII (Michael W. Deem and Ramdas Pophale) SiO2 
 PCOD9046312
Probable space group: P -1
;
_chemical_formula_sum "Si O2"
_cell_formula_units_Z 15
_cell_length_a 10.959771
_cell_length_b 5.179282
_cell_length_c 15.930390
_cell_angle_alpha 119.673452
_cell_angle_beta 128.875528
_cell_angle_gamma 81.205062
_cell_volume 594.783464
_symmetry_space_group_name_H-M "P -1"
_symmetry_group_IT_number 2
_symmetry_cell_setting 'triclinic'
loop_
_space_group_symop_operation_xyz
x,y,z
-x,-y,-z
loop_
_atom_site_type_symbol
_atom_site_label
_atom_site_fract_x
_atom_site_fract_y
_atom_site_fract_z
Si Si1 0.000000 0.500000 0.000000
Si Si2 0.261445 0.723846 0.449997
Si Si3 0.575348 0.285272 0.935782
Si Si4 0.053256 0.675725 0.685245
Si Si5 0.508448 0.810699 0.696790
Si Si6 0.304673 0.685432 0.269318
Si Si7 0.792357 0.868153 0.043896
Si Si8 0.140633 0.232639 0.548604
O O1 0.119612 0.588958 0.146791
O O2 0.931897 0.816213 0.035284
O O3 0.075939 0.533645 0.341948
O O4 0.369089 0.602367 0.545806
O O5 0.319469 0.753439 0.385483
O O6 0.270650 0.054835 0.548262
O O7 0.464643 0.032459 0.786148
O O8 0.500000 0.500000 0.000000
O O9 0.692084 0.524511 0.963623
O O10 0.684603 0.094514 0.001969
O O11 0.944535 0.698709 0.561694
O O12 0.186457 0.511631 0.677670
O O13 0.132922 0.988229 0.813288
O O14 0.608132 0.593451 0.749121
O O15 0.618367 0.029108 0.710831
O O16 0.000000 0.000000 0.500000
#
# Coordination Sequence:
#
# PCOD9046312 Si02
#       8
#     1   2   2   2   2   2   2   2
#     4  12  26  50  80 106 160 188 260 318 372 452
#     4  11  26  42  76 102 148 197 240 308 378 451
#     4  12  28  51  76 111 149 204 253 310 380 454
#     4  10  24  42  70 107 142 185 252 304 380 436
#     4  12  27  51  70 109 151 196 251 305 378 455
#     4  12  28  47  74 110 148 196 252 309 379 447
#     4  12  28  47  79 109 150 195 254 316 377 449
#     4   9  21  42  63 105 139 184 241 301 369 439
#
# _framework density 25.219263000000002
#
# number of rings (size 3 to 8) (size 9 to 14) (size 15 to 20)
#    0.000    0.800    2.667    2.000   13.067    3.200 
#    0.000    0.000    0.000    0.000    0.000    0.000 
#    0.000    0.000    0.000    0.000    0.000    0.000 
#
# Total GULP energy -83667.600097 kJ/mol
# GULP energy per Si atom -5577.840006 kJ/mol
# Density = 2.516186 g / cm^3
# Si number density = 25.219263 Si / 1000 Ang^3
#
#
#
# Elastic Constant Matrix: (Units=GPa)
#
#
# Indices 1 2 3 4 5 6 
#
# 1 46.6864 23.6611 33.9638 10.8219 -16.6520 6.1241
# 2 23.6611 71.2016 2.7376 -3.4242 11.2339 8.8489
# 3 33.9638 2.7376 124.5276 6.2674 -5.3709 -8.3650
# 4 10.8219 -3.4242 6.2674 42.6778 -9.9623 -5.3205
# 5 -16.6520 11.2339 -5.3709 -9.9623 24.9487 -0.5468
# 6 6.1241 8.8489 -8.3650 -5.3205 -0.5468 48.6299
#
#
#
# Elastic Compliance Matrix: (Units=1/GPa)
#
#
# Indices 1 2 3 4 5 6 
#
# 1 0.071407 -0.031414 -0.016493 -0.005959 0.055741 -0.006139
# 2 -0.031414 0.029452 0.006412 0.001830 -0.032128 -0.000461
# 3 -0.016493 0.006412 0.012077 0.000737 -0.010937 0.002945
# 4 -0.005959 0.001830 0.000737 0.026862 0.006162 0.003552
# 5 0.055741 -0.032128 -0.010937 0.006162 0.091830 -0.001348
# 6 -0.006139 -0.000461 0.002945 0.003552 -0.001348 0.022301
#
#
# Mechanical properties :
#
#
# Convention : Reuss Voigt Hill
#
# Bulk Modulus (GPa) = 33.39489 40.34896 36.87192
# Shear Modulus (GPa) = 14.41336 35.38813 24.90075
#
# Velocity S-wave (km/s) = 2.39325 3.75002 3.14565
# Velocity P-wave (km/s) = 4.57246 5.89781 5.27691
#
# Compressibility (1/GPa) = 0.02994470
#
# Stress axis : x y z
#
# Youngs Moduli (GPa) = 14.00420 33.95411 82.80281
#
# Poissons Ratio (x) = 1.06662 1.36570
# Poissons Ratio (y) = 0.43992 -0.53090
# Poissons Ratio (z) = 0.23098 -0.21770
#
# Static dielectric constant tensor:
#      x y z
#    x 2.212990 0.005410 0.050480 
#    y 0.005410 2.084010 0.010450 
#    z 0.050480 0.010450 1.939250 
# 
# From -- ./inp_files/510607.got.cif
#   From: 2010.05.17/outbox.cif.g08.bks.cpg/sg2_256_cif.got.tgz:510607.got - 2010.06.03 11:33:40.
