data_PCOD9046619
_publ_section_title
;
Structure prediction by ZEFSAII (Michael W. Deem and Ramdas Pophale) SiO2 
 PCOD9046619
Probable space group: P -1
;
_chemical_formula_sum "Si O2"
_cell_formula_units_Z 12
_cell_length_a 9.591029
_cell_length_b 9.673695
_cell_length_c 4.875224
_cell_angle_alpha 77.031556
_cell_angle_beta 73.872911
_cell_angle_gamma 97.724544
_cell_volume 413.986222
_symmetry_space_group_name_H-M "P -1"
_symmetry_group_IT_number 2
_symmetry_cell_setting 'triclinic'
loop_
_space_group_symop_operation_xyz
x,y,z
-x,-y,-z
loop_
_atom_site_type_symbol
_atom_site_label
_atom_site_fract_x
_atom_site_fract_y
_atom_site_fract_z
Si Si1 0.835857 0.845222 0.973053
Si Si2 0.392747 0.767105 0.804552
Si Si3 0.365981 0.007912 0.291978
Si Si4 0.035813 0.259458 0.544506
Si Si5 0.133311 0.556164 0.113960
Si Si6 0.469487 0.391027 0.812434
O O1 0.773288 0.978141 0.823701
O O2 0.964216 0.810680 0.721027
O O3 0.895455 0.842877 0.245842
O O4 0.692458 0.711969 0.085934
O O5 0.278708 0.623889 0.835119
O O6 0.414046 0.712981 0.135046
O O7 0.336957 0.890336 0.601289
O O8 0.568475 0.840616 0.644807
O O9 0.500000 0.000000 0.000000
O O10 0.139964 0.420885 0.365980
O O11 0.901107 0.310211 0.747241
O O12 0.000000 0.500000 0.000000
O O13 0.500000 0.500000 0.500000
O O14 0.500000 0.500000 0.000000
#
# Coordination Sequence:
#
# PCOD9046619 Si02
#       6
#     2   2   2   2   2   2
#     4  11  23  42  66  95 140 172 235 280 343 403
#     4  10  24  43  66 101 135 181 232 276 352 409
#     4  10  25  44  71  96 138 187 228 291 342 407
#     4  11  24  42  68 101 137 181 222 290 337 415
#     4  11  23  44  71  99 141 180 227 279 352 408
#     4  11  23  37  64 100 134 170 218 289 350 404
#
# _framework density 28.986474000000001
#
# number of rings (size 3 to 8) (size 9 to 14) (size 15 to 20)
#    0.000    1.333    1.667    3.000   11.667    2.667 
#    0.000    1.667    0.000    0.000    0.000    0.000 
#    0.000    0.000    0.000    0.000    0.000    0.000 
#
# Total GULP energy -66992.147621 kJ/mol
# GULP energy per Si atom -5582.678968 kJ/mol
# Density = 2.892050 g / cm^3
# Si number density = 28.986474 Si / 1000 Ang^3
#
#
#
# Elastic Constant Matrix: (Units=GPa)
#
#
# Indices 1 2 3 4 5 6 
#
# 1 127.8992 30.6734 57.8650 -17.0953 11.2588 -9.8530
# 2 30.6734 97.4401 60.2351 -22.3908 -5.7481 0.4151
# 3 57.8650 60.2351 199.0428 -29.9580 30.0579 -21.1659
# 4 -17.0953 -22.3908 -29.9580 71.6959 -21.6598 5.8218
# 5 11.2588 -5.7481 30.0579 -21.6598 53.1477 -6.6370
# 6 -9.8530 0.4151 -21.1659 5.8218 -6.6370 56.4644
#
#
#
# Elastic Compliance Matrix: (Units=1/GPa)
#
#
# Indices 1 2 3 4 5 6 
#
# 1 0.009285 -0.001636 -0.001922 0.000624 -0.000707 0.000764
# 2 -0.001636 0.014923 -0.004490 0.004371 0.006054 -0.001817
# 3 -0.001922 -0.004490 0.007801 -0.000057 -0.004248 0.002128
# 4 0.000624 0.004371 -0.000057 0.017778 0.007506 -0.000895
# 5 -0.000707 0.006054 -0.004248 0.007506 0.025134 0.000420
# 6 0.000764 -0.001817 0.002128 -0.000895 0.000420 0.018797
#
#
# Mechanical properties :
#
#
# Convention : Reuss Voigt Hill
#
# Bulk Modulus (GPa) = 62.84593 80.21435 71.53014
# Shear Modulus (GPa) = 43.43375 54.63550 49.03462
#
# Velocity S-wave (km/s) = 3.87514 4.34621 4.11741
# Velocity P-wave (km/s) = 6.46146 7.27456 6.88003
#
# Compressibility (1/GPa) = 0.01591193
#
# Stress axis : x y z
#
# Youngs Moduli (GPa) = 107.69741 67.01268 128.19173
#
# Poissons Ratio (x) = 0.10965 0.24642
# Poissons Ratio (y) = 0.17621 0.57557
# Poissons Ratio (z) = 0.20702 0.30088
#
# Static dielectric constant tensor:
#      x y z
#    x 2.267450 -0.100400 -0.107390 
#    y -0.100400 2.576670 0.159300 
#    z -0.107390 0.159300 2.284710 
# 
# From -- ./inp_files/61946.got.cif
#   From: 2010.05.17/outbox.cif.g08.bks.cpg/sg2_31_cif.got.tgz:61946.got - 2010.06.03 11:33:40.
