data_PCOD9046544
_publ_section_title
;
Structure prediction by ZEFSAII (Michael W. Deem and Ramdas Pophale) SiO2 
 PCOD9046544
Probable space group: P -1
;
_chemical_formula_sum "Si O2"
_cell_formula_units_Z 14
_cell_length_a 7.913706
_cell_length_b 11.658788
_cell_length_c 11.613402
_cell_angle_alpha 38.759275
_cell_angle_beta 78.169197
_cell_angle_gamma 56.126335
_cell_volume 499.674416
_symmetry_space_group_name_H-M "P -1"
_symmetry_group_IT_number 2
_symmetry_cell_setting 'triclinic'
loop_
_space_group_symop_operation_xyz
x,y,z
-x,-y,-z
loop_
_atom_site_type_symbol
_atom_site_label
_atom_site_fract_x
_atom_site_fract_y
_atom_site_fract_z
Si Si1 0.140718 0.712494 0.219104
Si Si2 0.410584 0.155922 0.006082
Si Si3 0.756913 0.393769 0.035380
Si Si4 0.839025 0.957386 0.264481
Si Si5 0.713663 0.720633 0.608175
Si Si6 0.786813 0.959945 0.681234
Si Si7 0.369914 0.552163 0.599164
O O1 0.135140 0.521111 0.304972
O O2 0.395136 0.590385 0.249970
O O3 0.066847 0.726361 0.351652
O O4 0.000000 0.000000 0.000000
O O5 0.629834 0.045449 0.141705
O O6 0.258548 0.132046 0.126158
O O7 0.288546 0.416370 0.767013
O O8 0.500000 0.000000 0.000000
O O9 0.742634 0.605398 0.817779
O O10 0.500000 0.500000 0.000000
O O11 0.845129 0.170685 0.114294
O O12 0.948611 0.262321 0.211529
O O13 0.791867 0.872360 0.451934
O O14 0.444273 0.900237 0.470896
O O15 0.777079 0.177083 0.552567
O O16 0.500000 0.500000 0.500000
#
# Coordination Sequence:
#
# PCOD9046544 Si02
#       7
#     2   2   2   2   2   2   2
#     4  11  19  36  64  94 136 175 200 263 335 397
#     4  11  22  37  62  98 142 175 209 261 333 414
#     4  12  27  48  72  93 127 181 237 287 328 380
#     4  11  23  42  65  99 138 178 220 273 336 399
#     4  10  24  43  66 101 136 171 221 276 341 405
#     4  10  24  43  63  97 131 172 222 273 330 397
#     4  11  20  33  55  92 133 168 207 253 319 397
#
# _framework density 28.018246000000001
#
# number of rings (size 3 to 8) (size 9 to 14) (size 15 to 20)
#    0.000    1.143    4.286    2.143    2.000    3.429 
#    0.000    2.857    0.000    0.000    0.000    0.000 
#    0.000    0.000    0.000    0.000    0.000    0.000 
#
# Total GULP energy -78231.747241 kJ/mol
# GULP energy per Si atom -5587.981946 kJ/mol
# Density = 2.795448 g / cm^3
# Si number density = 28.018246 Si / 1000 Ang^3
#
#
#
# Elastic Constant Matrix: (Units=GPa)
#
#
# Indices 1 2 3 4 5 6 
#
# 1 102.8834 16.5765 49.2824 -8.7003 7.8455 -18.8138
# 2 16.5765 94.8824 48.1710 -13.9176 -1.0751 -10.2441
# 3 49.2824 48.1710 217.7246 -3.5263 -2.8721 -19.4758
# 4 -8.7003 -13.9176 -3.5263 41.9281 -15.5194 1.8615
# 5 7.8455 -1.0751 -2.8721 -15.5194 67.9211 -10.9922
# 6 -18.8138 -10.2441 -19.4758 1.8615 -10.9922 39.1299
#
#
#
# Elastic Compliance Matrix: (Units=1/GPa)
#
#
# Indices 1 2 3 4 5 6 
#
# 1 0.011787 -0.000197 -0.002211 0.001881 -0.000327 0.004334
# 2 -0.000197 0.012741 -0.002485 0.004433 0.001490 0.002212
# 3 -0.002211 -0.002485 0.005758 -0.000665 0.000523 0.001331
# 4 0.001881 0.004433 -0.000665 0.027994 0.006586 0.002252
# 5 -0.000327 0.001490 0.000523 0.006586 0.017119 0.004989
# 6 0.004334 0.002212 0.001331 0.002252 0.004989 0.030176
#
#
# Mechanical properties :
#
#
# Convention : Reuss Voigt Hill
#
# Bulk Modulus (GPa) = 48.77667 71.50557 60.14112
# Shear Modulus (GPa) = 40.91866 49.89320 45.40593
#
# Velocity S-wave (km/s) = 3.82570 4.22446 4.03002
# Velocity P-wave (km/s) = 6.07958 7.02647 6.57011
#
# Compressibility (1/GPa) = 0.02050160
#
# Stress axis : x y z
#
# Youngs Moduli (GPa) = 84.83983 78.48466 173.66018
#
# Poissons Ratio (x) = 0.01544 0.38390
# Poissons Ratio (y) = 0.01669 0.43157
# Poissons Ratio (z) = 0.18755 0.19505
#
# Static dielectric constant tensor:
#      x y z
#    x 2.486440 0.140710 0.240130 
#    y 0.140710 2.303330 0.105960 
#    z 0.240130 0.105960 2.337760 
# 
# From -- ./inp_files/396799.got.cif
#   From: 2010.05.17/outbox.cif.g08.bks.cpg/sg2_199_cif.got.tgz:396799.got - 2010.06.03 11:33:40.
