data_PCOD9046854
_publ_section_title
;
Structure prediction by ZEFSAII (Michael W. Deem and Ramdas Pophale) SiO2 
 PCOD9046854
Probable space group: P -1
;
_chemical_formula_sum "Si O2"
_cell_formula_units_Z 16
_cell_length_a 9.438559
_cell_length_b 11.328981
_cell_length_c 11.798965
_cell_angle_alpha 48.490302
_cell_angle_beta 130.073626
_cell_angle_gamma 110.439801
_cell_volume 716.332621
_symmetry_space_group_name_H-M "P -1"
_symmetry_group_IT_number 2
_symmetry_cell_setting 'triclinic'
loop_
_space_group_symop_operation_xyz
x,y,z
-x,-y,-z
loop_
_atom_site_type_symbol
_atom_site_label
_atom_site_fract_x
_atom_site_fract_y
_atom_site_fract_z
Si Si1 0.786433 0.209170 0.485686
Si Si2 0.349475 0.717551 0.044462
Si Si3 0.296950 0.108024 0.308580
Si Si4 0.585306 0.414168 0.445403
Si Si5 0.505255 0.821581 0.839128
Si Si6 0.496503 0.847321 0.248232
Si Si7 0.864706 0.654049 0.508226
Si Si8 0.955289 0.665199 0.807460
O O1 0.641246 0.309644 0.430530
O O2 0.681226 0.190188 0.323778
O O3 0.962506 0.301774 0.502083
O O4 0.833190 0.032023 0.674854
O O5 0.409831 0.546666 0.243380
O O6 0.372951 0.844746 0.073569
O O7 0.491010 0.719402 0.009835
O O8 0.141951 0.745604 0.871883
O O9 0.325674 0.206872 0.146499
O O10 0.218796 0.223335 0.296330
O O11 0.500000 0.000000 0.500000
O O12 0.545019 0.298220 0.599987
O O13 0.757811 0.510622 0.502438
O O14 0.518319 0.995979 0.784593
O O15 0.705668 0.805634 0.336027
O O16 0.928408 0.629647 0.685753
O O17 0.000000 0.500000 0.000000
#
# Coordination Sequence:
#
# PCOD9046854 Si02
#       8
#     2   2   2   2   2   2   2   2
#     4  11  23  41  70 100 131 179 237 273 336 410
#     4  11  25  42  67 104 137 171 227 290 344 395
#     4  10  24  43  68  97 137 181 226 276 341 414
#     4  11  24  45  70  96 137 189 227 272 343 417
#     4  11  23  43  67  98 134 177 222 288 345 398
#     4  11  23  45  71  94 137 185 231 268 345 419
#     4  11  23  41  68  99 132 180 235 280 323 415
#     4  12  25  42  70 103 139 174 229 289 342 396
#
# _framework density 22.335992999999998
#
# number of rings (size 3 to 8) (size 9 to 14) (size 15 to 20)
#    0.000    1.000    2.500    5.250    7.000    2.500 
#    0.000    3.125    0.000    0.000    0.000    0.000 
#    0.000    0.000    0.000    0.000    0.000    0.000 
#
# Total GULP energy -89444.735880 kJ/mol
# GULP energy per Si atom -5590.295993 kJ/mol
# Density = 2.228516 g / cm^3
# Si number density = 22.335993 Si / 1000 Ang^3
#
#
#
# Elastic Constant Matrix: (Units=GPa)
#
#
# Indices 1 2 3 4 5 6 
#
# 1 102.8498 23.2357 26.9087 4.1964 -7.9272 -7.9944
# 2 23.2357 86.0772 22.9034 19.9119 2.1935 -0.7052
# 3 26.9087 22.9034 56.7117 13.9863 -11.8719 10.9310
# 4 4.1964 19.9119 13.9863 38.3240 -3.3567 0.9803
# 5 -7.9272 2.1935 -11.8719 -3.3567 28.8049 4.0930
# 6 -7.9944 -0.7052 10.9310 0.9803 4.0930 31.3445
#
#
#
# Elastic Compliance Matrix: (Units=1/GPa)
#
#
# Indices 1 2 3 4 5 6 
#
# 1 0.012197 -0.002012 -0.006372 0.001935 0.000373 0.005178
# 2 -0.002012 0.015108 -0.005094 -0.006260 -0.004879 0.002436
# 3 -0.006372 -0.005094 0.029229 -0.005942 0.011878 -0.013298
# 4 0.001935 -0.006260 -0.005942 0.031453 0.002059 0.001172
# 5 0.000373 -0.004879 0.011878 0.002059 0.041700 -0.009667
# 6 0.005178 0.002436 -0.013298 0.001172 -0.009667 0.039142
#
#
# Mechanical properties :
#
#
# Convention : Reuss Voigt Hill
#
# Bulk Modulus (GPa) = 33.80869 43.52605 38.66737
# Shear Modulus (GPa) = 24.31375 31.20073 27.75724
#
# Velocity S-wave (km/s) = 3.30289 3.74154 3.52904
# Velocity P-wave (km/s) = 5.45112 6.18019 5.82707
#
# Compressibility (1/GPa) = 0.02957820
#
# Stress axis : x y z
#
# Youngs Moduli (GPa) = 81.98835 66.18806 34.21253
#
# Poissons Ratio (x) = 0.13315 0.21800
# Poissons Ratio (y) = 0.16494 0.17429
# Poissons Ratio (z) = 0.52243 0.33718
#
# Static dielectric constant tensor:
#      x y z
#    x 1.844270 0.061680 -0.020510 
#    y 0.061680 1.871060 0.026070 
#    z -0.020510 0.026070 1.853400 
# 
# From -- ./inp_files/392219.got.cif
#   From: 2010.05.17/outbox.cif.g08.bks.cpg/sg2_197_cif.got.tgz:392219.got - 2010.06.03 11:33:40.
