data_PCOD9046464
_publ_section_title
;
Structure prediction by ZEFSAII (Michael W. Deem and Ramdas Pophale) SiO2 
 PCOD9046464
Probable space group: P -1
;
_chemical_formula_sum "Si O2"
_cell_formula_units_Z 13
_cell_length_a 5.891956
_cell_length_b 7.084196
_cell_length_c 13.441916
_cell_angle_alpha 110.861002
_cell_angle_beta 71.324728
_cell_angle_gamma 109.616727
_cell_volume 480.850846
_symmetry_space_group_name_H-M "P -1"
_symmetry_group_IT_number 2
_symmetry_cell_setting 'triclinic'
loop_
_space_group_symop_operation_xyz
x,y,z
-x,-y,-z
loop_
_atom_site_type_symbol
_atom_site_label
_atom_site_fract_x
_atom_site_fract_y
_atom_site_fract_z
Si Si1 0.803678 0.550471 0.174982
Si Si2 0.204929 0.136740 0.067655
Si Si3 0.556017 0.219675 0.654508
Si Si4 0.000000 0.500000 0.500000
Si Si5 0.972417 0.395286 0.301548
Si Si6 0.685143 0.262909 0.945761
Si Si7 0.268877 0.156493 0.473165
O O1 0.617507 0.698170 0.227354
O O2 0.766561 0.383725 0.061124
O O3 0.769898 0.446328 0.268017
O O4 0.098580 0.656597 0.148325
O O5 0.111188 0.272352 0.187477
O O6 0.401255 0.270883 0.987792
O O7 0.316748 0.977763 0.085594
O O8 0.000000 0.000000 0.000000
O O9 0.821121 0.401203 0.640434
O O10 0.409526 0.193783 0.566586
O O11 0.608424 0.000987 0.637402
O O12 0.125267 0.695015 0.597080
O O13 0.782706 0.632718 0.522827
O O14 0.000000 0.000000 0.500000
#
# Coordination Sequence:
#
# PCOD9046464 Si02
#       7
#     2   2   2   1   2   2   2
#     4  11  22  45  73 109 147 205 257 317 385 469
#     4  11  23  44  69 111 151 196 257 324 381 461
#     4  11  23  45  74 106 153 203 251 326 378 465
#     4  12  26  48  76 110 150 204 252 328 384 466
#     4  12  25  44  74 106 155 197 261 318 387 464
#     4  10  24  42  73 105 149 199 259 315 391 455
#     4  11  24  48  74 106 153 198 263 313 383 468
#
# _framework density 27.035409000000001
#
# number of rings (size 3 to 8) (size 9 to 14) (size 15 to 20)
#    0.000    0.923    6.154    0.000    0.000    4.923 
#    0.000    1.538    0.000    0.000    0.000    0.000 
#    0.000    0.000    0.000    0.000    0.000    0.000 
#
# Total GULP energy -72530.969430 kJ/mol
# GULP energy per Si atom -5579.305341 kJ/mol
# Density = 2.697388 g / cm^3
# Si number density = 27.035409 Si / 1000 Ang^3
#
#
#
# Elastic Constant Matrix: (Units=GPa)
#
#
# Indices 1 2 3 4 5 6 
#
# 1 88.0174 42.4695 49.3577 15.6830 -14.0604 3.0486
# 2 42.4695 94.3537 31.5971 16.5162 -11.6402 -5.6177
# 3 49.3577 31.5971 143.1154 25.3257 -23.6202 -27.8867
# 4 15.6830 16.5162 25.3257 42.0412 -17.1184 -9.8747
# 5 -14.0604 -11.6402 -23.6202 -17.1184 65.2144 12.3511
# 6 3.0486 -5.6177 -27.8867 -9.8747 12.3511 70.1811
#
#
#
# Elastic Compliance Matrix: (Units=1/GPa)
#
#
# Indices 1 2 3 4 5 6 
#
# 1 0.017703 -0.006089 -0.005001 -0.001574 0.001202 -0.003676
# 2 -0.006089 0.014000 -0.000306 -0.002770 0.000189 0.000841
# 3 -0.005001 -0.000306 0.010175 -0.002833 0.001119 0.003640
# 4 -0.001574 -0.002770 -0.002833 0.029914 0.005625 0.001940
# 5 0.001202 0.000189 0.001119 0.005625 0.017878 -0.001947
# 6 -0.003676 0.000841 0.003640 0.001940 -0.001947 0.016538
#
#
# Mechanical properties :
#
#
# Convention : Reuss Voigt Hill
#
# Bulk Modulus (GPa) = 52.39134 63.59278 57.99206
# Shear Modulus (GPa) = 36.93821 48.95815 42.94818
#
# Velocity S-wave (km/s) = 3.70035 4.26007 3.99004
# Velocity P-wave (km/s) = 6.13821 6.91164 6.53637
#
# Compressibility (1/GPa) = 0.01908712
#
# Stress axis : x y z
#
# Youngs Moduli (GPa) = 56.48618 71.42985 98.28083
#
# Poissons Ratio (x) = 0.43494 0.49148
# Poissons Ratio (y) = 0.34394 0.03005
# Poissons Ratio (z) = 0.28247 0.02184
#
# Static dielectric constant tensor:
#      x y z
#    x 2.218880 -0.061650 -0.007600 
#    y -0.061650 1.132970 1.183590 
#    z -0.007600 1.183590 0.733330 
# 
# From -- ./inp_files/479351.got.cif
#   From: 2010.05.17/outbox.cif.g08.bks.cpg/sg2_240_cif.got.tgz:479351.got - 2010.06.03 11:33:40.
