data_PCOD9046126
_publ_section_title
;
Structure prediction by ZEFSAII (Michael W. Deem and Ramdas Pophale) SiO2 
 PCOD9046126
Probable space group: P -1
;
_chemical_formula_sum "Si O2"
_cell_formula_units_Z 14
_cell_length_a 11.734902
_cell_length_b 11.709178
_cell_length_c 5.030420
_cell_angle_alpha 70.957795
_cell_angle_beta 70.270043
_cell_angle_gamma 69.870095
_cell_volume 593.378200
_symmetry_space_group_name_H-M "P -1"
_symmetry_group_IT_number 2
_symmetry_cell_setting 'triclinic'
loop_
_space_group_symop_operation_xyz
x,y,z
-x,-y,-z
loop_
_atom_site_type_symbol
_atom_site_label
_atom_site_fract_x
_atom_site_fract_y
_atom_site_fract_z
Si Si1 0.211985 0.989908 0.761857
Si Si2 0.094854 0.379524 0.885786
Si Si3 0.697443 0.499850 0.225404
Si Si4 0.966130 0.751752 0.473352
Si Si5 0.204630 0.726917 0.016693
Si Si6 0.556292 0.340396 0.817595
Si Si7 0.385449 0.939573 0.179090
O O1 0.104369 0.113589 0.690332
O O2 0.323887 0.985124 0.473337
O O3 0.164131 0.866579 0.829778
O O4 0.274989 0.977742 0.013574
O O5 0.082103 0.269781 0.181128
O O6 0.229239 0.409574 0.767231
O O7 0.066175 0.346417 0.635240
O O8 0.000000 0.500000 0.000000
O O9 0.626103 0.429293 0.536469
O O10 0.585471 0.584313 0.070816
O O11 0.796311 0.391812 0.069706
O O12 0.115809 0.730198 0.339365
O O13 0.352409 0.702951 0.973826
O O14 0.563958 0.211397 0.756233
O O15 0.500000 0.000000 0.000000
#
# Coordination Sequence:
#
# PCOD9046126 Si02
#       7
#     2   2   2   2   2   2   2
#     4  11  25  45  70 102 134 180 230 276 349 399
#     4  12  26  46  69 103 139 187 220 288 335 405
#     4  11  23  43  68  96 140 176 237 273 347 404
#     4  12  27  44  73 102 141 178 233 276 346 402
#     4  11  23  45  68  98 138 179 227 287 335 414
#     4  10  24  42  68 100 131 185 227 285 340 406
#     4  11  24  46  68 101 139 180 225 286 337 408
#
# _framework density 23.593722
#
# number of rings (size 3 to 8) (size 9 to 14) (size 15 to 20)
#    0.000    0.857    2.857    3.429    6.000    0.000 
#    0.000    3.571    0.000    0.000    0.000    0.000 
#    0.000    0.000    0.000    0.000    0.000    0.000 
#
# Total GULP energy -78333.886246 kJ/mol
# GULP energy per Si atom -5595.277589 kJ/mol
# Density = 2.354002 g / cm^3
# Si number density = 23.593722 Si / 1000 Ang^3
#
#
#
# Elastic Constant Matrix: (Units=GPa)
#
#
# Indices 1 2 3 4 5 6 
#
# 1 83.9854 32.5534 10.1550 -17.6525 -18.0775 0.3632
# 2 32.5534 93.5166 3.9761 -8.7576 2.1913 -23.5245
# 3 10.1550 3.9761 82.0298 -4.4689 -10.9379 -3.2162
# 4 -17.6525 -8.7576 -4.4689 26.6290 -2.4888 14.0634
# 5 -18.0775 2.1913 -10.9379 -2.4888 38.6351 -0.8038
# 6 0.3632 -23.5245 -3.2162 14.0634 -0.8038 20.1121
#
#
#
# Elastic Compliance Matrix: (Units=1/GPa)
#
#
# Indices 1 2 3 4 5 6 
#
# 1 0.038989 -0.026436 -0.000326 0.056135 0.021809 -0.070059
# 2 -0.026436 0.033972 -0.000162 -0.045577 -0.015792 0.071426
# 3 -0.000326 -0.000162 0.012852 0.001842 0.003629 0.000729
# 4 0.056135 -0.045577 0.001842 0.144580 0.035488 -0.153709
# 5 0.021809 -0.015792 0.003629 0.035488 0.039433 -0.041525
# 6 -0.070059 0.071426 0.000729 -0.153709 -0.041525 0.240470
#
#
# Mechanical properties :
#
#
# Convention : Reuss Voigt Hill
#
# Bulk Modulus (GPa) = 31.28484 39.21122 35.24803
# Shear Modulus (GPa) = 8.69869 31.26505 19.98187
#
# Velocity S-wave (km/s) = 1.92220 3.64420 2.91334
# Velocity P-wave (km/s) = 4.26791 5.86194 5.12725
#
# Compressibility (1/GPa) = 0.03196436
#
# Stress axis : x y z
#
# Youngs Moduli (GPa) = 25.64814 29.43592 77.81076
#
# Poissons Ratio (x) = 0.77817 0.02537
# Poissons Ratio (y) = 0.67804 0.01262
# Poissons Ratio (z) = 0.00836 0.00478
#
# Static dielectric constant tensor:
#      x y z
#    x 1.919720 0.008860 0.022140 
#    y 0.008860 1.917080 -0.033130 
#    z 0.022140 -0.033130 1.888290 
# 
# From -- ./inp_files/46720.got.cif
#   From: 2010.05.17/outbox.cif.g08.bks.cpg/sg2_24_cif.got.tgz:46720.got - 2010.06.03 11:33:40.
