data_PCOD9046561
_publ_section_title
;
Structure prediction by ZEFSAII (Michael W. Deem and Ramdas Pophale) SiO2 
 PCOD9046561
Probable space group: P -1
;
_chemical_formula_sum "Si O2"
_cell_formula_units_Z 14
_cell_length_a 8.813628
_cell_length_b 16.562921
_cell_length_c 6.502649
_cell_angle_alpha 95.155753
_cell_angle_beta 54.217865
_cell_angle_gamma 122.385977
_cell_volume 614.778020
_symmetry_space_group_name_H-M "P -1"
_symmetry_group_IT_number 2
_symmetry_cell_setting 'triclinic'
loop_
_space_group_symop_operation_xyz
x,y,z
-x,-y,-z
loop_
_atom_site_type_symbol
_atom_site_label
_atom_site_fract_x
_atom_site_fract_y
_atom_site_fract_z
Si Si1 0.986321 0.705114 0.835606
Si Si2 0.599542 0.822371 0.065436
Si Si3 0.680390 0.296780 0.125514
Si Si4 0.460316 0.011598 0.802080
Si Si5 0.086073 0.438001 0.508942
Si Si6 0.519063 0.641067 0.368615
Si Si7 0.895201 0.089073 0.246280
O O1 0.917655 0.626068 0.690342
O O2 0.208021 0.730675 0.792948
O O3 0.030219 0.802660 0.717641
O O4 0.774801 0.668671 0.153190
O O5 0.516670 0.789519 0.889213
O O6 0.878267 0.904458 0.892226
O O7 0.497460 0.881279 0.234631
O O8 0.525377 0.722338 0.229014
O O9 0.571157 0.345948 0.341118
O O10 0.900218 0.369978 0.818426
O O11 0.651947 0.007083 0.530521
O O12 0.196352 0.926744 0.917870
O O13 0.500000 0.000000 0.000000
O O14 0.340197 0.525353 0.413334
O O15 0.000000 0.500000 0.500000
#
# Coordination Sequence:
#
# PCOD9046561 Si02
#       7
#     2   2   2   2   2   2   2
#     4  11  25  43  67  94 130 172 221 268 320 384
#     4  11  24  42  66  93 133 169 210 265 324 381
#     4  12  23  40  66  94 132 169 222 264 319 374
#     4  11  23  42  68  96 126 164 211 264 321 384
#     4  12  23  43  65  94 134 175 216 269 323 376
#     4  11  25  43  65  96 131 175 220 266 323 380
#     4  10  24  43  64  94 128 166 212 262 322 383
#
# _framework density 22.772448000000001
#
# number of rings (size 3 to 8) (size 9 to 14) (size 15 to 20)
#    0.000    0.857    2.857    3.857    0.000    8.000 
#    0.000    0.000    0.000    0.000    0.000    0.000 
#    0.000    0.000    0.000    0.000    0.000    0.000 
#
# Total GULP energy -78206.617635 kJ/mol
# GULP energy per Si atom -5586.186974 kJ/mol
# Density = 2.272062 g / cm^3
# Si number density = 22.772448 Si / 1000 Ang^3
#
#
#
# Elastic Constant Matrix: (Units=GPa)
#
#
# Indices 1 2 3 4 5 6 
#
# 1 95.6151 33.1875 62.3335 7.1895 -21.2980 24.4307
# 2 33.1875 96.8225 21.2654 20.3518 2.9802 11.9960
# 3 62.3335 21.2654 102.0996 11.7875 -17.2200 9.2308
# 4 7.1895 20.3518 11.7875 34.2588 4.9188 -2.5213
# 5 -21.2980 2.9802 -17.2200 4.9188 32.1496 -5.6583
# 6 24.4307 11.9960 9.2308 -2.5213 -5.6583 47.2704
#
#
#
# Elastic Compliance Matrix: (Units=1/GPa)
#
#
# Indices 1 2 3 4 5 6 
#
# 1 0.023148 -0.004851 -0.010998 0.000022 0.008560 -0.007559
# 2 -0.004851 0.013671 0.000490 -0.006907 -0.003486 -0.001844
# 3 -0.010998 0.000490 0.017163 -0.004134 0.002905 0.002335
# 4 0.000022 -0.006907 -0.004134 0.035902 -0.006401 0.003697
# 5 0.008560 -0.003486 0.002905 -0.006401 0.039687 0.000302
# 6 -0.007559 -0.001844 0.002335 0.003697 0.000302 0.025307
#
#
# Mechanical properties :
#
#
# Convention : Reuss Voigt Hill
#
# Bulk Modulus (GPa) = 42.98153 58.67889 50.83021
# Shear Modulus (GPa) = 25.86002 34.58581 30.22292
#
# Velocity S-wave (km/s) = 3.37350 3.90135 3.64699
# Velocity P-wave (km/s) = 5.83861 6.79099 6.33272
#
# Compressibility (1/GPa) = 0.02326580
#
# Stress axis : x y z
#
# Youngs Moduli (GPa) = 43.19958 73.14900 58.26655
#
# Poissons Ratio (x) = 0.35482 0.64079
# Poissons Ratio (y) = 0.20955 -0.02857
# Poissons Ratio (z) = 0.47509 -0.03586
#
# Static dielectric constant tensor:
#      x y z
#    x 1.855400 0.032720 0.017640 
#    y 0.032720 1.879650 -0.029600 
#    z 0.017640 -0.029600 1.895980 
# 
# From -- ./inp_files/46409.got.cif
#   From: 2010.05.17/outbox.cif.g08.bks.cpg/sg2_24_cif.got.tgz:46409.got - 2010.06.03 11:33:40.
