data_PCOD9046211
_publ_section_title
;
Structure prediction by ZEFSAII (Michael W. Deem and Ramdas Pophale) SiO2 
 PCOD9046211
Probable space group: P -1
;
_chemical_formula_sum "Si O2"
_cell_formula_units_Z 16
_cell_length_a 9.186440
_cell_length_b 12.243030
_cell_length_c 8.408237
_cell_angle_alpha 103.946292
_cell_angle_beta 110.629870
_cell_angle_gamma 55.668756
_cell_volume 729.756185
_symmetry_space_group_name_H-M "P -1"
_symmetry_group_IT_number 2
_symmetry_cell_setting 'triclinic'
loop_
_space_group_symop_operation_xyz
x,y,z
-x,-y,-z
loop_
_atom_site_type_symbol
_atom_site_label
_atom_site_fract_x
_atom_site_fract_y
_atom_site_fract_z
Si Si1 0.544519 0.663870 0.575239
Si Si2 0.012202 0.806342 0.819814
Si Si3 0.312227 0.859326 0.837420
Si Si4 0.336487 0.151188 0.483593
Si Si5 0.351378 0.248154 0.863639
Si Si6 0.237857 0.620795 0.311976
Si Si7 0.296003 0.528703 0.943924
Si Si8 0.121871 0.154145 0.859153
O O1 0.438340 0.738460 0.723602
O O2 0.611073 0.754103 0.555781
O O3 0.394954 0.653852 0.409597
O O4 0.705427 0.510441 0.610325
O O5 0.127966 0.864296 0.812765
O O6 0.156818 0.648298 0.821089
O O7 0.836442 0.840264 0.663128
O O8 0.954747 0.849017 0.996665
O O9 0.252544 0.003431 0.799669
O O10 0.436977 0.831467 0.031380
O O11 0.308011 0.199172 0.670113
O O12 0.500000 0.000000 0.500000
O O13 0.293152 0.397957 0.870352
O O14 0.239269 0.223669 0.946213
O O15 0.042652 0.756367 0.294877
O O16 0.237193 0.575340 0.117153
O O17 0.500000 0.500000 0.000000
#
# Coordination Sequence:
#
# PCOD9046211 Si02
#       8
#     2   2   2   2   2   2   2   2
#     4  11  24  45  72  95 142 179 228 275 349 402
#     4  11  26  43  72 101 139 180 230 281 343 407
#     4  12  24  46  74 100 135 184 231 276 340 419
#     4  12  28  45  67 103 144 176 225 287 347 399
#     4  12  25  44  72 100 139 180 227 280 346 401
#     4  10  24  42  69 100 132 181 226 282 338 399
#     4  11  21  44  70 101 135 180 232 281 337 408
#     4  11  26  43  72 100 139 176 235 277 342 401
#
# _framework density 21.925129999999999
#
# number of rings (size 3 to 8) (size 9 to 14) (size 15 to 20)
#    0.000    0.750    2.500    3.750    7.000    3.000 
#    0.000    0.000    0.000    0.000    0.000    0.000 
#    0.000    0.000    0.000    0.000    0.000    0.000 
#
# Total GULP energy -89520.079509 kJ/mol
# GULP energy per Si atom -5595.004969 kJ/mol
# Density = 2.187523 g / cm^3
# Si number density = 21.925130 Si / 1000 Ang^3
#
#
#
# Elastic Constant Matrix: (Units=GPa)
#
#
# Indices 1 2 3 4 5 6 
#
# 1 85.3358 13.9885 25.4928 -10.6185 17.5915 20.7805
# 2 13.9885 137.5511 37.6410 -19.6570 30.3017 3.2353
# 3 25.4928 37.6410 90.4196 -21.9654 24.5803 -9.5000
# 4 -10.6185 -19.6570 -21.9654 23.3194 -14.8011 7.5445
# 5 17.5915 30.3017 24.5803 -14.8011 38.8626 0.1660
# 6 20.7805 3.2353 -9.5000 7.5445 0.1660 36.5802
#
#
#
# Elastic Compliance Matrix: (Units=1/GPa)
#
#
# Indices 1 2 3 4 5 6 
#
# 1 0.017381 0.001464 -0.004128 0.006957 -0.003696 -0.012494
# 2 0.001464 0.009549 -0.002297 0.004432 -0.004954 -0.003164
# 3 -0.004128 -0.002297 0.016683 0.007631 -0.004008 0.005325
# 4 0.006957 0.004432 0.007631 0.073104 0.016486 -0.017514
# 5 -0.003696 -0.004954 -0.004008 0.016486 0.040090 -0.002086
# 6 -0.012494 -0.003164 0.005325 -0.017514 -0.002086 0.039719
#
#
# Mechanical properties :
#
#
# Convention : Reuss Voigt Hill
#
# Bulk Modulus (GPa) = 29.68167 51.95015 40.81591
# Shear Modulus (GPa) = 22.96964 35.49805 29.23385
#
# Velocity S-wave (km/s) = 3.24024 4.02812 3.65547
# Velocity P-wave (km/s) = 5.25033 6.73647 6.03929
#
# Compressibility (1/GPa) = 0.03369083
#
# Stress axis : x y z
#
# Youngs Moduli (GPa) = 57.53262 104.72566 59.94280
#
# Poissons Ratio (x) = -0.15333 0.24744
# Poissons Ratio (y) = -0.08424 0.13770
# Poissons Ratio (z) = 0.23750 0.24057
#
# Static dielectric constant tensor:
#      x y z
#    x 1.819950 -0.020200 -0.041950 
#    y -0.020200 1.807930 -0.009460 
#    z -0.041950 -0.009460 1.780310 
# 
# From -- ./inp_files/185396.got.cif
#   From: 2010.05.17/outbox.cif.g08.bks.cpg/sg2_93_cif.got.tgz:185396.got - 2010.06.03 11:33:40.
