data_PCOD9046666
_publ_section_title
;
Structure prediction by ZEFSAII (Michael W. Deem and Ramdas Pophale) SiO2 
 PCOD9046666
Probable space group: P -1
;
_chemical_formula_sum "Si O2"
_cell_formula_units_Z 16
_cell_length_a 21.513347
_cell_length_b 9.377086
_cell_length_c 9.213641
_cell_angle_alpha 134.847699
_cell_angle_beta 53.988232
_cell_angle_gamma 144.591289
_cell_volume 763.137308
_symmetry_space_group_name_H-M "P -1"
_symmetry_group_IT_number 2
_symmetry_cell_setting 'triclinic'
loop_
_space_group_symop_operation_xyz
x,y,z
-x,-y,-z
loop_
_atom_site_type_symbol
_atom_site_label
_atom_site_fract_x
_atom_site_fract_y
_atom_site_fract_z
Si Si1 0.043490 0.178607 0.426587
Si Si2 0.067594 0.639801 0.362303
Si Si3 0.436128 0.038796 0.515256
Si Si4 0.487110 0.415998 0.127709
Si Si5 0.395998 0.751335 0.059079
Si Si6 0.734366 0.219523 0.943505
Si Si7 0.778756 0.262894 0.238787
Si Si8 0.932906 0.216856 0.993049
O O1 0.142528 0.492124 0.574081
O O2 0.947545 0.151154 0.494259
O O3 0.000000 0.000000 0.500000
O O4 0.072261 0.032762 0.192955
O O5 0.185922 0.773145 0.258241
O O6 0.000000 0.500000 0.500000
O O7 0.994100 0.371905 0.166538
O O8 0.506469 0.367111 0.634379
O O9 0.500000 0.000000 0.500000
O O10 0.400302 0.879785 0.297568
O O11 0.336288 0.920575 0.666050
O O12 0.374530 0.098688 0.089110
O O13 0.500000 0.500000 0.000000
O O14 0.582757 0.440942 0.064045
O O15 0.298828 0.650756 0.018121
O O16 0.500000 0.000000 0.000000
O O17 0.785310 0.360766 0.134625
O O18 0.815427 0.098557 0.059105
O O19 0.000000 0.500000 0.000000
#
# Coordination Sequence:
#
# PCOD9046666 Si02
#       8
#     2   2   2   2   2   2   2   2
#     4  11  21  42  73  95 125 180 230 272 330 393
#     4  11  25  43  65 101 144 174 221 279 337 402
#     4  12  24  42  69 100 130 175 224 276 327 403
#     4  11  22  45  70  99 130 175 228 276 331 397
#     4  10  24  43  66  97 141 170 219 277 337 399
#     4  11  22  44  68  98 142 176 214 286 343 390
#     4  11  23  40  69  99 133 172 230 274 332 394
#     4  11  21  44  68  98 132 171 231 280 319 402
#
# _framework density 20.966083999999999
#
# number of rings (size 3 to 8) (size 9 to 14) (size 15 to 20)
#    0.000    1.000    6.250    0.750    3.500    5.500 
#    0.000    3.750    2.750    0.000    0.000    0.000 
#    0.000    0.000    0.000    0.000    0.000    0.000 
#
# Total GULP energy -89100.522123 kJ/mol
# GULP energy per Si atom -5568.782633 kJ/mol
# Density = 2.091836 g / cm^3
# Si number density = 20.966084 Si / 1000 Ang^3
#
#
#
# Elastic Constant Matrix: (Units=GPa)
#
#
# Indices 1 2 3 4 5 6 
#
# 1 141.4985 25.4439 41.2680 -9.9734 -36.9243 -1.2696
# 2 25.4439 55.5912 7.2168 -22.0936 -13.2748 3.5507
# 3 41.2680 7.2168 112.3173 -4.1475 -15.3614 -1.9656
# 4 -9.9734 -22.0936 -4.1475 42.8226 -3.4822 -5.7648
# 5 -36.9243 -13.2748 -15.3614 -3.4822 41.2127 -3.0541
# 6 -1.2696 3.5507 -1.9656 -5.7648 -3.0541 34.5550
#
#
#
# Elastic Compliance Matrix: (Units=1/GPa)
#
#
# Indices 1 2 3 4 5 6 
#
# 1 0.010387 -0.001739 -0.002490 0.002141 0.008109 0.001493
# 2 -0.001739 0.026183 0.000610 0.013882 0.008301 0.000330
# 3 -0.002490 0.000610 0.010082 0.000963 0.001860 0.000744
# 4 0.002141 0.013882 0.000963 0.032585 0.009874 0.005016
# 5 0.008109 0.008301 0.001860 0.009874 0.036056 0.004385
# 6 0.001493 0.000330 0.000744 0.005016 0.004385 0.030227
#
#
# Mechanical properties :
#
#
# Convention : Reuss Voigt Hill
#
# Bulk Modulus (GPa) = 25.37137 50.80718 38.08927
# Shear Modulus (GPa) = 30.13955 39.41662 34.77809
#
# Velocity S-wave (km/s) = 3.79560 4.34062 4.07723
# Velocity P-wave (km/s) = 5.59788 7.02901 6.35386
#
# Compressibility (1/GPa) = 0.03941451
#
# Stress axis : x y z
#
# Youngs Moduli (GPa) = 96.27867 38.19211 99.18599
#
# Poissons Ratio (x) = 0.06640 0.24700
# Poissons Ratio (y) = 0.16739 -0.06051
# Poissons Ratio (z) = 0.23976 -0.02330
#
# Static dielectric constant tensor:
#      x y z
#    x 1.808130 0.064090 0.009640 
#    y 0.064090 1.811450 0.001450 
#    z 0.009640 0.001450 1.723470 
# 
# From -- ./inp_files/343023.got.cif
#   From: 2010.05.17/outbox.cif.g08.bks.cpg/sg2_172_cif.got.tgz:343023.got - 2010.06.03 11:33:40.
