data_PCOD9046682
_publ_section_title
;
Structure prediction by ZEFSAII (Michael W. Deem and Ramdas Pophale) SiO2 
 PCOD9046682
Probable space group: P -1
;
_chemical_formula_sum "Si O2"
_cell_formula_units_Z 16
_cell_length_a 15.430269
_cell_length_b 8.769517
_cell_length_c 5.257857
_cell_angle_alpha 91.675529
_cell_angle_beta 75.365689
_cell_angle_gamma 84.171177
_cell_volume 683.716800
_symmetry_space_group_name_H-M "P -1"
_symmetry_group_IT_number 2
_symmetry_cell_setting 'triclinic'
loop_
_space_group_symop_operation_xyz
x,y,z
-x,-y,-z
loop_
_atom_site_type_symbol
_atom_site_label
_atom_site_fract_x
_atom_site_fract_y
_atom_site_fract_z
Si Si1 0.284347 0.463233 0.581398
Si Si2 0.519208 0.594387 0.739282
Si Si3 0.548557 0.056194 0.217953
Si Si4 0.751238 0.017520 0.945788
Si Si5 0.063738 0.133520 0.939661
Si Si6 0.074016 0.437403 0.233989
Si Si7 0.814490 0.786737 0.516826
Si Si8 0.223590 0.628832 0.121572
O O1 0.375389 0.388852 0.375967
O O2 0.225720 0.321935 0.661990
O O3 0.243447 0.583664 0.400753
O O4 0.290134 0.542776 0.854825
O O5 0.500000 0.500000 0.500000
O O6 0.463640 0.759877 0.782271
O O7 0.500000 0.500000 0.000000
O O8 0.500000 0.000000 0.500000
O O9 0.655180 0.002823 0.141829
O O10 0.500000 0.000000 0.000000
O O11 0.767608 0.192670 0.904637
O O12 0.750672 0.929527 0.672460
O O13 0.839404 0.936622 0.019635
O O14 0.090499 0.159576 0.630374
O O15 0.036974 0.306052 0.079323
O O16 0.000000 0.000000 0.000000
O O17 0.159726 0.336838 0.290643
O O18 0.125007 0.581084 0.111619
O O19 0.000000 0.500000 0.500000
#
# Coordination Sequence:
#
# PCOD9046682 Si02
#       8
#     2   2   2   2   2   2   2   2
#     4  11  23  45  70  96 141 185 236 286 357 425
#     4  12  25  44  71 104 143 186 243 301 358 434
#     4  12  28  47  74 111 148 196 248 304 371 436
#     4  11  27  44  70 103 147 185 241 301 358 432
#     4  11  26  44  71 102 139 191 236 294 361 432
#     4  10  24  43  66  99 137 180 237 296 354 426
#     4  10  24  44  67  95 138 187 236 283 365 426
#     4  11  25  44  71 104 136 190 233 296 358 421
#
# _framework density 23.401501
#
# number of rings (size 3 to 8) (size 9 to 14) (size 15 to 20)
#    0.000    1.000    1.250    3.750    8.750    2.500 
#    0.000    0.000    0.000    0.000    0.000    0.000 
#    0.000    0.000    0.000    0.000    0.000    0.000 
#
# Total GULP energy -89367.578845 kJ/mol
# GULP energy per Si atom -5585.473678 kJ/mol
# Density = 2.334824 g / cm^3
# Si number density = 23.401501 Si / 1000 Ang^3
#
#
#
# Elastic Constant Matrix: (Units=GPa)
#
#
# Indices 1 2 3 4 5 6 
#
# 1 101.1995 33.7962 29.9110 -2.4640 -13.1519 7.7759
# 2 33.7962 114.3665 57.5737 13.6866 -4.6857 27.4017
# 3 29.9110 57.5737 147.2857 0.8165 -13.1203 9.6405
# 4 -2.4640 13.6866 0.8165 47.4092 1.0145 -6.6567
# 5 -13.1519 -4.6857 -13.1203 1.0145 43.4177 -3.5766
# 6 7.7759 27.4017 9.6405 -6.6567 -3.5766 33.0675
#
#
#
# Elastic Compliance Matrix: (Units=1/GPa)
#
#
# Indices 1 2 3 4 5 6 
#
# 1 0.011584 -0.003264 -0.000883 0.001621 0.002925 0.000881
# 2 -0.003264 0.015782 -0.004805 -0.006344 -0.001608 -0.012361
# 3 -0.000883 -0.004805 0.008883 0.001441 0.002038 0.002111
# 4 0.001621 -0.006344 0.001441 0.024293 0.000448 0.009395
# 5 0.002925 -0.001608 0.002038 0.000448 0.024581 0.002799
# 6 0.000881 -0.012361 0.002111 0.009395 0.002799 0.041856
#
#
# Mechanical properties :
#
#
# Convention : Reuss Voigt Hill
#
# Bulk Modulus (GPa) = 54.51042 67.26817 60.88930
# Shear Modulus (GPa) = 33.11290 40.88359 36.99824
#
# Velocity S-wave (km/s) = 3.76572 4.18431 3.98052
# Velocity P-wave (km/s) = 6.50012 7.22165 6.87037
#
# Compressibility (1/GPa) = 0.01834512
#
# Stress axis : x y z
#
# Youngs Moduli (GPa) = 86.32380 63.36154 112.57853
#
# Poissons Ratio (x) = 0.20681 0.09938
# Poissons Ratio (y) = 0.28176 0.54099
# Poissons Ratio (z) = 0.07620 0.30448
#
# Static dielectric constant tensor:
#      x y z
#    x 1.971820 0.013520 0.030370 
#    y 0.013520 1.866180 -0.049750 
#    z 0.030370 -0.049750 1.963880 
# 
# From -- ./inp_files/90666.got.cif
#   From: 2010.05.17/outbox.cif.g08.bks.cpg/sg2_46_cif.got.tgz:90666.got - 2010.06.03 11:33:40.
