data_PCOD9046552
_publ_section_title
;
Structure prediction by ZEFSAII (Michael W. Deem and Ramdas Pophale) SiO2 
 PCOD9046552
Probable space group: P -1
;
_chemical_formula_sum "Si O2"
_cell_formula_units_Z 15
_cell_length_a 6.157123
_cell_length_b 14.147955
_cell_length_c 16.537890
_cell_angle_alpha 25.516357
_cell_angle_beta 98.361358
_cell_angle_gamma 92.741063
_cell_volume 602.107454
_symmetry_space_group_name_H-M "P -1"
_symmetry_group_IT_number 2
_symmetry_cell_setting 'triclinic'
loop_
_space_group_symop_operation_xyz
x,y,z
-x,-y,-z
loop_
_atom_site_type_symbol
_atom_site_label
_atom_site_fract_x
_atom_site_fract_y
_atom_site_fract_z
Si Si1 0.238134 0.822340 0.379416
Si Si2 0.967836 0.759227 0.711949
Si Si3 0.679963 0.455342 0.650283
Si Si4 0.500000 0.000000 0.000000
Si Si5 0.526347 0.825176 0.941475
Si Si6 0.314466 0.542210 0.025974
Si Si7 0.069785 0.539591 0.717467
Si Si8 0.180382 0.203494 0.724527
O O1 0.447128 0.625715 0.522890
O O2 0.115843 0.754632 0.504409
O O3 0.047362 0.852801 0.276883
O O4 0.348838 0.039292 0.219243
O O5 0.053575 0.596221 0.767486
O O6 0.102392 0.687280 0.856689
O O7 0.726494 0.698937 0.761182
O O8 0.000000 0.000000 0.500000
O O9 0.848962 0.471669 0.720929
O O10 0.787085 0.568497 0.492951
O O11 0.627386 0.213061 0.822422
O O12 0.753378 0.823307 0.159278
O O13 0.373163 0.687953 0.990640
O O14 0.390014 0.000982 0.862768
O O15 0.713589 0.652476 0.129888
O O16 0.500000 0.500000 0.000000
#
# Coordination Sequence:
#
# PCOD9046552 Si02
#       8
#     2   2   2   1   2   2   2   2
#     4  10  24  43  69  97 134 178 219 279 337 397
#     4  11  28  42  67 100 138 182 227 285 332 405
#     4  10  24  43  64 102 131 174 221 276 331 404
#     4  12  22  42  74  90 138 172 220 274 336 400
#     4  11  24  42  70  96 137 179 224 278 340 399
#     4  11  26  45  65 101 139 178 231 283 334 399
#     4  11  24  42  68  99 134 177 232 268 341 406
#     4  10  24  43  66  99 132 174 222 275 337 400
#
# _framework density 24.912496000000001
#
# number of rings (size 3 to 8) (size 9 to 14) (size 15 to 20)
#    0.000    1.333    1.333    2.000   13.067    1.067 
#    0.000   12.667    0.000    0.000    0.000    0.000 
#    0.000    0.000    0.000    0.000    0.000    0.000 
#
# Total GULP energy -83825.559011 kJ/mol
# GULP energy per Si atom -5588.370601 kJ/mol
# Density = 2.485579 g / cm^3
# Si number density = 24.912496 Si / 1000 Ang^3
#
#
#
# Elastic Constant Matrix: (Units=GPa)
#
#
# Indices 1 2 3 4 5 6 
#
# 1 82.6684 36.8796 31.7346 -8.0387 -9.8124 23.0681
# 2 36.8796 125.5465 40.1533 -3.4922 10.4736 21.7544
# 3 31.7346 40.1533 163.4240 -14.4624 -23.9355 30.9722
# 4 -8.0387 -3.4922 -14.4624 37.7629 15.1052 -2.0964
# 5 -9.8124 10.4736 -23.9355 15.1052 54.8028 6.6371
# 6 23.0681 21.7544 30.9722 -2.0964 6.6371 50.5063
#
#
#
# Elastic Compliance Matrix: (Units=1/GPa)
#
#
# Indices 1 2 3 4 5 6 
#
# 1 0.016216 -0.003902 -0.000397 0.001045 0.003909 -0.005953
# 2 -0.003902 0.010247 -0.002070 0.000742 -0.003662 -0.000850
# 3 -0.000397 -0.002070 0.008261 0.000951 0.004216 -0.004507
# 4 0.001045 0.000742 0.000951 0.030401 -0.008032 0.000937
# 5 0.003909 -0.003662 0.004216 -0.008032 0.024470 -0.006342
# 6 -0.005953 -0.000850 -0.004507 0.000937 -0.006342 0.026521
#
#
# Mechanical properties :
#
#
# Convention : Reuss Voigt Hill
#
# Bulk Modulus (GPa) = 45.48317 65.46376 55.47346
# Shear Modulus (GPa) = 36.71537 46.13915 41.42726
#
# Velocity S-wave (km/s) = 3.84314 4.30821 4.08230
# Velocity P-wave (km/s) = 6.16358 7.14718 6.67353
#
# Compressibility (1/GPa) = 0.02198616
#
# Stress axis : x y z
#
# Youngs Moduli (GPa) = 61.66604 97.59124 121.05722
#
# Poissons Ratio (x) = 0.38082 0.04808
# Poissons Ratio (y) = 0.24063 0.25053
# Poissons Ratio (z) = 0.02449 0.20197
#
# Static dielectric constant tensor:
#      x y z
#    x 2.035640 0.011910 -0.014310 
#    y 0.011910 1.707840 -0.108370 
#    z -0.014310 -0.108370 1.903940 
# 
# From -- ./inp_files/550944.got.cif
#   From: 2010.05.17/outbox.cif.g08.bks.cpg/sg2_276_cif.got.tgz:550944.got - 2010.06.03 11:33:40.
