data_PCOD9046102
_publ_section_title
;
Structure prediction by ZEFSAII (Michael W. Deem and Ramdas Pophale) SiO2 
 PCOD9046102
Probable space group: P -1
;
_chemical_formula_sum "Si O2"
_cell_formula_units_Z 14
_cell_length_a 6.653214
_cell_length_b 15.276125
_cell_length_c 14.841217
_cell_angle_alpha 152.257597
_cell_angle_beta 71.080081
_cell_angle_gamma 107.357031
_cell_volume 663.996087
_symmetry_space_group_name_H-M "P -1"
_symmetry_group_IT_number 2
_symmetry_cell_setting 'triclinic'
loop_
_space_group_symop_operation_xyz
x,y,z
-x,-y,-z
loop_
_atom_site_type_symbol
_atom_site_label
_atom_site_fract_x
_atom_site_fract_y
_atom_site_fract_z
Si Si1 0.392019 0.178494 0.135847
Si Si2 0.389383 0.172753 0.792307
Si Si3 0.180674 0.885460 0.418893
Si Si4 0.052154 0.377645 0.468811
Si Si5 0.819126 0.324902 0.130978
Si Si6 0.945265 0.517361 0.918498
Si Si7 0.151998 0.026250 0.862245
O O1 0.279592 0.292582 0.334413
O O2 0.574182 0.300215 0.169866
O O3 0.218759 0.101206 0.019015
O O4 0.500000 0.000000 0.000000
O O5 0.635684 0.177285 0.734070
O O6 0.333861 0.099740 0.833581
O O7 0.282994 0.019432 0.601045
O O8 0.265388 0.364229 0.963724
O O9 0.086579 0.695997 0.303584
O O10 0.000000 0.000000 0.500000
O O11 0.070376 0.515183 0.676351
O O12 0.000000 0.500000 0.500000
O O13 0.892383 0.197450 0.337814
O O14 0.867772 0.381071 0.072679
O O15 0.940518 0.132483 0.958925
O O16 0.000000 0.500000 0.000000
#
# Coordination Sequence:
#
# PCOD9046102 Si02
#       7
#     2   2   2   2   2   2   2
#     4  12  24  44  70  96 133 176 220 272 337 396
#     4  10  24  42  67  93 130 179 214 271 331 389
#     4  11  22  43  64  95 132 168 222 271 323 385
#     4  12  23  45  69  94 136 172 217 278 331 394
#     4  11  25  44  67 100 134 175 224 272 332 397
#     4  11  23  43  68  95 133 174 220 271 326 392
#     4  11  24  44  66  98 135 170 221 274 332 394
#
# _framework density 21.084461999999998
#
# number of rings (size 3 to 8) (size 9 to 14) (size 15 to 20)
#    0.000    0.857    4.286    3.000    2.000    0.000 
#    5.143    0.000    0.000    0.000    0.000    0.000 
#    0.000    0.000    0.000    0.000    0.000    0.000 
#
# Total GULP energy -78310.628261 kJ/mol
# GULP energy per Si atom -5593.616304 kJ/mol
# Density = 2.103647 g / cm^3
# Si number density = 21.084462 Si / 1000 Ang^3
#
#
#
# Elastic Constant Matrix: (Units=GPa)
#
#
# Indices 1 2 3 4 5 6 
#
# 1 39.4301 25.9612 -0.2386 11.2075 -3.4092 2.0106
# 2 25.9612 114.8089 18.7139 11.5598 -6.0055 -10.4562
# 3 -0.2386 18.7139 78.2878 24.4003 -1.9022 -15.5098
# 4 11.2075 11.5598 24.4003 43.2893 -0.7045 0.0553
# 5 -3.4092 -6.0055 -1.9022 -0.7045 45.4539 -2.6699
# 6 2.0106 -10.4562 -15.5098 0.0553 -2.6699 29.7116
#
#
#
# Elastic Compliance Matrix: (Units=1/GPa)
#
#
# Indices 1 2 3 4 5 6 
#
# 1 0.033050 -0.007415 0.004184 -0.008909 0.001388 -0.002521
# 2 -0.007415 0.011070 -0.001991 0.000098 0.001027 0.003450
# 3 0.004184 -0.001991 0.018435 -0.010935 0.001168 0.008765
# 4 -0.008909 0.000098 -0.010935 0.031536 -0.000930 -0.005213
# 5 0.001388 0.001027 0.001168 -0.000930 0.022445 0.002896
# 6 -0.002521 0.003450 0.008765 -0.005213 0.002896 0.039887
#
#
# Mechanical properties :
#
#
# Convention : Reuss Voigt Hill
#
# Bulk Modulus (GPa) = 19.18990 35.71111 27.45050
# Shear Modulus (GPa) = 27.13921 36.23032 31.68477
#
# Velocity S-wave (km/s) = 3.59160 4.14979 3.88074
# Velocity P-wave (km/s) = 5.13037 6.31941 5.75567
#
# Compressibility (1/GPa) = 0.05211076
#
# Stress axis : x y z
#
# Youngs Moduli (GPa) = 30.25734 90.33829 54.24493
#
# Poissons Ratio (x) = 0.66989 -0.22698
# Poissons Ratio (y) = 0.22437 0.10799
# Poissons Ratio (z) = -0.12661 0.17984
#
# Static dielectric constant tensor:
#      x y z
#    x 1.757330 0.013530 -0.019590 
#    y 0.013530 1.789360 0.000430 
#    z -0.019590 0.000430 1.803790 
# 
# From -- ./inp_files/91122.got.cif
#   From: 2010.05.17/outbox.cif.g08.bks.cpg/sg2_46_cif.got.tgz:91122.got - 2010.06.03 11:33:40.
