data_PCOD9046817
_publ_section_title
;
Structure prediction by ZEFSAII (Michael W. Deem and Ramdas Pophale) SiO2 
 PCOD9046817
Probable space group: P -1
;
_chemical_formula_sum "Si O2"
_cell_formula_units_Z 16
_cell_length_a 13.569362
_cell_length_b 9.370658
_cell_length_c 8.877034
_cell_angle_alpha 107.457747
_cell_angle_beta 68.763094
_cell_angle_gamma 134.744374
_cell_volume 745.526714
_symmetry_space_group_name_H-M "P -1"
_symmetry_group_IT_number 2
_symmetry_cell_setting 'triclinic'
loop_
_space_group_symop_operation_xyz
x,y,z
-x,-y,-z
loop_
_atom_site_type_symbol
_atom_site_label
_atom_site_fract_x
_atom_site_fract_y
_atom_site_fract_z
Si Si1 0.428452 0.061286 0.964888
Si Si2 0.202598 0.349115 0.771306
Si Si3 0.613485 0.176366 0.606405
Si Si4 0.469340 0.536397 0.865044
Si Si5 0.020760 0.073614 0.339324
Si Si6 0.691158 0.569943 0.590846
Si Si7 0.112959 0.724564 0.573733
Si Si8 0.853161 0.351991 0.125343
O O1 0.525633 0.155409 0.790319
O O2 0.267848 0.863937 0.953262
O O3 0.448035 0.228767 0.103073
O O4 0.500000 0.000000 0.000000
O O5 0.305946 0.407872 0.870392
O O6 0.270431 0.356762 0.578740
O O7 0.194950 0.520171 0.810517
O O8 0.051112 0.120537 0.787323
O O9 0.688513 0.389717 0.556844
O O10 0.737088 0.170187 0.558853
O O11 0.500000 0.000000 0.500000
O O12 0.539988 0.493688 0.692614
O O13 0.500000 0.500000 0.000000
O O14 0.943246 0.159748 0.381963
O O15 0.190499 0.257863 0.302041
O O16 0.000000 0.000000 0.500000
O O17 0.128671 0.697962 0.733142
O O18 0.000000 0.500000 0.500000
O O19 0.000000 0.500000 0.000000
#
# Coordination Sequence:
#
# PCOD9046817 Si02
#       8
#     2   2   2   2   2   2   2   2
#     4  12  27  48  68 104 143 188 231 290 359 412
#     4  11  24  48  68 104 139 182 237 290 347 419
#     4  12  24  44  75 103 142 179 246 292 337 425
#     4  12  27  43  70  99 142 182 228 287 357 417
#     4  10  24  43  68 104 139 173 235 288 348 412
#     4  11  23  47  69 101 137 184 235 291 346 414
#     4  12  24  45  75 104 137 190 235 290 351 413
#     4  12  28  48  71 104 145 185 237 293 356 425
#
# _framework density 21.461337
#
# number of rings (size 3 to 8) (size 9 to 14) (size 15 to 20)
#    0.000    0.500    6.250    1.125    7.000    3.000 
#    0.000    1.250    0.000    0.000    0.000    0.000 
#    0.000    0.000    0.000    0.000    0.000    0.000 
#
# Total GULP energy -89420.322422 kJ/mol
# GULP energy per Si atom -5588.770151 kJ/mol
# Density = 2.141249 g / cm^3
# Si number density = 21.461337 Si / 1000 Ang^3
#
#
#
# Elastic Constant Matrix: (Units=GPa)
#
#
# Indices 1 2 3 4 5 6 
#
# 1 109.0982 21.0686 8.7819 4.4423 22.6695 -1.2364
# 2 21.0686 96.2996 -8.4217 19.9559 28.8013 12.9418
# 3 8.7819 -8.4217 43.4571 -2.5892 11.9876 8.7428
# 4 4.4423 19.9559 -2.5892 37.9667 11.0821 1.5094
# 5 22.6695 28.8013 11.9876 11.0821 39.0424 2.8270
# 6 -1.2364 12.9418 8.7428 1.5094 2.8270 48.8132
#
#
#
# Elastic Compliance Matrix: (Units=1/GPa)
#
#
# Indices 1 2 3 4 5 6 
#
# 1 0.010542 -0.001126 -0.001059 0.000781 -0.005262 0.001036
# 2 -0.001126 0.016503 0.007547 -0.004249 -0.012275 -0.004913
# 3 -0.001059 0.007547 0.030197 0.002718 -0.014512 -0.006680
# 4 0.000781 -0.004249 0.002718 0.030666 -0.006866 0.000109
# 5 -0.005262 -0.012275 -0.014512 -0.006866 0.043883 0.003391
# 6 0.001036 -0.004913 -0.006680 0.000109 0.003391 0.022812
#
#
# Mechanical properties :
#
#
# Convention : Reuss Voigt Hill
#
# Bulk Modulus (GPa) = 14.71338 32.41250 23.56294
# Shear Modulus (GPa) = 30.02384 40.32619 35.17501
#
# Velocity S-wave (km/s) = 3.74434 4.33946 4.05284
# Velocity P-wave (km/s) = 5.05610 6.34377 5.73618
#
# Compressibility (1/GPa) = 0.06796536
#
# Stress axis : x y z
#
# Youngs Moduli (GPa) = 94.85772 60.59512 33.11606
#
# Poissons Ratio (x) = 0.06826 0.03507
# Poissons Ratio (y) = 0.10685 -0.24994
# Poissons Ratio (z) = 0.10047 -0.45733
#
# Static dielectric constant tensor:
#      x y z
#    x 1.788800 -0.001990 0.012050 
#    y -0.001990 1.791290 -0.024090 
#    z 0.012050 -0.024090 1.740230 
# 
# From -- ./inp_files/184074.got.cif
#   From: 2010.05.17/outbox.cif.g08.bks.cpg/sg2_93_cif.got.tgz:184074.got - 2010.06.03 11:33:40.
