data_PCOD9046722
_publ_section_title
;
Structure prediction by ZEFSAII (Michael W. Deem and Ramdas Pophale) SiO2 
 PCOD9046722
Probable space group: P -1
;
_chemical_formula_sum "Si O2"
_cell_formula_units_Z 12
_cell_length_a 8.306535
_cell_length_b 14.355081
_cell_length_c 6.814733
_cell_angle_alpha 52.319212
_cell_angle_beta 78.195892
_cell_angle_gamma 108.911136
_cell_volume 512.912302
_symmetry_space_group_name_H-M "P -1"
_symmetry_group_IT_number 2
_symmetry_cell_setting 'triclinic'
loop_
_space_group_symop_operation_xyz
x,y,z
-x,-y,-z
loop_
_atom_site_type_symbol
_atom_site_label
_atom_site_fract_x
_atom_site_fract_y
_atom_site_fract_z
Si Si1 0.991472 0.010946 0.758313
Si Si2 0.633463 0.419031 0.280484
Si Si3 0.806155 0.676276 0.601107
Si Si4 0.068737 0.405421 0.697235
Si Si5 0.306006 0.782937 0.692728
Si Si6 0.329204 0.061082 0.334940
O O1 0.767896 0.907332 0.859984
O O2 0.067606 0.176771 0.495447
O O3 0.150910 0.995869 0.625707
O O4 0.000000 0.000000 0.000000
O O5 0.252312 0.457873 0.075248
O O6 0.399597 0.347847 0.390796
O O7 0.684997 0.304158 0.375390
O O8 0.718377 0.493045 0.374184
O O9 0.920982 0.681407 0.371979
O O10 0.000000 0.500000 0.500000
O O11 0.906895 0.306572 0.030856
O O12 0.364976 0.940713 0.422008
O O13 0.470918 0.808568 0.779857
#
# Coordination Sequence:
#
# PCOD9046722 Si02
#       6
#     2   2   2   2   2   2
#     4  11  23  43  67  96 125 170 213 262 313 379
#     4  11  24  44  67  92 132 171 208 263 321 378
#     4  11  24  44  67  95 126 172 215 256 321 380
#     4  12  25  39  65  99 128 163 211 266 320 372
#     4  11  22  46  65  95 131 169 208 266 321 370
#     4  10  24  43  67  91 130 170 213 258 315 381
#
# _framework density 23.395810000000001
#
# number of rings (size 3 to 8) (size 9 to 14) (size 15 to 20)
#    0.000    1.000    3.333    3.000    2.333    2.667 
#    0.000    2.500    0.000    0.000    0.000    0.000 
#    0.000    0.000    0.000    0.000    0.000    0.000 
#
# Total GULP energy -67199.425185 kJ/mol
# GULP energy per Si atom -5599.952099 kJ/mol
# Density = 2.334256 g / cm^3
# Si number density = 23.395810 Si / 1000 Ang^3
#
#
#
# Elastic Constant Matrix: (Units=GPa)
#
#
# Indices 1 2 3 4 5 6 
#
# 1 82.3844 25.7237 4.4388 17.3608 -5.6738 14.6481
# 2 25.7237 88.7036 -8.8095 4.5564 1.5256 -9.3505
# 3 4.4388 -8.8095 29.8915 10.3658 11.2774 0.0007
# 4 17.3608 4.5564 10.3658 30.0790 6.1503 2.4284
# 5 -5.6738 1.5256 11.2774 6.1503 21.2467 6.0950
# 6 14.6481 -9.3505 0.0007 2.4284 6.0950 58.0639
#
#
#
# Elastic Compliance Matrix: (Units=1/GPa)
#
#
# Indices 1 2 3 4 5 6 
#
# 1 0.018761 -0.006530 -0.006465 -0.009867 0.013721 -0.006812
# 2 -0.006530 0.014697 0.008627 -0.000033 -0.008785 0.004938
# 3 -0.006465 0.008627 0.051125 -0.009893 -0.028461 0.006421
# 4 -0.009867 -0.000033 -0.009893 0.044409 -0.010740 0.001754
# 5 0.013721 -0.008785 -0.028461 -0.010740 0.073046 -0.012094
# 6 -0.006812 0.004938 0.006421 0.001754 -0.012094 0.020932
#
#
# Mechanical properties :
#
#
# Convention : Reuss Voigt Hill
#
# Bulk Modulus (GPa) = 13.18451 27.07614 20.13033
# Shear Modulus (GPa) = 19.45612 33.85300 26.65456
#
# Velocity S-wave (km/s) = 2.88689 3.80803 3.37900
# Velocity P-wave (km/s) = 4.09388 5.56174 4.88328
#
# Compressibility (1/GPa) = 0.07584657
#
# Stress axis : x y z
#
# Youngs Moduli (GPa) = 53.30291 68.04034 19.55988
#
# Poissons Ratio (x) = 0.44429 0.12646
# Poissons Ratio (y) = 0.34806 -0.16874
# Poissons Ratio (z) = 0.34461 -0.58697
#
# Static dielectric constant tensor:
#      x y z
#    x 1.873920 0.003220 0.029020 
#    y 0.003220 1.848560 -0.043100 
#    z 0.029020 -0.043100 1.867920 
# 
# From -- ./inp_files/34033.got.cif
#   From: 2010.05.17/outbox.cif.g08.bks.cpg/sg2_18_cif.got.tgz:34033.got - 2010.06.03 11:33:40.
