data_PCOD9046273
_publ_section_title
;
Structure prediction by ZEFSAII (Michael W. Deem and Ramdas Pophale) SiO2 
 PCOD9046273
Probable space group: P -1
;
_chemical_formula_sum "Si O2"
_cell_formula_units_Z 12
_cell_length_a 5.053480
_cell_length_b 14.250552
_cell_length_c 9.287494
_cell_angle_alpha 69.438707
_cell_angle_beta 130.624099
_cell_angle_gamma 96.657353
_cell_volume 469.288399
_symmetry_space_group_name_H-M "P -1"
_symmetry_group_IT_number 2
_symmetry_cell_setting 'triclinic'
loop_
_space_group_symop_operation_xyz
x,y,z
-x,-y,-z
loop_
_atom_site_type_symbol
_atom_site_label
_atom_site_fract_x
_atom_site_fract_y
_atom_site_fract_z
Si Si1 0.414742 0.895905 0.099013
Si Si2 0.888373 0.717899 0.803015
Si Si3 0.613492 0.469068 0.900348
Si Si4 0.269892 0.068081 0.501332
Si Si5 0.384190 0.597150 0.506973
Si Si6 0.836005 0.769637 0.063769
O O1 0.544206 0.900399 0.306512
O O2 0.039979 0.858689 0.020287
O O3 0.622528 0.817305 0.101175
O O4 0.500000 0.000000 0.000000
O O5 0.910638 0.827834 0.689916
O O6 0.673590 0.663356 0.636419
O O7 0.270439 0.651157 0.007603
O O8 0.690404 0.730709 0.881397
O O9 0.321089 0.534622 0.662735
O O10 0.500000 0.500000 0.000000
O O11 0.000000 0.500000 0.000000
O O12 0.500000 0.000000 0.500000
O O13 0.000000 0.000000 0.500000
O O14 0.500000 0.500000 0.500000
O O15 0.101437 0.674960 0.277900
#
# Coordination Sequence:
#
# PCOD9046273 Si02
#       6
#     2   2   2   2   2   2
#     4  12  26  49  74 109 151 194 250 305 367 443
#     4  11  25  48  73 109 151 194 248 307 372 437
#     4  10  24  42  70 100 140 188 236 297 357 426
#     4  12  26  45  75 111 147 192 243 303 367 439
#     4  11  24  49  75 111 148 196 251 304 373 442
#     4  12  26  46  76 109 148 198 243 307 368 441
#
# _framework density 25.570633000000001
#
# number of rings (size 3 to 8) (size 9 to 14) (size 15 to 20)
#    0.000    0.667    3.333    3.500    2.333    4.000 
#    0.000    4.167    0.000    0.000    0.000    0.000 
#    0.000    0.000    0.000    0.000    0.000    0.000 
#
# Total GULP energy -67050.489854 kJ/mol
# GULP energy per Si atom -5587.540821 kJ/mol
# Density = 2.551243 g / cm^3
# Si number density = 25.570633 Si / 1000 Ang^3
#
#
#
# Elastic Constant Matrix: (Units=GPa)
#
#
# Indices 1 2 3 4 5 6 
#
# 1 138.4099 59.3140 20.7914 13.4442 -29.7284 -24.3202
# 2 59.3140 197.7948 62.5217 -4.0120 -9.1148 -4.2617
# 3 20.7914 62.5217 157.7284 -2.1191 -34.2930 7.1104
# 4 13.4442 -4.0120 -2.1191 80.6710 0.5627 -12.9731
# 5 -29.7284 -9.1148 -34.2930 0.5627 44.5457 11.7140
# 6 -24.3202 -4.2617 7.1104 -12.9731 11.7140 41.1581
#
#
#
# Elastic Compliance Matrix: (Units=1/GPa)
#
#
# Indices 1 2 3 4 5 6 
#
# 1 0.010509 -0.003147 0.001052 -0.001364 0.006281 0.003485
# 2 -0.003147 0.006830 -0.002992 0.000896 -0.003162 0.000546
# 3 0.001052 -0.002992 0.009368 -0.000767 0.008343 -0.003923
# 4 -0.001364 0.000896 -0.000767 0.013371 -0.002640 0.004385
# 5 0.006281 -0.003162 0.008343 -0.002640 0.034759 -0.008782
# 6 0.003485 0.000546 -0.003923 0.004385 -0.008782 0.030972
#
#
# Mechanical properties :
#
#
# Convention : Reuss Voigt Hill
#
# Bulk Modulus (GPa) = 60.48776 86.57636 73.53206
# Shear Modulus (GPa) = 41.15423 56.69537 48.92480
#
# Velocity S-wave (km/s) = 4.01613 4.71383 4.37890
# Velocity P-wave (km/s) = 6.72400 7.97234 7.37463
#
# Compressibility (1/GPa) = 0.01653227
#
# Stress axis : x y z
#
# Youngs Moduli (GPa) = 95.15349 146.42066 106.74802
#
# Poissons Ratio (x) = 0.46083 -0.11233
# Poissons Ratio (y) = 0.29948 0.31942
# Poissons Ratio (z) = -0.10013 0.43813
#
# Static dielectric constant tensor:
#      x y z
#    x 2.088940 0.053680 -0.067540 
#    y 0.053680 2.072090 -0.109060 
#    z -0.067540 -0.109060 1.830440 
# 
# From -- ./inp_files/131564.got.cif
#   From: 2010.05.17/outbox.cif.g08.bks.cpg/sg2_66_cif.got.tgz:131564.got - 2010.06.03 11:33:40.
