data_PCOD9046952
_publ_section_title
;
Structure prediction by ZEFSAII (Michael W. Deem and Ramdas Pophale) SiO2 
 PCOD9046952
Probable space group: P -1
;
_chemical_formula_sum "Si O2"
_cell_formula_units_Z 14
_cell_length_a 15.631752
_cell_length_b 4.984538
_cell_length_c 21.828938
_cell_angle_alpha 88.026137
_cell_angle_beta 17.721031
_cell_angle_gamma 83.529009
_cell_volume 499.239422
_symmetry_space_group_name_H-M "P -1"
_symmetry_group_IT_number 2
_symmetry_cell_setting 'triclinic'
loop_
_space_group_symop_operation_xyz
x,y,z
-x,-y,-z
loop_
_atom_site_type_symbol
_atom_site_label
_atom_site_fract_x
_atom_site_fract_y
_atom_site_fract_z
Si Si1 0.229438 0.363434 0.428262
Si Si2 0.648680 0.316031 0.774065
Si Si3 0.609136 0.120822 0.986502
Si Si4 0.134923 0.038428 0.815380
Si Si5 0.714361 0.644072 0.390425
Si Si6 0.142418 0.725077 0.591181
Si Si7 0.292440 0.154131 0.834947
O O1 0.355302 0.538742 0.290615
O O2 0.039134 0.585042 0.604214
O O3 0.481795 0.135715 0.292944
O O4 0.992359 0.226944 0.559216
O O5 0.499538 0.063763 0.885600
O O6 0.490816 0.562963 0.926392
O O7 0.954002 0.029243 0.735899
O O8 0.500000 0.000000 0.000000
O O9 0.075252 0.237429 0.796894
O O10 0.479595 0.901487 0.579031
O O11 0.099269 0.185872 0.904132
O O12 0.949063 0.813205 0.947543
O O13 0.500000 0.500000 0.500000
O O14 0.867264 0.441160 0.339523
O O15 0.475104 0.684758 0.344104
#
# Coordination Sequence:
#
# PCOD9046952 Si02
#       7
#     2   2   2   2   2   2   2
#     4  11  26  46  71 104 146 188 246 296 367 442
#     4  11  28  48  74 108 150 196 241 305 372 437
#     4  12  26  48  76 109 147 193 247 306 368 436
#     4  10  24  43  69  97 144 180 238 296 370 427
#     4  11  23  44  65 102 136 182 232 303 356 438
#     4  12  26  42  75 102 144 189 251 296 370 429
#     4  11  24  44  68 102 137 192 234 302 358 446
#
# _framework density 28.042660000000001
#
# number of rings (size 3 to 8) (size 9 to 14) (size 15 to 20)
#    0.000    0.857    4.286    1.286    6.000    4.000 
#    0.000    0.000    0.000    0.000    0.000    0.000 
#    0.000    0.000    0.000    0.000    0.000    0.000 
#
# Total GULP energy -78403.403874 kJ/mol
# GULP energy per Si atom -5600.243134 kJ/mol
# Density = 2.797883 g / cm^3
# Si number density = 28.042660 Si / 1000 Ang^3
#
#
#
# Elastic Constant Matrix: (Units=GPa)
#
#
# Indices 1 2 3 4 5 6 
#
# 1 95.6366 9.4251 27.7142 -4.5000 19.9402 -17.3353
# 2 9.4251 85.6134 23.6623 -8.0283 11.1968 -7.5405
# 3 27.7142 23.6623 152.5948 -21.4465 7.2067 -12.1353
# 4 -4.5000 -8.0283 -21.4465 59.3894 -4.7044 10.5711
# 5 19.9402 11.1968 7.2067 -4.7044 41.1185 -8.9742
# 6 -17.3353 -7.5405 -12.1353 10.5711 -8.9742 38.4600
#
#
#
# Elastic Compliance Matrix: (Units=1/GPa)
#
#
# Indices 1 2 3 4 5 6 
#
# 1 0.012775 0.000066 -0.001875 -0.000854 -0.005058 0.004234
# 2 0.000066 0.012670 -0.001654 0.000692 -0.002866 0.001133
# 3 -0.001875 -0.001654 0.007500 0.002257 0.000452 0.000682
# 4 -0.000854 0.000692 0.002257 0.018544 0.000991 -0.004403
# 5 -0.005058 -0.002866 0.000452 0.000991 0.028384 0.003652
# 6 0.004234 0.001133 0.000682 -0.004403 0.003652 0.030409
#
#
# Mechanical properties :
#
#
# Convention : Reuss Voigt Hill
#
# Bulk Modulus (GPa) = 38.43251 50.60533 44.51892
# Shear Modulus (GPa) = 39.71984 45.99647 42.85816
#
# Velocity S-wave (km/s) = 3.76760 4.05437 3.91361
# Velocity P-wave (km/s) = 5.71500 6.32473 6.02758
#
# Compressibility (1/GPa) = 0.02601964
#
# Stress axis : x y z
#
# Youngs Moduli (GPa) = 78.27804 78.92823 133.32525
#
# Poissons Ratio (x) = -0.00522 0.24997
# Poissons Ratio (y) = -0.00518 0.22052
# Poissons Ratio (z) = 0.14677 0.13055
#
# Static dielectric constant tensor:
#      x y z
#    x 2.267770 0.094240 -0.030660 
#    y 0.094240 2.235080 -0.009170 
#    z -0.030660 -0.009170 2.197360 
# 
# From -- ./inp_files/43296.got.cif
#   From: 2010.05.17/outbox.cif.g08.bks.cpg/sg2_22_cif.got.tgz:43296.got - 2010.06.03 11:33:40.
