data_PCOD9046409
_publ_section_title
;
Structure prediction by ZEFSAII (Michael W. Deem and Ramdas Pophale) SiO2 
 PCOD9046409
Probable space group: P -1
;
_chemical_formula_sum "Si O2"
_cell_formula_units_Z 13
_cell_length_a 5.740316
_cell_length_b 12.806996
_cell_length_c 10.290383
_cell_angle_alpha 130.083035
_cell_angle_beta 71.515128
_cell_angle_gamma 86.762419
_cell_volume 512.322099
_symmetry_space_group_name_H-M "P -1"
_symmetry_group_IT_number 2
_symmetry_cell_setting 'triclinic'
loop_
_space_group_symop_operation_xyz
x,y,z
-x,-y,-z
loop_
_atom_site_type_symbol
_atom_site_label
_atom_site_fract_x
_atom_site_fract_y
_atom_site_fract_z
Si Si1 0.120107 0.163148 0.373163
Si Si2 0.742480 0.183577 0.688958
Si Si3 0.500000 0.000000 0.500000
Si Si4 0.355802 0.384214 0.547398
Si Si5 0.996215 0.118325 0.850643
Si Si6 0.681844 0.559000 0.109851
Si Si7 0.093749 0.675943 0.724906
O O1 0.323203 0.229921 0.451764
O O2 0.887141 0.214291 0.562663
O O3 0.059127 0.251262 0.318365
O O4 0.147193 0.999218 0.198300
O O5 0.736175 0.020947 0.565054
O O6 0.433947 0.269404 0.775145
O O7 0.843315 0.218275 0.835343
O O8 0.293238 0.030206 0.683721
O O9 0.392779 0.446321 0.731208
O O10 0.105219 0.515598 0.638010
O O11 0.603603 0.350792 0.383979
O O12 0.992026 0.214421 0.052275
O O13 0.500000 0.500000 0.000000
O O14 0.000000 0.500000 0.000000
#
# Coordination Sequence:
#
# PCOD9046409 Si02
#       7
#     2   2   1   2   2   2   2
#     4  11  23  46  74 105 148 202 251 317 378 463
#     4  11  25  44  73 104 150 188 253 316 387 441
#     4  10  24  42  72 102 144 192 244 318 372 444
#     4  11  26  45  73 102 154 197 253 315 386 453
#     4  11  26  45  75 109 151 195 262 309 391 457
#     4  12  27  46  78 114 152 200 260 318 391 467
#     4  11  25  46  69 107 149 200 251 315 386 462
#
# _framework density 25.374662000000001
#
# number of rings (size 3 to 8) (size 9 to 14) (size 15 to 20)
#    0.000    0.923    1.538    4.615    8.615    1.846 
#    0.000    0.000    0.000    0.000    0.000    0.000 
#    0.000    0.000    0.000    0.000    0.000    0.000 
#
# Total GULP energy -72407.475758 kJ/mol
# GULP energy per Si atom -5569.805828 kJ/mol
# Density = 2.531691 g / cm^3
# Si number density = 25.374662 Si / 1000 Ang^3
#
#
#
# Elastic Constant Matrix: (Units=GPa)
#
#
# Indices 1 2 3 4 5 6 
#
# 1 99.5887 19.3428 44.4035 -15.9238 10.5044 -4.0070
# 2 19.3428 89.9572 38.6423 -7.4026 10.2491 -14.0053
# 3 44.4035 38.6423 165.7112 -20.3838 14.7270 -9.7007
# 4 -15.9238 -7.4026 -20.3838 27.2152 -5.8943 10.3124
# 5 10.5044 10.2491 14.7270 -5.8943 44.1504 -0.7569
# 6 -4.0070 -14.0053 -9.7007 10.3124 -0.7569 60.3669
#
#
#
# Elastic Compliance Matrix: (Units=1/GPa)
#
#
# Indices 1 2 3 4 5 6 
#
# 1 0.012214 -0.001194 -0.002302 0.005114 -0.001191 -0.000725
# 2 -0.001194 0.013012 -0.002439 -0.000385 -0.001930 0.002589
# 3 -0.002302 -0.002439 0.007747 0.003617 -0.000989 -0.000104
# 4 0.005114 -0.000385 0.003617 0.045763 0.003657 -0.006940
# 5 -0.001191 -0.001930 -0.000989 0.003657 0.024182 -0.001007
# 6 -0.000725 0.002589 -0.000104 -0.006940 -0.001007 0.018274
#
#
# Mechanical properties :
#
#
# Convention : Reuss Voigt Hill
#
# Bulk Modulus (GPa) = 47.38440 62.22604 54.80522
# Shear Modulus (GPa) = 35.69009 43.20439 39.44724
#
# Velocity S-wave (km/s) = 3.75444 4.13081 3.94711
# Velocity P-wave (km/s) = 6.12444 6.87950 6.51292
#
# Compressibility (1/GPa) = 0.02110399
#
# Stress axis : x y z
#
# Youngs Moduli (GPa) = 81.87544 76.85228 129.08481
#
# Poissons Ratio (x) = 0.09174 0.29714
# Poissons Ratio (y) = 0.09774 0.31479
# Poissons Ratio (z) = 0.18847 0.18741
#
# Static dielectric constant tensor:
#      x y z
#    x 2.025110 0.011880 0.055870 
#    y 0.011880 1.998050 0.005390 
#    z 0.055870 0.005390 1.925350 
# 
# From -- ./inp_files/131940.got.cif
#   From: 2010.05.17/outbox.cif.g08.bks.cpg/sg2_66_cif.got.tgz:131940.got - 2010.06.03 11:33:40.
