data_PCOD9046011
_publ_section_title
;
Structure prediction by ZEFSAII (Michael W. Deem and Ramdas Pophale) SiO2 
 PCOD9046011
Probable space group: P -1
;
_chemical_formula_sum "Si O2"
_cell_formula_units_Z 16
_cell_length_a 8.645642
_cell_length_b 15.114245
_cell_length_c 15.067076
_cell_angle_alpha 150.100169
_cell_angle_beta 96.589693
_cell_angle_gamma 62.900338
_cell_volume 677.580083
_symmetry_space_group_name_H-M "P -1"
_symmetry_group_IT_number 2
_symmetry_cell_setting 'triclinic'
loop_
_space_group_symop_operation_xyz
x,y,z
-x,-y,-z
loop_
_atom_site_type_symbol
_atom_site_label
_atom_site_fract_x
_atom_site_fract_y
_atom_site_fract_z
Si Si1 0.850484 0.819751 0.024333
Si Si2 0.577867 0.972156 0.728751
Si Si3 0.259967 0.241839 0.627009
Si Si4 0.052784 0.494677 0.397898
Si Si5 0.348601 0.505399 0.929407
Si Si6 0.930464 0.260256 0.720608
Si Si7 0.501257 0.588793 0.849240
Si Si8 0.680993 0.350244 0.463140
O O1 0.647028 0.939414 0.181256
O O2 0.832382 0.047018 0.207144
O O3 0.809136 0.758065 0.872484
O O4 0.066712 0.538843 0.834079
O O5 0.611469 0.974483 0.628393
O O6 0.799960 0.682729 0.510040
O O7 0.597177 0.135373 0.928441
O O8 0.430303 0.242842 0.681371
O O9 0.119493 0.233481 0.674442
O O10 0.167593 0.594333 0.481128
O O11 0.000000 0.500000 0.500000
O O12 0.346544 0.610476 0.927416
O O13 0.500000 0.500000 0.000000
O O14 0.137059 0.645570 0.100873
O O15 0.728885 0.436570 0.788801
O O16 0.000000 0.000000 0.500000
O O17 0.555766 0.457250 0.644130
O O18 0.500000 0.500000 0.500000
#
# Coordination Sequence:
#
# PCOD9046011 Si02
#       8
#     2   2   2   2   2   2   2   2
#     4  11  25  46  73 106 145 190 250 302 369 439
#     4  11  22  45  74  97 145 195 235 306 371 424
#     4  11  23  44  72 108 143 195 246 297 372 443
#     4  11  26  45  70 105 145 189 243 311 369 431
#     4  10  24  42  66 102 144 188 240 296 362 434
#     4  11  23  44  71 106 146 193 245 304 375 437
#     4  11  23  46  70 107 147 190 246 308 368 434
#     4  12  27  46  76 109 147 199 247 301 374 443
#
# _framework density 23.613444999999999
#
# number of rings (size 3 to 8) (size 9 to 14) (size 15 to 20)
#    0.000    1.000    2.500    3.375    5.250    2.500 
#    0.000    5.000    0.000    0.000    0.000    0.000 
#    0.000    0.000    0.000    0.000    0.000    0.000 
#
# Total GULP energy -89346.943403 kJ/mol
# GULP energy per Si atom -5584.183963 kJ/mol
# Density = 2.355970 g / cm^3
# Si number density = 23.613445 Si / 1000 Ang^3
#
#
#
# Elastic Constant Matrix: (Units=GPa)
#
#
# Indices 1 2 3 4 5 6 
#
# 1 119.0041 33.5143 50.8312 -11.0970 4.5046 21.7208
# 2 33.5143 120.1423 47.2724 -32.0472 -18.2362 14.9473
# 3 50.8312 47.2724 144.8102 -26.0881 10.4059 12.1713
# 4 -11.0970 -32.0472 -26.0881 41.1517 0.2515 -5.8173
# 5 4.5046 -18.2362 10.4059 0.2515 45.2914 8.5507
# 6 21.7208 14.9473 12.1713 -5.8173 8.5507 37.9201
#
#
#
# Elastic Compliance Matrix: (Units=1/GPa)
#
#
# Indices 1 2 3 4 5 6 
#
# 1 0.010944 -0.001463 -0.003107 -0.000838 -0.000051 -0.004812
# 2 -0.001463 0.013350 -0.002607 0.007751 0.006820 -0.003936
# 3 -0.003107 -0.002607 0.009601 0.003372 -0.003145 0.000952
# 4 -0.000838 0.007751 0.003372 0.032353 0.002092 0.000834
# 5 -0.000051 0.006820 -0.003145 0.002092 0.026939 -0.007403
# 6 -0.004812 -0.003936 0.000952 0.000834 -0.007403 0.032171
#
#
# Mechanical properties :
#
#
# Convention : Reuss Voigt Hill
#
# Bulk Modulus (GPa) = 51.17566 71.91028 61.54297
# Shear Modulus (GPa) = 34.19378 41.69522 37.94450
#
# Velocity S-wave (km/s) = 3.80947 4.20663 4.01297
# Velocity P-wave (km/s) = 6.40849 7.35619 6.89863
#
# Compressibility (1/GPa) = 0.01954054
#
# Stress axis : x y z
#
# Youngs Moduli (GPa) = 91.37211 74.90747 104.15843
#
# Poissons Ratio (x) = 0.10958 0.32361
# Poissons Ratio (y) = 0.13367 0.27158
# Poissons Ratio (z) = 0.28388 0.19531
#
# Static dielectric constant tensor:
#      x y z
#    x 1.925400 -0.048160 0.051080 
#    y -0.048160 1.888710 -0.089540 
#    z 0.051080 -0.089540 2.121170 
# 
# From -- ./inp_files/505819.got.cif
#   From: 2010.05.17/outbox.cif.g08.bks.cpg/sg2_253_cif.got.tgz:505819.got - 2010.06.03 11:33:40.
