data_PCOD9046845
_publ_section_title
;
Structure prediction by ZEFSAII (Michael W. Deem and Ramdas Pophale) SiO2 
 PCOD9046845
Probable space group: P -1
;
_chemical_formula_sum "Si O2"
_cell_formula_units_Z 16
_cell_length_a 10.932915
_cell_length_b 12.235985
_cell_length_c 11.832142
_cell_angle_alpha 156.284181
_cell_angle_beta 83.987563
_cell_angle_gamma 95.962494
_cell_volume 632.993100
_symmetry_space_group_name_H-M "P -1"
_symmetry_group_IT_number 2
_symmetry_cell_setting 'triclinic'
loop_
_space_group_symop_operation_xyz
x,y,z
-x,-y,-z
loop_
_atom_site_type_symbol
_atom_site_label
_atom_site_fract_x
_atom_site_fract_y
_atom_site_fract_z
Si Si1 0.144058 0.221897 0.180881
Si Si2 0.409630 0.292484 0.241014
Si Si3 0.143620 0.446732 0.934844
Si Si4 0.521596 0.273402 0.687010
Si Si5 0.712482 0.719245 0.444499
Si Si6 0.640487 0.188988 0.037051
Si Si7 0.212867 0.889808 0.509103
Si Si8 0.952461 0.255067 0.405558
O O1 0.274442 0.377800 0.304209
O O2 0.055698 0.425688 0.315866
O O3 0.087748 0.184489 0.276901
O O4 0.134304 0.934694 0.846704
O O5 0.500000 0.500000 0.500000
O O6 0.372420 0.013783 0.047426
O O7 0.494808 0.224782 0.061846
O O8 0.180730 0.354473 0.719737
O O9 0.194817 0.208205 0.785871
O O10 0.202445 0.728788 0.239181
O O11 0.000000 0.500000 0.000000
O O12 0.414173 0.308494 0.640048
O O13 0.655166 0.220813 0.567252
O O14 0.500000 0.000000 0.500000
O O15 0.500000 0.500000 0.000000
O O16 0.710637 0.018984 0.776895
O O17 0.701986 0.484373 0.318000
O O18 0.100764 0.804145 0.521599
#
# Coordination Sequence:
#
# PCOD9046845 Si02
#       8
#     2   2   2   2   2   2   2   2
#     4  10  24  43  68  95 138 170 224 280 332 403
#     4  11  25  45  65 102 138 176 224 281 338 406
#     4  12  27  46  68  96 139 177 229 280 328 408
#     4  12  23  42  68  98 138 169 214 289 332 392
#     4  12  24  44  66 100 131 175 229 269 347 398
#     4  11  26  41  66  98 133 179 218 272 338 403
#     4  12  24  45  69 102 132 177 229 277 343 401
#     4  10  24  44  67 100 127 179 223 277 338 397
#
# _framework density 25.276737000000001
#
# number of rings (size 3 to 8) (size 9 to 14) (size 15 to 20)
#    0.000    0.750    3.750    2.625    7.000    2.000 
#    0.000    0.000    0.000    0.000    0.000    0.000 
#    0.000    0.000    0.000    0.000    0.000    0.000 
#
# Total GULP energy -89389.617022 kJ/mol
# GULP energy per Si atom -5586.851064 kJ/mol
# Density = 2.521921 g / cm^3
# Si number density = 25.276737 Si / 1000 Ang^3
#
#
#
# Elastic Constant Matrix: (Units=GPa)
#
#
# Indices 1 2 3 4 5 6 
#
# 1 124.1206 0.5910 30.1865 -13.8784 -13.5115 20.2399
# 2 0.5910 101.1819 17.7582 1.2633 -16.4948 34.6066
# 3 30.1865 17.7582 142.2954 7.2975 -12.0752 5.2895
# 4 -13.8784 1.2633 7.2975 43.0097 10.0580 -12.3637
# 5 -13.5115 -16.4948 -12.0752 10.0580 37.0790 -7.6880
# 6 20.2399 34.6066 5.2895 -12.3637 -7.6880 34.3005
#
#
#
# Elastic Compliance Matrix: (Units=1/GPa)
#
#
# Indices 1 2 3 4 5 6 
#
# 1 0.010344 0.003785 -0.002119 0.000389 0.002828 -0.008821
# 2 0.003785 0.018803 -0.001413 -0.006965 0.006608 -0.022016
# 3 -0.002119 -0.001413 0.007887 -0.002115 0.001978 0.001141
# 4 0.000389 -0.006965 -0.002115 0.030614 -0.008584 0.016235
# 5 0.002828 0.006608 0.001978 -0.008584 0.033014 -0.004336
# 6 -0.008821 -0.022016 0.001141 0.016235 -0.004336 0.061276
#
#
# Mechanical properties :
#
#
# Convention : Reuss Voigt Hill
#
# Bulk Modulus (GPa) = 26.63790 51.62990 39.13390
# Shear Modulus (GPa) = 28.74462 44.14867 36.44665
#
# Velocity S-wave (km/s) = 3.37589 4.18378 3.80136
# Velocity P-wave (km/s) = 5.07513 6.61883 5.89770
#
# Compressibility (1/GPa) = 0.03754050
#
# Stress axis : x y z
#
# Youngs Moduli (GPa) = 96.67671 53.18189 126.78477
#
# Poissons Ratio (x) = -0.20128 0.26861
# Poissons Ratio (y) = -0.36590 0.17916
# Poissons Ratio (z) = 0.20482 0.07515
#
# Static dielectric constant tensor:
#      x y z
#    x 2.198510 0.004530 -0.101170 
#    y 0.004530 2.039100 -0.057960 
#    z -0.101170 -0.057960 1.985100 
# 
# From -- ./inp_files/522714.got.cif
#   From: 2010.05.17/outbox.cif.g08.bks.cpg/sg2_262_cif.got.tgz:522714.got - 2010.06.03 11:33:40.
