data_PCOD9046310
_publ_section_title
;
Structure prediction by ZEFSAII (Michael W. Deem and Ramdas Pophale) SiO2 
 PCOD9046310
Probable space group: P -1
;
_chemical_formula_sum "Si O2"
_cell_formula_units_Z 13
_cell_length_a 11.932193
_cell_length_b 13.117240
_cell_length_c 13.735652
_cell_angle_alpha 22.186413
_cell_angle_beta 138.155405
_cell_angle_gamma 135.184967
_cell_volume 539.946803
_symmetry_space_group_name_H-M "P -1"
_symmetry_group_IT_number 2
_symmetry_cell_setting 'triclinic'
loop_
_space_group_symop_operation_xyz
x,y,z
-x,-y,-z
loop_
_atom_site_type_symbol
_atom_site_label
_atom_site_fract_x
_atom_site_fract_y
_atom_site_fract_z
Si Si1 0.473869 0.799502 0.250278
Si Si2 0.707470 0.175709 0.192082
Si Si3 0.000000 0.500000 0.000000
Si Si4 0.178118 0.619688 0.466146
Si Si5 0.147910 0.097720 0.296678
Si Si6 0.512798 0.595244 0.812873
Si Si7 0.157755 0.031073 0.924107
O O1 0.500000 0.500000 0.500000
O O2 0.286655 0.842159 0.124633
O O3 0.605249 0.901990 0.329466
O O4 0.500000 0.000000 0.000000
O O5 0.828313 0.289330 0.083272
O O6 0.827544 0.115644 0.413258
O O7 0.570845 0.362289 0.983197
O O8 0.071436 0.341636 0.090574
O O9 0.331551 0.675545 0.590200
O O10 0.153948 0.892787 0.150088
O O11 0.000000 0.500000 0.500000
O O12 0.223330 0.346615 0.679250
O O13 0.332808 0.180255 0.300746
O O14 0.021311 0.001842 0.215127
O O15 0.500000 0.500000 0.000000
#
# Coordination Sequence:
#
# PCOD9046310 Si02
#       7
#     2   2   1   2   2   2   2
#     4  12  27  47  77 110 153 203 253 316 389 455
#     4  11  25  47  73 112 149 202 256 316 383 469
#     4  10  24  42  70 106 150 190 248 310 378 454
#     4  12  27  50  76 106 149 196 255 312 375 446
#     4  11  26  44  74 106 150 193 251 305 383 452
#     4  11  26  48  75 108 150 201 252 315 383 456
#     4  12  27  48  74 110 149 195 252 311 376 455
#
# _framework density 24.076446000000001
#
# number of rings (size 3 to 8) (size 9 to 14) (size 15 to 20)
#    0.000    0.615    1.538    4.615   12.923    0.615 
#    0.000    0.000    0.000    0.000    0.000    0.000 
#    0.000    0.000    0.000    0.000    0.000    0.000 
#
# Total GULP energy -72528.610322 kJ/mol
# GULP energy per Si atom -5579.123871 kJ/mol
# Density = 2.402165 g / cm^3
# Si number density = 24.076446 Si / 1000 Ang^3
#
#
#
# Elastic Constant Matrix: (Units=GPa)
#
#
# Indices 1 2 3 4 5 6 
#
# 1 131.1295 34.1656 30.9792 10.5373 1.4559 26.2102
# 2 34.1656 156.8072 48.8237 33.2502 8.8138 18.7894
# 3 30.9792 48.8237 115.5015 9.0668 -0.3535 -8.1102
# 4 10.5373 33.2502 9.0668 50.1036 -10.8009 1.6420
# 5 1.4559 8.8138 -0.3535 -10.8009 37.0745 -2.7207
# 6 26.2102 18.7894 -8.1102 1.6420 -2.7207 28.2040
#
#
#
# Elastic Compliance Matrix: (Units=1/GPa)
#
#
# Indices 1 2 3 4 5 6 
#
# 1 0.010936 0.000899 -0.003984 -0.002261 -0.002220 -0.011990
# 2 0.000899 0.010668 -0.004861 -0.007248 -0.005422 -0.009441
# 3 -0.003984 -0.004861 0.012374 0.002083 0.002818 0.010650
# 4 -0.002261 -0.007248 0.002083 0.026830 0.010158 0.006947
# 5 -0.002220 -0.005422 0.002818 0.010158 0.031994 0.008980
# 6 -0.011990 -0.009441 0.010650 0.006947 0.008980 0.056412
#
#
# Mechanical properties :
#
#
# Convention : Reuss Voigt Hill
#
# Bulk Modulus (GPa) = 55.29462 70.15279 62.72371
# Shear Modulus (GPa) = 29.21664 42.37442 35.79553
#
# Velocity S-wave (km/s) = 3.48730 4.19978 3.86002
# Velocity P-wave (km/s) = 6.26348 7.26074 6.78047
#
# Compressibility (1/GPa) = 0.01808494
#
# Stress axis : x y z
#
# Youngs Moduli (GPa) = 91.44092 93.73801 80.81300
#
# Poissons Ratio (x) = -0.08423 0.32198
# Poissons Ratio (y) = -0.08217 0.39283
# Poissons Ratio (z) = 0.36432 0.45566
#
# Static dielectric constant tensor:
#      x y z
#    x 1.950330 -0.002720 -0.020980 
#    y -0.002720 1.904970 -0.007640 
#    z -0.020980 -0.007640 1.922160 
# 
# From -- ./inp_files/36375.got.cif
#   From: 2010.05.17/outbox.cif.g08.bks.cpg/sg2_19_cif.got.tgz:36375.got - 2010.06.03 11:33:40.
