data_PCOD9046176
_publ_section_title
;
Structure prediction by ZEFSAII (Michael W. Deem and Ramdas Pophale) SiO2 
 PCOD9046176
Probable space group: P -1
;
_chemical_formula_sum "Si O2"
_cell_formula_units_Z 14
_cell_length_a 13.895709
_cell_length_b 9.166928
_cell_length_c 4.881034
_cell_angle_alpha 65.219896
_cell_angle_beta 70.783345
_cell_angle_gamma 77.247907
_cell_volume 530.557817
_symmetry_space_group_name_H-M "P -1"
_symmetry_group_IT_number 2
_symmetry_cell_setting 'triclinic'
loop_
_space_group_symop_operation_xyz
x,y,z
-x,-y,-z
loop_
_atom_site_type_symbol
_atom_site_label
_atom_site_fract_x
_atom_site_fract_y
_atom_site_fract_z
Si Si1 0.611992 0.088950 0.630659
Si Si2 0.063540 0.146253 0.906181
Si Si3 0.290936 0.174970 0.645539
Si Si4 0.984130 0.342602 0.327279
Si Si5 0.748619 0.321478 0.526461
Si Si6 0.332062 0.373706 0.978635
Si Si7 0.550443 0.271234 0.041656
O O1 0.722853 0.155458 0.534018
O O2 0.561882 0.110918 0.960543
O O3 0.631922 0.938227 0.529274
O O4 0.548477 0.223226 0.395820
O O5 0.038288 0.298727 0.601692
O O6 0.184806 0.098579 0.831555
O O7 0.030206 0.200994 0.196287
O O8 0.000000 0.000000 0.000000
O O9 0.324224 0.234152 0.863834
O O10 0.274409 0.329597 0.341720
O O11 0.864129 0.327783 0.500677
O O12 0.000000 0.500000 0.000000
O O13 0.720394 0.466755 0.231291
O O14 0.658287 0.339627 0.823099
O O15 0.450771 0.377957 0.946613
#
# Coordination Sequence:
#
# PCOD9046176 Si02
#       7
#     2   2   2   2   2   2   2
#     4  10  24  42  68  92 138 172 222 264 330 394
#     4  12  27  46  72  99 138 181 229 275 342 407
#     4  12  26  44  67 101 136 170 221 279 334 386
#     4  12  26  45  72 103 136 177 228 285 340 394
#     4  10  26  43  71  95 137 173 227 266 332 399
#     4  12  26  43  70  98 137 172 219 278 332 392
#     4  10  24  42  70  96 132 176 225 261 334 395
#
# _framework density 26.387322999999999
#
# number of rings (size 3 to 8) (size 9 to 14) (size 15 to 20)
#    0.857    0.000    0.000    6.429    6.000    4.000 
#    0.000    0.000    0.000    0.000    0.000    0.000 
#    0.000    0.000    0.000    0.000    0.000    0.000 
#
# Total GULP energy -78406.896948 kJ/mol
# GULP energy per Si atom -5600.492639 kJ/mol
# Density = 2.632726 g / cm^3
# Si number density = 26.387323 Si / 1000 Ang^3
#
#
#
# Elastic Constant Matrix: (Units=GPa)
#
#
# Indices 1 2 3 4 5 6 
#
# 1 147.1082 11.3283 39.1983 26.3058 -19.7995 -6.5957
# 2 11.3283 67.6028 2.7675 15.9634 -4.8472 9.2617
# 3 39.1983 2.7675 121.7308 26.4051 18.4088 -0.1692
# 4 26.3058 15.9634 26.4051 41.4973 1.1573 0.2038
# 5 -19.7995 -4.8472 18.4088 1.1573 57.5360 3.1595
# 6 -6.5957 9.2617 -0.1692 0.2038 3.1595 39.4365
#
#
#
# Elastic Compliance Matrix: (Units=1/GPa)
#
#
# Indices 1 2 3 4 5 6 
#
# 1 0.008772 -0.000336 -0.002540 -0.003928 0.003813 0.001250
# 2 -0.000336 0.017139 0.001037 -0.007058 0.001366 -0.004150
# 3 -0.002540 0.001037 0.010842 -0.005571 -0.004129 -0.000262
# 4 -0.003928 -0.007058 -0.005571 0.032868 -0.000873 0.000877
# 5 0.003813 0.001366 -0.004129 -0.000873 0.020219 -0.001316
# 6 0.001250 -0.004150 -0.000262 0.000877 -0.001316 0.026641
#
#
# Mechanical properties :
#
#
# Convention : Reuss Voigt Hill
#
# Bulk Modulus (GPa) = 30.23463 49.22557 39.73010
# Shear Modulus (GPa) = 38.11464 46.57049 42.34256
#
# Velocity S-wave (km/s) = 3.80469 4.20561 4.01016
# Velocity P-wave (km/s) = 5.54831 6.50218 6.04409
#
# Compressibility (1/GPa) = 0.03307465
#
# Stress axis : x y z
#
# Youngs Moduli (GPa) = 113.99842 58.34554 92.23682
#
# Poissons Ratio (x) = 0.01962 0.23428
# Poissons Ratio (y) = 0.03834 -0.09567
# Poissons Ratio (z) = 0.28956 -0.06052
#
# Static dielectric constant tensor:
#      x y z
#    x 2.020240 0.031030 -0.035000 
#    y 0.031030 2.151010 -0.096660 
#    z -0.035000 -0.096660 2.023160 
# 
# From -- ./inp_files/86961.got.cif
#   From: 2010.05.17/outbox.cif.g08.bks.cpg/sg2_44_cif.got.tgz:86961.got - 2010.06.03 11:33:40.
