data_PCOD9046994
_publ_section_title
;
Structure prediction by ZEFSAII (Michael W. Deem and Ramdas Pophale) SiO2 
 PCOD9046994
Probable space group: P -1
;
_chemical_formula_sum "Si O2"
_cell_formula_units_Z 14
_cell_length_a 8.984428
_cell_length_b 9.273882
_cell_length_c 19.980785
_cell_angle_alpha 47.899903
_cell_angle_beta 150.441680
_cell_angle_gamma 133.093445
_cell_volume 586.168144
_symmetry_space_group_name_H-M "P -1"
_symmetry_group_IT_number 2
_symmetry_cell_setting 'triclinic'
loop_
_space_group_symop_operation_xyz
x,y,z
-x,-y,-z
loop_
_atom_site_type_symbol
_atom_site_label
_atom_site_fract_x
_atom_site_fract_y
_atom_site_fract_z
Si Si1 0.316882 0.507661 0.034924
Si Si2 0.715192 0.216054 0.948196
Si Si3 0.106007 0.019738 0.687840
Si Si4 0.112266 0.637008 0.565835
Si Si5 0.779238 0.366826 0.185782
Si Si6 0.244904 0.624519 0.371239
Si Si7 0.774752 0.945814 0.722943
O O1 0.502913 0.346735 0.137252
O O2 0.963010 0.389826 0.950424
O O3 0.432999 0.665739 0.090840
O O4 0.335309 0.629595 0.935558
O O5 0.448590 0.092403 0.833434
O O6 0.927516 0.094533 0.108428
O O7 0.050388 0.184044 0.564160
O O8 0.871031 0.985014 0.670369
O O9 0.066705 0.815074 0.695584
O O10 0.000000 0.500000 0.500000
O O11 0.977152 0.497580 0.618837
O O12 0.483669 0.745752 0.677082
O O13 0.030132 0.577291 0.235625
O O14 0.500000 0.500000 0.500000
O O15 0.322358 0.859873 0.346851
#
# Coordination Sequence:
#
# PCOD9046994 Si02
#       7
#     2   2   2   2   2   2   2
#     4  10  24  43  70 102 152 185 239 299 370 428
#     4  11  25  44  77 109 141 194 249 299 360 438
#     4  12  26  44  79 108 148 192 250 300 367 435
#     4  12  29  49  79 107 145 196 252 297 363 443
#     4  11  25  45  68 106 150 188 237 303 372 424
#     4  12  29  48  76 106 151 193 242 307 367 431
#     4  12  26  50  76 108 149 193 248 302 361 442
#
# _framework density 23.883932000000001
#
# number of rings (size 3 to 8) (size 9 to 14) (size 15 to 20)
#    0.000    0.571    2.857    3.429   12.000    4.000 
#    0.000    0.000    0.000    0.000    0.000    0.000 
#    0.000    0.000    0.000    0.000    0.000    0.000 
#
# Total GULP energy -78384.213144 kJ/mol
# GULP energy per Si atom -5598.872367 kJ/mol
# Density = 2.382957 g / cm^3
# Si number density = 23.883932 Si / 1000 Ang^3
#
#
#
# Elastic Constant Matrix: (Units=GPa)
#
#
# Indices 1 2 3 4 5 6 
#
# 1 79.8414 30.0531 20.4398 0.2517 12.8442 -14.4707
# 2 30.0531 119.9913 17.7390 -0.8396 16.8814 -14.8998
# 3 20.4398 17.7390 89.1933 -2.8959 10.4376 -6.8207
# 4 0.2517 -0.8396 -2.8959 49.1217 -3.1901 10.4952
# 5 12.8442 16.8814 10.4376 -3.1901 35.4220 -10.5901
# 6 -14.4707 -14.8998 -6.8207 10.4952 -10.5901 40.8061
#
#
#
# Elastic Compliance Matrix: (Units=1/GPa)
#
#
# Indices 1 2 3 4 5 6 
#
# 1 0.015222 -0.002647 -0.002421 -0.001218 -0.002555 0.003677
# 2 -0.002647 0.009762 -0.000866 -0.000453 -0.002929 0.001838
# 3 -0.002421 -0.000866 0.012228 0.000542 -0.002217 0.000154
# 4 -0.001218 -0.000453 0.000542 0.021695 0.000685 -0.005909
# 5 -0.002555 -0.002929 -0.002217 0.000685 0.033081 0.006063
# 6 0.003677 0.001838 0.000154 -0.005909 0.006063 0.029600
#
#
# Mechanical properties :
#
#
# Convention : Reuss Voigt Hill
#
# Bulk Modulus (GPa) = 39.45936 47.27663 43.36799
# Shear Modulus (GPa) = 35.23482 39.78955 37.51219
#
# Velocity S-wave (km/s) = 3.84507 4.08604 3.96738
# Velocity P-wave (km/s) = 6.02245 6.48832 6.25972
#
# Compressibility (1/GPa) = 0.02534253
#
# Stress axis : x y z
#
# Youngs Moduli (GPa) = 65.69267 102.43745 81.78200
#
# Poissons Ratio (x) = 0.27116 0.19802
# Poissons Ratio (y) = 0.17390 0.07085
# Poissons Ratio (z) = 0.15906 0.08875
#
# Static dielectric constant tensor:
#      x y z
#    x 1.882350 -0.013720 0.021790 
#    y -0.013720 1.877260 -0.022340 
#    z 0.021790 -0.022340 2.033430 
# 
# From -- ./inp_files/224322.got.cif
#   From: 2010.05.17/outbox.cif.g08.bks.cpg/sg2_113_cif.got.tgz:224322.got - 2010.06.03 11:33:40.
