data_PCOD9046567
_publ_section_title
;
Structure prediction by ZEFSAII (Michael W. Deem and Ramdas Pophale) SiO2 
 PCOD9046567
Probable space group: P -1
;
_chemical_formula_sum "Si O2"
_cell_formula_units_Z 16
_cell_length_a 18.102742
_cell_length_b 6.018643
_cell_length_c 9.054318
_cell_angle_alpha 81.766612
_cell_angle_beta 127.716218
_cell_angle_gamma 83.901238
_cell_volume 748.281289
_symmetry_space_group_name_H-M "P -1"
_symmetry_group_IT_number 2
_symmetry_cell_setting 'triclinic'
loop_
_space_group_symop_operation_xyz
x,y,z
-x,-y,-z
loop_
_atom_site_type_symbol
_atom_site_label
_atom_site_fract_x
_atom_site_fract_y
_atom_site_fract_z
Si Si1 0.405055 0.417411 0.354662
Si Si2 0.765661 0.567004 0.445388
Si Si3 0.063089 0.282338 0.512223
Si Si4 0.451548 0.782891 0.919175
Si Si5 0.647513 0.941370 0.485947
Si Si6 0.224620 0.777865 0.255771
Si Si7 0.883804 0.136383 0.176964
Si Si8 0.689981 0.406220 0.070197
O O1 0.500000 0.500000 0.500000
O O2 0.412171 0.171796 0.462888
O O3 0.313950 0.595736 0.303900
O O4 0.377319 0.430941 0.147226
O O5 0.857352 0.654465 0.499534
O O6 0.692778 0.755170 0.435072
O O7 0.798084 0.341076 0.610337
O O8 0.710613 0.520408 0.236577
O O9 0.000000 0.500000 0.500000
O O10 0.986922 0.182457 0.335068
O O11 0.113460 0.105454 0.717519
O O12 0.364769 0.789896 0.929480
O O13 0.411722 0.841520 0.699264
O O14 0.500000 0.500000 0.000000
O O15 0.500000 0.000000 0.000000
O O16 0.734546 0.004673 0.672903
O O17 0.140496 0.845536 0.026948
O O18 0.794411 0.310977 0.132723
#
# Coordination Sequence:
#
# PCOD9046567 Si02
#       8
#     2   2   2   2   2   2   2   2
#     4  10  24  43  66  97 135 177 235 289 343 405
#     4  11  23  42  70  98 133 180 227 279 353 415
#     4  11  23  41  72 100 131 167 228 286 338 428
#     4  12  26  43  69 101 139 185 244 295 346 416
#     4  11  24  44  65  94 139 184 224 285 352 418
#     4  10  24  43  64  96 137 177 220 278 350 419
#     4  10  24  43  66 102 131 171 225 281 354 412
#     4  11  22  44  70  99 135 181 233 285 349 416
#
# _framework density 21.382335000000001
#
# number of rings (size 3 to 8) (size 9 to 14) (size 15 to 20)
#    0.000    1.250    2.500    2.250    5.250    2.000 
#    2.250    1.250    0.000    0.000    0.000    0.000 
#    0.000    0.000    0.000    0.000    0.000    0.000 
#
# Total GULP energy -89398.704833 kJ/mol
# GULP energy per Si atom -5587.419052 kJ/mol
# Density = 2.133367 g / cm^3
# Si number density = 21.382335 Si / 1000 Ang^3
#
#
#
# Elastic Constant Matrix: (Units=GPa)
#
#
# Indices 1 2 3 4 5 6 
#
# 1 106.3451 35.8111 53.7971 -6.2781 -11.3548 38.4220
# 2 35.8111 81.3067 50.5650 -1.0020 -13.3702 18.2801
# 3 53.7971 50.5650 171.9643 -9.4886 -29.0257 15.8649
# 4 -6.2781 -1.0020 -9.4886 33.7796 -0.5496 -4.9953
# 5 -11.3548 -13.3702 -29.0257 -0.5496 34.1839 -2.0590
# 6 38.4220 18.2801 15.8649 -4.9953 -2.0590 47.6744
#
#
#
# Elastic Compliance Matrix: (Units=1/GPa)
#
#
# Indices 1 2 3 4 5 6 
#
# 1 0.015750 -0.002493 -0.003007 0.000452 0.001070 -0.010644
# 2 -0.002493 0.016693 -0.003477 -0.001387 0.002530 -0.003271
# 3 -0.003007 -0.003477 0.008626 0.002039 0.005078 0.001319
# 4 0.000452 -0.001387 0.002039 0.030664 0.002000 0.002788
# 5 0.001070 0.002530 0.005078 0.002000 0.034833 -0.001808
# 6 -0.010644 -0.003271 0.001319 0.002788 -0.001808 0.030583
#
#
# Mechanical properties :
#
#
# Convention : Reuss Voigt Hill
#
# Bulk Modulus (GPa) = 43.25702 71.10693 57.18197
# Shear Modulus (GPa) = 30.71096 37.75709 34.23403
#
# Velocity S-wave (km/s) = 3.79394 4.20671 4.00564
# Velocity P-wave (km/s) = 6.28221 7.54469 6.94221
#
# Compressibility (1/GPa) = 0.02311763
#
# Stress axis : x y z
#
# Youngs Moduli (GPa) = 63.49117 59.90369 115.92834
#
# Poissons Ratio (x) = 0.14932 0.34858
# Poissons Ratio (y) = 0.15826 0.40303
# Poissons Ratio (z) = 0.19091 0.20826
#
# Static dielectric constant tensor:
#      x y z
#    x 1.785600 -0.006840 0.015680 
#    y -0.006840 1.807810 -0.001940 
#    z 0.015680 -0.001940 1.777440 
# 
# From -- ./inp_files/47818.got.cif
#   From: 2010.05.17/outbox.cif.g08.bks.cpg/sg2_24_cif.got.tgz:47818.got - 2010.06.03 11:33:40.
