data_PCOD9046546
_publ_section_title
;
Structure prediction by ZEFSAII (Michael W. Deem and Ramdas Pophale) SiO2 
 PCOD9046546
Probable space group: P -1
;
_chemical_formula_sum "Si O2"
_cell_formula_units_Z 14
_cell_length_a 26.663172
_cell_length_b 7.748651
_cell_length_c 9.741943
_cell_angle_alpha 132.056921
_cell_angle_beta 25.929561
_cell_angle_gamma 134.794754
_cell_volume 620.274837
_symmetry_space_group_name_H-M "P -1"
_symmetry_group_IT_number 2
_symmetry_cell_setting 'triclinic'
loop_
_space_group_symop_operation_xyz
x,y,z
-x,-y,-z
loop_
_atom_site_type_symbol
_atom_site_label
_atom_site_fract_x
_atom_site_fract_y
_atom_site_fract_z
Si Si1 0.886943 0.610566 0.135014
Si Si2 0.595078 0.930852 0.825301
Si Si3 0.394416 0.959462 0.851408
Si Si4 0.124672 0.953036 0.132140
Si Si5 0.269862 0.254514 0.178509
Si Si6 0.852384 0.023709 0.237769
Si Si7 0.457275 0.513825 0.458656
O O1 0.809043 0.620708 0.470195
O O2 0.848005 0.775792 0.201811
O O3 0.873189 0.324904 0.989296
O O4 0.026594 0.763549 0.901697
O O5 0.732069 0.102841 0.601198
O O6 0.614093 0.708759 0.577518
O O7 0.500000 0.000000 0.000000
O O8 0.547725 0.890495 0.075147
O O9 0.370580 0.676301 0.780080
O O10 0.500000 0.000000 0.500000
O O11 0.278328 0.023244 0.123123
O O12 0.221575 0.148469 0.092871
O O13 0.000000 0.000000 0.500000
O O14 0.140930 0.997924 0.954100
O O15 0.412202 0.401446 0.895632
O O16 0.500000 0.500000 0.500000
#
# Coordination Sequence:
#
# PCOD9046546 Si02
#       7
#     2   2   2   2   2   2   2
#     4  11  26  50  75 106 143 194 240 308 365 425
#     4  12  25  43  71 103 141 193 234 294 371 426
#     4  10  24  43  63  98 141 177 236 290 346 432
#     4  12  27  46  74 108 140 191 242 298 369 430
#     4  11  25  46  69 103 143 183 245 294 363 436
#     4  11  26  50  72 107 149 186 249 297 364 437
#     4  11  24  42  70 105 140 187 236 298 359 427
#
# _framework density 22.570640999999998
#
# number of rings (size 3 to 8) (size 9 to 14) (size 15 to 20)
#    0.000    0.857    4.286    1.286    6.000    2.857 
#    2.571    0.000    0.000    0.000    0.000    0.000 
#    0.000    0.000    0.000    0.000    0.000    0.000 
#
# Total GULP energy -78066.592457 kJ/mol
# GULP energy per Si atom -5576.185176 kJ/mol
# Density = 2.251927 g / cm^3
# Si number density = 22.570641 Si / 1000 Ang^3
#
#
#
# Elastic Constant Matrix: (Units=GPa)
#
#
# Indices 1 2 3 4 5 6 
#
# 1 129.1145 9.2120 27.7808 1.1574 12.3145 6.9334
# 2 9.2120 62.0303 32.0383 11.4960 2.1280 2.9208
# 3 27.7808 32.0383 124.6237 5.0460 -3.0752 1.2422
# 4 1.1574 11.4960 5.0460 42.9714 7.5913 -0.5604
# 5 12.3145 2.1280 -3.0752 7.5913 50.6094 -2.5557
# 6 6.9334 2.9208 1.2422 -0.5604 -2.5557 27.9416
#
#
#
# Elastic Compliance Matrix: (Units=1/GPa)
#
#
# Indices 1 2 3 4 5 6 
#
# 1 0.008507 -0.000174 -0.001905 0.000428 -0.002354 -0.002215
# 2 -0.000174 0.019590 -0.004803 -0.004613 -0.000479 -0.001927
# 3 -0.001905 -0.004803 0.009710 -0.000024 0.001292 0.000661
# 4 0.000428 -0.004613 -0.000024 0.025150 -0.003656 0.000547
# 5 -0.002354 -0.000479 0.001292 -0.003656 0.021102 0.002434
# 6 -0.002215 -0.001927 0.000661 0.000547 0.002434 0.036744
#
#
# Mechanical properties :
#
#
# Convention : Reuss Voigt Hill
#
# Bulk Modulus (GPa) = 41.59261 50.42563 46.00912
# Shear Modulus (GPa) = 35.06778 40.75364 37.91071
#
# Velocity S-wave (km/s) = 3.94596 4.25385 4.10280
# Velocity P-wave (km/s) = 6.26327 6.82032 6.54772
#
# Compressibility (1/GPa) = 0.02404273
#
# Stress axis : x y z
#
# Youngs Moduli (GPa) = 117.55001 51.04681 102.98742
#
# Poissons Ratio (x) = 0.00887 0.19620
# Poissons Ratio (y) = 0.02042 0.49468
# Poissons Ratio (z) = 0.22394 0.24519
#
# Static dielectric constant tensor:
#      x y z
#    x 1.787260 -0.114490 0.028130 
#    y -0.114490 2.183760 0.055170 
#    z 0.028130 0.055170 1.901090 
# 
# From -- ./inp_files/328085.got.cif
#   From: 2010.05.17/outbox.cif.g08.bks.cpg/sg2_165_cif.got.tgz:328085.got - 2010.06.03 11:33:40.
