data_PCOD9046319
_publ_section_title
;
Structure prediction by ZEFSAII (Michael W. Deem and Ramdas Pophale) SiO2 
 PCOD9046319
Probable space group: P -1
;
_chemical_formula_sum "Si O2"
_cell_formula_units_Z 16
_cell_length_a 13.276487
_cell_length_b 13.252425
_cell_length_c 11.819652
_cell_angle_alpha 115.025291
_cell_angle_beta 95.002513
_cell_angle_gamma 32.394794
_cell_volume 839.023793
_symmetry_space_group_name_H-M "P -1"
_symmetry_group_IT_number 2
_symmetry_cell_setting 'triclinic'
loop_
_space_group_symop_operation_xyz
x,y,z
-x,-y,-z
loop_
_atom_site_type_symbol
_atom_site_label
_atom_site_fract_x
_atom_site_fract_y
_atom_site_fract_z
Si Si1 0.239616 0.811547 0.894435
Si Si2 0.565995 0.259117 0.899186
Si Si3 0.680156 0.260545 0.677625
Si Si4 0.038311 0.787767 0.341145
Si Si5 0.903562 0.552052 0.134246
Si Si6 0.474371 0.946437 0.151396
Si Si7 0.232650 0.374021 0.204086
Si Si8 0.024844 0.758809 0.071047
O O1 0.424204 0.539139 0.745612
O O2 0.359555 0.751650 0.984979
O O3 0.161439 0.974003 0.867867
O O4 0.000000 0.000000 0.000000
O O5 0.670097 0.218084 0.781744
O O6 0.640486 0.057216 0.828399
O O7 0.291592 0.531001 0.983781
O O8 0.816604 0.243138 0.680156
O O9 0.816252 0.043390 0.507168
O O10 0.182047 0.552078 0.308643
O O11 0.984797 0.785335 0.213360
O O12 0.639093 0.808168 0.207073
O O13 0.001376 0.536382 0.229714
O O14 0.992021 0.338397 0.047980
O O15 0.000000 0.500000 0.000000
O O16 0.346340 0.185039 0.219895
O O17 0.614981 0.780493 0.969775
#
# Coordination Sequence:
#
# PCOD9046319 Si02
#       8
#     2   2   2   2   2   2   2   2
#     4  12  22  34  63  88 109 152 205 242 284 335
#     4  11  20  41  59  87 120 149 197 251 288 339
#     4  11  24  39  59  84 123 163 193 237 291 357
#     4  11  22  40  58  85 126 162 185 235 310 343
#     4   9  16  29  52  86 108 136 185 240 286 323
#     4   9  18  30  60  85 109 143 194 238 289 333
#     4  10  17  34  55  88 115 145 188 246 285 342
#     4  11  20  36  62  89 115 149 195 246 295 341
#
# _framework density 19.069782
#
# number of rings (size 3 to 8) (size 9 to 14) (size 15 to 20)
#    0.000    1.500    6.250    1.875    0.000    2.500 
#    0.000    0.625    0.000    3.000    0.000    0.000 
#    0.000    0.000    0.000    0.000    0.000    0.000 
#
# Total GULP energy -89201.145022 kJ/mol
# GULP energy per Si atom -5575.071564 kJ/mol
# Density = 1.902638 g / cm^3
# Si number density = 19.069782 Si / 1000 Ang^3
#
#
#
# Elastic Constant Matrix: (Units=GPa)
#
#
# Indices 1 2 3 4 5 6 
#
# 1 74.8062 23.8745 27.9986 15.7530 14.0572 18.0004
# 2 23.8745 84.6741 32.0742 20.5186 2.6659 35.9601
# 3 27.9986 32.0742 70.7128 19.0953 -0.3726 14.7043
# 4 15.7530 20.5186 19.0953 19.7735 -0.6295 11.0844
# 5 14.0572 2.6659 -0.3726 -0.6295 15.2283 8.0406
# 6 18.0004 35.9601 14.7043 11.0844 8.0406 36.4959
#
#
#
# Elastic Compliance Matrix: (Units=1/GPa)
#
#
# Indices 1 2 3 4 5 6 
#
# 1 0.022094 -0.000666 -0.005183 -0.012798 -0.021141 0.000392
# 2 -0.000666 0.024290 -0.003973 -0.008960 0.006876 -0.020798
# 3 -0.005183 -0.003973 0.021266 -0.012414 0.005210 0.000525
# 4 -0.012798 -0.008960 -0.012414 0.089630 0.023223 -0.012196
# 5 -0.021141 0.006876 0.005210 0.023223 0.099551 -0.027433
# 6 0.000392 -0.020798 0.000525 -0.012196 -0.027433 0.057236
#
#
# Mechanical properties :
#
#
# Convention : Reuss Voigt Hill
#
# Bulk Modulus (GPa) = 20.83051 44.23197 32.53124
# Shear Modulus (GPa) = 14.29738 24.04927 19.17332
#
# Velocity S-wave (km/s) = 2.74111 3.55508 3.17429
# Velocity P-wave (km/s) = 4.57878 6.33219 5.52548
#
# Compressibility (1/GPa) = 0.04800652
#
# Stress axis : x y z
#
# Youngs Moduli (GPa) = 45.26183 41.16874 47.02234
#
# Poissons Ratio (x) = 0.02741 0.24371
# Poissons Ratio (y) = 0.03013 0.18684
# Poissons Ratio (z) = 0.23459 0.16358
#
# Static dielectric constant tensor:
#      x y z
#    x 1.720310 0.003140 0.004690 
#    y 0.003140 1.699610 0.031690 
#    z 0.004690 0.031690 1.661810 
# 
# From -- ./inp_files/453990.got.cif
#   From: 2010.05.17/outbox.cif.g08.bks.cpg/sg2_227_cif.got.tgz:453990.got - 2010.06.03 11:33:40.
