data_PCOD9046184
_publ_section_title
;
Structure prediction by ZEFSAII (Michael W. Deem and Ramdas Pophale) SiO2 
 PCOD9046184
Probable space group: P -1
;
_chemical_formula_sum "Si O2"
_cell_formula_units_Z 12
_cell_length_a 9.365669
_cell_length_b 9.248251
_cell_length_c 13.910497
_cell_angle_alpha 62.419347
_cell_angle_beta 73.488205
_cell_angle_gamma 29.729609
_cell_volume 510.217080
_symmetry_space_group_name_H-M "P -1"
_symmetry_group_IT_number 2
_symmetry_cell_setting 'triclinic'
loop_
_space_group_symop_operation_xyz
x,y,z
-x,-y,-z
loop_
_atom_site_type_symbol
_atom_site_label
_atom_site_fract_x
_atom_site_fract_y
_atom_site_fract_z
Si Si1 0.330316 0.185284 0.073572
Si Si2 0.432135 0.411031 0.108526
Si Si3 0.730216 0.075351 0.718042
Si Si4 0.874937 0.357168 0.407973
Si Si5 0.531631 0.789351 0.518594
Si Si6 0.934914 0.181946 0.763443
O O1 0.388893 0.293780 0.087657
O O2 0.389587 0.974068 0.194507
O O3 0.000000 0.500000 0.000000
O O4 0.500000 0.000000 0.000000
O O5 0.162132 0.703518 0.142584
O O6 0.500000 0.500000 0.000000
O O7 0.715715 0.114577 0.214624
O O8 0.436980 0.444246 0.615822
O O9 0.874166 0.058461 0.773434
O O10 0.976736 0.782587 0.683779
O O11 0.706403 0.638022 0.428912
O O12 0.197170 0.027315 0.501434
O O13 0.743613 0.482570 0.640699
O O14 0.500000 0.000000 0.500000
#
# Coordination Sequence:
#
# PCOD9046184 Si02
#       6
#     2   2   2   2   2   2
#     4  12  25  44  70  97 135 175 227 283 340 406
#     4  12  26  45  72 101 138 176 229 281 349 410
#     4  11  24  43  69 100 137 180 232 277 344 404
#     4  10  24  42  68  95 139 180 232 272 335 401
#     4  11  25  42  67 100 144 181 231 278 339 404
#     4  12  26  44  71 102 140 180 227 284 343 401
#
# _framework density 23.519400000000001
#
# number of rings (size 3 to 8) (size 9 to 14) (size 15 to 20)
#    0.000    0.667    0.000    7.000    7.000    4.000 
#    0.000    0.000    0.000    0.000    0.000    0.000 
#    0.000    0.000    0.000    0.000    0.000    0.000 
#
# Total GULP energy -66952.292829 kJ/mol
# GULP energy per Si atom -5579.357736 kJ/mol
# Density = 2.346587 g / cm^3
# Si number density = 23.519400 Si / 1000 Ang^3
#
#
#
# Elastic Constant Matrix: (Units=GPa)
#
#
# Indices 1 2 3 4 5 6 
#
# 1 158.4744 44.8417 49.8005 -7.0248 13.0407 34.0339
# 2 44.8417 190.3835 36.9970 22.8924 5.9954 5.5179
# 3 49.8005 36.9970 85.9197 5.9822 0.3958 16.4077
# 4 -7.0248 22.8924 5.9822 57.3918 -6.7426 25.3923
# 5 13.0407 5.9954 0.3958 -6.7426 36.4571 -10.8686
# 6 34.0339 5.5179 16.4077 25.3923 -10.8686 58.3481
#
#
#
# Elastic Compliance Matrix: (Units=1/GPa)
#
#
# Indices 1 2 3 4 5 6 
#
# 1 0.010524 -0.001966 -0.004068 0.005518 -0.004792 -0.008103
# 2 -0.001966 0.006476 -0.001895 -0.003848 -0.000249 0.002695
# 3 -0.004068 -0.001895 0.015081 -0.000653 0.001126 -0.001195
# 4 0.005518 -0.003848 -0.000653 0.025832 -0.000746 -0.014052
# 5 -0.004792 -0.000249 0.001126 -0.000746 0.031634 0.008719
# 6 -0.008103 0.002695 -0.001195 -0.014052 0.008719 0.029685
#
#
# Mechanical properties :
#
#
# Convention : Reuss Voigt Hill
#
# Bulk Modulus (GPa) = 61.63890 77.56177 69.60033
# Shear Modulus (GPa) = 35.58776 50.64864 43.11820
#
# Velocity S-wave (km/s) = 3.89411 4.64560 4.28635
# Velocity P-wave (km/s) = 6.81787 7.86288 7.35895
#
# Compressibility (1/GPa) = 0.01622352
#
# Stress axis : x y z
#
# Youngs Moduli (GPa) = 95.02153 154.40953 66.30832
#
# Poissons Ratio (x) = 0.30357 0.26975
# Poissons Ratio (y) = 0.18681 0.12564
# Poissons Ratio (z) = 0.38656 0.29257
#
# Static dielectric constant tensor:
#      x y z
#    x 1.863850 -0.027560 0.005380 
#    y -0.027560 1.851990 -0.029740 
#    z 0.005380 -0.029740 1.991710 
# 
# From -- ./inp_files/494475.got.cif
#   From: 2010.05.17/outbox.cif.g08.bks.cpg/sg2_248_cif.got.tgz:494475.got - 2010.06.03 11:33:40.
