data_PCOD9046724
_publ_section_title
;
Structure prediction by ZEFSAII (Michael W. Deem and Ramdas Pophale) SiO2 
 PCOD9046724
Probable space group: P -1
;
_chemical_formula_sum "Si O2"
_cell_formula_units_Z 16
_cell_length_a 15.778774
_cell_length_b 15.850999
_cell_length_c 9.642227
_cell_angle_alpha 140.145032
_cell_angle_beta 35.052572
_cell_angle_gamma 141.562341
_cell_volume 805.225884
_symmetry_space_group_name_H-M "P -1"
_symmetry_group_IT_number 2
_symmetry_cell_setting 'triclinic'
loop_
_space_group_symop_operation_xyz
x,y,z
-x,-y,-z
loop_
_atom_site_type_symbol
_atom_site_label
_atom_site_fract_x
_atom_site_fract_y
_atom_site_fract_z
Si Si1 0.962827 0.348015 0.001930
Si Si2 0.535548 0.386430 0.903039
Si Si3 0.215412 0.680335 0.051523
Si Si4 0.878466 0.859413 0.570169
Si Si5 0.806553 0.859775 0.987000
Si Si6 0.109516 0.837672 0.608178
Si Si7 0.138307 0.645744 0.561750
Si Si8 0.487042 0.356417 0.257826
O O1 0.801870 0.313969 0.083413
O O2 0.056755 0.265264 0.695852
O O3 0.924191 0.301669 0.153098
O O4 0.074474 0.520545 0.074404
O O5 0.707411 0.383364 0.639592
O O6 0.500000 0.500000 0.000000
O O7 0.383578 0.235855 0.884920
O O8 0.527963 0.402831 0.100539
O O9 0.170875 0.800902 0.336023
O O10 0.380610 0.687897 0.903670
O O11 0.870555 0.899257 0.792602
O O12 0.690988 0.777748 0.667617
O O13 0.000000 0.000000 0.500000
O O14 0.912794 0.775832 0.793929
O O15 0.836974 0.996020 0.215121
O O16 0.176901 0.764630 0.541258
O O17 0.000000 0.500000 0.500000
O O18 0.500000 0.500000 0.500000
#
# Coordination Sequence:
#
# PCOD9046724 Si02
#       8
#     2   2   2   2   2   2   2   2
#     4  11  23  38  66  93 130 164 217 265 328 381
#     4  11  25  41  63  97 131 167 219 268 325 382
#     4  11  22  41  65  95 124 173 212 272 321 385
#     4  11  23  44  65  96 133 173 213 264 334 387
#     4  10  24  43  67  92 129 178 212 269 325 391
#     4  11  21  43  65  89 129 169 219 257 326 385
#     4  12  23  39  63  96 127 165 216 266 315 381
#     4  11  23  43  67  96 130 168 218 271 322 383
#
# _framework density 19.870201000000002
#
# number of rings (size 3 to 8) (size 9 to 14) (size 15 to 20)
#    0.000    1.000    5.000    1.500    1.750    0.500 
#    6.750    0.625    0.000    0.000    0.000    0.000 
#    0.000    0.000    0.000    0.000    0.000    0.000 
#
# Total GULP energy -89325.683294 kJ/mol
# GULP energy per Si atom -5582.855206 kJ/mol
# Density = 1.982498 g / cm^3
# Si number density = 19.870201 Si / 1000 Ang^3
#
#
#
# Elastic Constant Matrix: (Units=GPa)
#
#
# Indices 1 2 3 4 5 6 
#
# 1 129.6502 20.7168 37.6578 -3.9171 -11.7969 22.3739
# 2 20.7168 54.4330 27.6851 0.7531 3.9102 10.3299
# 3 37.6578 27.6851 101.7475 14.3088 -0.8103 23.5293
# 4 -3.9171 0.7531 14.3088 24.4322 1.2236 0.5945
# 5 -11.7969 3.9102 -0.8103 1.2236 45.4868 -3.3746
# 6 22.3739 10.3299 23.5293 0.5945 -3.3746 28.0449
#
#
#
# Elastic Compliance Matrix: (Units=1/GPa)
#
#
# Indices 1 2 3 4 5 6 
#
# 1 0.009853 -0.001773 -0.002429 0.003067 0.002214 -0.004969
# 2 -0.001773 0.022354 -0.005080 0.002211 -0.002749 -0.002934
# 3 -0.002429 -0.005080 0.015465 -0.009053 -0.000343 -0.009015
# 4 0.003067 0.002211 -0.009053 0.046604 -0.000566 0.003278
# 5 0.002214 -0.002749 -0.000343 -0.000566 0.022975 0.002311
# 6 -0.004969 -0.002934 -0.009015 0.003278 0.002311 0.048474
#
#
# Mechanical properties :
#
#
# Convention : Reuss Voigt Hill
#
# Bulk Modulus (GPa) = 34.35646 50.88335 42.61991
# Shear Modulus (GPa) = 25.77417 32.91084 29.34251
#
# Velocity S-wave (km/s) = 3.60547 4.07417 3.84697
# Velocity P-wave (km/s) = 5.88732 6.91341 6.42090
#
# Compressibility (1/GPa) = 0.02910661
#
# Stress axis : x y z
#
# Youngs Moduli (GPa) = 101.48725 44.73521 64.66301
#
# Poissons Ratio (x) = 0.07933 0.15707
# Poissons Ratio (y) = 0.17996 0.32851
# Poissons Ratio (z) = 0.24652 0.22727
#
# Static dielectric constant tensor:
#      x y z
#    x 1.748960 -0.016190 0.055120 
#    y -0.016190 1.695740 -0.047640 
#    z 0.055120 -0.047640 1.876840 
# 
# From -- ./inp_files/279383.got.cif
#   From: 2010.05.17/outbox.cif.g08.bks.cpg/sg2_140_cif.got.tgz:279383.got - 2010.06.03 11:33:40.
