data_PCOD9046015
_publ_section_title
;
Structure prediction by ZEFSAII (Michael W. Deem and Ramdas Pophale) SiO2 
 PCOD9046015
Probable space group: P -1
;
_chemical_formula_sum "Si O2"
_cell_formula_units_Z 16
_cell_length_a 11.340302
_cell_length_b 8.902363
_cell_length_c 8.812682
_cell_angle_alpha 82.170175
_cell_angle_beta 126.144927
_cell_angle_gamma 101.414025
_cell_volume 704.025347
_symmetry_space_group_name_H-M "P -1"
_symmetry_group_IT_number 2
_symmetry_cell_setting 'triclinic'
loop_
_space_group_symop_operation_xyz
x,y,z
-x,-y,-z
loop_
_atom_site_type_symbol
_atom_site_label
_atom_site_fract_x
_atom_site_fract_y
_atom_site_fract_z
Si Si1 0.516382 0.672459 0.425007
Si Si2 0.878019 0.477666 0.540758
Si Si3 0.265199 0.863538 0.205677
Si Si4 0.249807 0.815300 0.644130
Si Si5 0.599742 0.615835 0.171866
Si Si6 0.570159 0.899239 0.942222
Si Si7 0.067066 0.725621 0.822695
Si Si8 0.806191 0.914555 0.619363
O O1 0.500000 0.500000 0.500000
O O2 0.394643 0.773017 0.375765
O O3 0.502099 0.658081 0.233504
O O4 0.675696 0.772178 0.562779
O O5 0.830054 0.296747 0.529721
O O6 0.736638 0.549368 0.362062
O O7 0.000000 0.500000 0.500000
O O8 0.958437 0.567388 0.730716
O O9 0.338372 0.987170 0.119701
O O10 0.197937 0.968488 0.261426
O O11 0.151441 0.742365 0.042853
O O12 0.422889 0.807550 0.768134
O O13 0.180764 0.759665 0.762347
O O14 0.228322 0.988037 0.567132
O O15 0.500000 0.500000 0.000000
O O16 0.653701 0.771485 0.099213
O O17 0.500000 0.000000 0.000000
O O18 0.959719 0.854163 0.722973
#
# Coordination Sequence:
#
# PCOD9046015 Si02
#       8
#     2   2   2   2   2   2   2   2
#     4  12  28  47  70 103 143 186 233 291 356 415
#     4  10  24  42  66 103 141 179 224 287 352 405
#     4  12  27  45  72 104 145 183 237 286 355 414
#     4  11  22  43  74 101 142 183 235 291 348 412
#     4  12  24  42  74 102 133 175 239 288 340 408
#     4  12  22  42  73 107 132 179 238 299 337 404
#     4  11  24  47  70 103 143 186 235 285 349 426
#     4  12  26  45  71 104 143 189 233 286 355 417
#
# _framework density 22.726452999999999
#
# number of rings (size 3 to 8) (size 9 to 14) (size 15 to 20)
#    0.000    0.500    6.250    1.125    5.250    2.000 
#    0.000    3.750    0.000    0.000    0.000    0.000 
#    0.000    0.000    0.000    0.000    0.000    0.000 
#
# Total GULP energy -89510.861275 kJ/mol
# GULP energy per Si atom -5594.428830 kJ/mol
# Density = 2.267473 g / cm^3
# Si number density = 22.726453 Si / 1000 Ang^3
#
#
#
# Elastic Constant Matrix: (Units=GPa)
#
#
# Indices 1 2 3 4 5 6 
#
# 1 46.5994 18.8533 16.1497 16.4735 -1.9710 -8.7347
# 2 18.8533 129.9618 33.1781 7.9812 -4.1118 14.2784
# 3 16.1497 33.1781 70.4710 28.0216 2.4288 9.1794
# 4 16.4735 7.9812 28.0216 58.4577 -5.6757 -4.0791
# 5 -1.9710 -4.1118 2.4288 -5.6757 36.7244 4.4186
# 6 -8.7347 14.2784 9.1794 -4.0791 4.4186 34.3303
#
#
#
# Elastic Compliance Matrix: (Units=1/GPa)
#
#
# Indices 1 2 3 4 5 6 
#
# 1 0.027719 -0.003769 -0.003804 -0.004888 -0.000536 0.009126
# 2 -0.003769 0.009617 -0.003786 0.001462 0.001833 -0.004008
# 3 -0.003804 -0.003786 0.021430 -0.009364 -0.002785 -0.005877
# 4 -0.004888 0.001462 -0.009364 0.023344 0.003775 0.002940
# 5 -0.000536 0.001833 -0.002785 0.003775 0.028581 -0.003384
# 6 0.009126 -0.004008 -0.005877 0.002940 -0.003384 0.035474
#
#
# Mechanical properties :
#
#
# Convention : Reuss Voigt Hill
#
# Bulk Modulus (GPa) = 27.74267 42.59937 35.17102
# Shear Modulus (GPa) = 27.63972 37.82588 32.73280
#
# Velocity S-wave (km/s) = 3.49118 4.08413 3.79924
# Velocity P-wave (km/s) = 5.33712 6.40510 5.89534
#
# Compressibility (1/GPa) = 0.03604556
#
# Stress axis : x y z
#
# Youngs Moduli (GPa) = 36.07655 103.98735 46.66460
#
# Poissons Ratio (x) = 0.39196 0.17752
# Poissons Ratio (y) = 0.13598 0.17669
# Poissons Ratio (z) = 0.13724 0.39373
#
# Static dielectric constant tensor:
#      x y z
#    x 1.837180 -0.018540 0.008330 
#    y -0.018540 1.905220 0.026110 
#    z 0.008330 0.026110 1.887370 
# 
# From -- ./inp_files/186820.got.cif
#   From: 2010.05.17/outbox.cif.g08.bks.cpg/sg2_94_cif.got.tgz:186820.got - 2010.06.03 11:33:40.
