data_PCOD9046628
_publ_section_title
;
Structure prediction by ZEFSAII (Michael W. Deem and Ramdas Pophale) SiO2 
 PCOD9046628
Probable space group: P -1
;
_chemical_formula_sum "Si O2"
_cell_formula_units_Z 16
_cell_length_a 6.730464
_cell_length_b 8.889499
_cell_length_c 20.386522
_cell_angle_alpha 55.422384
_cell_angle_beta 45.139742
_cell_angle_gamma 54.336090
_cell_volume 676.078133
_symmetry_space_group_name_H-M "P -1"
_symmetry_group_IT_number 2
_symmetry_cell_setting 'triclinic'
loop_
_space_group_symop_operation_xyz
x,y,z
-x,-y,-z
loop_
_atom_site_type_symbol
_atom_site_label
_atom_site_fract_x
_atom_site_fract_y
_atom_site_fract_z
Si Si1 0.786922 0.577097 0.896767
Si Si2 0.846973 0.775069 0.033167
Si Si3 0.316723 0.051573 0.597185
Si Si4 0.388916 0.641491 0.738448
Si Si5 0.349078 0.617672 0.146576
Si Si6 0.216238 0.615266 0.396017
Si Si7 0.329073 0.232504 0.682885
Si Si8 0.677014 0.030770 0.136517
O O1 0.689061 0.436495 0.905519
O O2 0.548894 0.786609 0.892695
O O3 0.921020 0.440363 0.961555
O O4 0.086215 0.610762 0.794541
O O5 0.551076 0.757021 0.073324
O O6 0.754603 0.859797 0.106957
O O7 0.029127 0.910225 0.930086
O O8 0.388259 0.184211 0.604389
O O9 0.985996 0.168383 0.624425
O O10 0.500000 0.000000 0.500000
O O11 0.360354 0.855408 0.673761
O O12 0.469742 0.578708 0.809582
O O13 0.642994 0.492082 0.675563
O O14 0.021391 0.691932 0.236505
O O15 0.487908 0.625152 0.375000
O O16 0.000000 0.500000 0.500000
O O17 0.433100 0.046643 0.753171
#
# Coordination Sequence:
#
# PCOD9046628 Si02
#       8
#     2   2   2   2   2   2   2   2
#     4  11  22  42  67  98 137 183 227 272 334 405
#     4  10  24  43  66 103 142 178 225 282 331 392
#     4  12  27  46  70 102 131 176 234 286 342 410
#     4  11  23  43  68  98 134 179 224 280 342 399
#     4  11  22  42  69  99 138 180 227 275 333 407
#     4  12  25  48  69  97 138 173 223 290 347 404
#     4  12  25  45  72  99 136 186 226 277 350 406
#     4  11  23  45  69 100 140 182 226 278 336 402
#
# _framework density 23.665904000000001
#
# number of rings (size 3 to 8) (size 9 to 14) (size 15 to 20)
#    0.000    0.750    5.000    2.625    1.750    2.000 
#    2.250    0.000    0.000    0.000    0.000    0.000 
#    0.000    0.000    0.000    0.000    0.000    0.000 
#
# Total GULP energy -89458.256592 kJ/mol
# GULP energy per Si atom -5591.141037 kJ/mol
# Density = 2.361204 g / cm^3
# Si number density = 23.665904 Si / 1000 Ang^3
#
#
#
# Elastic Constant Matrix: (Units=GPa)
#
#
# Indices 1 2 3 4 5 6 
#
# 1 140.0325 43.4456 49.9983 -4.9215 -18.3054 0.7147
# 2 43.4456 108.0976 15.5699 5.9046 -5.6077 -23.5353
# 3 49.9983 15.5699 84.6209 -7.0319 -8.6755 1.1856
# 4 -4.9215 5.9046 -7.0319 37.0121 2.9774 -2.3566
# 5 -18.3054 -5.6077 -8.6755 2.9774 41.2379 1.7967
# 6 0.7147 -23.5353 1.1856 -2.3566 1.7967 43.1568
#
#
#
# Elastic Compliance Matrix: (Units=1/GPa)
#
#
# Indices 1 2 3 4 5 6 
#
# 1 0.010640 -0.003896 -0.005159 0.000658 0.003158 -0.002255
# 2 -0.003896 0.012428 -0.000279 -0.002105 -0.000240 0.006745
# 3 -0.005159 -0.000279 0.015176 0.002158 0.000726 -0.000396
# 4 0.000658 -0.002105 0.002158 0.028002 -0.001578 0.000377
# 5 0.003158 -0.000240 0.000726 -0.001578 0.025945 -0.001369
# 6 -0.002255 0.006745 -0.000396 0.000377 -0.001369 0.026975
#
#
# Mechanical properties :
#
#
# Convention : Reuss Voigt Hill
#
# Bulk Modulus (GPa) = 51.08414 61.19765 56.14089
# Shear Modulus (GPa) = 34.63545 39.19718 36.91632
#
# Velocity S-wave (km/s) = 3.82974 4.07415 3.95383
# Velocity P-wave (km/s) = 6.41781 6.93157 6.67963
#
# Compressibility (1/GPa) = 0.01957555
#
# Stress axis : x y z
#
# Youngs Moduli (GPa) = 93.98792 80.46404 65.89141
#
# Poissons Ratio (x) = 0.31349 0.33997
# Poissons Ratio (y) = 0.36618 0.01836
# Poissons Ratio (z) = 0.48493 0.02243
#
# Static dielectric constant tensor:
#      x y z
#    x 1.906380 -0.004890 -0.005170 
#    y -0.004890 1.904870 -0.004270 
#    z -0.005170 -0.004270 1.908580 
# 
# From -- ./inp_files/123009.got.cif
#   From: 2010.05.17/outbox.cif.g08.bks.cpg/sg2_62_cif.got.tgz:123009.got - 2010.06.03 11:33:40.
