data_PCOD9046421
_publ_section_title
;
Structure prediction by ZEFSAII (Michael W. Deem and Ramdas Pophale) SiO2 
 PCOD9046421
Probable space group: P -1
;
_chemical_formula_sum "Si O2"
_cell_formula_units_Z 15
_cell_length_a 8.786511
_cell_length_b 9.429638
_cell_length_c 15.258258
_cell_angle_alpha 38.920497
_cell_angle_beta 60.659588
_cell_angle_gamma 81.306086
_cell_volume 628.285576
_symmetry_space_group_name_H-M "P -1"
_symmetry_group_IT_number 2
_symmetry_cell_setting 'triclinic'
loop_
_space_group_symop_operation_xyz
x,y,z
-x,-y,-z
loop_
_atom_site_type_symbol
_atom_site_label
_atom_site_fract_x
_atom_site_fract_y
_atom_site_fract_z
Si Si1 0.220300 0.496800 0.146537
Si Si2 0.808749 0.261917 0.137029
Si Si3 0.855487 0.766041 0.383804
Si Si4 0.500000 0.000000 0.500000
Si Si5 0.428615 0.489708 0.675367
Si Si6 0.435573 0.189656 0.977758
Si Si7 0.121403 0.504281 0.643064
Si Si8 0.167363 0.987926 0.318659
O O1 0.382451 0.602324 0.123703
O O2 0.030645 0.507342 0.235326
O O3 0.186461 0.220679 0.259779
O O4 0.269869 0.661779 0.965144
O O5 0.654620 0.183733 0.295300
O O6 0.853839 0.021065 0.226178
O O7 0.000000 0.500000 0.000000
O O8 0.643735 0.541717 0.560200
O O9 0.969578 0.661379 0.337330
O O10 0.947963 0.837021 0.420029
O O11 0.545533 0.237674 0.436323
O O12 0.363531 0.312574 0.862281
O O13 0.270613 0.402930 0.686532
O O14 0.500000 0.000000 0.000000
O O15 0.285590 0.075245 0.153654
O O16 0.222287 0.791893 0.447988
#
# Coordination Sequence:
#
# PCOD9046421 Si02
#       8
#     2   2   2   1   2   2   2   2
#     4  12  27  46  73 106 148 191 252 300 374 440
#     4  11  23  45  73 111 145 191 246 309 368 446
#     4  11  25  46  74 102 151 187 246 305 378 441
#     4  10  24  42  72 104 148 184 238 304 366 432
#     4  11  26  44  74 104 142 192 247 300 370 437
#     4  12  28  48  72 104 151 192 242 306 375 440
#     4  12  27  45  75 107 145 193 247 304 375 443
#     4  12  26  47  73 105 144 194 244 308 370 442
#
# _framework density 23.874496000000001
#
# number of rings (size 3 to 8) (size 9 to 14) (size 15 to 20)
#    0.000    0.533    1.333    5.600   11.200    0.533 
#    0.000    0.000    0.000    0.000    0.000    0.000 
#    0.000    0.000    0.000    0.000    0.000    0.000 
#
# Total GULP energy -83791.634389 kJ/mol
# GULP energy per Si atom -5586.108959 kJ/mol
# Density = 2.382016 g / cm^3
# Si number density = 23.874496 Si / 1000 Ang^3
#
#
#
# Elastic Constant Matrix: (Units=GPa)
#
#
# Indices 1 2 3 4 5 6 
#
# 1 88.8754 14.5490 29.3036 3.8958 14.7693 15.7613
# 2 14.5490 152.6139 26.5937 2.9597 -9.2345 4.5171
# 3 29.3036 26.5937 134.5319 27.9621 5.4470 0.4391
# 4 3.8958 2.9597 27.9621 35.7119 -5.2342 8.2760
# 5 14.7693 -9.2345 5.4470 -5.2342 34.3495 -1.7259
# 6 15.7613 4.5171 0.4391 8.2760 -1.7259 17.5220
#
#
#
# Elastic Compliance Matrix: (Units=1/GPa)
#
#
# Indices 1 2 3 4 5 6 
#
# 1 0.016842 -0.000885 -0.004085 0.004489 -0.007034 -0.017633
# 2 -0.000885 0.007098 -0.001630 0.001516 0.002706 -0.001443
# 3 -0.004085 -0.001630 0.010759 -0.010010 -0.001491 0.008406
# 4 0.004489 0.001516 -0.010010 0.041363 0.005202 -0.023203
# 5 -0.007034 0.002706 -0.001491 0.005202 0.034224 0.006581
# 6 -0.017633 -0.001443 0.008406 -0.023203 0.006581 0.084700
#
#
# Mechanical properties :
#
#
# Convention : Reuss Voigt Hill
#
# Bulk Modulus (GPa) = 46.51159 57.43487 51.97323
# Shear Modulus (GPa) = 23.21782 37.88834 30.55308
#
# Velocity S-wave (km/s) = 3.12187 3.98801 3.58122
# Velocity P-wave (km/s) = 5.70252 6.73163 6.23833
#
# Compressibility (1/GPa) = 0.02150002
#
# Stress axis : x y z
#
# Youngs Moduli (GPa) = 59.37421 140.88660 92.94949
#
# Poissons Ratio (x) = 0.12463 0.37965
# Poissons Ratio (y) = 0.05252 0.15153
# Poissons Ratio (z) = 0.24251 0.22968
#
# Static dielectric constant tensor:
#      x y z
#    x 2.020930 -0.030960 -0.035260 
#    y -0.030960 1.845950 0.015600 
#    z -0.035260 0.015600 1.895210 
# 
# From -- ./inp_files/398834.got.cif
#   From: 2010.05.17/outbox.cif.g08.bks.cpg/sg2_200_cif.got.tgz:398834.got - 2010.06.03 11:33:40.
