data_PCOD9046123
_publ_section_title
;
Structure prediction by ZEFSAII (Michael W. Deem and Ramdas Pophale) SiO2 
 PCOD9046123
Probable space group: P -1
;
_chemical_formula_sum "Si O2"
_cell_formula_units_Z 16
_cell_length_a 8.582408
_cell_length_b 16.943236
_cell_length_c 6.524727
_cell_angle_alpha 107.358499
_cell_angle_beta 64.418969
_cell_angle_gamma 116.276530
_cell_volume 760.581310
_symmetry_space_group_name_H-M "P -1"
_symmetry_group_IT_number 2
_symmetry_cell_setting 'triclinic'
loop_
_space_group_symop_operation_xyz
x,y,z
-x,-y,-z
loop_
_atom_site_type_symbol
_atom_site_label
_atom_site_fract_x
_atom_site_fract_y
_atom_site_fract_z
Si Si1 0.859843 0.726797 0.802667
Si Si2 0.721054 0.975702 0.014822
Si Si3 0.709087 0.125421 0.836217
Si Si4 0.532983 0.599894 0.131349
Si Si5 0.208666 0.390976 0.629143
Si Si6 0.035184 0.916694 0.690618
Si Si7 0.796208 0.448514 0.485267
Si Si8 0.113019 0.676580 0.948109
O O1 0.852445 0.692791 0.549891
O O2 0.945711 0.831976 0.825230
O O3 0.989514 0.693405 0.846692
O O4 0.655389 0.676568 0.970863
O O5 0.853271 0.941368 0.768481
O O6 0.715256 0.064104 0.978255
O O7 0.510234 0.909406 0.119333
O O8 0.823194 0.003466 0.195770
O O9 0.845785 0.108499 0.573699
O O10 0.778201 0.228543 0.939354
O O11 0.643270 0.613370 0.293528
O O12 0.332455 0.600915 0.292679
O O13 0.500000 0.500000 0.000000
O O14 0.269712 0.476379 0.515963
O O15 0.029887 0.386651 0.857373
O O16 0.778436 0.377945 0.263424
O O17 0.000000 0.500000 0.500000
#
# Coordination Sequence:
#
# PCOD9046123 Si02
#       8
#     2   2   2   2   2   2   2   2
#     4  11  22  42  65  92 129 170 214 264 323 385
#     4  10  24  42  68 100 125 168 218 265 330 408
#     4  11  22  43  67  96 135 166 212 275 331 384
#     4  11  24  42  63  92 127 171 221 266 315 385
#     4  11  22  43  66  86 129 175 210 262 322 379
#     4  11  22  44  68  95 131 171 215 264 335 392
#     4  12  23  42  64  94 129 172 219 265 321 383
#     4  11  23  40  63  96 129 168 214 270 321 384
#
# _framework density 21.036541
#
# number of rings (size 3 to 8) (size 9 to 14) (size 15 to 20)
#    0.000    1.000    5.000    2.250    0.000    1.000 
#    4.500    1.250    0.000    0.000    0.000    0.000 
#    0.000    0.000    0.000    0.000    0.000    0.000 
#
# Total GULP energy -89341.795977 kJ/mol
# GULP energy per Si atom -5583.862249 kJ/mol
# Density = 2.098866 g / cm^3
# Si number density = 21.036541 Si / 1000 Ang^3
#
#
#
# Elastic Constant Matrix: (Units=GPa)
#
#
# Indices 1 2 3 4 5 6 
#
# 1 56.3615 15.7602 23.9164 4.6159 -11.9923 17.6593
# 2 15.7602 74.1223 26.3925 2.9837 -11.9160 24.9581
# 3 23.9164 26.3925 95.5694 9.6186 -18.4077 30.1884
# 4 4.6159 2.9837 9.6186 39.1462 3.6235 1.6421
# 5 -11.9923 -11.9160 -18.4077 3.6235 37.2334 -8.5418
# 6 17.6593 24.9581 30.1884 1.6421 -8.5418 28.0685
#
#
#
# Elastic Compliance Matrix: (Units=1/GPa)
#
#
# Indices 1 2 3 4 5 6 
#
# 1 0.023044 0.000415 -0.000830 -0.002441 0.004525 -0.012455
# 2 0.000415 0.019535 0.000677 -0.001237 0.002844 -0.017421
# 3 -0.000830 0.000677 0.017128 -0.003917 0.004952 -0.016765
# 4 -0.002441 -0.001237 -0.003917 0.027186 -0.004900 0.003767
# 5 0.004525 0.002844 0.004952 -0.004900 0.031995 -0.000679
# 6 -0.012455 -0.017421 -0.016765 0.003767 -0.000679 0.076558
#
#
# Mechanical properties :
#
#
# Convention : Reuss Voigt Hill
#
# Bulk Modulus (GPa) = 16.60282 39.79903 28.20093
# Shear Modulus (GPa) = 23.25594 31.55522 27.40558
#
# Velocity S-wave (km/s) = 3.32852 3.87721 3.61329
# Velocity P-wave (km/s) = 4.76251 6.24530 5.55362
#
# Compressibility (1/GPa) = 0.06023073
#
# Stress axis : x y z
#
# Youngs Moduli (GPa) = 43.39574 51.19019 58.38253
#
# Poissons Ratio (x) = -0.02126 0.04846
# Poissons Ratio (y) = -0.01802 -0.03950
# Poissons Ratio (z) = 0.03602 -0.03463
#
# Static dielectric constant tensor:
#      x y z
#    x 1.790150 0.006150 -0.029480 
#    y 0.006150 1.718810 -0.013000 
#    z -0.029480 -0.013000 1.769780 
# 
# From -- ./inp_files/47028.got.cif
#   From: 2010.05.17/outbox.cif.g08.bks.cpg/sg2_24_cif.got.tgz:47028.got - 2010.06.03 11:33:40.
