data_PCOD9046407
_publ_section_title
;
Structure prediction by ZEFSAII (Michael W. Deem and Ramdas Pophale) SiO2 
 PCOD9046407
Probable space group: P -1
;
_chemical_formula_sum "Si O2"
_cell_formula_units_Z 16
_cell_length_a 14.162838
_cell_length_b 13.002179
_cell_length_c 13.902722
_cell_angle_alpha 149.546798
_cell_angle_beta 40.806354
_cell_angle_gamma 123.965592
_cell_volume 813.252707
_symmetry_space_group_name_H-M "P -1"
_symmetry_group_IT_number 2
_symmetry_cell_setting 'triclinic'
loop_
_space_group_symop_operation_xyz
x,y,z
-x,-y,-z
loop_
_atom_site_type_symbol
_atom_site_label
_atom_site_fract_x
_atom_site_fract_y
_atom_site_fract_z
Si Si1 0.787988 0.593607 0.756218
Si Si2 0.150406 0.205910 0.315359
Si Si3 0.597128 0.681341 0.695229
Si Si4 0.459048 0.605498 0.012289
Si Si5 0.154269 0.037041 0.870617
Si Si6 0.551809 0.287225 0.524170
Si Si7 0.159508 0.838416 0.515772
Si Si8 0.466353 0.927757 0.814108
O O1 0.870373 0.625783 0.620654
O O2 0.610924 0.670311 0.925877
O O3 0.818471 0.361321 0.588422
O O4 0.825585 0.745916 0.929192
O O5 0.233927 0.294102 0.406684
O O6 0.997334 0.148584 0.404543
O O7 0.282907 0.000992 0.012208
O O8 0.593386 0.459576 0.562081
O O9 0.530772 0.739594 0.688252
O O10 0.502330 0.870057 0.992617
O O11 0.450053 0.426769 0.798474
O O12 0.500000 0.500000 0.000000
O O13 0.302321 0.781982 0.290171
O O14 0.299652 0.859397 0.656820
O O15 0.152535 0.025257 0.746912
O O16 0.000000 0.000000 0.000000
O O17 0.482525 0.148114 0.393639
#
# Coordination Sequence:
#
# PCOD9046407 Si02
#       8
#     2   2   2   2   2   2   2   2
#     4  11  20  34  53  76 107 151 175 208 267 315
#     4  10  17  34  56  77 106 136 166 229 271 301
#     4   9  19  34  55  83 101 135 174 232 272 304
#     4  10  21  37  51  75 111 154 174 209 256 326
#     4  12  22  30  54  83 106 138 181 219 258 318
#     4  12  19  34  54  75 111 142 176 211 269 314
#     4  11  22  36  49  79 116 138 180 214 264 320
#     4   9  19  33  54  86 100 128 185 229 265 310
#
# _framework density 19.67408
#
# number of rings (size 3 to 8) (size 9 to 14) (size 15 to 20)
#    0.750    0.750    6.250    0.750    1.750    0.500 
#    0.000    0.000    0.000    1.500    0.000    0.000 
#    0.000    0.000    0.000    0.000    0.000    0.000 
#
# Total GULP energy -89166.504236 kJ/mol
# GULP energy per Si atom -5572.906515 kJ/mol
# Density = 1.962930 g / cm^3
# Si number density = 19.674080 Si / 1000 Ang^3
#
#
#
# Elastic Constant Matrix: (Units=GPa)
#
#
# Indices 1 2 3 4 5 6 
#
# 1 74.1134 7.9286 23.6644 -2.7912 13.0687 0.9823
# 2 7.9286 24.8624 3.0708 2.3793 -1.2766 6.5582
# 3 23.6644 3.0708 73.7911 -10.7882 16.6254 10.9627
# 4 -2.7912 2.3793 -10.7882 34.1463 3.6580 -5.8618
# 5 13.0687 -1.2766 16.6254 3.6580 34.3765 3.1040
# 6 0.9823 6.5582 10.9627 -5.8618 3.1040 23.6237
#
#
#
# Elastic Compliance Matrix: (Units=1/GPa)
#
#
# Indices 1 2 3 4 5 6 
#
# 1 0.016392 -0.006190 -0.004246 0.001659 -0.004952 0.004069
# 2 -0.006190 0.047294 -0.000175 -0.007182 0.006349 -0.015407
# 3 -0.004246 -0.000175 0.018185 0.005153 -0.007195 -0.005990
# 4 0.001659 -0.007182 0.005153 0.033928 -0.007810 0.008978
# 5 -0.004952 0.006349 -0.007195 -0.007810 0.035960 -0.004881
# 6 0.004069 -0.015407 -0.005990 0.008978 -0.004881 0.052087
#
#
# Mechanical properties :
#
#
# Convention : Reuss Voigt Hill
#
# Bulk Modulus (GPa) = 16.48759 26.89939 21.69349
# Shear Modulus (GPa) = 20.38462 27.63616 24.01039
#
# Velocity S-wave (km/s) = 3.22237 3.75200 3.49722
# Velocity P-wave (km/s) = 4.71629 5.69843 5.23047
#
# Compressibility (1/GPa) = 0.06065168
#
# Stress axis : x y z
#
# Youngs Moduli (GPa) = 61.00377 21.14421 54.99107
#
# Poissons Ratio (x) = 0.13087 0.23347
# Poissons Ratio (y) = 0.37759 0.00961
# Poissons Ratio (z) = 0.25900 0.00369
#
# Static dielectric constant tensor:
#      x y z
#    x 1.718180 0.004220 0.002350 
#    y 0.004220 1.722270 0.004710 
#    z 0.002350 0.004710 1.765200 
# 
# From -- ./inp_files/533464.got.cif
#   From: 2010.05.17/outbox.cif.g08.bks.cpg/sg2_267_cif.got.tgz:533464.got - 2010.06.03 11:33:40.
