data_PCOD9046155
_publ_section_title
;
Structure prediction by ZEFSAII (Michael W. Deem and Ramdas Pophale) SiO2 
 PCOD9046155
Probable space group: P -1
;
_chemical_formula_sum "Si O2"
_cell_formula_units_Z 11
_cell_length_a 13.686378
_cell_length_b 8.149149
_cell_length_c 5.387430
_cell_angle_alpha 125.157046
_cell_angle_beta 61.033456
_cell_angle_gamma 105.633614
_cell_volume 429.767283
_symmetry_space_group_name_H-M "P -1"
_symmetry_group_IT_number 2
_symmetry_cell_setting 'triclinic'
loop_
_space_group_symop_operation_xyz
x,y,z
-x,-y,-z
loop_
_atom_site_type_symbol
_atom_site_label
_atom_site_fract_x
_atom_site_fract_y
_atom_site_fract_z
Si Si1 0.000000 0.500000 0.500000
Si Si2 0.195388 0.636857 0.618306
Si Si3 0.550092 0.681835 0.254814
Si Si4 0.021445 0.230229 0.694716
Si Si5 0.362771 0.953352 0.863757
Si Si6 0.259319 0.293018 0.591492
O O1 0.870759 0.402534 0.585903
O O2 0.044744 0.325414 0.483648
O O3 0.270584 0.833319 0.714315
O O4 0.262371 0.451309 0.497335
O O5 0.085684 0.673685 0.959158
O O6 0.458416 0.784383 0.643443
O O7 0.659871 0.626080 0.226788
O O8 0.583543 0.864220 0.193631
O O9 0.500000 0.500000 0.000000
O O10 0.127004 0.267908 0.777435
O O11 0.000000 0.000000 0.500000
O O12 0.304283 0.070818 0.264625
#
# Coordination Sequence:
#
# PCOD9046155 Si02
#       6
#     1   2   2   2   2   2
#     4  10  24  42  68 104 150 184 236 288 348 430
#     4  11  25  44  70 105 143 187 237 290 360 427
#     4  11  27  47  69 102 139 185 244 300 360 423
#     4  11  24  45  70 108 144 191 233 288 361 432
#     4  11  25  44  71 102 134 189 241 290 366 422
#     4  11  24  45  71  99 143 184 236 298 352 428
#
# _framework density 25.595248000000002
#
# number of rings (size 3 to 8) (size 9 to 14) (size 15 to 20)
#    0.000    1.091    1.818    3.818    2.545   15.273 
#    0.000    0.000    0.000    0.000    0.000    0.000 
#    0.000    0.000    0.000    0.000    0.000    0.000 
#
# Total GULP energy -61340.724953 kJ/mol
# GULP energy per Si atom -5576.429541 kJ/mol
# Density = 2.553699 g / cm^3
# Si number density = 25.595248 Si / 1000 Ang^3
#
#
#
# Elastic Constant Matrix: (Units=GPa)
#
#
# Indices 1 2 3 4 5 6 
#
# 1 226.6697 55.2837 47.5063 26.9559 30.6441 13.7372
# 2 55.2837 102.0809 36.9527 30.2709 15.0878 24.2264
# 3 47.5063 36.9527 104.9034 28.4172 1.1486 -2.9226
# 4 26.9559 30.2709 28.4172 41.1688 13.9066 9.5836
# 5 30.6441 15.0878 1.1486 13.9066 44.2398 10.3692
# 6 13.7372 24.2264 -2.9226 9.5836 10.3692 47.5139
#
#
#
# Elastic Compliance Matrix: (Units=1/GPa)
#
#
# Indices 1 2 3 4 5 6 
#
# 1 0.005716 -0.001937 -0.001906 0.000122 -0.003266 -0.000094
# 2 -0.001937 0.015303 -0.002937 -0.006426 -0.000364 -0.006048
# 3 -0.001906 -0.002937 0.013704 -0.008156 0.003654 0.003740
# 4 0.000122 -0.006426 -0.008156 0.038314 -0.009017 -0.003021
# 5 -0.003266 -0.000364 0.003654 -0.009017 0.028441 -0.003034
# 6 -0.000094 -0.006048 0.003740 -0.003021 -0.003034 0.025659
#
#
# Mechanical properties :
#
#
# Convention : Reuss Voigt Hill
#
# Bulk Modulus (GPa) = 47.25390 79.23771 63.24580
# Shear Modulus (GPa) = 33.84036 46.17858 40.00947
#
# Velocity S-wave (km/s) = 3.64006 4.25218 3.95797
# Velocity P-wave (km/s) = 6.01405 7.42517 6.75655
#
# Compressibility (1/GPa) = 0.02116227
#
# Stress axis : x y z
#
# Youngs Moduli (GPa) = 174.93680 65.34712 72.97019
#
# Poissons Ratio (x) = 0.12657 0.13911
# Poissons Ratio (y) = 0.33883 0.21433
# Poissons Ratio (z) = 0.33351 0.19194
#
# Static dielectric constant tensor:
#      x y z
#    x 2.085540 0.043590 0.090960 
#    y 0.043590 1.998750 -0.092600 
#    z 0.090960 -0.092600 2.395550 
# 
# From -- ./inp_files/58828.got.cif
#   From: 2010.05.17/outbox.cif.g08.bks.cpg/sg2_30_cif.got.tgz:58828.got - 2010.06.03 11:33:40.
