data_PCOD9046359
_publ_section_title
;
Structure prediction by ZEFSAII (Michael W. Deem and Ramdas Pophale) SiO2 
 PCOD9046359
Probable space group: P -1
;
_chemical_formula_sum "Si O2"
_cell_formula_units_Z 12
_cell_length_a 8.996912
_cell_length_b 9.180304
_cell_length_c 16.308427
_cell_angle_alpha 32.412800
_cell_angle_beta 46.939397
_cell_angle_gamma 61.829852
_cell_volume 508.463908
_symmetry_space_group_name_H-M "P -1"
_symmetry_group_IT_number 2
_symmetry_cell_setting 'triclinic'
loop_
_space_group_symop_operation_xyz
x,y,z
-x,-y,-z
loop_
_atom_site_type_symbol
_atom_site_label
_atom_site_fract_x
_atom_site_fract_y
_atom_site_fract_z
Si Si1 0.696346 0.193301 0.283224
Si Si2 0.838777 0.844024 0.895964
Si Si3 0.455099 0.660636 0.019473
Si Si4 0.636454 0.956539 0.240680
Si Si5 0.755067 0.444265 0.508888
Si Si6 0.776039 0.422983 0.695115
O O1 0.918595 0.106790 0.246218
O O2 0.500000 0.000000 0.500000
O O3 0.636567 0.136420 0.236971
O O4 0.767510 0.531568 0.112246
O O5 0.684302 0.831965 0.883038
O O6 0.789041 0.096993 0.846336
O O7 0.300818 0.840500 0.957114
O O8 0.500000 0.500000 0.000000
O O9 0.352020 0.510753 0.211732
O O10 0.768502 0.739326 0.318060
O O11 0.405294 0.773401 0.385576
O O12 0.679670 0.462703 0.623406
O O13 0.983739 0.404288 0.461326
#
# Coordination Sequence:
#
# PCOD9046359 Si02
#       6
#     2   2   2   2   2   2
#     4  11  26  45  74 103 146 190 232 297 360 421
#     4  11  24  47  71 105 141 186 241 283 355 435
#     4  12  26  44  68 102 145 183 234 297 355 418
#     4  11  23  43  63 107 143 177 241 292 345 420
#     4  10  24  42  71 103 139 185 245 288 349 427
#     4  11  24  46  73 100 140 194 233 288 359 423
#
# _framework density 23.600498000000002
#
# number of rings (size 3 to 8) (size 9 to 14) (size 15 to 20)
#    0.000    1.000    5.000    0.500    2.333    3.333 
#    0.000    1.667    0.000    0.000    0.000    0.000 
#    0.000    0.000    0.000    0.000    0.000    0.000 
#
# Total GULP energy -66962.182840 kJ/mol
# GULP energy per Si atom -5580.181903 kJ/mol
# Density = 2.354678 g / cm^3
# Si number density = 23.600498 Si / 1000 Ang^3
#
#
#
# Elastic Constant Matrix: (Units=GPa)
#
#
# Indices 1 2 3 4 5 6 
#
# 1 149.3861 17.4318 29.1882 18.4986 9.7955 13.4846
# 2 17.4318 63.7102 17.7499 11.9327 -5.3886 9.3701
# 3 29.1882 17.7499 86.6728 13.9578 -2.4069 -2.0936
# 4 18.4986 11.9327 13.9578 41.6788 -3.9336 4.5364
# 5 9.7955 -5.3886 -2.4069 -3.9336 44.8675 -13.1905
# 6 13.4846 9.3701 -2.0936 4.5364 -13.1905 46.5097
#
#
#
# Elastic Compliance Matrix: (Units=1/GPa)
#
#
# Indices 1 2 3 4 5 6 
#
# 1 0.008011 -0.000931 -0.002257 -0.002510 -0.003041 -0.002855
# 2 -0.000931 0.017877 -0.002848 -0.003342 0.001072 -0.002830
# 3 -0.002257 -0.002848 0.013434 -0.002825 0.001356 0.002493
# 4 -0.002510 -0.003342 -0.002825 0.027298 0.002160 -0.000776
# 5 -0.003041 0.001072 0.001356 0.002160 0.025632 0.007785
# 6 -0.002855 -0.002830 0.002493 -0.000776 0.007785 0.025295
#
#
# Mechanical properties :
#
#
# Convention : Reuss Voigt Hill
#
# Bulk Modulus (GPa) = 36.69489 47.61209 42.15349
# Shear Modulus (GPa) = 36.04876 42.30447 39.17661
#
# Velocity S-wave (km/s) = 3.91251 4.23841 4.07872
# Velocity P-wave (km/s) = 5.99937 6.64607 6.33098
#
# Compressibility (1/GPa) = 0.02725175
#
# Stress axis : x y z
#
# Youngs Moduli (GPa) = 124.82121 55.93761 74.43968
#
# Poissons Ratio (x) = 0.05206 0.16798
# Poissons Ratio (y) = 0.11616 0.21201
# Poissons Ratio (z) = 0.28167 0.15931
#
# Static dielectric constant tensor:
#      x y z
#    x 1.861300 -0.099490 0.020410 
#    y -0.099490 1.989510 -0.105370 
#    z 0.020410 -0.105370 2.040340 
# 
# From -- ./inp_files/166928.got.cif
#   From: 2010.05.17/outbox.cif.g08.bks.cpg/sg2_84_cif.got.tgz:166928.got - 2010.06.03 11:33:40.
