data_PCOD9046191
_publ_section_title
;
Structure prediction by ZEFSAII (Michael W. Deem and Ramdas Pophale) SiO2 
 PCOD9046191
Probable space group: P -1
;
_chemical_formula_sum "Si O2"
_cell_formula_units_Z 14
_cell_length_a 11.888422
_cell_length_b 14.404860
_cell_length_c 15.496827
_cell_angle_alpha 144.094793
_cell_angle_beta 152.744971
_cell_angle_gamma 55.454706
_cell_volume 585.753101
_symmetry_space_group_name_H-M "P -1"
_symmetry_group_IT_number 2
_symmetry_cell_setting 'triclinic'
loop_
_space_group_symop_operation_xyz
x,y,z
-x,-y,-z
loop_
_atom_site_type_symbol
_atom_site_label
_atom_site_fract_x
_atom_site_fract_y
_atom_site_fract_z
Si Si1 0.692456 0.614518 0.368296
Si Si2 0.490817 0.848468 0.314009
Si Si3 0.189634 0.287423 0.020882
Si Si4 0.852488 0.594337 0.751294
Si Si5 0.655037 0.230052 0.025209
Si Si6 0.048162 0.378374 0.829676
Si Si7 0.320321 0.017167 0.812902
O O1 0.671389 0.758838 0.399370
O O2 0.666689 0.426264 0.170644
O O3 0.014073 0.724885 0.716041
O O4 0.399795 0.530043 0.164708
O O5 0.500000 0.000000 0.500000
O O6 0.535119 0.904932 0.286633
O O7 0.136735 0.673089 0.945182
O O8 0.536071 0.473135 0.398891
O O9 0.108027 0.245625 0.034595
O O10 0.000173 0.329404 0.860595
O O11 0.192093 0.124829 0.850422
O O12 0.863480 0.454582 0.721909
O O13 0.521749 0.139893 0.960381
O O14 0.936272 0.188854 0.554554
O O15 0.500000 0.000000 0.000000
#
# Coordination Sequence:
#
# PCOD9046191 Si02
#       7
#     2   2   2   2   2   2   2
#     4  10  24  45  73  99 136 186 232 279 346 417
#     4  11  26  45  69 103 139 181 234 284 344 418
#     4  11  22  43  66  97 134 181 215 281 341 399
#     4  10  24  42  68  97 137 176 229 275 338 413
#     4  11  25  46  70 102 140 185 227 288 347 412
#     4  11  22  43  70 100 133 178 227 279 341 405
#     4  12  26  43  70 106 140 172 234 291 339 403
#
# _framework density 23.900856999999998
#
# number of rings (size 3 to 8) (size 9 to 14) (size 15 to 20)
#    0.000    1.143    2.857    2.143    4.000    2.857 
#    0.000    0.000    0.000    0.000    0.000    0.000 
#    0.000    0.000    0.000    0.000    0.000    0.000 
#
# Total GULP energy -78289.936427 kJ/mol
# GULP energy per Si atom -5592.138316 kJ/mol
# Density = 2.384646 g / cm^3
# Si number density = 23.900857 Si / 1000 Ang^3
#
#
#
# Elastic Constant Matrix: (Units=GPa)
#
#
# Indices 1 2 3 4 5 6 
#
# 1 83.8333 52.1227 42.3865 -9.4300 -19.6384 11.1035
# 2 52.1227 139.2573 48.1829 -20.5751 -9.2841 9.8776
# 3 42.3865 48.1829 82.0369 -17.6801 -2.6255 10.9886
# 4 -9.4300 -20.5751 -17.6801 34.3064 -1.2369 -3.4770
# 5 -19.6384 -9.2841 -2.6255 -1.2369 43.8201 -10.0483
# 6 11.1035 9.8776 10.9886 -3.4770 -10.0483 32.6815
#
#
#
# Elastic Compliance Matrix: (Units=1/GPa)
#
#
# Indices 1 2 3 4 5 6 
#
# 1 0.020430 -0.004548 -0.007739 -0.000904 0.007532 -0.000745
# 2 -0.004548 0.010455 -0.003017 0.003444 0.000043 -0.000221
# 3 -0.007739 -0.003017 0.019534 0.005643 -0.003587 -0.003529
# 4 -0.000904 0.003444 0.005643 0.034110 0.001995 0.001611
# 5 0.007532 0.000043 -0.003587 0.001995 0.027738 0.007375
# 6 -0.000745 -0.000221 -0.003529 0.001611 0.007375 0.034544
#
#
# Mechanical properties :
#
#
# Convention : Reuss Voigt Hill
#
# Bulk Modulus (GPa) = 50.47593 65.61242 58.04418
# Shear Modulus (GPa) = 27.17068 32.99062 30.08065
#
# Velocity S-wave (km/s) = 3.37532 3.71928 3.55147
# Velocity P-wave (km/s) = 6.02952 6.77906 6.41524
#
# Compressibility (1/GPa) = 0.01981142
#
# Stress axis : x y z
#
# Youngs Moduli (GPa) = 48.94712 95.65242 51.19177
#
# Poissons Ratio (x) = 0.43501 0.39616
# Poissons Ratio (y) = 0.22260 0.15446
# Poissons Ratio (z) = 0.37879 0.28862
#
# Static dielectric constant tensor:
#      x y z
#    x 1.936530 0.025600 0.027510 
#    y 0.025600 1.932340 0.044430 
#    z 0.027510 0.044430 1.909780 
# 
# From -- ./inp_files/522544.got.cif
#   From: 2010.05.17/outbox.cif.g08.bks.cpg/sg2_262_cif.got.tgz:522544.got - 2010.06.03 11:33:40.
