data_PCOD9046058
_publ_section_title
;
Structure prediction by ZEFSAII (Michael W. Deem and Ramdas Pophale) SiO2 
 PCOD9046058
Probable space group: P -1
;
_chemical_formula_sum "Si O2"
_cell_formula_units_Z 16
_cell_length_a 7.789544
_cell_length_b 6.347703
_cell_length_c 18.546253
_cell_angle_alpha 68.703729
_cell_angle_beta 64.530058
_cell_angle_gamma 63.421870
_cell_volume 723.664926
_symmetry_space_group_name_H-M "P -1"
_symmetry_group_IT_number 2
_symmetry_cell_setting 'triclinic'
loop_
_space_group_symop_operation_xyz
x,y,z
-x,-y,-z
loop_
_atom_site_type_symbol
_atom_site_label
_atom_site_fract_x
_atom_site_fract_y
_atom_site_fract_z
Si Si1 0.732695 0.477382 0.384832
Si Si2 0.589021 0.955447 0.908006
Si Si3 0.613550 0.084877 0.532738
Si Si4 0.393787 0.803652 0.830821
Si Si5 0.866918 0.689333 0.217328
Si Si6 0.885410 0.556196 0.590170
Si Si7 0.727505 0.359200 0.763300
Si Si8 0.033840 0.591528 0.905385
O O1 0.729897 0.229757 0.448807
O O2 0.538362 0.704489 0.416348
O O3 0.783899 0.488133 0.290686
O O4 0.927744 0.505640 0.382364
O O5 0.456364 0.842326 0.896407
O O6 0.821569 0.780560 0.893376
O O7 0.608081 0.185351 0.832649
O O8 0.500000 0.000000 0.000000
O O9 0.500000 0.000000 0.500000
O O10 0.748318 0.839121 0.577953
O O11 0.591547 0.624894 0.779732
O O12 0.212177 0.699694 0.869064
O O13 0.311970 0.058746 0.774498
O O14 0.909613 0.625481 0.134581
O O15 0.065520 0.706548 0.219033
O O16 0.765950 0.389925 0.666779
O O17 0.000000 0.500000 0.500000
O O18 0.000000 0.500000 0.000000
#
# Coordination Sequence:
#
# PCOD9046058 Si02
#       8
#     2   2   2   2   2   2   2   2
#     4  10  24  42  66  98 133 181 227 288 341 411
#     4  12  27  47  74 109 144 183 235 293 351 426
#     4  11  22  41  65  96 135 179 227 281 347 406
#     4  12  25  47  74 101 144 187 229 295 352 415
#     4  11  24  45  70 101 139 181 241 286 352 417
#     4  11  23  44  68  98 139 181 229 287 343 409
#     4  11  25  46  71 104 140 186 236 291 355 417
#     4  12  27  46  73 105 140 188 232 292 354 421
#
# _framework density 22.109679
#
# number of rings (size 3 to 8) (size 9 to 14) (size 15 to 20)
#    0.000    0.750    3.750    3.375    1.750    6.000 
#    2.250    0.000    0.000    0.000    0.000    0.000 
#    0.000    0.000    0.000    0.000    0.000    0.000 
#
# Total GULP energy -89351.533531 kJ/mol
# GULP energy per Si atom -5584.470846 kJ/mol
# Density = 2.205936 g / cm^3
# Si number density = 22.109679 Si / 1000 Ang^3
#
#
#
# Elastic Constant Matrix: (Units=GPa)
#
#
# Indices 1 2 3 4 5 6 
#
# 1 84.9622 9.3626 -8.8661 3.1813 3.2775 -9.5182
# 2 9.3626 71.2609 6.9763 -10.9442 5.7286 -27.2079
# 3 -8.8661 6.9763 98.2315 -17.1875 9.4022 3.7198
# 4 3.1813 -10.9442 -17.1875 28.7133 8.3750 -0.1084
# 5 3.2775 5.7286 9.4022 8.3750 15.0700 -1.7288
# 6 -9.5182 -27.2079 3.7198 -0.1084 -1.7288 44.4561
#
#
#
# Elastic Compliance Matrix: (Units=1/GPa)
#
#
# Indices 1 2 3 4 5 6 
#
# 1 0.012333 -0.000750 0.001410 0.000107 -0.003113 0.001943
# 2 -0.000750 0.022341 0.001951 0.014526 -0.016156 0.012756
# 3 0.001410 0.001951 0.014476 0.014565 -0.018218 -0.000389
# 4 0.000107 0.014526 0.014565 0.063446 -0.049210 0.005936
# 5 -0.003113 -0.016156 -0.018218 -0.049210 0.111336 -0.004820
# 6 0.001943 0.012756 -0.000389 0.005936 -0.004820 0.030577
#
#
# Mechanical properties :
#
#
# Convention : Reuss Voigt Hill
#
# Bulk Modulus (GPa) = 18.39250 29.93333 24.16292
# Shear Modulus (GPa) = 18.69780 34.11334 26.40557
#
# Velocity S-wave (km/s) = 2.91122 3.93226 3.45961
# Velocity P-wave (km/s) = 4.43137 5.84678 5.18758
#
# Compressibility (1/GPa) = 0.05436999
#
# Stress axis : x y z
#
# Youngs Moduli (GPa) = 81.08047 44.76158 69.08219
#
# Poissons Ratio (x) = 0.03357 -0.09737
# Poissons Ratio (y) = 0.06081 -0.13476
# Poissons Ratio (z) = -0.11428 -0.08732
#
# Static dielectric constant tensor:
#      x y z
#    x 1.818640 0.001310 -0.033570 
#    y 0.001310 1.832280 -0.079720 
#    z -0.033570 -0.079720 1.968710 
# 
# From -- ./inp_files/553345.got.cif
#   From: 2010.05.17/outbox.cif.g08.bks.cpg/sg2_277_cif.got.tgz:553345.got - 2010.06.03 11:33:40.
