data_PCOD9046639
_publ_section_title
;
Structure prediction by ZEFSAII (Michael W. Deem and Ramdas Pophale) SiO2 
 PCOD9046639
Probable space group: P -1
;
_chemical_formula_sum "Si O2"
_cell_formula_units_Z 16
_cell_length_a 11.449447
_cell_length_b 6.707907
_cell_length_c 9.007979
_cell_angle_alpha 101.949647
_cell_angle_beta 106.593685
_cell_angle_gamma 81.009935
_cell_volume 645.159459
_symmetry_space_group_name_H-M "P -1"
_symmetry_group_IT_number 2
_symmetry_cell_setting 'triclinic'
loop_
_space_group_symop_operation_xyz
x,y,z
-x,-y,-z
loop_
_atom_site_type_symbol
_atom_site_label
_atom_site_fract_x
_atom_site_fract_y
_atom_site_fract_z
Si Si1 0.364449 0.525140 0.575315
Si Si2 0.420342 0.308334 0.974598
Si Si3 0.101742 0.032149 0.417435
Si Si4 0.833427 0.331684 0.837239
Si Si5 0.190783 0.375741 0.695710
Si Si6 0.012127 0.342744 0.172070
Si Si7 0.429201 0.792299 0.237945
Si Si8 0.573448 0.768395 0.691142
O O1 0.245237 0.542686 0.634383
O O2 0.466834 0.360556 0.667170
O O3 0.431059 0.727568 0.611372
O O4 0.350080 0.414688 0.398361
O O5 0.288576 0.335123 0.855381
O O6 0.506204 0.148245 0.882612
O O7 0.303355 0.692144 0.158674
O O8 0.405890 0.262054 0.132495
O O9 0.187024 0.174888 0.562177
O O10 0.051445 0.170734 0.280552
O O11 0.150739 0.818412 0.323849
O O12 0.000000 0.000000 0.500000
O O13 0.876325 0.552855 0.845692
O O14 0.926549 0.267131 0.998286
O O15 0.065658 0.472806 0.737362
O O16 0.398528 0.016064 0.331003
O O17 0.500000 0.500000 0.000000
#
# Coordination Sequence:
#
# PCOD9046639 Si02
#       8
#     2   2   2   2   2   2   2   2
#     4  10  24  43  66 106 141 174 226 285 347 429
#     4  11  22  45  67 100 145 176 233 281 346 427
#     4  12  26  49  69 107 142 181 244 298 346 415
#     4  11  26  47  72 104 142 187 240 289 353 418
#     4  11  23  46  73  99 143 188 227 290 355 411
#     4  11  26  49  74 100 140 193 237 291 355 413
#     4  11  23  42  69 102 137 178 229 283 345 423
#     4  11  22  41  66  99 141 183 222 279 349 409
#
# _framework density 24.800069000000001
#
# number of rings (size 3 to 8) (size 9 to 14) (size 15 to 20)
#    0.000    1.000    3.750    3.000    0.000    5.000 
#    9.000    0.000    0.000    0.000    0.000    0.000 
#    0.000    0.000    0.000    0.000    0.000    0.000 
#
# Total GULP energy -89522.516718 kJ/mol
# GULP energy per Si atom -5595.157295 kJ/mol
# Density = 2.474362 g / cm^3
# Si number density = 24.800069 Si / 1000 Ang^3
#
#
#
# Elastic Constant Matrix: (Units=GPa)
#
#
# Indices 1 2 3 4 5 6 
#
# 1 110.4813 17.9295 16.4250 -14.5954 1.2514 16.2456
# 2 17.9295 91.2160 19.8738 -5.5371 15.2805 16.2114
# 3 16.4250 19.8738 128.4152 -21.6847 4.7577 -1.4076
# 4 -14.5954 -5.5371 -21.6847 42.8526 6.7817 -8.5776
# 5 1.2514 15.2805 4.7577 6.7817 48.8140 3.4714
# 6 16.2456 16.2114 -1.4076 -8.5776 3.4714 27.7532
#
#
#
# Elastic Compliance Matrix: (Units=1/GPa)
#
#
# Indices 1 2 3 4 5 6 
#
# 1 0.010315 -0.000847 -0.000930 0.001898 0.000185 -0.005027
# 2 -0.000847 0.013373 -0.001991 -0.000458 -0.003400 -0.007133
# 3 -0.000930 -0.001991 0.009150 0.005025 -0.001219 0.003877
# 4 0.001898 -0.000458 0.005025 0.029078 -0.005077 0.009033
# 5 0.000185 -0.003400 -0.001219 -0.005077 0.022553 -0.002575
# 6 -0.005027 -0.007133 0.003877 0.009033 -0.002575 0.046451
#
#
# Mechanical properties :
#
#
# Convention : Reuss Voigt Hill
#
# Bulk Modulus (GPa) = 39.52207 48.72990 44.12598
# Shear Modulus (GPa) = 34.03926 42.27624 38.15775
#
# Velocity S-wave (km/s) = 3.70881 4.13326 3.92677
# Velocity P-wave (km/s) = 5.85758 6.51692 6.19602
#
# Compressibility (1/GPa) = 0.02530232
#
# Stress axis : x y z
#
# Youngs Moduli (GPa) = 96.94827 74.77968 109.28365
#
# Poissons Ratio (x) = 0.06337 0.10160
# Poissons Ratio (y) = 0.08215 0.21755
# Poissons Ratio (z) = 0.09013 0.14887
#
# Static dielectric constant tensor:
#      x y z
#    x 1.973630 -0.036700 -0.036770 
#    y -0.036700 2.030420 0.064770 
#    z -0.036770 0.064770 2.114590 
# 
# From -- ./inp_files/289208.got.cif
#   From: 2010.05.17/outbox.cif.g08.bks.cpg/sg2_145_cif.got.tgz:289208.got - 2010.06.03 11:33:40.
