data_PCOD9046166
_publ_section_title
;
Structure prediction by ZEFSAII (Michael W. Deem and Ramdas Pophale) SiO2 
 PCOD9046166
Probable space group: P -1
;
_chemical_formula_sum "Si O2"
_cell_formula_units_Z 12
_cell_length_a 11.677088
_cell_length_b 14.298356
_cell_length_c 9.639568
_cell_angle_alpha 65.325722
_cell_angle_beta 114.485956
_cell_angle_gamma 160.657467
_cell_volume 483.269607
_symmetry_space_group_name_H-M "P -1"
_symmetry_group_IT_number 2
_symmetry_cell_setting 'triclinic'
loop_
_space_group_symop_operation_xyz
x,y,z
-x,-y,-z
loop_
_atom_site_type_symbol
_atom_site_label
_atom_site_fract_x
_atom_site_fract_y
_atom_site_fract_z
Si Si1 0.390997 0.012241 0.837227
Si Si2 0.896297 0.943896 0.713168
Si Si3 0.118871 0.241310 0.411896
Si Si4 0.394654 0.194971 0.940762
Si Si5 0.239316 0.769255 0.393711
Si Si6 0.198486 0.401701 0.866635
O O1 0.013502 0.756358 0.734986
O O2 0.603373 0.152312 0.718645
O O3 0.485448 0.184140 0.871108
O O4 0.500000 0.000000 0.000000
O O5 0.935728 0.885268 0.655049
O O6 0.567107 0.667370 0.812986
O O7 0.885574 0.039475 0.557226
O O8 0.248807 0.195548 0.820939
O O9 0.500000 0.500000 0.500000
O O10 0.057720 0.884041 0.036338
O O11 0.702603 0.450884 0.043685
O O12 0.000000 0.500000 0.500000
O O13 0.021588 0.703298 0.288048
O O14 0.500000 0.000000 0.500000
#
# Coordination Sequence:
#
# PCOD9046166 Si02
#       6
#     2   2   2   2   2   2
#     4  11  25  50  75 108 151 198 249 307 363 452
#     4  10  24  42  68 107 146 189 243 308 366 444
#     4  10  24  43  72 103 142 198 245 300 375 436
#     4  11  26  44  74 110 142 197 244 299 377 436
#     4  12  28  47  72 107 146 197 246 302 370 436
#     4  12  25  45  72 108 149 189 246 309 369 438
#
# _framework density 24.830860999999999
#
# number of rings (size 3 to 8) (size 9 to 14) (size 15 to 20)
#    0.000    1.000    1.667    3.000    9.333    2.000 
#    0.000    0.000    0.000    0.000    0.000    0.000 
#    0.000    0.000    0.000    0.000    0.000    0.000 
#
# Total GULP energy -67049.341935 kJ/mol
# GULP energy per Si atom -5587.445161 kJ/mol
# Density = 2.477434 g / cm^3
# Si number density = 24.830861 Si / 1000 Ang^3
#
#
#
# Elastic Constant Matrix: (Units=GPa)
#
#
# Indices 1 2 3 4 5 6 
#
# 1 81.2759 28.5863 66.5999 1.7549 15.1561 5.5859
# 2 28.5863 113.2051 71.4683 19.4214 13.9372 -8.5252
# 3 66.5999 71.4683 188.9488 9.0230 21.1412 -6.9617
# 4 1.7549 19.4214 9.0230 60.3877 16.1098 0.7668
# 5 15.1561 13.9372 21.1412 16.1098 49.2734 9.7719
# 6 5.5859 -8.5252 -6.9617 0.7668 9.7719 34.8406
#
#
#
# Elastic Compliance Matrix: (Units=1/GPa)
#
#
# Indices 1 2 3 4 5 6 
#
# 1 0.018245 -0.001064 -0.005955 0.001411 -0.002481 -0.003710
# 2 -0.001064 0.012493 -0.003983 -0.003156 -0.001019 0.002787
# 3 -0.005955 -0.003983 0.009132 0.000477 -0.001558 0.002231
# 4 0.001411 -0.003156 0.000477 0.019073 -0.006057 0.000376
# 5 -0.002481 -0.001019 -0.001558 -0.006057 0.025415 -0.007158
# 6 -0.003710 0.002787 0.002231 0.000376 -0.007158 0.032424
#
#
# Mechanical properties :
#
#
# Convention : Reuss Voigt Hill
#
# Bulk Modulus (GPa) = 55.97114 79.63764 67.80439
# Shear Modulus (GPa) = 34.54439 43.35201 38.94820
#
# Velocity S-wave (km/s) = 3.73391 4.18292 3.96478
# Velocity P-wave (km/s) = 6.41711 7.44787 6.95162
#
# Compressibility (1/GPa) = 0.01786635
#
# Stress axis : x y z
#
# Youngs Moduli (GPa) = 54.81000 80.04163 109.50660
#
# Poissons Ratio (x) = 0.08513 0.65211
# Poissons Ratio (y) = 0.05830 0.43620
# Poissons Ratio (z) = 0.32639 0.31883
#
# Static dielectric constant tensor:
#      x y z
#    x 1.938510 0.060510 0.029220 
#    y 0.060510 1.992340 -0.038850 
#    z 0.029220 -0.038850 2.049790 
# 
# From -- ./inp_files/23268.got.cif
#   From: 2010.05.17/outbox.cif.g08.bks.cpg/sg2_12_cif.got.tgz:23268.got - 2010.06.03 11:33:40.
