data_PCOD9046100
_publ_section_title
;
Structure prediction by ZEFSAII (Michael W. Deem and Ramdas Pophale) SiO2 
 PCOD9046100
Probable space group: P -1
;
_chemical_formula_sum "Si O2"
_cell_formula_units_Z 16
_cell_length_a 14.483678
_cell_length_b 14.618963
_cell_length_c 15.685709
_cell_angle_alpha 29.247080
_cell_angle_beta 26.943281
_cell_angle_gamma 28.422440
_cell_volume 653.159831
_symmetry_space_group_name_H-M "P -1"
_symmetry_group_IT_number 2
_symmetry_cell_setting 'triclinic'
loop_
_space_group_symop_operation_xyz
x,y,z
-x,-y,-z
loop_
_atom_site_type_symbol
_atom_site_label
_atom_site_fract_x
_atom_site_fract_y
_atom_site_fract_z
Si Si1 0.807582 0.744650 0.269893
Si Si2 0.779847 0.051708 0.780719
Si Si3 0.612307 0.700001 0.232562
Si Si4 0.658252 0.189427 0.957037
Si Si5 0.206560 0.604899 0.952073
Si Si6 0.835828 0.418621 0.745290
Si Si7 0.483388 0.793969 0.647075
Si Si8 0.245185 0.709623 0.640930
O O1 0.641505 0.705739 0.503069
O O2 0.027997 0.690813 0.193604
O O3 0.957981 0.621203 0.164376
O O4 0.666807 0.981804 0.160169
O O5 0.033956 0.942000 0.622748
O O6 0.594705 0.215407 0.736105
O O7 0.761401 0.148437 0.810455
O O8 0.717995 0.858996 0.004206
O O9 0.479811 0.715069 0.417501
O O10 0.773532 0.459086 0.270370
O O11 0.404780 0.382813 0.001816
O O12 0.808945 0.253438 0.841978
O O13 0.253343 0.790401 0.806290
O O14 0.240276 0.626973 0.806646
O O15 0.590103 0.626891 0.772719
O O16 0.000000 0.500000 0.500000
O O17 0.500000 0.000000 0.500000
#
# Coordination Sequence:
#
# PCOD9046100 Si02
#       8
#     2   2   2   2   2   2   2   2
#     4  11  24  42  66  90 129 173 210 261 323 368
#     4  11  22  43  66  97 125 167 215 261 321 381
#     4  10  24  42  67  91 133 164 210 269 320 381
#     4  11  23  40  65  94 130 168 216 264 313 386
#     4  11  25  41  62  93 131 166 213 266 315 381
#     4   9  22  41  61  91 130 166 213 259 314 374
#     4  10  25  41  63  95 126 169 218 262 315 383
#     4  11  22  42  65  94 126 171 210 258 325 381
#
# _framework density 24.496300999999999
#
# number of rings (size 3 to 8) (size 9 to 14) (size 15 to 20)
#    0.000    1.500    2.500    1.125    8.750    1.000 
#    0.000    3.750    0.000    0.000    0.000    0.000 
#    0.000    0.000    0.000    0.000    0.000    0.000 
#
# Total GULP energy -89436.544234 kJ/mol
# GULP energy per Si atom -5589.784015 kJ/mol
# Density = 2.444055 g / cm^3
# Si number density = 24.496301 Si / 1000 Ang^3
#
#
#
# Elastic Constant Matrix: (Units=GPa)
#
#
# Indices 1 2 3 4 5 6 
#
# 1 39.1705 1.5075 9.6109 2.8598 19.8046 -2.8177
# 2 1.5075 97.2556 9.0848 -2.5181 1.4778 0.3856
# 3 9.6109 9.0848 109.9690 24.7227 19.2090 10.1010
# 4 2.8598 -2.5181 24.7227 43.5463 -3.8640 6.2825
# 5 19.8046 1.4778 19.2090 -3.8640 37.6096 -12.0157
# 6 -2.8177 0.3856 10.1010 6.2825 -12.0157 34.7240
#
#
#
# Elastic Compliance Matrix: (Units=1/GPa)
#
#
# Indices 1 2 3 4 5 6 
#
# 1 0.036254 -0.000552 0.002300 -0.005040 -0.022196 -0.004490
# 2 -0.000552 0.010434 -0.001279 0.001401 0.000747 0.000216
# 3 0.002300 -0.001279 0.013121 -0.007764 -0.010530 -0.005855
# 4 -0.005040 0.001401 -0.007764 0.028635 0.009486 -0.000065
# 5 -0.022196 0.000747 -0.010530 0.009486 0.049978 0.016832
# 6 -0.004490 0.000216 -0.005855 -0.000065 0.016832 0.035971
#
#
# Mechanical properties :
#
#
# Convention : Reuss Voigt Hill
#
# Bulk Modulus (GPa) = 16.46212 31.86685 24.16448
# Shear Modulus (GPa) = 25.81258 38.25543 32.03401
#
# Velocity S-wave (km/s) = 3.24965 3.95610 3.62015
# Velocity P-wave (km/s) = 4.56236 5.82277 5.23067
#
# Compressibility (1/GPa) = 0.06074551
#
# Stress axis : x y z
#
# Youngs Moduli (GPa) = 27.58349 95.83787 76.21490
#
# Poissons Ratio (x) = 0.05292 -0.17527
# Poissons Ratio (y) = 0.01523 0.09748
# Poissons Ratio (z) = -0.06343 0.12258
#
# Static dielectric constant tensor:
#      x y z
#    x 2.006720 -0.006990 0.035220 
#    y -0.006990 2.003050 0.022260 
#    z 0.035220 0.022260 2.008840 
# 
# From -- ./inp_files/534061.got.cif
#   From: 2010.05.17/outbox.cif.g08.bks.cpg/sg2_268_cif.got.tgz:534061.got - 2010.06.03 11:33:40.
