data_PCOD9046225
_publ_section_title
;
Structure prediction by ZEFSAII (Michael W. Deem and Ramdas Pophale) SiO2 
 PCOD9046225
Probable space group: P -1
;
_chemical_formula_sum "Si O2"
_cell_formula_units_Z 16
_cell_length_a 11.487190
_cell_length_b 22.357294
_cell_length_c 5.240759
_cell_angle_alpha 111.607936
_cell_angle_beta 120.564231
_cell_angle_gamma 31.490496
_cell_volume 598.953701
_symmetry_space_group_name_H-M "P -1"
_symmetry_group_IT_number 2
_symmetry_cell_setting 'triclinic'
loop_
_space_group_symop_operation_xyz
x,y,z
-x,-y,-z
loop_
_atom_site_type_symbol
_atom_site_label
_atom_site_fract_x
_atom_site_fract_y
_atom_site_fract_z
Si Si1 0.937259 0.613246 0.711869
Si Si2 0.669931 0.971396 0.453765
Si Si3 0.416364 0.605020 0.553370
Si Si4 0.092544 0.232484 0.850356
Si Si5 0.209053 0.784029 0.930692
Si Si6 0.356903 0.382139 0.507856
Si Si7 0.623730 0.807639 0.321591
Si Si8 0.834893 0.077140 0.191597
O O1 0.794718 0.620557 0.746728
O O2 0.756381 0.692571 0.393678
O O3 0.186840 0.482912 0.693713
O O4 0.943377 0.684898 0.918115
O O5 0.740494 0.898541 0.178339
O O6 0.919830 0.888480 0.756348
O O7 0.500000 0.000000 0.500000
O O8 0.512762 0.099032 0.453559
O O9 0.500000 0.500000 0.500000
O O10 0.328274 0.668300 0.821574
O O11 0.607415 0.576770 0.596017
O O12 0.162702 0.701097 0.272834
O O13 0.178822 0.226936 0.660687
O O14 0.250686 0.816266 0.790611
O O15 0.377302 0.742524 0.281107
O O16 0.400073 0.875552 0.999621
O O17 0.000000 0.000000 0.500000
O O18 0.000000 0.000000 0.000000
#
# Coordination Sequence:
#
# PCOD9046225 Si02
#       8
#     2   2   2   2   2   2   2   2
#     4  11  25  44  70 109 146 206 255 326 405 470
#     4   9  21  43  67 105 147 200 254 322 385 472
#     4  11  25  45  70 102 145 202 264 325 394 469
#     4  10  24  42  69 101 145 200 257 317 393 470
#     4  11  24  44  73 108 147 202 261 322 397 471
#     4  11  26  45  72 106 153 198 265 332 399 479
#     4  11  23  43  73 105 155 193 262 321 397 471
#     4  12  28  47  78 118 162 208 262 329 405 480
#
# _framework density 26.713249999999999
#
# number of rings (size 3 to 8) (size 9 to 14) (size 15 to 20)
#    0.000    1.250    2.500    1.500    5.250    5.500 
#    0.000    9.375    0.000    0.000    0.000    0.000 
#    0.000    0.000    0.000    0.000    0.000    0.000 
#
# Total GULP energy -89378.441145 kJ/mol
# GULP energy per Si atom -5586.152572 kJ/mol
# Density = 2.665245 g / cm^3
# Si number density = 26.713250 Si / 1000 Ang^3
#
#
#
# Elastic Constant Matrix: (Units=GPa)
#
#
# Indices 1 2 3 4 5 6 
#
# 1 114.4877 10.0187 21.4860 -12.1122 15.2367 -25.2155
# 2 10.0187 138.1863 25.8868 3.1496 1.0886 4.2155
# 3 21.4860 25.8868 81.8895 7.1498 7.1278 -8.7219
# 4 -12.1122 3.1496 7.1498 37.7828 -0.7316 -1.4548
# 5 15.2367 1.0886 7.1278 -0.7316 48.0606 -6.2087
# 6 -25.2155 4.2155 -8.7219 -1.4548 -6.2087 36.7493
#
#
#
# Elastic Compliance Matrix: (Units=1/GPa)
#
#
# Indices 1 2 3 4 5 6 
#
# 1 0.011602 -0.000731 -0.002221 0.004436 -0.002321 0.007301
# 2 -0.000731 0.007821 -0.002462 -0.000493 0.000157 -0.001976
# 3 -0.002221 -0.002462 0.014138 -0.003135 -0.001153 0.001795
# 4 0.004436 -0.000493 -0.003135 0.028657 -0.000044 0.003484
# 5 -0.002321 0.000157 -0.001153 -0.000044 0.021945 0.001821
# 6 0.007301 -0.001976 0.001795 0.003484 0.001821 0.033319
#
#
# Mechanical properties :
#
#
# Convention : Reuss Voigt Hill
#
# Bulk Modulus (GPa) = 43.98675 49.92740 46.95708
# Shear Modulus (GPa) = 36.79571 42.99667 39.89619
#
# Velocity S-wave (km/s) = 3.71540 4.01629 3.86877
# Velocity P-wave (km/s) = 5.90827 6.34335 6.12967
#
# Compressibility (1/GPa) = 0.02273412
#
# Stress axis : x y z
#
# Youngs Moduli (GPa) = 86.19570 127.86063 70.73290
#
# Poissons Ratio (x) = 0.09342 0.15708
# Poissons Ratio (y) = 0.06298 0.17412
# Poissons Ratio (z) = 0.19142 0.31475
#
# Static dielectric constant tensor:
#      x y z
#    x 2.043870 0.052610 0.045290 
#    y 0.052610 2.153950 0.027760 
#    z 0.045290 0.027760 2.287860 
# 
# From -- ./inp_files/84470.got.cif
#   From: 2010.05.17/outbox.cif.g08.bks.cpg/sg2_43_cif.got.tgz:84470.got - 2010.06.03 11:33:40.
