data_PCOD9046512
_publ_section_title
;
Structure prediction by ZEFSAII (Michael W. Deem and Ramdas Pophale) SiO2 
 PCOD9046512
Probable space group: P -1
;
_chemical_formula_sum "Si O2"
_cell_formula_units_Z 15
_cell_length_a 8.092073
_cell_length_b 12.227153
_cell_length_c 14.715185
_cell_angle_alpha 27.894855
_cell_angle_beta 97.210528
_cell_angle_gamma 85.424790
_cell_volume 616.114880
_symmetry_space_group_name_H-M "P -1"
_symmetry_group_IT_number 2
_symmetry_cell_setting 'triclinic'
loop_
_space_group_symop_operation_xyz
x,y,z
-x,-y,-z
loop_
_atom_site_type_symbol
_atom_site_label
_atom_site_fract_x
_atom_site_fract_y
_atom_site_fract_z
Si Si1 0.421199 0.523673 0.577716
Si Si2 0.000000 0.000000 0.000000
Si Si3 0.136375 0.844189 0.443388
Si Si4 0.187433 0.649007 0.993808
Si Si5 0.655640 0.825284 0.400742
Si Si6 0.397498 0.123784 0.308909
Si Si7 0.971673 0.558804 0.206085
Si Si8 0.350455 0.864903 0.993752
O O1 0.500000 0.500000 0.500000
O O2 0.212484 0.711053 0.447403
O O3 0.540077 0.659428 0.531095
O O4 0.482866 0.266420 0.829339
O O5 0.165329 0.943391 0.980438
O O6 0.915235 0.828157 0.055517
O O7 0.153822 0.600255 0.684789
O O8 0.258508 0.991330 0.375693
O O9 0.933835 0.067795 0.259857
O O10 0.282863 0.425134 0.093996
O O11 0.047168 0.578446 0.097844
O O12 0.333831 0.673667 0.055610
O O13 0.857885 0.633556 0.581246
O O14 0.550425 0.061047 0.287371
O O15 0.644638 0.908043 0.234595
O O16 0.500000 0.000000 0.500000
#
# Coordination Sequence:
#
# PCOD9046512 Si02
#       8
#     2   1   2   2   2   2   2   2
#     4  11  26  44  65 100 147 183 232 295 352 418
#     4  10  24  42  76  96 140 184 232 290 356 406
#     4  11  26  43  70 107 139 183 240 297 345 425
#     4  11  22  44  72 103 143 177 243 292 351 410
#     4  11  23  45  71  99 140 186 239 285 356 423
#     4  11  23  47  74 101 149 192 225 300 360 419
#     4  11  23  44  69 105 137 183 237 294 345 421
#     4  11  24  44  70 103 134 192 235 284 354 428
#
# _framework density 24.346107
#
# number of rings (size 3 to 8) (size 9 to 14) (size 15 to 20)
#    0.000    1.067    5.333    1.200    5.600    4.267 
#    0.000    0.000    0.000    0.000    0.000    0.000 
#    0.000    0.000    0.000    0.000    0.000    0.000 
#
# Total GULP energy -83566.439651 kJ/mol
# GULP energy per Si atom -5571.095977 kJ/mol
# Density = 2.429069 g / cm^3
# Si number density = 24.346107 Si / 1000 Ang^3
#
#
#
# Elastic Constant Matrix: (Units=GPa)
#
#
# Indices 1 2 3 4 5 6 
#
# 1 38.0481 4.4801 13.6919 -2.2139 3.1439 -3.0289
# 2 4.4801 84.3474 13.4736 -3.0255 15.2892 -11.0530
# 3 13.6919 13.4736 89.1002 13.0724 -10.4807 -1.2640
# 4 -2.2139 -3.0255 13.0724 29.2310 3.4714 -3.3865
# 5 3.1439 15.2892 -10.4807 3.4714 27.4091 2.6724
# 6 -3.0289 -11.0530 -1.2640 -3.3865 2.6724 28.0250
#
#
#
# Elastic Compliance Matrix: (Units=1/GPa)
#
#
# Indices 1 2 3 4 5 6 
#
# 1 0.030123 0.002071 -0.006959 0.007278 -0.008727 0.005470
# 2 0.002071 0.016263 -0.005158 0.006663 -0.012949 0.008445
# 3 -0.006959 -0.005158 0.015821 -0.009998 0.011418 -0.004370
# 4 0.007278 0.006663 -0.009998 0.042776 -0.014722 0.009536
# 5 -0.008727 -0.012949 0.011418 -0.014722 0.052137 -0.012286
# 6 0.005470 0.008445 -0.004370 0.009536 -0.012286 0.041731
#
#
# Mechanical properties :
#
#
# Convention : Reuss Voigt Hill
#
# Bulk Modulus (GPa) = 23.74495 30.53189 27.13842
# Shear Modulus (GPa) = 21.46105 28.92301 25.19203
#
# Velocity S-wave (km/s) = 2.97222 3.45047 3.22024
# Velocity P-wave (km/s) = 4.64253 5.33313 4.99977
#
# Compressibility (1/GPa) = 0.04211421
#
# Stress axis : x y z
#
# Youngs Moduli (GPa) = 33.19732 61.49087 63.20820
#
# Poissons Ratio (x) = -0.12737 0.43986
# Poissons Ratio (y) = -0.06877 0.32606
# Poissons Ratio (z) = 0.23102 0.31720
#
# Static dielectric constant tensor:
#      x y z
#    x 1.985950 0.030300 0.001640 
#    y 0.030300 1.926140 -0.036770 
#    z 0.001640 -0.036770 1.979780 
# 
# From -- ./inp_files/499682.got.cif
#   From: 2010.05.17/outbox.cif.g08.bks.cpg/sg2_250_cif.got.tgz:499682.got - 2010.06.03 11:33:40.
