data_PCOD9046582
_publ_section_title
;
Structure prediction by ZEFSAII (Michael W. Deem and Ramdas Pophale) SiO2 
 PCOD9046582
Probable space group: P -1
;
_chemical_formula_sum "Si O2"
_cell_formula_units_Z 16
_cell_length_a 6.413267
_cell_length_b 12.812560
_cell_length_c 11.994357
_cell_angle_alpha 51.677670
_cell_angle_beta 111.244355
_cell_angle_gamma 85.260100
_cell_volume 653.938004
_symmetry_space_group_name_H-M "P -1"
_symmetry_group_IT_number 2
_symmetry_cell_setting 'triclinic'
loop_
_space_group_symop_operation_xyz
x,y,z
-x,-y,-z
loop_
_atom_site_type_symbol
_atom_site_label
_atom_site_fract_x
_atom_site_fract_y
_atom_site_fract_z
Si Si1 0.786123 0.966228 0.730996
Si Si2 0.373385 0.617398 0.493170
Si Si3 0.674275 0.207097 0.998202
Si Si4 0.158502 0.533578 0.196590
Si Si5 0.406314 0.860795 0.214181
Si Si6 0.356021 0.289555 0.100507
Si Si7 0.181720 0.845616 0.576094
Si Si8 0.951104 0.653251 0.533247
O O1 0.702464 0.839304 0.770958
O O2 0.694082 0.998449 0.820313
O O3 0.699920 0.098688 0.539877
O O4 0.079413 0.910511 0.820633
O O5 0.500000 0.500000 0.500000
O O6 0.565191 0.597228 0.645897
O O7 0.270238 0.771049 0.307633
O O8 0.152191 0.594225 0.517117
O O9 0.762449 0.332395 0.891808
O O10 0.625220 0.133516 0.926922
O O11 0.457767 0.263699 0.009655
O O12 0.053921 0.487961 0.315939
O O13 0.916153 0.574875 0.043617
O O14 0.688291 0.759543 0.363587
O O15 0.599716 0.270715 0.228132
O O16 0.028798 0.756906 0.560127
O O17 0.000000 0.000000 0.500000
#
# Coordination Sequence:
#
# PCOD9046582 Si02
#       8
#     2   2   2   2   2   2   2   2
#     4  11  24  45  68 105 134 180 238 278 346 409
#     4  11  22  42  67  97 141 181 223 283 330 415
#     4  11  23  43  67 103 146 175 223 283 346 415
#     4  10  24  43  65 104 133 175 233 269 351 401
#     4  11  24  40  70 104 140 178 226 281 349 414
#     4  11  25  43  73  97 136 188 224 290 339 406
#     4  12  24  49  74  97 138 181 236 287 339 402
#     4  11  26  43  72 103 136 182 232 283 341 412
#
# _framework density 24.46715
#
# number of rings (size 3 to 8) (size 9 to 14) (size 15 to 20)
#    0.000    1.000    3.750    2.250    1.750    2.000 
#    0.000    1.250    0.000    0.000    0.000    0.000 
#    0.000    0.000    0.000    0.000    0.000    0.000 
#
# Total GULP energy -89219.085538 kJ/mol
# GULP energy per Si atom -5576.192846 kJ/mol
# Density = 2.441146 g / cm^3
# Si number density = 24.467150 Si / 1000 Ang^3
#
#
#
# Elastic Constant Matrix: (Units=GPa)
#
#
# Indices 1 2 3 4 5 6 
#
# 1 119.7774 25.5097 34.9921 10.1323 -8.2680 -3.2392
# 2 25.5097 64.6287 29.4595 17.9766 -4.6733 -18.3140
# 3 34.9921 29.4595 93.2798 14.1554 6.2199 10.5297
# 4 10.1323 17.9766 14.1554 28.3994 1.4771 -1.2627
# 5 -8.2680 -4.6733 6.2199 1.4771 39.6966 -1.5799
# 6 -3.2392 -18.3140 10.5297 -1.2627 -1.5799 30.1070
#
#
#
# Elastic Compliance Matrix: (Units=1/GPa)
#
#
# Indices 1 2 3 4 5 6 
#
# 1 0.009973 -0.001496 -0.003459 -0.000954 0.002537 0.001466
# 2 -0.001496 0.031166 -0.010155 -0.013478 0.006330 0.022116
# 3 -0.003459 -0.010155 0.017203 -0.001222 -0.005079 -0.012884
# 4 -0.000954 -0.013478 -0.001222 0.044600 -0.003500 -0.006187
# 5 0.002537 0.006330 -0.005079 -0.003500 0.027677 0.007205
# 6 0.001466 0.022116 -0.012884 -0.006187 0.007205 0.051450
#
#
# Mechanical properties :
#
#
# Convention : Reuss Voigt Hill
#
# Bulk Modulus (GPa) = 35.55679 50.84537 43.20108
# Shear Modulus (GPa) = 22.55671 32.15560 27.35615
#
# Velocity S-wave (km/s) = 3.03960 3.62917 3.34739
# Velocity P-wave (km/s) = 5.18488 6.19575 5.71272
#
# Compressibility (1/GPa) = 0.02812402
#
# Stress axis : x y z
#
# Youngs Moduli (GPa) = 100.26766 32.08627 58.12802
#
# Poissons Ratio (x) = 0.04799 0.20105
# Poissons Ratio (y) = 0.14997 0.59028
# Poissons Ratio (z) = 0.34680 0.32583
#
# Static dielectric constant tensor:
#      x y z
#    x 1.941220 -0.002520 0.028200 
#    y -0.002520 2.063600 0.018800 
#    z 0.028200 0.018800 1.963780 
# 
# From -- ./inp_files/68650.got.cif
#   From: 2010.05.17/outbox.cif.g08.bks.cpg/sg2_35_cif.got.tgz:68650.got - 2010.06.03 11:33:40.
