data_PCOD9046351
_publ_section_title
;
Structure prediction by ZEFSAII (Michael W. Deem and Ramdas Pophale) SiO2 
 PCOD9046351
Probable space group: P -1
;
_chemical_formula_sum "Si O2"
_cell_formula_units_Z 14
_cell_length_a 12.056721
_cell_length_b 14.681891
_cell_length_c 8.996185
_cell_angle_alpha 28.741427
_cell_angle_beta 122.656178
_cell_angle_gamma 129.657034
_cell_volume 588.674838
_symmetry_space_group_name_H-M "P -1"
_symmetry_group_IT_number 2
_symmetry_cell_setting 'triclinic'
loop_
_space_group_symop_operation_xyz
x,y,z
-x,-y,-z
loop_
_atom_site_type_symbol
_atom_site_label
_atom_site_fract_x
_atom_site_fract_y
_atom_site_fract_z
Si Si1 0.521699 0.272176 0.977828
Si Si2 0.029548 0.346925 0.354939
Si Si3 0.388416 0.602683 0.725930
Si Si4 0.914070 0.635417 0.294337
Si Si5 0.702282 0.131073 0.479304
Si Si6 0.581300 0.748161 0.398341
Si Si7 0.095882 0.035440 0.667114
O O1 0.567095 0.508451 0.722902
O O2 0.461133 0.226420 0.834993
O O3 0.654460 0.205811 0.186647
O O4 0.393627 0.109831 0.218404
O O5 0.869830 0.187303 0.518988
O O6 0.109434 0.405329 0.487581
O O7 0.108587 0.243350 0.458808
O O8 0.000000 0.500000 0.000000
O O9 0.237979 0.431223 0.803139
O O10 0.342926 0.734551 0.624938
O O11 0.467236 0.748613 0.436436
O O12 0.500000 0.500000 0.000000
O O13 0.000000 0.500000 0.500000
O O14 0.016728 0.860163 0.983146
O O15 0.738767 0.918230 0.311422
O O16 0.000000 0.000000 0.500000
#
# Coordination Sequence:
#
# PCOD9046351 Si02
#       7
#     2   2   2   2   2   2   2
#     4  10  24  42  71 101 144 185 241 306 362 444
#     4  12  27  46  76 107 157 200 261 308 381 450
#     4  12  26  45  77 106 153 193 248 309 376 443
#     4  12  27  50  76 113 154 204 253 314 380 454
#     4  11  24  46  69 107 146 193 245 303 375 435
#     4  11  25  45  72 105 143 187 252 297 377 435
#     4  12  28  48  77 111 154 199 254 313 382 455
#
# _framework density 23.782228
#
# number of rings (size 3 to 8) (size 9 to 14) (size 15 to 20)
#    0.000    0.571    2.857    3.857    8.000    2.857 
#    0.000    0.000    0.000    0.000    0.000    0.000 
#    0.000    0.000    0.000    0.000    0.000    0.000 
#
# Total GULP energy -78338.050924 kJ/mol
# GULP energy per Si atom -5595.575066 kJ/mol
# Density = 2.372810 g / cm^3
# Si number density = 23.782228 Si / 1000 Ang^3
#
#
#
# Elastic Constant Matrix: (Units=GPa)
#
#
# Indices 1 2 3 4 5 6 
#
# 1 54.3869 6.3229 -14.1392 -8.6792 -1.6507 14.7921
# 2 6.3229 109.7639 19.9309 9.4925 -10.5352 14.8602
# 3 -14.1392 19.9309 103.0676 6.5565 -5.2141 -2.7176
# 4 -8.6792 9.4925 6.5565 34.3105 1.3678 -10.0337
# 5 -1.6507 -10.5352 -5.2141 1.3678 28.9454 -1.6430
# 6 14.7921 14.8602 -2.7176 -10.0337 -1.6430 52.2673
#
#
#
# Elastic Compliance Matrix: (Units=1/GPa)
#
#
# Indices 1 2 3 4 5 6 
#
# 1 0.021193 -0.001351 0.002843 0.003781 0.000783 -0.004715
# 2 -0.001351 0.010684 -0.001907 -0.004073 0.003466 -0.003427
# 3 0.002843 -0.001907 0.010588 -0.000780 0.001422 0.000183
# 4 0.003781 -0.004073 -0.000780 0.033344 -0.002622 0.006366
# 5 0.000783 0.003466 0.001422 -0.002622 0.036206 -0.000498
# 6 -0.004715 -0.003427 0.000183 0.006366 -0.000498 0.022657
#
#
# Mechanical properties :
#
#
# Convention : Reuss Voigt Hill
#
# Bulk Modulus (GPa) = 24.01839 32.38306 28.20073
# Shear Modulus (GPa) = 33.47210 40.11157 36.79184
#
# Velocity S-wave (km/s) = 3.75566 4.11130 3.93750
# Velocity P-wave (km/s) = 5.37846 6.01524 5.70574
#
# Compressibility (1/GPa) = 0.04163477
#
# Stress axis : x y z
#
# Youngs Moduli (GPa) = 47.18632 93.60228 94.45029
#
# Poissons Ratio (x) = 0.12641 -0.26854
# Poissons Ratio (y) = 0.06373 0.18013
# Poissons Ratio (z) = -0.13416 0.17851
#
# Static dielectric constant tensor:
#      x y z
#    x 1.847950 -0.002560 -0.025170 
#    y -0.002560 1.966580 0.090950 
#    z -0.025170 0.090950 2.147840 
# 
# From -- ./inp_files/246203.got.cif
#   From: 2010.05.17/outbox.cif.g08.bks.cpg/sg2_124_cif.got.tgz:246203.got - 2010.06.03 11:33:40.
