data_PCOD9046095
_publ_section_title
;
Structure prediction by ZEFSAII (Michael W. Deem and Ramdas Pophale) SiO2 
 PCOD9046095
Probable space group: P -1
;
_chemical_formula_sum "Si O2"
_cell_formula_units_Z 16
_cell_length_a 10.022688
_cell_length_b 9.034554
_cell_length_c 17.330718
_cell_angle_alpha 73.576046
_cell_angle_beta 137.509737
_cell_angle_gamma 73.917770
_cell_volume 673.266276
_symmetry_space_group_name_H-M "P -1"
_symmetry_group_IT_number 2
_symmetry_cell_setting 'triclinic'
loop_
_space_group_symop_operation_xyz
x,y,z
-x,-y,-z
loop_
_atom_site_type_symbol
_atom_site_label
_atom_site_fract_x
_atom_site_fract_y
_atom_site_fract_z
Si Si1 0.339380 0.422960 0.524108
Si Si2 0.855602 0.303710 0.163798
Si Si3 0.575913 0.023133 0.788790
Si Si4 0.371803 0.767967 0.495393
Si Si5 0.337011 0.970268 0.016573
Si Si6 0.857804 0.628275 0.187982
Si Si7 0.338541 0.325576 0.207797
Si Si8 0.804274 0.293553 0.965484
O O1 0.465588 0.244912 0.671604
O O2 0.333103 0.606889 0.513015
O O3 0.508794 0.290354 0.533935
O O4 0.016006 0.545770 0.349210
O O5 0.940019 0.423173 0.212833
O O6 0.910726 0.269987 0.100750
O O7 0.500000 0.500000 0.000000
O O8 0.066238 0.047060 0.326493
O O9 0.493935 0.045280 0.838859
O O10 0.496798 0.921093 0.718906
O O11 0.935090 0.833729 0.966350
O O12 0.588825 0.703105 0.665980
O O13 0.508772 0.836260 0.029992
O O14 0.269189 0.842308 0.039822
O O15 0.080502 0.243858 0.846070
O O16 0.435041 0.435260 0.197756
O O17 0.000000 0.500000 0.000000
#
# Coordination Sequence:
#
# PCOD9046095 Si02
#       8
#     2   2   2   2   2   2   2   2
#     4  11  25  42  72 104 140 188 232 302 354 417
#     4  12  24  45  71 103 147 186 236 288 358 428
#     4  11  23  41  68 102 138 183 231 298 351 419
#     4  11  25  45  70 107 146 180 246 291 355 429
#     4  11  24  43  65 100 142 184 243 281 349 428
#     4  11  26  41  69 100 140 193 233 289 350 430
#     4  10  24  42  67 108 142 184 229 298 360 415
#     4  11  22  42  69 104 137 184 239 292 356 413
#
# _framework density 23.764744
#
# number of rings (size 3 to 8) (size 9 to 14) (size 15 to 20)
#    0.000    1.000    2.500    3.375   10.500    1.500 
#    0.000    0.625    0.000    0.000    0.000    0.000 
#    0.000    0.000    0.000    0.000    0.000    0.000 
#
# Total GULP energy -89285.931054 kJ/mol
# GULP energy per Si atom -5580.370691 kJ/mol
# Density = 2.371065 g / cm^3
# Si number density = 23.764744 Si / 1000 Ang^3
#
#
#
# Elastic Constant Matrix: (Units=GPa)
#
#
# Indices 1 2 3 4 5 6 
#
# 1 49.2251 35.1458 21.1317 -10.2377 -14.7845 2.9013
# 2 35.1458 184.4269 46.7717 -8.4149 -8.1386 3.1919
# 3 21.1317 46.7717 101.0077 -8.6448 -20.5215 -4.8264
# 4 -10.2377 -8.4149 -8.6448 49.8146 3.0502 -16.4401
# 5 -14.7845 -8.1386 -20.5215 3.0502 33.3783 0.3252
# 6 2.9013 3.1919 -4.8264 -16.4401 0.3252 39.2536
#
#
#
# Elastic Compliance Matrix: (Units=1/GPa)
#
#
# Indices 1 2 3 4 5 6 
#
# 1 0.027895 -0.004311 -0.001468 0.004042 0.010035 -0.000282
# 2 -0.004311 0.006846 -0.002707 -0.000311 -0.001870 -0.000686
# 3 -0.001468 -0.002707 0.013090 0.002013 0.006527 0.002727
# 4 0.004042 -0.000311 0.002013 0.024547 0.000609 0.010250
# 5 0.010035 -0.001870 0.006527 0.000609 0.037904 0.000154
# 6 -0.000282 -0.000686 0.002727 0.010250 0.000154 0.030179
#
#
# Mechanical properties :
#
#
# Convention : Reuss Voigt Hill
#
# Bulk Modulus (GPa) = 32.40814 60.08422 46.24618
# Shear Modulus (GPa) = 29.81184 39.92999 34.87092
#
# Velocity S-wave (km/s) = 3.54567 4.10350 3.83474
# Velocity P-wave (km/s) = 5.51625 6.91299 6.25374
#
# Compressibility (1/GPa) = 0.03085645
#
# Stress axis : x y z
#
# Youngs Moduli (GPa) = 35.84919 146.08136 76.39699
#
# Poissons Ratio (x) = 0.62981 0.11216
# Poissons Ratio (y) = 0.15456 0.20682
# Poissons Ratio (z) = 0.05263 0.39546
#
# Static dielectric constant tensor:
#      x y z
#    x 1.985380 -0.011380 0.118400 
#    y -0.011380 1.943470 -0.035120 
#    z 0.118400 -0.035120 1.981240 
# 
# From -- ./inp_files/565951.got.cif
#   From: 2010.05.17/outbox.cif.g08.bks.cpg/sg2_283_cif.got.tgz:565951.got - 2010.06.03 11:33:40.
