data_PCOD9046713
_publ_section_title
;
Structure prediction by ZEFSAII (Michael W. Deem and Ramdas Pophale) SiO2 
 PCOD9046713
Probable space group: P -1
;
_chemical_formula_sum "Si O2"
_cell_formula_units_Z 16
_cell_length_a 13.543651
_cell_length_b 17.937749
_cell_length_c 8.854271
_cell_angle_alpha 79.456508
_cell_angle_beta 89.218576
_cell_angle_gamma 158.001925
_cell_volume 687.036020
_symmetry_space_group_name_H-M "P -1"
_symmetry_group_IT_number 2
_symmetry_cell_setting 'triclinic'
loop_
_space_group_symop_operation_xyz
x,y,z
-x,-y,-z
loop_
_atom_site_type_symbol
_atom_site_label
_atom_site_fract_x
_atom_site_fract_y
_atom_site_fract_z
Si Si1 0.806362 0.640243 0.967427
Si Si2 0.921832 0.669107 0.456699
Si Si3 0.826743 0.405269 0.893629
Si Si4 0.762315 0.741343 0.707543
Si Si5 0.147884 0.961126 0.112491
Si Si6 0.814022 0.189194 0.300317
Si Si7 0.167594 0.692563 0.348747
Si Si8 0.767813 0.801942 0.356832
O O1 0.723172 0.632180 0.828506
O O2 0.978752 0.693663 0.880943
O O3 0.512953 0.409753 0.159921
O O4 0.023398 0.847649 0.993172
O O5 0.572151 0.426413 0.601290
O O6 0.128763 0.817474 0.547204
O O7 0.960780 0.617058 0.389643
O O8 0.031416 0.813024 0.287052
O O9 0.760529 0.287050 0.827105
O O10 0.056942 0.633969 0.733701
O O11 0.511032 0.218853 0.005011
O O12 0.000000 0.500000 0.000000
O O13 0.743831 0.730189 0.532041
O O14 0.071415 0.005665 0.655193
O O15 0.983846 0.918798 0.186672
O O16 0.475819 0.938248 0.338418
O O17 0.000000 0.500000 0.500000
#
# Coordination Sequence:
#
# PCOD9046713 Si02
#       8
#     2   2   2   2   2   2   2   2
#     4  11  24  43  70 103 149 188 240 301 362 425
#     4  12  27  45  77 105 149 202 240 302 366 438
#     4  12  29  49  79 110 144 194 243 309 370 426
#     4  10  24  43  67 103 146 198 234 300 359 436
#     4  12  26  46  71 111 149 189 244 305 360 436
#     4  12  27  49  74 108 145 195 246 299 371 431
#     4  12  28  51  75 109 148 190 252 299 365 443
#     4  11  25  45  70 107 147 192 248 288 371 440
#
# _framework density 23.288443999999998
#
# number of rings (size 3 to 8) (size 9 to 14) (size 15 to 20)
#    0.000    0.500    3.750    3.000   10.500    3.500 
#    0.000    0.000    0.000    0.000    0.000    0.000 
#    0.000    0.000    0.000    0.000    0.000    0.000 
#
# Total GULP energy -89630.143898 kJ/mol
# GULP energy per Si atom -5601.883994 kJ/mol
# Density = 2.323544 g / cm^3
# Si number density = 23.288444 Si / 1000 Ang^3
#
#
#
# Elastic Constant Matrix: (Units=GPa)
#
#
# Indices 1 2 3 4 5 6 
#
# 1 78.8340 34.1700 24.3687 -2.7731 -32.2670 -1.8885
# 2 34.1700 148.2926 35.4524 -9.0833 -23.2472 11.6022
# 3 24.3687 35.4524 82.0659 -0.1230 -28.5629 7.1733
# 4 -2.7731 -9.0833 -0.1230 43.4653 0.2204 -0.8698
# 5 -32.2670 -23.2472 -28.5629 0.2204 48.3635 1.8081
# 6 -1.8885 11.6022 7.1733 -0.8698 1.8081 29.5782
#
#
#
# Elastic Compliance Matrix: (Units=1/GPa)
#
#
# Indices 1 2 3 4 5 6 
#
# 1 0.018389 -0.002478 -0.000893 0.000635 0.010483 0.001740
# 2 -0.002478 0.008345 -0.002209 0.001515 0.001156 -0.002922
# 3 -0.000893 -0.002209 0.016621 -0.000589 0.008301 -0.003746
# 4 0.000635 0.001515 -0.000589 0.023364 0.000689 0.000234
# 5 0.010483 0.001156 0.008301 0.000689 0.033268 -0.003811
# 6 0.001740 -0.002922 -0.003746 0.000234 -0.003811 0.036214
#
#
# Mechanical properties :
#
#
# Convention : Reuss Voigt Hill
#
# Bulk Modulus (GPa) = 31.06081 55.24165 43.15123
# Shear Modulus (GPa) = 31.62702 38.62816 35.12759
#
# Velocity S-wave (km/s) = 3.68918 4.07711 3.88799
# Velocity P-wave (km/s) = 5.61365 6.77760 6.22290
#
# Compressibility (1/GPa) = 0.03219491
#
# Stress axis : x y z
#
# Youngs Moduli (GPa) = 54.37887 119.82973 60.16635
#
# Poissons Ratio (x) = 0.29692 0.05372
# Poissons Ratio (y) = 0.13474 0.13293
# Poissons Ratio (z) = 0.04855 0.26476
#
# Static dielectric constant tensor:
#      x y z
#    x 1.891970 0.005550 -0.007470 
#    y 0.005550 1.846990 0.008970 
#    z -0.007470 0.008970 1.914020 
# 
# From -- ./inp_files/319350.got.cif
#   From: 2010.05.17/outbox.cif.g08.bks.cpg/sg2_160_cif.got.tgz:319350.got - 2010.06.03 11:33:40.
