data_PCOD9046057
_publ_section_title
;
Structure prediction by ZEFSAII (Michael W. Deem and Ramdas Pophale) SiO2 
 PCOD9046057
Probable space group: P -1
;
_chemical_formula_sum "Si O2"
_cell_formula_units_Z 15
_cell_length_a 5.491368
_cell_length_b 10.488759
_cell_length_c 12.369835
_cell_angle_alpha 65.403495
_cell_angle_beta 97.717379
_cell_angle_gamma 113.715543
_cell_volume 592.648479
_symmetry_space_group_name_H-M "P -1"
_symmetry_group_IT_number 2
_symmetry_cell_setting 'triclinic'
loop_
_space_group_symop_operation_xyz
x,y,z
-x,-y,-z
loop_
_atom_site_type_symbol
_atom_site_label
_atom_site_fract_x
_atom_site_fract_y
_atom_site_fract_z
Si Si1 0.648299 0.466656 0.234434
Si Si2 0.947840 0.609270 0.568643
Si Si3 0.000000 0.000000 0.000000
Si Si4 0.683387 0.278115 0.622221
Si Si5 0.011318 0.694438 0.002937
Si Si6 0.105231 0.261144 0.251566
Si Si7 0.278120 0.016461 0.565678
Si Si8 0.502275 0.245922 0.851681
O O1 0.816286 0.437384 0.351621
O O2 0.423530 0.304278 0.242891
O O3 0.538868 0.596347 0.215415
O O4 0.839302 0.552098 0.117161
O O5 0.069645 0.720743 0.436230
O O6 0.728792 0.453770 0.569975
O O7 0.878333 0.676450 0.647583
O O8 0.233215 0.100519 0.894404
O O9 0.052787 0.160095 0.015744
O O10 0.667283 0.227049 0.763418
O O11 0.426830 0.174912 0.578266
O O12 0.316922 0.740140 0.038054
O O13 0.948606 0.661591 0.885717
O O14 0.843548 0.108015 0.303029
O O15 0.500000 0.000000 0.500000
O O16 0.000000 0.000000 0.500000
#
# Coordination Sequence:
#
# PCOD9046057 Si02
#       8
#     2   2   1   2   2   2   2   2
#     4  11  23  43  70 106 138 186 248 302 376 443
#     4  11  24  44  73 107 140 188 249 298 377 441
#     4  10  24  42  66  98 132 188 240 282 372 432
#     4  11  23  48  72 105 144 193 243 310 366 448
#     4  11  24  45  69 102 146 185 246 305 369 449
#     4  12  25  46  71 107 145 193 244 312 372 445
#     4  12  28  52  74 110 152 199 253 309 387 452
#     4  11  23  45  68 106 139 190 240 302 372 443
#
# _framework density 25.310113000000001
#
# number of rings (size 3 to 8) (size 9 to 14) (size 15 to 20)
#    0.000    0.800    4.000    2.400    0.000    5.867 
#    4.800    0.000    0.000    0.000    0.000    0.000 
#    0.000    0.000    0.000    0.000    0.000    0.000 
#
# Total GULP energy -83533.447323 kJ/mol
# GULP energy per Si atom -5568.896488 kJ/mol
# Density = 2.525251 g / cm^3
# Si number density = 25.310113 Si / 1000 Ang^3
#
#
#
# Elastic Constant Matrix: (Units=GPa)
#
#
# Indices 1 2 3 4 5 6 
#
# 1 73.8206 39.6311 25.4800 -7.3133 -4.6683 8.9724
# 2 39.6311 145.7836 20.3169 -1.2233 -15.7768 31.9256
# 3 25.4800 20.3169 116.7859 -7.3961 -26.9517 12.9044
# 4 -7.3133 -1.2233 -7.3961 28.7548 20.7488 -13.4746
# 5 -4.6683 -15.7768 -26.9517 20.7488 42.8240 -3.6118
# 6 8.9724 31.9256 12.9044 -13.4746 -3.6118 35.3622
#
#
#
# Elastic Compliance Matrix: (Units=1/GPa)
#
#
# Indices 1 2 3 4 5 6 
#
# 1 0.018954 -0.007102 -0.005169 0.014025 -0.009939 0.007818
# 2 -0.007102 0.013350 0.003028 -0.017978 0.013340 -0.016843
# 3 -0.005169 0.003028 0.012528 -0.011988 0.013471 -0.009186
# 4 0.014025 -0.017978 -0.011988 0.097459 -0.055770 0.048487
# 5 -0.009939 0.013340 0.013471 -0.055770 0.060190 -0.029540
# 6 0.007818 -0.016843 -0.009186 0.048487 -0.029540 0.060312
#
#
# Mechanical properties :
#
#
# Convention : Reuss Voigt Hill
#
# Bulk Modulus (GPa) = 37.95754 56.36067 47.15911
# Shear Modulus (GPa) = 17.23770 38.11901 27.67836
#
# Velocity S-wave (km/s) = 2.61254 3.88503 3.31050
# Velocity P-wave (km/s) = 4.91224 6.51468 5.76936
#
# Compressibility (1/GPa) = 0.02634523
#
# Stress axis : x y z
#
# Youngs Moduli (GPa) = 52.75895 74.90914 79.81965
#
# Poissons Ratio (x) = 0.53203 0.41261
# Poissons Ratio (y) = 0.37471 -0.24171
# Poissons Ratio (z) = 0.27272 -0.22684
#
# Static dielectric constant tensor:
#      x y z
#    x 2.115840 -0.042050 -0.038580 
#    y -0.042050 2.016580 -0.053270 
#    z -0.038580 -0.053270 1.991870 
# 
# From -- ./inp_files/362812.got.cif
#   From: 2010.05.17/outbox.cif.g08.bks.cpg/sg2_182_cif.got.tgz:362812.got - 2010.06.03 11:33:40.
