data_PCOD9046573
_publ_section_title
;
Structure prediction by ZEFSAII (Michael W. Deem and Ramdas Pophale) SiO2 
 PCOD9046573
Probable space group: P -1
;
_chemical_formula_sum "Si O2"
_cell_formula_units_Z 14
_cell_length_a 20.956061
_cell_length_b 4.930965
_cell_length_c 18.127240
_cell_angle_alpha 99.633585
_cell_angle_beta 19.418549
_cell_angle_gamma 92.080995
_cell_volume 570.228459
_symmetry_space_group_name_H-M "P -1"
_symmetry_group_IT_number 2
_symmetry_cell_setting 'triclinic'
loop_
_space_group_symop_operation_xyz
x,y,z
-x,-y,-z
loop_
_atom_site_type_symbol
_atom_site_label
_atom_site_fract_x
_atom_site_fract_y
_atom_site_fract_z
Si Si1 0.560700 0.685751 0.381457
Si Si2 0.136270 0.099821 0.123046
Si Si3 0.062172 0.559824 0.353676
Si Si4 0.997092 0.387671 0.817636
Si Si5 0.582036 0.095508 0.609549
Si Si6 0.507636 0.541680 0.845708
Si Si7 0.355981 0.989671 0.225102
O O1 0.500000 0.500000 0.500000
O O2 0.435657 0.750315 0.443673
O O3 0.500000 0.000000 0.500000
O O4 0.803003 0.525498 0.090337
O O5 0.102282 0.274719 0.244722
O O6 0.001488 0.337510 0.220108
O O7 0.070625 0.820442 0.174372
O O8 0.376490 0.013855 0.835696
O O9 0.000000 0.500000 0.500000
O O10 0.873823 0.832836 0.540338
O O11 0.267549 0.633627 0.130651
O O12 0.207922 0.183732 0.617505
O O13 0.554008 0.343253 0.713582
O O14 0.578002 0.818205 0.777191
O O15 0.617049 0.324850 0.784626
O O16 0.500000 0.000000 0.000000
#
# Coordination Sequence:
#
# PCOD9046573 Si02
#       7
#     2   2   2   2   2   2   2
#     4  11  25  44  67 104 138 163 212 273 325 397
#     4  10  24  43  64  99 132 171 229 278 314 392
#     4  11  24  42  65  95 132 179 222 280 340 379
#     4  11  23  45  71  95 132 176 216 266 329 390
#     4  10  24  44  72  96 131 180 221 263 331 397
#     4  11  26  45  66  96 130 177 229 273 325 396
#     4  12  25  43  63  94 134 169 225 285 326 383
#
# _framework density 24.551566000000001
#
# number of rings (size 3 to 8) (size 9 to 14) (size 15 to 20)
#    0.000    1.143    1.429    3.857    0.000   14.286 
#    0.000    0.000    0.000    0.000    0.000    0.000 
#    0.000    0.000    0.000    0.000    0.000    0.000 
#
# Total GULP energy -78629.903529 kJ/mol
# GULP energy per Si atom -5616.421681 kJ/mol
# Density = 2.449569 g / cm^3
# Si number density = 24.551566 Si / 1000 Ang^3
#
#
#
# Elastic Constant Matrix: (Units=GPa)
#
#
# Indices 1 2 3 4 5 6 
#
# 1 120.9528 27.0685 72.6017 8.5688 7.1342 -33.3400
# 2 27.0685 112.2876 35.0993 3.8567 1.8028 -12.1977
# 3 72.6017 35.0993 176.5588 18.4826 -19.6800 -19.9840
# 4 8.5688 3.8567 18.4826 35.3121 -3.5692 0.1127
# 5 7.1342 1.8028 -19.6800 -3.5692 58.6580 -3.7695
# 6 -33.3400 -12.1977 -19.9840 0.1127 -3.7695 32.7355
#
#
#
# Elastic Compliance Matrix: (Units=1/GPa)
#
#
# Indices 1 2 3 4 5 6 
#
# 1 0.014714 -0.000718 -0.004772 -0.001305 -0.002709 0.011498
# 2 -0.000718 0.009766 -0.001473 -0.000188 -0.000594 0.001941
# 3 -0.004772 -0.001473 0.008621 -0.002854 0.003360 0.000251
# 4 -0.001305 -0.000188 -0.002854 0.030246 0.000845 -0.003148
# 5 -0.002709 -0.000594 0.003360 0.000845 0.018653 0.001216
# 6 0.011498 0.001941 0.000251 -0.003148 0.001216 0.043285
#
#
# Mechanical properties :
#
#
# Convention : Reuss Voigt Hill
#
# Bulk Modulus (GPa) = 52.15146 75.48203 63.81674
# Shear Modulus (GPa) = 34.34033 43.67644 39.00838
#
# Velocity S-wave (km/s) = 3.74398 4.22236 3.99034
# Velocity P-wave (km/s) = 6.32278 7.38797 6.87603
#
# Compressibility (1/GPa) = 0.01917492
#
# Stress axis : x y z
#
# Youngs Moduli (GPa) = 67.96168 102.39557 116.00207
#
# Poissons Ratio (x) = 0.07354 0.55353
# Poissons Ratio (y) = 0.04881 0.17088
# Poissons Ratio (z) = 0.32429 0.15083
#
# Static dielectric constant tensor:
#      x y z
#    x 1.968940 0.009700 0.002620 
#    y 0.009700 1.895610 0.003970 
#    z 0.002620 0.003970 1.945810 
# 
# From -- ./inp_files/576618.got.cif
#   From: 2010.05.17/outbox.cif.g08.bks.cpg/sg2_289_cif.got.tgz:576618.got - 2010.06.03 11:33:40.
