data_PCOD9046782
_publ_section_title
;
Structure prediction by ZEFSAII (Michael W. Deem and Ramdas Pophale) SiO2 
 PCOD9046782
Probable space group: P -1
;
_chemical_formula_sum "Si O2"
_cell_formula_units_Z 14
_cell_length_a 8.896868
_cell_length_b 5.296210
_cell_length_c 16.156094
_cell_angle_alpha 95.824808
_cell_angle_beta 56.993936
_cell_angle_gamma 121.603892
_cell_volume 525.381861
_symmetry_space_group_name_H-M "P -1"
_symmetry_group_IT_number 2
_symmetry_cell_setting 'triclinic'
loop_
_space_group_symop_operation_xyz
x,y,z
-x,-y,-z
loop_
_atom_site_type_symbol
_atom_site_label
_atom_site_fract_x
_atom_site_fract_y
_atom_site_fract_z
Si Si1 0.166450 0.224184 0.766143
Si Si2 0.932674 0.542284 0.848244
Si Si3 0.232765 0.441102 0.942145
Si Si4 0.501356 0.752133 0.579515
Si Si5 0.277737 0.711571 0.346791
Si Si6 0.491174 0.167993 0.885309
Si Si7 0.163490 0.373673 0.535945
O O1 0.191814 0.306480 0.858078
O O2 0.384684 0.433064 0.656081
O O3 0.020717 0.344450 0.785573
O O4 0.052202 0.865870 0.777657
O O5 0.678518 0.335351 0.901868
O O6 0.957499 0.612207 0.941570
O O7 0.321710 0.257105 0.954170
O O8 0.395063 0.808966 0.898949
O O9 0.335698 0.670539 0.550864
O O10 0.736849 0.827408 0.486243
O O11 0.542625 0.994516 0.644288
O O12 0.391627 0.684114 0.232603
O O13 0.182116 0.445053 0.434745
O O14 0.082791 0.741844 0.376228
#
# Coordination Sequence:
#
# PCOD9046782 Si02
#       7
#     2   2   2   2   2   2   2
#     4  12  25  44  71 101 142 182 230 291 347 415
#     4  12  26  45  69 106 138 184 235 287 347 420
#     4  12  24  46  71 102 139 186 231 287 350 416
#     4  11  23  44  69  98 140 177 236 282 356 411
#     4  11  23  44  67 101 137 179 235 283 355 412
#     4  12  25  44  73 100 143 183 231 290 349 417
#     4  10  24  43  68 101 131 184 227 295 343 421
#
# _framework density 26.647282000000001
#
# number of rings (size 3 to 8) (size 9 to 14) (size 15 to 20)
#    0.000    0.571    1.429    6.857    2.000    0.000 
#   10.286    0.000    0.000    0.000    0.000    0.000 
#    0.000    0.000    0.000    0.000    0.000    0.000 
#
# Total GULP energy -78459.853917 kJ/mol
# GULP energy per Si atom -5604.275280 kJ/mol
# Density = 2.658663 g / cm^3
# Si number density = 26.647282 Si / 1000 Ang^3
#
#
#
# Elastic Constant Matrix: (Units=GPa)
#
#
# Indices 1 2 3 4 5 6 
#
# 1 122.3282 42.0890 19.9856 11.5450 -8.8442 2.6804
# 2 42.0890 109.0376 -14.7606 -14.5438 5.2369 5.4565
# 3 19.9856 -14.7606 90.6560 6.2021 2.2203 3.9373
# 4 11.5450 -14.5438 6.2021 36.4826 3.2651 4.5415
# 5 -8.8442 5.2369 2.2203 3.2651 43.1914 10.2520
# 6 2.6804 5.4565 3.9373 4.5415 10.2520 44.1304
#
#
#
# Elastic Compliance Matrix: (Units=1/GPa)
#
#
# Indices 1 2 3 4 5 6 
#
# 1 0.011500 -0.005814 -0.003180 -0.005748 0.003646 0.000049
# 2 -0.005814 0.012983 0.003061 0.006961 -0.003086 -0.001525
# 3 -0.003180 0.003061 0.012282 0.000391 -0.001449 -0.000985
# 4 -0.005748 0.006961 0.000391 0.032654 -0.003791 -0.003026
# 5 0.003646 -0.003086 -0.001449 -0.003791 0.025902 -0.005338
# 6 0.000049 -0.001525 -0.000985 -0.003026 -0.005338 0.024485
#
#
# Mechanical properties :
#
#
# Convention : Reuss Voigt Hill
#
# Bulk Modulus (GPa) = 40.16234 46.29441 43.22838
# Shear Modulus (GPa) = 35.72219 43.07473 39.39846
#
# Velocity S-wave (km/s) = 3.66533 4.02491 3.84932
# Velocity P-wave (km/s) = 5.74608 6.24584 6.00117
#
# Compressibility (1/GPa) = 0.02489895
#
# Stress axis : x y z
#
# Youngs Moduli (GPa) = 86.95950 77.02601 81.42228
#
# Poissons Ratio (x) = 0.44780 0.25891
# Poissons Ratio (y) = 0.50555 -0.24924
# Poissons Ratio (z) = 0.27652 -0.23578
#
# Static dielectric constant tensor:
#      x y z
#    x 2.173870 -0.041230 0.013300 
#    y -0.041230 2.061110 0.005560 
#    z 0.013300 0.005560 2.084150 
# 
# From -- ./inp_files/49199.got.cif
#   From: 2010.05.17/outbox.cif.g08.bks.cpg/sg2_25_cif.got.tgz:49199.got - 2010.06.03 11:33:40.
