data_PCOD9046365
_publ_section_title
;
Structure prediction by ZEFSAII (Michael W. Deem and Ramdas Pophale) SiO2 
 PCOD9046365
Probable space group: P -1
;
_chemical_formula_sum "Si O2"
_cell_formula_units_Z 14
_cell_length_a 9.375513
_cell_length_b 11.922193
_cell_length_c 18.389863
_cell_angle_alpha 28.240330
_cell_angle_beta 142.332438
_cell_angle_gamma 131.018226
_cell_volume 588.333526
_symmetry_space_group_name_H-M "P -1"
_symmetry_group_IT_number 2
_symmetry_cell_setting 'triclinic'
loop_
_space_group_symop_operation_xyz
x,y,z
-x,-y,-z
loop_
_atom_site_type_symbol
_atom_site_label
_atom_site_fract_x
_atom_site_fract_y
_atom_site_fract_z
Si Si1 0.016014 0.437425 0.456695
Si Si2 0.247290 0.672343 0.971503
Si Si3 0.514304 0.903200 0.201826
Si Si4 0.565769 0.194033 0.359036
Si Si5 0.889429 0.306269 0.927118
Si Si6 0.820167 0.085567 0.814013
Si Si7 0.884808 0.844372 0.600452
O O1 0.234714 0.239720 0.636539
O O2 0.091467 0.675635 0.315504
O O3 0.000000 0.500000 0.500000
O O4 0.782892 0.330484 0.396541
O O5 0.047088 0.795670 0.766003
O O6 0.462453 0.824002 0.962579
O O7 0.350241 0.404896 0.142254
O O8 0.156367 0.671689 0.017664
O O9 0.326168 0.811786 0.125155
O O10 0.429906 0.875281 0.267020
O O11 0.500000 0.000000 0.500000
O O12 0.650701 0.020808 0.425594
O O13 0.868461 0.569289 0.731478
O O14 0.121480 0.126065 0.100400
O O15 0.000000 0.000000 0.000000
O O16 0.000000 0.000000 0.500000
#
# Coordination Sequence:
#
# PCOD9046365 Si02
#       7
#     2   2   2   2   2   2   2
#     4  12  25  45  74 111 148 193 254 303 366 448
#     4  12  25  50  76 107 151 197 248 311 368 441
#     4  11  24  44  77 111 149 191 247 315 368 432
#     4  12  27  49  75 110 151 197 252 303 371 446
#     4  11  24  48  74 108 147 197 252 297 375 449
#     4  10  24  42  71 105 145 189 241 308 368 429
#     4  12  30  49  74 109 154 195 250 310 373 448
#
# _framework density 23.796025
#
# number of rings (size 3 to 8) (size 9 to 14) (size 15 to 20)
#    0.000    0.571    2.857    4.714    6.000    1.714 
#    0.000    0.000    0.000    0.000    0.000    0.000 
#    0.000    0.000    0.000    0.000    0.000    0.000 
#
# Total GULP energy -78362.664661 kJ/mol
# GULP energy per Si atom -5597.333190 kJ/mol
# Density = 2.374186 g / cm^3
# Si number density = 23.796025 Si / 1000 Ang^3
#
#
#
# Elastic Constant Matrix: (Units=GPa)
#
#
# Indices 1 2 3 4 5 6 
#
# 1 166.3365 35.4696 61.1676 -17.1996 1.1230 14.0045
# 2 35.4696 126.7389 50.1273 -25.7409 8.8009 13.2022
# 3 61.1676 50.1273 137.0291 -34.3807 -0.0938 -0.5143
# 4 -17.1996 -25.7409 -34.3807 52.7422 8.3073 -6.1923
# 5 1.1230 8.8009 -0.0938 8.3073 52.3573 -13.4047
# 6 14.0045 13.2022 -0.5143 -6.1923 -13.4047 38.7940
#
#
#
# Elastic Compliance Matrix: (Units=1/GPa)
#
#
# Indices 1 2 3 4 5 6 
#
# 1 0.007541 -0.000500 -0.003219 -0.000095 -0.000808 -0.002889
# 2 -0.000500 0.010432 -0.002826 0.003128 -0.003279 -0.004041
# 3 -0.003219 -0.002826 0.011052 0.005067 0.000601 0.003287
# 4 -0.000095 0.003128 0.005067 0.024576 -0.004011 0.001573
# 5 -0.000808 -0.003279 0.000601 -0.004011 0.022494 0.008548
# 6 -0.002889 -0.004041 0.003287 0.001573 0.008548 0.031444
#
#
# Mechanical properties :
#
#
# Convention : Reuss Voigt Hill
#
# Bulk Modulus (GPa) = 62.74563 80.40373 71.57468
# Shear Modulus (GPa) = 39.70221 47.66802 43.68511
#
# Velocity S-wave (km/s) = 4.08908 4.48056 4.28929
# Velocity P-wave (km/s) = 6.97994 7.78648 7.39421
#
# Compressibility (1/GPa) = 0.01593737
#
# Stress axis : x y z
#
# Youngs Moduli (GPa) = 132.60948 95.86294 90.48049
#
# Poissons Ratio (x) = 0.04789 0.29122
# Poissons Ratio (y) = 0.06625 0.25565
# Poissons Ratio (z) = 0.42681 0.27086
#
# Static dielectric constant tensor:
#      x y z
#    x 1.765690 -0.038150 0.041960 
#    y -0.038150 1.922960 0.047090 
#    z 0.041960 0.047090 1.893920 
# 
# From -- ./inp_files/559614.got.cif
#   From: 2010.05.17/outbox.cif.g08.bks.cpg/sg2_280_cif.got.tgz:559614.got - 2010.06.03 11:33:40.
