data_PCOD9046762
_publ_section_title
;
Structure prediction by ZEFSAII (Michael W. Deem and Ramdas Pophale) SiO2 
 PCOD9046762
Probable space group: P -1
;
_chemical_formula_sum "Si O2"
_cell_formula_units_Z 14
_cell_length_a 20.326618
_cell_length_b 14.040129
_cell_length_c 11.465552
_cell_angle_alpha 41.227082
_cell_angle_beta 155.998700
_cell_angle_gamma 151.462052
_cell_volume 614.063418
_symmetry_space_group_name_H-M "P -1"
_symmetry_group_IT_number 2
_symmetry_cell_setting 'triclinic'
loop_
_space_group_symop_operation_xyz
x,y,z
-x,-y,-z
loop_
_atom_site_type_symbol
_atom_site_label
_atom_site_fract_x
_atom_site_fract_y
_atom_site_fract_z
Si Si1 0.365622 0.745388 0.630066
Si Si2 0.976951 0.009754 0.694900
Si Si3 0.752464 0.414766 0.169019
Si Si4 0.410387 0.379357 0.196410
Si Si5 0.851222 0.644669 0.516435
Si Si6 0.131950 0.824998 0.022699
Si Si7 0.478413 0.315161 0.606398
O O1 0.381324 0.747915 0.792359
O O2 0.254284 0.531691 0.587784
O O3 0.194178 0.757784 0.290011
O O4 0.623510 0.943356 0.823083
O O5 0.002694 0.140542 0.512044
O O6 0.767275 0.897188 0.547755
O O7 0.217236 0.173688 0.000623
O O8 0.957659 0.837683 0.770440
O O9 0.000000 0.500000 0.500000
O O10 0.717331 0.561291 0.011491
O O11 0.660577 0.346255 0.951836
O O12 0.623828 0.558458 0.294811
O O13 0.495712 0.326435 0.485362
O O14 0.017974 0.687207 0.848056
O O15 0.500000 0.500000 0.500000
#
# Coordination Sequence:
#
# PCOD9046762 Si02
#       7
#     2   2   2   2   2   2   2
#     4  11  24  44  65 103 144 177 231 284 354 407
#     4  12  22  43  72 100 138 180 238 286 341 416
#     4  11  24  43  67  92 139 183 225 283 345 407
#     4  11  23  43  72 103 134 178 236 286 342 412
#     4  12  23  44  75 102 139 179 236 289 345 409
#     4  11  24  39  68 105 139 181 223 290 351 414
#     4  10  24  43  67  99 132 183 237 276 341 416
#
# _framework density 22.798946999999998
#
# number of rings (size 3 to 8) (size 9 to 14) (size 15 to 20)
#    0.000    0.857    2.857    5.143    6.000    0.000 
#    0.000    0.714    0.000    0.000    0.000    0.000 
#    0.000    0.000    0.000    0.000    0.000    0.000 
#
# Total GULP energy -78249.000923 kJ/mol
# GULP energy per Si atom -5589.214352 kJ/mol
# Density = 2.274706 g / cm^3
# Si number density = 22.798947 Si / 1000 Ang^3
#
#
#
# Elastic Constant Matrix: (Units=GPa)
#
#
# Indices 1 2 3 4 5 6 
#
# 1 44.5557 33.7743 6.0737 -16.1956 -19.3924 33.4054
# 2 33.7743 55.6392 47.9100 1.8656 2.3032 17.3182
# 3 6.0737 47.9100 78.2203 -11.2725 -35.7173 20.5917
# 4 -16.1956 1.8656 -11.2725 31.5372 4.1790 -4.4382
# 5 -19.3924 2.3032 -35.7173 4.1790 52.7251 0.4386
# 6 33.4054 17.3182 20.5917 -4.4382 0.4386 28.4434
#
#
#
# Elastic Compliance Matrix: (Units=1/GPa)
#
#
# Indices 1 2 3 4 5 6 
#
# 1 -0.002749 0.018631 -0.020904 -0.007069 -0.015477 0.006154
# 2 0.018631 0.013193 0.003322 0.004386 0.008443 -0.031765
# 3 -0.020904 0.003322 0.004740 -0.006106 -0.004290 0.018210
# 4 -0.007069 0.004386 -0.006106 0.028945 -0.009345 0.014713
# 5 -0.015477 0.008443 -0.004290 -0.009345 0.010619 0.014520
# 6 0.006154 -0.031765 0.018210 0.014713 0.014520 0.036159
#
#
# Mechanical properties :
#
#
# Convention : Reuss Voigt Hill
#
# Bulk Modulus (GPa) = 57.86213 39.32571 48.59392
# Shear Modulus (GPa) = 52.87127 28.58497 40.72812
#
# Velocity S-wave (km/s) = 4.82085 3.54472 4.23117
# Velocity P-wave (km/s) = 7.51145 5.83436 6.72538
#
# Compressibility (1/GPa) = 0.01728246
#
# Stress axis : x y z
#
# Youngs Moduli (GPa) = -363.73261 75.79580 210.97331
#
# Poissons Ratio (x) = -1.41217 4.41021
# Poissons Ratio (y) = 6.77678 -0.70088
# Poissons Ratio (z) = -7.60351 -0.25180
#
# Static dielectric constant tensor:
#      x y z
#    x 1.910430 0.002710 0.005310 
#    y 0.002710 1.833540 -0.017740 
#    z 0.005310 -0.017740 1.859390 
# 
# From -- ./inp_files/187134.got.cif
#   From: 2010.05.17/outbox.cif.g08.bks.cpg/sg2_94_cif.got.tgz:187134.got - 2010.06.03 11:33:40.
