data_PCOD9046835
_publ_section_title
;
Structure prediction by ZEFSAII (Michael W. Deem and Ramdas Pophale) SiO2 
 PCOD9046835
Probable space group: P -1
;
_chemical_formula_sum "Si O2"
_cell_formula_units_Z 16
_cell_length_a 14.224564
_cell_length_b 8.047407
_cell_length_c 22.692097
_cell_angle_alpha 114.831466
_cell_angle_beta 157.931477
_cell_angle_gamma 77.167161
_cell_volume 772.109898
_symmetry_space_group_name_H-M "P -1"
_symmetry_group_IT_number 2
_symmetry_cell_setting 'triclinic'
loop_
_space_group_symop_operation_xyz
x,y,z
-x,-y,-z
loop_
_atom_site_type_symbol
_atom_site_label
_atom_site_fract_x
_atom_site_fract_y
_atom_site_fract_z
Si Si1 0.410073 0.368622 0.584050
Si Si2 0.145285 0.571787 0.876155
Si Si3 0.945265 0.390550 0.605588
Si Si4 0.122952 0.159715 0.188244
Si Si5 0.257310 0.240877 0.684405
Si Si6 0.928492 0.756427 0.965417
Si Si7 0.595328 0.898505 0.365484
Si Si8 0.603728 0.223939 0.563609
O O1 0.226817 0.487640 0.493115
O O2 0.280433 0.146705 0.509365
O O3 0.506648 0.342069 0.571508
O O4 0.703333 0.518712 0.811684
O O5 0.119876 0.505549 0.783403
O O6 0.000477 0.716037 0.828207
O O7 0.938598 0.361494 0.762718
O O8 0.469879 0.698981 0.106216
O O9 0.130224 0.384833 0.656714
O O10 0.752364 0.142848 0.473653
O O11 0.420607 0.202016 0.395697
O O12 0.904100 0.910741 0.021249
O O13 0.150675 0.213322 0.143009
O O14 0.370102 0.247507 0.685223
O O15 0.000000 0.000000 0.500000
O O16 0.261237 0.826119 0.167287
O O17 0.500000 0.000000 0.500000
#
# Coordination Sequence:
#
# PCOD9046835 Si02
#       8
#     2   2   2   2   2   2   2   2
#     4  12  23  38  65  95 131 172 209 263 331 391
#     4  12  21  42  67  93 129 170 213 267 325 387
#     4  11  24  42  67  89 126 173 223 267 316 378
#     4  11  21  36  63  93 131 166 210 253 324 400
#     4  10  24  43  68  91 123 174 227 273 316 363
#     4  11  21  36  62  96 129 167 208 261 329 394
#     4  11  23  42  62  95 133 166 216 273 317 384
#     4  12  24  39  62 102 139 165 204 263 333 402
#
# _framework density 20.722438
#
# number of rings (size 3 to 8) (size 9 to 14) (size 15 to 20)
#    0.000    0.750    3.750    5.625    1.750    1.500 
#    0.000    0.000    5.500    4.500    0.000    0.000 
#    0.000    0.000    0.000    0.000    0.000    0.000 
#
# Total GULP energy -89306.761803 kJ/mol
# GULP energy per Si atom -5581.672613 kJ/mol
# Density = 2.067527 g / cm^3
# Si number density = 20.722438 Si / 1000 Ang^3
#
#
#
# Elastic Constant Matrix: (Units=GPa)
#
#
# Indices 1 2 3 4 5 6 
#
# 1 86.1991 43.4718 20.4287 -3.0847 -14.3358 -29.4381
# 2 43.4718 92.1719 43.1932 0.2807 -0.4835 -5.6289
# 3 20.4287 43.1932 113.4655 0.7042 -7.8882 -1.1539
# 4 -3.0847 0.2807 0.7042 26.2028 -7.4912 -6.6128
# 5 -14.3358 -0.4835 -7.8882 -7.4912 26.9609 0.0789
# 6 -29.4381 -5.6289 -1.1539 -6.6128 0.0789 41.2459
#
#
#
# Elastic Compliance Matrix: (Units=1/GPa)
#
#
# Indices 1 2 3 4 5 6 
#
# 1 0.028582 -0.012678 0.001140 0.014246 0.019201 0.020949
# 2 -0.012678 0.018986 -0.005663 -0.006256 -0.009773 -0.007600
# 3 0.001140 -0.005663 0.011044 0.001195 0.004066 0.000533
# 4 0.014246 -0.006256 0.001195 0.050498 0.021793 0.017402
# 5 0.019201 -0.009773 0.004066 0.021793 0.054323 0.015874
# 6 0.020949 -0.007600 0.000533 0.017402 0.015874 0.040934
#
#
# Mechanical properties :
#
#
# Convention : Reuss Voigt Hill
#
# Bulk Modulus (GPa) = 41.30461 56.22487 48.76474
# Shear Modulus (GPa) = 20.25613 31.19813 25.72713
#
# Velocity S-wave (km/s) = 3.12989 3.88432 3.52733
# Velocity P-wave (km/s) = 5.74780 6.87812 6.33820
#
# Compressibility (1/GPa) = 0.02421037
#
# Stress axis : x y z
#
# Youngs Moduli (GPa) = 34.98727 52.67072 90.54320
#
# Poissons Ratio (x) = 0.66774 -0.10318
# Poissons Ratio (y) = 0.44356 0.51273
# Poissons Ratio (z) = -0.03987 0.29826
#
# Static dielectric constant tensor:
#      x y z
#    x 1.768470 0.016970 0.010710 
#    y 0.016970 1.834430 0.039850 
#    z 0.010710 0.039850 1.758100 
# 
# From -- ./inp_files/611771.got.cif
#   From: 2010.05.17/outbox.cif.g08.bks.cpg/sg2_306_cif.got.tgz:611771.got - 2010.06.03 11:33:40.
