data_PCOD9046694
_publ_section_title
;
Structure prediction by ZEFSAII (Michael W. Deem and Ramdas Pophale) SiO2 
 PCOD9046694
Probable space group: P -1
;
_chemical_formula_sum "Si O2"
_cell_formula_units_Z 12
_cell_length_a 12.679708
_cell_length_b 7.010090
_cell_length_c 15.177905
_cell_angle_alpha 111.830174
_cell_angle_beta 29.987001
_cell_angle_gamma 131.374676
_cell_volume 427.492132
_symmetry_space_group_name_H-M "P -1"
_symmetry_group_IT_number 2
_symmetry_cell_setting 'triclinic'
loop_
_space_group_symop_operation_xyz
x,y,z
-x,-y,-z
loop_
_atom_site_type_symbol
_atom_site_label
_atom_site_fract_x
_atom_site_fract_y
_atom_site_fract_z
Si Si1 0.768816 0.082706 0.011481
Si Si2 0.266652 0.465737 0.371185
Si Si3 0.989235 0.446004 0.273363
Si Si4 0.344794 0.223102 0.127712
Si Si5 0.321212 0.538796 0.810079
Si Si6 0.548701 0.778087 0.506320
O O1 0.462822 0.761619 0.218659
O O2 0.829030 0.041717 0.862324
O O3 0.949948 0.555632 0.410778
O O4 0.779258 0.336474 0.039909
O O5 0.490575 0.495534 0.278999
O O6 0.157197 0.209983 0.337229
O O7 0.031537 0.224567 0.918462
O O8 0.715946 0.332442 0.387320
O O9 0.356408 0.683492 0.035610
O O10 0.864709 0.120510 0.315635
O O11 0.500000 0.500000 0.000000
O O12 0.491044 0.784115 0.651303
O O13 0.500000 0.500000 0.500000
#
# Coordination Sequence:
#
# PCOD9046694 Si02
#       6
#     2   2   2   2   2   2
#     4  10  24  43  67 101 139 180 228 284 337 407
#     4  11  23  45  71 101 134 183 226 281 345 399
#     4  11  25  46  70 101 142 178 233 283 340 410
#     4  10  26  46  70 100 140 189 221 278 351 406
#     4  11  23  42  71 104 132 180 236 281 338 407
#     4  11  24  42  70 107 137 180 231 291 339 398
#
# _framework density 28.070692000000001
#
# number of rings (size 3 to 8) (size 9 to 14) (size 15 to 20)
#    0.000    1.333    3.333    0.500    9.333    3.333 
#    0.000    0.833    0.000    0.000    0.000    0.000 
#    0.000    0.000    0.000    0.000    0.000    0.000 
#
# Total GULP energy -67158.804107 kJ/mol
# GULP energy per Si atom -5596.567009 kJ/mol
# Density = 2.800680 g / cm^3
# Si number density = 28.070692 Si / 1000 Ang^3
#
#
#
# Elastic Constant Matrix: (Units=GPa)
#
#
# Indices 1 2 3 4 5 6 
#
# 1 165.7137 49.7819 13.2221 5.5562 -18.6233 19.7587
# 2 49.7819 223.2707 34.7197 18.1476 -16.4562 20.5282
# 3 13.2221 34.7197 64.5085 -4.5050 -12.4329 13.7689
# 4 5.5562 18.1476 -4.5050 50.8503 7.1585 5.6326
# 5 -18.6233 -16.4562 -12.4329 7.1585 28.2885 6.1458
# 6 19.7587 20.5282 13.7689 5.6326 6.1458 51.2817
#
#
#
# Elastic Compliance Matrix: (Units=1/GPa)
#
#
# Indices 1 2 3 4 5 6 
#
# 1 0.007286 -0.000977 0.000698 -0.000799 0.005425 -0.003166
# 2 -0.000977 0.005520 -0.002177 -0.002259 0.002464 -0.001296
# 3 0.000698 -0.002177 0.019577 0.001876 0.008602 -0.005891
# 4 -0.000799 -0.002259 0.001876 0.021716 -0.006310 -0.000921
# 5 0.005425 0.002464 0.008602 -0.006310 0.048002 -0.010446
# 6 -0.003166 -0.001296 -0.005891 -0.000921 -0.010446 0.024173
#
#
# Mechanical properties :
#
#
# Convention : Reuss Voigt Hill
#
# Bulk Modulus (GPa) = 36.40229 72.10449 54.25339
# Shear Modulus (GPa) = 35.62708 49.80204 42.71456
#
# Velocity S-wave (km/s) = 3.56644 4.21665 3.90510
# Velocity P-wave (km/s) = 5.47316 7.03203 6.30099
#
# Compressibility (1/GPa) = 0.02747080
#
# Stress axis : x y z
#
# Youngs Moduli (GPa) = 137.24267 181.17080 51.08117
#
# Poissons Ratio (x) = 0.17706 -0.03566
# Poissons Ratio (y) = 0.13413 0.11119
# Poissons Ratio (z) = -0.09582 0.39437
#
# Static dielectric constant tensor:
#      x y z
#    x 2.244000 0.056170 0.133290 
#    y 0.056170 2.371850 0.230190 
#    z 0.133290 0.230190 2.458570 
# 
# From -- ./inp_files/513226.got.cif
#   From: 2010.05.17/outbox.cif.g08.bks.cpg/sg2_257_cif.got.tgz:513226.got - 2010.06.03 11:33:40.
