data_PCOD9046588
_publ_section_title
;
Structure prediction by ZEFSAII (Michael W. Deem and Ramdas Pophale) SiO2 
 PCOD9046588
Probable space group: P -1
;
_chemical_formula_sum "Si O2"
_cell_formula_units_Z 16
_cell_length_a 16.002824
_cell_length_b 8.471822
_cell_length_c 9.699415
_cell_angle_alpha 72.674979
_cell_angle_beta 37.715594
_cell_angle_gamma 79.433675
_cell_volume 764.858881
_symmetry_space_group_name_H-M "P -1"
_symmetry_group_IT_number 2
_symmetry_cell_setting 'triclinic'
loop_
_space_group_symop_operation_xyz
x,y,z
-x,-y,-z
loop_
_atom_site_type_symbol
_atom_site_label
_atom_site_fract_x
_atom_site_fract_y
_atom_site_fract_z
Si Si1 0.607006 0.377621 0.952281
Si Si2 0.503241 0.806293 0.591359
Si Si3 0.803192 0.892087 0.168314
Si Si4 0.130947 0.391872 0.349905
Si Si5 0.948929 0.675800 0.240335
Si Si6 0.048965 0.139987 0.291750
Si Si7 0.748566 0.257238 0.239194
Si Si8 0.792693 0.318045 0.480448
O O1 0.730634 0.490792 0.836416
O O2 0.676382 0.292427 0.754960
O O3 0.500000 0.500000 0.000000
O O4 0.540595 0.243933 0.182765
O O5 0.661526 0.774145 0.377362
O O6 0.389432 0.708914 0.668908
O O7 0.500000 0.000000 0.500000
O O8 0.912632 0.807747 0.139906
O O9 0.770791 0.063894 0.234841
O O10 0.857900 0.921274 0.935319
O O11 0.102774 0.276848 0.553087
O O12 0.125431 0.286935 0.245345
O O13 0.000000 0.500000 0.500000
O O14 0.862518 0.504571 0.359712
O O15 0.110221 0.652991 0.028950
O O16 0.914656 0.204381 0.381292
O O17 0.000000 0.000000 0.500000
O O18 0.739271 0.293173 0.402731
#
# Coordination Sequence:
#
# PCOD9046588 Si02
#       8
#     2   2   2   2   2   2   2   2
#     4  11  24  46  70  98 137 176 226 278 336 401
#     4  10  24  43  65  92 135 181 218 270 332 398
#     4  11  25  43  64  99 134 175 219 268 332 397
#     4  11  22  41  68  98 130 175 221 275 331 389
#     4  11  21  40  67  96 133 164 224 272 327 390
#     4  12  26  42  67 103 137 170 225 279 331 398
#     4  11  23  41  66  97 136 177 214 272 336 394
#     4  11  25  41  68 103 129 173 222 281 332 391
#
# _framework density 20.918892
#
# number of rings (size 3 to 8) (size 9 to 14) (size 15 to 20)
#    0.000    1.000    3.750    3.750    5.250    1.000 
#    0.000    4.375    0.000    0.000    0.000    0.000 
#    0.000    0.000    0.000    0.000    0.000    0.000 
#
# Total GULP energy -89454.966307 kJ/mol
# GULP energy per Si atom -5590.935394 kJ/mol
# Density = 2.087128 g / cm^3
# Si number density = 20.918892 Si / 1000 Ang^3
#
#
#
# Elastic Constant Matrix: (Units=GPa)
#
#
# Indices 1 2 3 4 5 6 
#
# 1 102.5073 11.8646 41.3749 -5.9992 -6.5157 11.0241
# 2 11.8646 30.9710 4.9400 -11.7357 -1.4702 3.4322
# 3 41.3749 4.9400 135.2579 -17.0422 3.6951 8.3581
# 4 -5.9992 -11.7357 -17.0422 18.4171 -10.7375 9.3166
# 5 -6.5157 -1.4702 3.6951 -10.7375 38.3363 2.3319
# 6 11.0241 3.4322 8.3581 9.3166 2.3319 24.4321
#
#
#
# Elastic Compliance Matrix: (Units=1/GPa)
#
#
# Indices 1 2 3 4 5 6 
#
# 1 0.012652 0.002200 -0.001714 0.013698 0.006925 -0.011315
# 2 0.002200 0.097398 0.018625 0.151247 0.049754 -0.083470
# 3 -0.001714 0.018625 0.014013 0.044427 0.013026 -0.024821
# 4 0.013698 0.151247 0.044427 0.361095 0.116631 -0.191453
# 5 0.006925 0.049754 0.013026 0.116631 0.064548 -0.065205
# 6 -0.011315 -0.083470 -0.024821 -0.191453 -0.065205 0.145482
#
#
# Mechanical properties :
#
#
# Convention : Reuss Voigt Hill
#
# Bulk Modulus (GPa) = 6.16202 42.78837 24.47519
# Shear Modulus (GPa) = 7.03175 30.27420 18.65297
#
# Velocity S-wave (km/s) = 1.83541 3.80836 2.98934
# Velocity P-wave (km/s) = 2.72832 6.31165 4.86213
#
# Compressibility (1/GPa) = 0.16228447
#
# Stress axis : x y z
#
# Youngs Moduli (GPa) = 79.04198 10.26715 71.36127
#
# Poissons Ratio (x) = -0.02259 0.12235
# Poissons Ratio (y) = -0.17389 -1.32913
# Poissons Ratio (z) = 0.13551 -0.19123
#
# Static dielectric constant tensor:
#      x y z
#    x 1.778570 -0.010940 0.005570 
#    y -0.010940 1.758730 -0.039870 
#    z 0.005570 -0.039870 1.765480 
# 
# From -- ./inp_files/298132.got.cif
#   From: 2010.05.17/outbox.cif.g08.bks.cpg/sg2_150_cif.got.tgz:298132.got - 2010.06.03 11:33:40.
