data_PCOD9046021
_publ_section_title
;
Structure prediction by ZEFSAII (Michael W. Deem and Ramdas Pophale) SiO2 
 PCOD9046021
Probable space group: P -1
;
_chemical_formula_sum "Si O2"
_cell_formula_units_Z 16
_cell_length_a 6.648727
_cell_length_b 16.199009
_cell_length_c 18.471400
_cell_angle_alpha 159.350438
_cell_angle_beta 109.164537
_cell_angle_gamma 70.135767
_cell_volume 659.509168
_symmetry_space_group_name_H-M "P -1"
_symmetry_group_IT_number 2
_symmetry_cell_setting 'triclinic'
loop_
_space_group_symop_operation_xyz
x,y,z
-x,-y,-z
loop_
_atom_site_type_symbol
_atom_site_label
_atom_site_fract_x
_atom_site_fract_y
_atom_site_fract_z
Si Si1 0.731944 0.139463 0.387156
Si Si2 0.102717 0.344517 0.979825
Si Si3 0.127116 0.391496 0.702844
Si Si4 0.271618 0.723336 0.226350
Si Si5 0.459646 0.976507 0.576314
Si Si6 0.556866 0.427416 0.351318
Si Si7 0.204530 0.282739 0.288239
Si Si8 0.185233 0.775522 0.912715
O O1 0.612502 0.068807 0.388527
O O2 0.580787 0.322529 0.473156
O O3 0.936964 0.273227 0.542635
O O4 0.805202 0.884529 0.152798
O O5 0.280289 0.478853 0.070027
O O6 0.962553 0.531247 0.165903
O O7 0.947842 0.257101 0.828105
O O8 0.337964 0.212520 0.573298
O O9 0.178453 0.630342 0.865415
O O10 0.279177 0.914892 0.448064
O O11 0.455575 0.778725 0.237160
O O12 0.419242 0.267172 0.251837
O O13 0.763855 0.490733 0.472897
O O14 0.616327 0.319378 0.192156
O O15 0.017366 0.282959 0.207628
O O16 0.185578 0.054189 0.147590
#
# Coordination Sequence:
#
# PCOD9046021 Si02
#       8
#     2   2   2   2   2   2   2   2
#     4  12  25  45  67 100 138 175 222 279 333 393
#     4  11  26  44  70  99 136 174 226 277 338 394
#     4  12  25  45  67 100 138 175 222 279 333 393
#     4  10  24  44  68 102 130 176 224 284 332 402
#     4  11  24  44  74  93 132 182 222 271 348 394
#     4  11  23  44  70  96 137 174 219 270 329 394
#     4  10  24  42  66 106 130 170 220 272 328 392
#     4  11  23  44  70  96 137 174 219 270 329 394
#
# _framework density 24.260465
#
# number of rings (size 3 to 8) (size 9 to 14) (size 15 to 20)
#    0.000    1.000    5.000    0.750    0.000   11.000 
#    9.000    0.000    0.000    0.000    0.000    0.000 
#    0.000    0.000    0.000    0.000    0.000    0.000 
#
# Total GULP energy -89541.553592 kJ/mol
# GULP energy per Si atom -5596.347099 kJ/mol
# Density = 2.420525 g / cm^3
# Si number density = 24.260465 Si / 1000 Ang^3
#
#
#
# Elastic Constant Matrix: (Units=GPa)
#
#
# Indices 1 2 3 4 5 6 
#
# 1 80.8856 15.9569 31.0456 -3.4803 11.9156 17.1975
# 2 15.9569 56.1741 13.3445 15.6709 13.1172 18.1908
# 3 31.0456 13.3445 67.7226 14.6777 9.5424 3.2157
# 4 -3.4803 15.6709 14.6777 37.4762 6.2721 5.8058
# 5 11.9156 13.1172 9.5424 6.2721 46.6303 3.9524
# 6 17.1975 18.1908 3.2157 5.8058 3.9524 47.1931
#
#
#
# Elastic Compliance Matrix: (Units=1/GPa)
#
#
# Indices 1 2 3 4 5 6 
#
# 1 0.018215 -0.002748 -0.008820 0.007615 -0.002618 -0.005695
# 2 -0.002748 0.024343 -0.000800 -0.008330 -0.004273 -0.006945
# 3 -0.008820 -0.000800 0.020889 -0.009031 -0.000860 0.003282
# 4 0.007615 -0.008330 -0.009031 0.035265 -0.002235 -0.003100
# 5 -0.002618 -0.004273 -0.000860 -0.002235 0.023712 0.000949
# 6 -0.005695 -0.006945 0.003282 -0.003100 0.000949 0.026020
#
#
# Mechanical properties :
#
#
# Convention : Reuss Voigt Hill
#
# Bulk Modulus (GPa) = 25.83164 36.16404 30.99784
# Shear Modulus (GPa) = 26.86970 35.88892 31.37931
#
# Velocity S-wave (km/s) = 3.33160 3.85036 3.60034
# Velocity P-wave (km/s) = 5.04680 5.89118 5.48526
#
# Compressibility (1/GPa) = 0.03871222
#
# Stress axis : x y z
#
# Youngs Moduli (GPa) = 54.90096 41.07997 47.87114
#
# Poissons Ratio (x) = 0.11287 0.42221
# Poissons Ratio (y) = 0.15085 0.03829
# Poissons Ratio (z) = 0.48421 0.03286
#
# Static dielectric constant tensor:
#      x y z
#    x 1.940270 -0.021010 -0.014000 
#    y -0.021010 1.895820 -0.000080 
#    z -0.014000 -0.000080 1.942210 
# 
# From -- ./inp_files/584023.got.cif
#   From: 2010.05.17/outbox.cif.g08.bks.cpg/sg2_293_cif.got.tgz:584023.got - 2010.06.03 11:33:40.
