data_PCOD9046180
_publ_section_title
;
Structure prediction by ZEFSAII (Michael W. Deem and Ramdas Pophale) SiO2 
 PCOD9046180
Probable space group: P -1
;
_chemical_formula_sum "Si O2"
_cell_formula_units_Z 14
_cell_length_a 12.375498
_cell_length_b 7.719741
_cell_length_c 9.713302
_cell_angle_alpha 134.821366
_cell_angle_beta 107.119459
_cell_angle_gamma 98.620848
_cell_volume 534.522223
_symmetry_space_group_name_H-M "P -1"
_symmetry_group_IT_number 2
_symmetry_cell_setting 'triclinic'
loop_
_space_group_symop_operation_xyz
x,y,z
-x,-y,-z
loop_
_atom_site_type_symbol
_atom_site_label
_atom_site_fract_x
_atom_site_fract_y
_atom_site_fract_z
Si Si1 0.489916 0.732362 0.036357
Si Si2 0.443547 0.436822 0.292783
Si Si3 0.256863 0.599037 0.235350
Si Si4 0.055295 0.021138 0.685998
Si Si5 0.885961 0.198732 0.853048
Si Si6 0.786551 0.294045 0.431366
Si Si7 0.251894 0.799963 0.933611
O O1 0.466410 0.607794 0.803069
O O2 0.500000 0.500000 0.000000
O O3 0.369845 0.783345 0.043702
O O4 0.634472 0.025955 0.253149
O O5 0.500000 0.500000 0.500000
O O6 0.402067 0.650910 0.338727
O O7 0.311174 0.122579 0.081559
O O8 0.191074 0.517623 0.318450
O O9 0.181672 0.334415 0.951568
O O10 0.941839 0.994905 0.731675
O O11 0.240954 0.855617 0.315230
O O12 0.109017 0.809018 0.588907
O O13 0.000000 0.000000 0.500000
O O14 0.857388 0.247356 0.023896
O O15 0.000000 0.500000 0.000000
O O16 0.789403 0.383116 0.324019
#
# Coordination Sequence:
#
# PCOD9046180 Si02
#       7
#     2   2   2   2   2   2   2
#     4  11  23  41  68 100 142 182 228 285 352 418
#     4  11  22  41  66 103 145 177 225 287 349 424
#     4  11  21  43  71  99 137 182 230 282 349 414
#     4  11  22  44  71  96 137 181 236 289 344 402
#     4  10  24  42  68  94 136 186 236 286 335 411
#     4  11  23  43  71 102 140 181 227 296 348 415
#     4  11  23  43  67 102 140 182 231 287 354 410
#
# _framework density 26.191614000000001
#
# number of rings (size 3 to 8) (size 9 to 14) (size 15 to 20)
#    0.000    1.143    4.286    4.286    2.000    1.714 
#    0.000    8.571    0.000    0.000    0.000    0.000 
#    0.000    0.000    0.000    0.000    0.000    0.000 
#
# Total GULP energy -78327.315785 kJ/mol
# GULP energy per Si atom -5594.808270 kJ/mol
# Density = 2.613200 g / cm^3
# Si number density = 26.191614 Si / 1000 Ang^3
#
#
#
# Elastic Constant Matrix: (Units=GPa)
#
#
# Indices 1 2 3 4 5 6 
#
# 1 190.0723 29.0493 31.3723 -5.6740 -14.8644 -9.9907
# 2 29.0493 71.6144 30.7704 -6.5424 1.5126 13.7295
# 3 31.3723 30.7704 138.7871 -28.0813 -7.6689 11.8296
# 4 -5.6740 -6.5424 -28.0813 44.9718 -0.8703 -8.1388
# 5 -14.8644 1.5126 -7.6689 -0.8703 40.2138 -23.2099
# 6 -9.9907 13.7295 11.8296 -8.1388 -23.2099 52.0801
#
#
#
# Elastic Compliance Matrix: (Units=1/GPa)
#
#
# Indices 1 2 3 4 5 6 
#
# 1 0.006556 -0.003296 -0.000693 0.000869 0.005157 0.004718
# 2 -0.003296 0.018315 -0.003313 -0.001442 -0.007294 -0.008184
# 3 -0.000693 -0.003313 0.009248 0.005303 0.001939 0.000333
# 4 0.000869 -0.001442 0.005303 0.026618 0.005364 0.005892
# 5 0.005157 -0.007294 0.001939 0.005364 0.039640 0.020976
# 6 0.004718 -0.008184 0.000333 0.005892 0.020976 0.032457
#
#
# Mechanical properties :
#
#
# Convention : Reuss Voigt Hill
#
# Bulk Modulus (GPa) = 51.23795 64.76197 57.99996
# Shear Modulus (GPa) = 32.47945 48.07193 40.27569
#
# Velocity S-wave (km/s) = 3.52528 4.28880 3.92565
# Velocity P-wave (km/s) = 6.01460 7.02175 6.53760
#
# Compressibility (1/GPa) = 0.01951678
#
# Stress axis : x y z
#
# Youngs Moduli (GPa) = 152.52070 54.59888 108.12967
#
# Poissons Ratio (x) = 0.17996 0.07490
# Poissons Ratio (y) = 0.50271 0.35823
# Poissons Ratio (z) = 0.10565 0.18088
#
# Static dielectric constant tensor:
#      x y z
#    x 2.056020 -0.001620 0.059570 
#    y -0.001620 2.086270 0.006730 
#    z 0.059570 0.006730 2.149750 
# 
# From -- ./inp_files/299733.got.cif
#   From: 2010.05.17/outbox.cif.g08.bks.cpg/sg2_150_cif.got.tgz:299733.got - 2010.06.03 11:33:40.
