data_PCOD9046018
_publ_section_title
;
Structure prediction by ZEFSAII (Michael W. Deem and Ramdas Pophale) SiO2 
 PCOD9046018
Probable space group: P -1
;
_chemical_formula_sum "Si O2"
_cell_formula_units_Z 16
_cell_length_a 10.909622
_cell_length_b 20.033874
_cell_length_c 14.511225
_cell_angle_alpha 33.282135
_cell_angle_beta 127.062274
_cell_angle_gamma 151.326397
_cell_volume 724.818048
_symmetry_space_group_name_H-M "P -1"
_symmetry_group_IT_number 2
_symmetry_cell_setting 'triclinic'
loop_
_space_group_symop_operation_xyz
x,y,z
-x,-y,-z
loop_
_atom_site_type_symbol
_atom_site_label
_atom_site_fract_x
_atom_site_fract_y
_atom_site_fract_z
Si Si1 0.829781 0.464455 0.886033
Si Si2 0.340293 0.788500 0.611293
Si Si3 0.866004 0.007980 0.859925
Si Si4 0.173009 0.031317 0.642787
Si Si5 0.221256 0.321479 0.284764
Si Si6 0.678948 0.782457 0.843068
Si Si7 0.633966 0.176207 0.780828
Si Si8 0.930465 0.314802 0.571215
O O1 0.852717 0.622727 0.740934
O O2 0.006552 0.557614 0.765737
O O3 0.481074 0.202984 0.029878
O O4 0.000000 0.500000 0.000000
O O5 0.500971 0.771065 0.726736
O O6 0.320060 0.813933 0.466856
O O7 0.500000 0.000000 0.500000
O O8 0.860529 0.957839 0.810143
O O9 0.028291 0.246403 0.665738
O O10 0.000000 0.000000 0.000000
O O11 0.336238 0.272037 0.434281
O O12 0.371321 0.063650 0.738735
O O13 0.063794 0.913069 0.630460
O O14 0.891471 0.863819 0.772887
O O15 0.449883 0.535420 0.070828
O O16 0.820550 0.234483 0.719355
O O17 0.831956 0.417802 0.632864
O O18 0.500000 0.000000 0.000000
#
# Coordination Sequence:
#
# PCOD9046018 Si02
#       8
#     2   2   2   2   2   2   2   2
#     4  11  22  42  73 108 142 189 241 290 364 428
#     4  12  23  43  73 109 144 181 243 302 354 427
#     4  11  26  45  73 104 149 188 236 307 369 434
#     4  11  26  42  70  98 140 184 237 289 357 431
#     4  10  24  42  66 105 139 179 231 296 349 425
#     4  11  24  43  68 107 140 183 230 298 365 418
#     4  11  30  50  72  99 140 198 245 294 361 445
#     4  11  28  49  72 104 143 189 245 304 357 438
#
# _framework density 22.074504000000001
#
# number of rings (size 3 to 8) (size 9 to 14) (size 15 to 20)
#    0.000    1.000    3.750    1.125   15.750    1.000 
#    0.000    1.250    0.000    0.000    0.000    0.000 
#    0.000    0.000    0.000    0.000    0.000    0.000 
#
# Total GULP energy -89551.886178 kJ/mol
# GULP energy per Si atom -5596.992886 kJ/mol
# Density = 2.202426 g / cm^3
# Si number density = 22.074504 Si / 1000 Ang^3
#
#
#
# Elastic Constant Matrix: (Units=GPa)
#
#
# Indices 1 2 3 4 5 6 
#
# 1 46.8093 1.9622 11.0670 -12.1550 -5.5272 -9.3527
# 2 1.9622 64.4472 16.5644 6.7040 -0.3967 -12.3783
# 3 11.0670 16.5644 112.0059 14.4980 8.5832 -10.3651
# 4 -12.1550 6.7040 14.4980 34.2988 -0.1584 3.8300
# 5 -5.5272 -0.3967 8.5832 -0.1584 35.6520 -2.2094
# 6 -9.3527 -12.3783 -10.3651 3.8300 -2.2094 35.7140
#
#
#
# Elastic Compliance Matrix: (Units=1/GPa)
#
#
# Indices 1 2 3 4 5 6 
#
# 1 0.026705 0.000118 -0.003973 0.010578 0.005460 0.005085
# 2 0.000118 0.017451 -0.001681 -0.003325 0.000975 0.006008
# 3 -0.003973 -0.001681 0.010745 -0.005851 -0.003128 0.001929
# 4 0.010578 -0.003325 -0.005851 0.036466 0.002938 -0.003810
# 5 0.005460 0.000975 -0.003128 0.002938 0.029820 0.002390
# 6 0.005085 0.006008 0.001929 -0.003810 0.002390 0.032531
#
#
# Mechanical properties :
#
#
# Convention : Reuss Voigt Hill
#
# Bulk Modulus (GPa) = 22.81592 31.38330 27.09961
# Shear Modulus (GPa) = 27.87075 34.04421 30.95748
#
# Velocity S-wave (km/s) = 3.55713 3.93140 3.74894
# Velocity P-wave (km/s) = 5.21816 5.90387 5.57158
#
# Compressibility (1/GPa) = 0.04382905
#
# Stress axis : x y z
#
# Youngs Moduli (GPa) = 37.44610 57.30375 93.06775
#
# Poissons Ratio (x) = -0.00676 0.36977
# Poissons Ratio (y) = -0.00442 0.15642
# Poissons Ratio (z) = 0.14878 0.09631
#
# Static dielectric constant tensor:
#      x y z
#    x 1.843040 0.036980 -0.101350 
#    y 0.036980 1.832860 -0.072900 
#    z -0.101350 -0.072900 1.961650 
# 
# From -- ./inp_files/524051.got.cif
#   From: 2010.05.17/outbox.cif.g08.bks.cpg/sg2_263_cif.got.tgz:524051.got - 2010.06.03 11:33:40.
