data_PCOD9046308
_publ_section_title
;
Structure prediction by ZEFSAII (Michael W. Deem and Ramdas Pophale) SiO2 
 PCOD9046308
Probable space group: P -1
;
_chemical_formula_sum "Si O2"
_cell_formula_units_Z 15
_cell_length_a 6.307095
_cell_length_b 10.662333
_cell_length_c 18.577498
_cell_angle_alpha 146.400445
_cell_angle_beta 115.490020
_cell_angle_gamma 63.688769
_cell_volume 614.994798
_symmetry_space_group_name_H-M "P -1"
_symmetry_group_IT_number 2
_symmetry_cell_setting 'triclinic'
loop_
_space_group_symop_operation_xyz
x,y,z
-x,-y,-z
loop_
_atom_site_type_symbol
_atom_site_label
_atom_site_fract_x
_atom_site_fract_y
_atom_site_fract_z
Si Si1 0.066947 0.699082 0.753605
Si Si2 0.590634 0.935078 0.643035
Si Si3 0.195344 0.905071 0.380978
Si Si4 0.284301 0.837991 0.089806
Si Si5 0.000000 0.500000 0.500000
Si Si6 0.499454 0.222210 0.057320
Si Si7 0.184884 0.690763 0.427262
Si Si8 0.002799 0.532644 0.101461
O O1 0.139747 0.585024 0.632806
O O2 0.855598 0.564447 0.684450
O O3 0.282278 0.666172 0.825685
O O4 0.951856 0.967016 0.859434
O O5 0.833545 0.752676 0.594085
O O6 0.383950 0.783024 0.547698
O O7 0.594777 0.060671 0.626496
O O8 0.597303 0.108814 0.792581
O O9 0.248727 0.740834 0.379030
O O10 0.008802 0.790682 0.250733
O O11 0.061874 0.145100 0.508789
O O12 0.447267 0.856520 0.054278
O O13 0.207698 0.589357 0.958519
O O14 0.250648 0.391942 0.100430
O O15 0.500000 0.000000 0.000000
O O16 0.000000 0.500000 0.000000
#
# Coordination Sequence:
#
# PCOD9046308 Si02
#       8
#     2   2   2   2   1   2   2   2
#     4  11  24  47  74 107 143 182 244 302 352 446
#     4  11  24  45  72 101 149 188 236 298 358 433
#     4  11  25  46  68 105 144 182 245 290 360 440
#     4  11  26  47  71 110 142 187 251 293 362 435
#     4  10  24  42  70 106 142 182 242 288 356 424
#     4  12  28  46  78 104 145 195 240 302 368 423
#     4  11  26  44  74 102 143 192 232 299 364 433
#     4  12  27  48  76 106 148 193 239 308 360 429
#
# _framework density 24.390447999999999
#
# number of rings (size 3 to 8) (size 9 to 14) (size 15 to 20)
#    0.000    0.800    4.000    1.600    5.600    6.933 
#    0.000    0.000    0.000    0.000    0.000    0.000 
#    0.000    0.000    0.000    0.000    0.000    0.000 
#
# Total GULP energy -83756.794632 kJ/mol
# GULP energy per Si atom -5583.786309 kJ/mol
# Density = 2.433493 g / cm^3
# Si number density = 24.390448 Si / 1000 Ang^3
#
#
#
# Elastic Constant Matrix: (Units=GPa)
#
#
# Indices 1 2 3 4 5 6 
#
# 1 65.4772 27.4784 29.9177 -5.7085 12.8048 12.6442
# 2 27.4784 68.9499 19.9580 -10.5278 -3.0777 -3.7670
# 3 29.9177 19.9580 114.2682 -7.9135 2.9022 6.1277
# 4 -5.7085 -10.5278 -7.9135 42.0043 3.6925 -1.6340
# 5 12.8048 -3.0777 2.9022 3.6925 51.4664 -2.6377
# 6 12.6442 -3.7670 6.1277 -1.6340 -2.6377 34.0349
#
#
#
# Elastic Compliance Matrix: (Units=1/GPa)
#
#
# Indices 1 2 3 4 5 6 
#
# 1 0.024299 -0.009305 -0.004002 0.000441 -0.006913 -0.009851
# 2 -0.009305 0.019568 -0.001179 0.003343 0.003634 0.006277
# 3 -0.004002 -0.001179 0.010090 0.001023 0.000263 -0.000391
# 4 0.000441 0.003343 0.001023 0.025091 -0.001712 0.001094
# 5 -0.006913 0.003634 0.000263 -0.001712 0.021707 0.004523
# 6 -0.009851 0.006277 -0.000391 0.001094 0.004523 0.034209
#
#
# Mechanical properties :
#
#
# Convention : Reuss Voigt Hill
#
# Bulk Modulus (GPa) = 40.02390 44.82260 42.42325
# Shear Modulus (GPa) = 29.02511 36.92387 32.97449
#
# Velocity S-wave (km/s) = 3.45341 3.89506 3.68087
# Velocity P-wave (km/s) = 5.68741 6.21657 5.95787
#
# Compressibility (1/GPa) = 0.02498507
#
# Stress axis : x y z
#
# Youngs Moduli (GPa) = 41.15460 51.10332 99.10494
#
# Poissons Ratio (x) = 0.47550 0.39666
# Poissons Ratio (y) = 0.38293 0.11685
# Poissons Ratio (z) = 0.16472 0.06025
#
# Static dielectric constant tensor:
#      x y z
#    x 1.963510 0.037330 0.011780 
#    y 0.037330 1.882690 -0.005750 
#    z 0.011780 -0.005750 1.905600 
# 
# From -- ./inp_files/583175.got.cif
#   From: 2010.05.17/outbox.cif.g08.bks.cpg/sg2_292_cif.got.tgz:583175.got - 2010.06.03 11:33:40.
