data_PCOD9046313
_publ_section_title
;
Structure prediction by ZEFSAII (Michael W. Deem and Ramdas Pophale) SiO2 
 PCOD9046313
Probable space group: P -1
;
_chemical_formula_sum "Si O2"
_cell_formula_units_Z 15
_cell_length_a 13.036496
_cell_length_b 15.766457
_cell_length_c 22.561565
_cell_angle_alpha 17.977324
_cell_angle_beta 151.328010
_cell_angle_gamma 144.274376
_cell_volume 678.575684
_symmetry_space_group_name_H-M "P -1"
_symmetry_group_IT_number 2
_symmetry_cell_setting 'triclinic'
loop_
_space_group_symop_operation_xyz
x,y,z
-x,-y,-z
loop_
_atom_site_type_symbol
_atom_site_label
_atom_site_fract_x
_atom_site_fract_y
_atom_site_fract_z
Si Si1 0.109902 0.109274 0.542580
Si Si2 0.331072 0.841869 0.052852
Si Si3 0.196809 0.664612 0.984564
Si Si4 0.503326 0.758175 0.411963
Si Si5 0.006714 0.804185 0.271508
Si Si6 0.523198 0.124168 0.493622
Si Si7 0.000000 0.000000 0.000000
Si Si8 0.343945 0.783998 0.727386
O O1 0.318817 0.255778 0.541218
O O2 0.897540 0.290360 0.342029
O O3 0.174204 0.859129 0.786784
O O4 0.000000 0.000000 0.500000
O O5 0.443283 0.535738 0.332556
O O6 0.175685 0.819065 0.933827
O O7 0.500000 0.000000 0.000000
O O8 0.200004 0.999581 0.935400
O O9 0.415354 0.444796 0.233921
O O10 0.000000 0.500000 0.000000
O O11 0.251177 0.851896 0.211430
O O12 0.583955 0.005349 0.327267
O O13 0.229743 0.904092 0.340518
O O14 0.009398 0.835079 0.180971
O O15 0.000000 0.500000 0.500000
O O16 0.500000 0.000000 0.500000
O O17 0.382877 0.944699 0.581270
O O18 0.500000 0.500000 0.000000
#
# Coordination Sequence:
#
# PCOD9046313 Si02
#       8
#     2   2   2   2   2   2   1   2
#     4  10  24  42  70 107 142 200 249 315 387 452
#     4  12  27  51  77 110 150 204 263 318 397 476
#     4  12  22  47  75 105 151 198 255 319 380 466
#     4  11  25  49  72 106 154 194 258 321 384 470
#     4  12  29  52  80 112 157 208 263 328 400 485
#     4  12  26  44  74 113 151 198 257 324 393 459
#     4  12  26  50  78 110 158 206 260 324 398 468
#     4  11  24  45  71 107 151 193 250 318 386 461
#
# _framework density 22.105125000000001
#
# number of rings (size 3 to 8) (size 9 to 14) (size 15 to 20)
#    0.000    0.533    4.000    3.200    9.333    0.533 
#    4.800    0.000    0.000    0.000    0.000    0.000 
#    0.000    0.000    0.000    0.000    0.000    0.000 
#
# Total GULP energy -83523.684786 kJ/mol
# GULP energy per Si atom -5568.245652 kJ/mol
# Density = 2.205481 g / cm^3
# Si number density = 22.105125 Si / 1000 Ang^3
#
#
#
# Elastic Constant Matrix: (Units=GPa)
#
#
# Indices 1 2 3 4 5 6 
#
# 1 138.4115 37.7682 67.3531 12.8683 -7.5812 26.0254
# 2 37.7682 57.3535 23.6245 5.0157 -2.0485 25.4267
# 3 67.3531 23.6245 171.7109 7.1986 -3.5403 23.0769
# 4 12.8683 5.0157 7.1986 31.0109 4.2485 7.2429
# 5 -7.5812 -2.0485 -3.5403 4.2485 52.8602 8.7107
# 6 26.0254 25.4267 23.0769 7.2429 8.7107 44.9782
#
#
#
# Elastic Compliance Matrix: (Units=1/GPa)
#
#
# Indices 1 2 3 4 5 6 
#
# 1 0.010729 -0.004644 -0.003173 -0.002765 0.001671 -0.001833
# 2 -0.004644 0.026152 -0.000049 0.000321 0.002392 -0.012586
# 3 -0.003173 -0.000049 0.007347 0.000032 0.000359 -0.001981
# 4 -0.002765 0.000321 0.000032 0.034541 -0.002554 -0.003665
# 5 0.001671 0.002392 0.000359 -0.002554 0.020478 -0.006058
# 6 -0.001833 -0.012586 -0.001981 -0.003665 -0.006058 0.033189
#
#
# Mechanical properties :
#
#
# Convention : Reuss Voigt Hill
#
# Bulk Modulus (GPa) = 35.09251 69.44083 52.26667
# Shear Modulus (GPa) = 31.71256 41.68520 36.69888
#
# Velocity S-wave (km/s) = 3.79175 4.34726 4.07897
# Velocity P-wave (km/s) = 5.92280 7.52863 6.77347
#
# Compressibility (1/GPa) = 0.02849611
#
# Stress axis : x y z
#
# Youngs Moduli (GPa) = 93.20211 38.23859 136.10506
#
# Poissons Ratio (x) = 0.17759 0.43184
# Poissons Ratio (y) = 0.43286 0.00665
# Poissons Ratio (z) = 0.29572 0.00187
#
# Static dielectric constant tensor:
#      x y z
#    x 1.913110 -0.003560 -0.015480 
#    y -0.003560 1.805110 -0.042160 
#    z -0.015480 -0.042160 1.862060 
# 
# From -- ./inp_files/471848.got.cif
#   From: 2010.05.17/outbox.cif.g08.bks.cpg/sg2_236_cif.got.tgz:471848.got - 2010.06.03 11:33:40.
