data_PCOD9046700
_publ_section_title
;
Structure prediction by ZEFSAII (Michael W. Deem and Ramdas Pophale) SiO2 
 PCOD9046700
Probable space group: P -1
;
_chemical_formula_sum "Si O2"
_cell_formula_units_Z 14
_cell_length_a 19.754326
_cell_length_b 5.100959
_cell_length_c 14.408937
_cell_angle_alpha 91.238929
_cell_angle_beta 22.982843
_cell_angle_gamma 90.849997
_cell_volume 566.734068
_symmetry_space_group_name_H-M "P -1"
_symmetry_group_IT_number 2
_symmetry_cell_setting 'triclinic'
loop_
_space_group_symop_operation_xyz
x,y,z
-x,-y,-z
loop_
_atom_site_type_symbol
_atom_site_label
_atom_site_fract_x
_atom_site_fract_y
_atom_site_fract_z
Si Si1 0.354075 0.120287 0.116563
Si Si2 0.251942 0.700832 0.549249
Si Si3 0.611097 0.112238 0.448874
Si Si4 0.068230 0.604454 0.048717
Si Si5 0.405628 0.619518 0.934538
Si Si6 0.066196 0.001191 0.622181
Si Si7 0.749409 0.666561 0.029011
O O1 0.176250 0.091245 0.396624
O O2 0.382574 0.920590 0.993542
O O3 0.500000 0.000000 0.000000
O O4 0.366771 0.418025 0.066883
O O5 0.300404 0.941167 0.559969
O O6 0.403730 0.487436 0.335898
O O7 0.185554 0.810332 0.535065
O O8 0.093209 0.540572 0.794279
O O9 0.448273 0.262635 0.700811
O O10 0.500000 0.000000 0.500000
O O11 0.781281 0.232795 0.188245
O O12 0.177384 0.380050 0.961235
O O13 0.987709 0.772397 0.236192
O O14 0.272904 0.565688 0.017845
O O15 0.890816 0.860445 0.811618
#
# Coordination Sequence:
#
# PCOD9046700 Si02
#       7
#     2   2   2   2   2   2   2
#     4  12  25  43  72 101 139 184 235 283 348 411
#     4  10  24  43  67 102 132 180 231 283 344 416
#     4  11  22  45  69  96 134 179 227 285 353 415
#     4  11  23  44  67  96 138 179 227 285 344 419
#     4  11  26  45  72 103 139 183 235 288 344 412
#     4  11  24  42  68  98 138 177 227 285 343 414
#     4  10  25  44  66  99 135 177 228 285 350 408
#
# _framework density 24.702943999999999
#
# number of rings (size 3 to 8) (size 9 to 14) (size 15 to 20)
#    0.000    1.143    2.857    2.143    6.000    1.714 
#    5.143    0.000    0.000    0.000    0.000    0.000 
#    0.000    0.000    0.000    0.000    0.000    0.000 
#
# Total GULP energy -77986.618340 kJ/mol
# GULP energy per Si atom -5570.472739 kJ/mol
# Density = 2.464672 g / cm^3
# Si number density = 24.702944 Si / 1000 Ang^3
#
#
#
# Elastic Constant Matrix: (Units=GPa)
#
#
# Indices 1 2 3 4 5 6 
#
# 1 88.7747 3.3559 44.4880 -22.9716 -22.2363 28.2330
# 2 3.3559 47.3088 3.0436 13.4287 2.8868 7.2113
# 3 44.4880 3.0436 148.3088 -39.6850 -3.7524 -16.9868
# 4 -22.9716 13.4287 -39.6850 46.9310 17.9873 0.9361
# 5 -22.2363 2.8868 -3.7524 17.9873 53.3744 -6.2134
# 6 28.2330 7.2113 -16.9868 0.9361 -6.2134 46.2884
#
#
#
# Elastic Compliance Matrix: (Units=1/GPa)
#
#
# Indices 1 2 3 4 5 6 
#
# 1 0.022196 0.000297 -0.007702 0.002234 0.006116 -0.015635
# 2 0.000297 0.025214 -0.004119 -0.011060 0.001594 -0.005183
# 3 -0.007702 -0.004119 0.012638 0.009536 -0.004238 0.009216
# 4 0.002234 -0.011060 0.009536 0.037521 -0.010245 0.001726
# 5 0.006116 0.001594 -0.004238 -0.010245 0.024109 -0.002091
# 6 -0.015635 -0.005183 0.009216 0.001726 -0.002091 0.035014
#
#
# Mechanical properties :
#
#
# Convention : Reuss Voigt Hill
#
# Bulk Modulus (GPa) = 27.02884 42.90746 34.96815
# Shear Modulus (GPa) = 26.03177 44.88577 35.45877
#
# Velocity S-wave (km/s) = 3.24974 4.26728 3.79279
# Velocity P-wave (km/s) = 5.00463 6.45652 5.77637
#
# Compressibility (1/GPa) = 0.03699752
#
# Stress axis : x y z
#
# Youngs Moduli (GPa) = 45.05402 39.66053 79.12923
#
# Poissons Ratio (x) = -0.01178 0.60949
# Poissons Ratio (y) = -0.01338 0.32597
# Poissons Ratio (z) = 0.34702 0.16338
#
# Static dielectric constant tensor:
#      x y z
#    x 2.071290 -0.019390 -0.047360 
#    y -0.019390 1.980230 0.021370 
#    z -0.047360 0.021370 1.908630 
# 
# From -- ./inp_files/35087.got.cif
#   From: 2010.05.17/outbox.cif.g08.bks.cpg/sg2_18_cif.got.tgz:35087.got - 2010.06.03 11:33:40.
