data_PCOD9046505
_publ_section_title
;
Structure prediction by ZEFSAII (Michael W. Deem and Ramdas Pophale) SiO2 
 PCOD9046505
Probable space group: P -1
;
_chemical_formula_sum "Si O2"
_cell_formula_units_Z 12
_cell_length_a 12.148580
_cell_length_b 4.838113
_cell_length_c 10.515745
_cell_angle_alpha 118.695515
_cell_angle_beta 70.286963
_cell_angle_gamma 116.032056
_cell_volume 480.838971
_symmetry_space_group_name_H-M "P -1"
_symmetry_group_IT_number 2
_symmetry_cell_setting 'triclinic'
loop_
_space_group_symop_operation_xyz
x,y,z
-x,-y,-z
loop_
_atom_site_type_symbol
_atom_site_label
_atom_site_fract_x
_atom_site_fract_y
_atom_site_fract_z
Si Si1 0.357234 0.826841 0.050302
Si Si2 0.256000 0.128818 0.383800
Si Si3 0.789107 0.677328 0.192939
Si Si4 0.965711 0.235106 0.748048
Si Si5 0.647834 0.116848 0.468267
Si Si6 0.845879 0.786016 0.921217
O O1 0.290440 0.691721 0.910022
O O2 0.298530 0.470511 0.072473
O O3 0.320881 0.077744 0.215403
O O4 0.500000 0.000000 0.000000
O O5 0.104424 0.900647 0.120595
O O6 0.111800 0.038660 0.383548
O O7 0.290365 0.896178 0.421678
O O8 0.691390 0.502365 0.499602
O O9 0.891110 0.692092 0.263231
O O10 0.698643 0.878000 0.310821
O O11 0.865015 0.860127 0.079084
O O12 0.924022 0.548240 0.797513
O O13 0.500000 0.000000 0.500000
#
# Coordination Sequence:
#
# PCOD9046505 Si02
#       6
#     2   2   2   2   2   2
#     4   9  20  43  67 102 131 182 235 277 336 404
#     4  11  25  44  70  95 143 182 222 298 338 406
#     4  10  24  42  76 104 138 191 226 291 342 420
#     4  11  21  45  69 108 138 174 238 284 355 400
#     4  12  27  49  65 100 143 187 229 279 351 417
#     4   9  22  38  70 102 138 175 223 298 333 402
#
# _framework density 24.956379999999999
#
# number of rings (size 3 to 8) (size 9 to 14) (size 15 to 20)
#    1.000    0.667    0.000    4.500    0.000    4.000 
#    6.000    5.000    0.000    0.000    0.000    0.000 
#    0.000    0.000    0.000    0.000    0.000    0.000 
#
# Total GULP energy -66996.504929 kJ/mol
# GULP energy per Si atom -5583.042077 kJ/mol
# Density = 2.489958 g / cm^3
# Si number density = 24.956380 Si / 1000 Ang^3
#
#
#
# Elastic Constant Matrix: (Units=GPa)
#
#
# Indices 1 2 3 4 5 6 
#
# 1 110.0097 17.1162 19.1350 -4.0936 -11.5575 33.8456
# 2 17.1162 76.4014 0.7323 8.5859 -11.4530 20.0529
# 3 19.1350 0.7323 75.6716 14.8601 -14.7214 11.3625
# 4 -4.0936 8.5859 14.8601 36.4096 -11.5209 2.9142
# 5 -11.5575 -11.4530 -14.7214 -11.5209 47.6477 -0.6518
# 6 33.8456 20.0529 11.3625 2.9142 -0.6518 45.8324
#
#
#
# Elastic Compliance Matrix: (Units=1/GPa)
#
#
# Indices 1 2 3 4 5 6 
#
# 1 0.012758 -0.000480 -0.002067 0.004122 0.003216 -0.008916
# 2 -0.000480 0.015868 0.002301 -0.003050 0.003577 -0.006914
# 3 -0.002067 0.002301 0.016025 -0.005959 0.003520 -0.003024
# 4 0.004122 -0.003050 -0.005959 0.033301 0.006447 -0.002258
# 5 0.003216 0.003577 0.003520 0.006447 0.025207 -0.004864
# 6 -0.008916 -0.006914 -0.003024 -0.002258 -0.004864 0.032252
#
#
# Mechanical properties :
#
#
# Convention : Reuss Voigt Hill
#
# Bulk Modulus (GPa) = 22.64528 37.33884 29.99206
# Shear Modulus (GPa) = 33.19582 40.98456 37.09019
#
# Velocity S-wave (km/s) = 3.65108 4.05686 3.85931
# Velocity P-wave (km/s) = 5.18339 6.07769 5.64827
#
# Compressibility (1/GPa) = 0.04415932
#
# Stress axis : x y z
#
# Youngs Moduli (GPa) = 78.37926 63.02098 62.40433
#
# Poissons Ratio (x) = 0.03022 0.12897
# Poissons Ratio (y) = 0.03759 -0.14356
# Poissons Ratio (z) = 0.16199 -0.14498
#
# Static dielectric constant tensor:
#      x y z
#    x 2.036090 -0.020500 0.025980 
#    y -0.020500 1.975020 -0.020340 
#    z 0.025980 -0.020340 2.011690 
# 
# From -- ./inp_files/229221.got.cif
#   From: 2010.05.17/outbox.cif.g08.bks.cpg/sg2_115_cif.got.tgz:229221.got - 2010.06.03 11:33:40.
