data_PCOD9046872
_publ_section_title
;
Structure prediction by ZEFSAII (Michael W. Deem and Ramdas Pophale) SiO2 
 PCOD9046872
Probable space group: P -1
;
_chemical_formula_sum "Si O2"
_cell_formula_units_Z 16
_cell_length_a 14.025282
_cell_length_b 17.893563
_cell_length_c 5.371852
_cell_angle_alpha 118.838634
_cell_angle_beta 121.384714
_cell_angle_gamma 30.916078
_cell_volume 589.358881
_symmetry_space_group_name_H-M "P -1"
_symmetry_group_IT_number 2
_symmetry_cell_setting 'triclinic'
loop_
_space_group_symop_operation_xyz
x,y,z
-x,-y,-z
loop_
_atom_site_type_symbol
_atom_site_label
_atom_site_fract_x
_atom_site_fract_y
_atom_site_fract_z
Si Si1 0.701381 0.563517 0.144590
Si Si2 0.469361 0.159662 0.610484
Si Si3 0.892010 0.690586 0.864662
Si Si4 0.177700 0.747951 0.741840
Si Si5 0.576142 0.556193 0.468349
Si Si6 0.782855 0.124077 0.306156
Si Si7 0.059141 0.146996 0.914944
Si Si8 0.666415 0.894804 0.266794
O O1 0.545393 0.733743 0.170881
O O2 0.676734 0.539635 0.344264
O O3 0.912093 0.468000 0.219358
O O4 0.671578 0.517965 0.802352
O O5 0.286802 0.260720 0.339025
O O6 0.408266 0.129968 0.687629
O O7 0.658724 0.998992 0.499877
O O8 0.874770 0.795362 0.882292
O O9 0.867971 0.735084 0.188492
O O10 0.377419 0.572132 0.717986
O O11 0.213635 0.825833 0.868529
O O12 0.055437 0.793603 0.406499
O O13 0.072377 0.792698 0.928073
O O14 0.368119 0.728713 0.496111
O O15 0.771275 0.028308 0.141173
O O16 0.000000 0.000000 0.500000
O O17 0.500000 0.000000 0.000000
#
# Coordination Sequence:
#
# PCOD9046872 Si02
#       8
#     2   2   2   2   2   2   2   2
#     4  12  28  44  70 104 143 182 241 283 351 408
#     4  10  24  43  68  99 140 191 233 290 339 411
#     4  11  23  42  68  99 139 190 232 289 342 411
#     4  11  22  48  69 102 141 178 226 288 356 421
#     4  12  26  47  70 106 142 185 228 300 346 419
#     4  10  26  47  76 106 138 183 233 286 359 433
#     4  11  24  42  71 106 139 178 235 287 343 416
#     4   9  22  41  63  95 130 181 233 284 345 395
#
# _framework density 27.148146000000001
#
# number of rings (size 3 to 8) (size 9 to 14) (size 15 to 20)
#    0.000    1.250    2.500    1.125    8.750    6.500 
#    0.000    4.375    0.000    0.000    0.000    0.000 
#    0.000    0.000    0.000    0.000    0.000    0.000 
#
# Total GULP energy -89516.172858 kJ/mol
# GULP energy per Si atom -5594.760804 kJ/mol
# Density = 2.708636 g / cm^3
# Si number density = 27.148146 Si / 1000 Ang^3
#
#
#
# Elastic Constant Matrix: (Units=GPa)
#
#
# Indices 1 2 3 4 5 6 
#
# 1 82.9256 7.8509 31.9296 17.8627 -16.9345 -5.3891
# 2 7.8509 137.7694 19.2012 32.5232 -4.1284 -3.3228
# 3 31.9296 19.2012 86.0870 -0.3128 -21.8146 -5.8467
# 4 17.8627 32.5232 -0.3128 37.2120 -5.1612 5.5639
# 5 -16.9345 -4.1284 -21.8146 -5.1612 47.6380 14.3630
# 6 -5.3891 -3.3228 -5.8467 5.5639 14.3630 55.2340
#
#
#
# Elastic Compliance Matrix: (Units=1/GPa)
#
#
# Indices 1 2 3 4 5 6 
#
# 1 0.016953 0.002454 -0.006325 -0.010359 0.001698 0.001734
# 2 0.002454 0.010088 -0.003463 -0.010532 -0.001568 0.001948
# 3 -0.006325 -0.003463 0.016207 0.007257 0.006089 -0.001424
# 4 -0.010359 -0.010532 0.007257 0.042839 0.005354 -0.006584
# 5 0.001698 -0.001568 0.006089 0.005354 0.026882 -0.006814
# 6 0.001734 0.001948 -0.001424 -0.006584 -0.006814 0.020676
#
#
# Mechanical properties :
#
#
# Convention : Reuss Voigt Hill
#
# Bulk Modulus (GPa) = 34.99113 47.19396 41.09254
# Shear Modulus (GPa) = 31.67779 44.53680 38.10730
#
# Velocity S-wave (km/s) = 3.41962 4.05471 3.75064
# Velocity P-wave (km/s) = 5.33935 6.27236 5.82457
#
# Compressibility (1/GPa) = 0.02857867
#
# Stress axis : x y z
#
# Youngs Moduli (GPa) = 58.98721 99.12994 61.70164
#
# Poissons Ratio (x) = -0.24323 0.39025
# Poissons Ratio (y) = -0.14473 0.21370
# Poissons Ratio (z) = 0.37308 0.34332
#
# Static dielectric constant tensor:
#      x y z
#    x 2.114350 -0.053220 0.061740 
#    y -0.053220 2.117280 -0.017140 
#    z 0.061740 -0.017140 2.294910 
# 
# From -- ./inp_files/99920.got.cif
#   From: 2010.05.17/outbox.cif.g08.bks.cpg/sg2_50_cif.got.tgz:99920.got - 2010.06.03 11:33:40.
