data_PCOD9046610
_publ_section_title
;
Structure prediction by ZEFSAII (Michael W. Deem and Ramdas Pophale) SiO2 
 PCOD9046610
Probable space group: P -1
;
_chemical_formula_sum "Si O2"
_cell_formula_units_Z 16
_cell_length_a 16.220977
_cell_length_b 10.957648
_cell_length_c 8.179997
_cell_angle_alpha 39.147513
_cell_angle_beta 99.551681
_cell_angle_gamma 120.059650
_cell_volume 725.584260
_symmetry_space_group_name_H-M "P -1"
_symmetry_group_IT_number 2
_symmetry_cell_setting 'triclinic'
loop_
_space_group_symop_operation_xyz
x,y,z
-x,-y,-z
loop_
_atom_site_type_symbol
_atom_site_label
_atom_site_fract_x
_atom_site_fract_y
_atom_site_fract_z
Si Si1 0.696038 0.605643 0.376846
Si Si2 0.069463 0.280874 0.276872
Si Si3 0.473517 0.983141 0.742046
Si Si4 0.360544 0.924510 0.087534
Si Si5 0.845948 0.121291 0.886086
Si Si6 0.033666 0.532707 0.732030
Si Si7 0.589336 0.498958 0.114099
Si Si8 0.297569 0.445257 0.209333
O O1 0.683902 0.356789 0.623696
O O2 0.629798 0.594188 0.212801
O O3 0.666276 0.607485 0.555137
O O4 0.812047 0.851959 0.134535
O O5 0.180116 0.350653 0.296332
O O6 0.011710 0.340880 0.323827
O O7 0.086189 0.451021 0.954331
O O8 0.000000 0.000000 0.500000
O O9 0.560017 0.949175 0.866413
O O10 0.532275 0.212701 0.408957
O O11 0.433293 0.040861 0.831135
O O12 0.370098 0.732836 0.914485
O O13 0.262526 0.927476 0.050189
O O14 0.887812 0.281421 0.571239
O O15 0.935371 0.285310 0.876765
O O16 0.500000 0.500000 0.000000
O O17 0.684132 0.637297 0.870431
#
# Coordination Sequence:
#
# PCOD9046610 Si02
#       8
#     2   2   2   2   2   2   2   2
#     4  10  24  43  65  99 134 177 227 271 337 409
#     4  11  25  47  70  98 138 178 225 293 339 404
#     4   9  20  41  61  95 133 176 223 270 326 415
#     4   9  20  39  67  94 134 178 220 270 341 399
#     4  11  23  41  71  98 134 181 218 292 340 403
#     4  10  25  43  66 104 131 173 240 275 349 409
#     4  11  26  40  64 106 135 175 232 275 334 415
#     4  11  24  44  70  93 134 187 220 277 354 392
#
# _framework density 22.051195
#
# number of rings (size 3 to 8) (size 9 to 14) (size 15 to 20)
#    0.000    1.750    0.000    3.375    8.750    1.500 
#    2.250    3.125    0.000    0.000    0.000    0.000 
#    0.000    0.000    0.000    0.000    0.000    0.000 
#
# Total GULP energy -89313.194744 kJ/mol
# GULP energy per Si atom -5582.074672 kJ/mol
# Density = 2.200101 g / cm^3
# Si number density = 22.051195 Si / 1000 Ang^3
#
#
#
# Elastic Constant Matrix: (Units=GPa)
#
#
# Indices 1 2 3 4 5 6 
#
# 1 61.9206 18.8395 25.2282 16.7968 3.6675 8.8120
# 2 18.8395 91.2467 59.7789 4.9600 -3.7383 5.5288
# 3 25.2282 59.7789 86.7704 4.3918 1.3463 1.2435
# 4 16.7968 4.9600 4.3918 56.9967 5.1916 -0.4745
# 5 3.6675 -3.7383 1.3463 5.1916 16.2702 -6.8721
# 6 8.8120 5.5288 1.2435 -0.4745 -6.8721 17.3091
#
#
#
# Elastic Compliance Matrix: (Units=1/GPa)
#
#
# Indices 1 2 3 4 5 6 
#
# 1 0.022761 0.000094 -0.006045 -0.005540 -0.009166 -0.014974
# 2 0.000094 0.020815 -0.014325 -0.001196 0.004711 -0.003830
# 3 -0.006045 -0.014325 0.023034 0.001489 -0.002114 0.005200
# 4 -0.005540 -0.001196 0.001489 0.019605 -0.004651 0.001786
# 5 -0.009166 0.004711 -0.002114 -0.004651 0.081238 0.035439
# 6 -0.014974 -0.003830 0.005200 0.001786 0.035439 0.080365
#
#
# Mechanical properties :
#
#
# Convention : Reuss Voigt Hill
#
# Bulk Modulus (GPa) = 38.37703 49.73675 44.05689
# Shear Modulus (GPa) = 16.83189 27.18794 22.00991
#
# Velocity S-wave (km/s) = 2.76580 3.51514 3.16274
# Velocity P-wave (km/s) = 5.25747 6.25133 5.77581
#
# Compressibility (1/GPa) = 0.02605726
#
# Stress axis : x y z
#
# Youngs Moduli (GPa) = 43.93562 48.04291 43.41401
#
# Poissons Ratio (x) = -0.00451 0.26244
# Poissons Ratio (y) = -0.00413 0.62190
# Poissons Ratio (z) = 0.26559 0.68821
#
# Static dielectric constant tensor:
#      x y z
#    x 1.785640 -0.051720 0.013990 
#    y -0.051720 1.908280 0.027060 
#    z 0.013990 0.027060 1.782750 
# 
# From -- ./inp_files/306272.got.cif
#   From: 2010.05.17/outbox.cif.g08.bks.cpg/sg2_154_cif.got.tgz:306272.got - 2010.06.03 11:33:40.
