data_PCOD9046483
_publ_section_title
;
Structure prediction by ZEFSAII (Michael W. Deem and Ramdas Pophale) SiO2 
 PCOD9046483
Probable space group: P -1
;
_chemical_formula_sum "Si O2"
_cell_formula_units_Z 15
_cell_length_a 11.811310
_cell_length_b 20.841474
_cell_length_c 5.486186
_cell_angle_alpha 112.128573
_cell_angle_beta 74.022164
_cell_angle_gamma 149.210680
_cell_volume 637.046066
_symmetry_space_group_name_H-M "P -1"
_symmetry_group_IT_number 2
_symmetry_cell_setting 'triclinic'
loop_
_space_group_symop_operation_xyz
x,y,z
-x,-y,-z
loop_
_atom_site_type_symbol
_atom_site_label
_atom_site_fract_x
_atom_site_fract_y
_atom_site_fract_z
Si Si1 0.499712 0.939807 0.210774
Si Si2 0.221446 0.253444 0.850993
Si Si3 0.440954 0.318626 0.316758
Si Si4 0.071115 0.427961 0.449130
Si Si5 0.000000 0.000000 0.500000
Si Si6 0.644071 0.856418 0.111003
Si Si7 0.190903 0.583417 0.203592
Si Si8 0.113958 0.796195 0.935088
O O1 0.559814 0.891645 0.171800
O O2 0.252925 0.819086 0.073998
O O3 0.500000 0.000000 0.500000
O O4 0.694666 0.059757 0.082565
O O5 0.367831 0.317705 0.611465
O O6 0.057173 0.105904 0.729165
O O7 0.081385 0.253865 0.920810
O O8 0.345440 0.308711 0.118752
O O9 0.709019 0.450186 0.345227
O O10 0.343124 0.189809 0.195399
O O11 0.155760 0.493081 0.225918
O O12 0.868908 0.380779 0.537673
O O13 0.987191 0.308487 0.345649
O O14 0.142192 0.036251 0.695430
O O15 0.444328 0.718926 0.176170
O O16 0.000000 0.500000 0.000000
#
# Coordination Sequence:
#
# PCOD9046483 Si02
#       8
#     2   2   2   2   1   2   2   2
#     4  11  25  47  71 106 147 190 242 311 372 450
#     4  11  27  47  72 107 148 200 248 304 372 449
#     4  11  26  47  72 109 145 194 254 307 370 440
#     4  11  24  43  72 104 147 190 243 309 370 444
#     4  10  24  42  74 104 146 188 250 302 362 442
#     4  11  23  45  78 110 144 192 249 314 372 439
#     4  11  22  42  70 109 143 188 246 307 369 437
#     4  11  27  45  70 107 145 196 242 298 380 446
#
# _framework density 23.546177
#
# number of rings (size 3 to 8) (size 9 to 14) (size 15 to 20)
#    0.000    1.067    1.333    4.000    7.467    3.200 
#    2.400    0.000    0.000    0.000    0.000    0.000 
#    0.000    0.000    0.000    0.000    0.000    0.000 
#
# Total GULP energy -83640.403930 kJ/mol
# GULP energy per Si atom -5576.026929 kJ/mol
# Density = 2.349259 g / cm^3
# Si number density = 23.546177 Si / 1000 Ang^3
#
#
#
# Elastic Constant Matrix: (Units=GPa)
#
#
# Indices 1 2 3 4 5 6 
#
# 1 155.6695 21.4957 40.1819 -0.3556 2.7986 17.7346
# 2 21.4957 56.0444 7.4240 4.5536 0.6899 12.4685
# 3 40.1819 7.4240 80.7438 -1.1070 20.8702 15.5026
# 4 -0.3556 4.5536 -1.1070 35.3825 14.8262 -1.3492
# 5 2.7986 0.6899 20.8702 14.8262 39.2391 0.1004
# 6 17.7346 12.4685 15.5026 -1.3492 0.1004 32.1022
#
#
#
# Elastic Compliance Matrix: (Units=1/GPa)
#
#
# Indices 1 2 3 4 5 6 
#
# 1 0.007871 -0.002106 -0.003856 -0.000566 0.001745 -0.001697
# 2 -0.002106 0.020441 0.000231 -0.003304 0.000934 -0.007029
# 3 -0.003856 0.000231 0.018623 0.005095 -0.011542 -0.006702
# 4 -0.000566 -0.003304 0.005095 0.035599 -0.016064 0.000682
# 5 0.001745 0.000934 -0.011542 -0.016064 0.037543 0.003454
# 6 -0.001697 -0.007029 -0.006702 0.000682 0.003454 0.038073
#
#
# Mechanical properties :
#
#
# Convention : Reuss Voigt Hill
#
# Bulk Modulus (GPa) = 28.19056 47.85122 38.02089
# Shear Modulus (GPa) = 27.55818 36.23517 31.89668
#
# Velocity S-wave (km/s) = 3.42481 3.92714 3.68454
# Velocity P-wave (km/s) = 5.25714 6.39762 5.85522
#
# Compressibility (1/GPa) = 0.03547287
#
# Stress axis : x y z
#
# Youngs Moduli (GPa) = 127.05333 48.92164 53.69847
#
# Poissons Ratio (x) = 0.10302 0.20707
# Poissons Ratio (y) = 0.26755 -0.01243
# Poissons Ratio (z) = 0.48994 -0.01132
#
# Static dielectric constant tensor:
#      x y z
#    x 1.829890 -0.024900 0.017800 
#    y -0.024900 2.140820 -0.171450 
#    z 0.017800 -0.171450 2.051650 
# 
# From -- ./inp_files/83425.got.cif
#   From: 2010.05.17/outbox.cif.g08.bks.cpg/sg2_42_cif.got.tgz:83425.got - 2010.06.03 11:33:40.
