data_PCOD9046893
_publ_section_title
;
Structure prediction by ZEFSAII (Michael W. Deem and Ramdas Pophale) SiO2 
 PCOD9046893
Probable space group: P -1
;
_chemical_formula_sum "Si O2"
_cell_formula_units_Z 16
_cell_length_a 13.056697
_cell_length_b 8.821852
_cell_length_c 11.940054
_cell_angle_alpha 75.624124
_cell_angle_beta 40.554626
_cell_angle_gamma 51.367546
_cell_volume 625.497275
_symmetry_space_group_name_H-M "P -1"
_symmetry_group_IT_number 2
_symmetry_cell_setting 'triclinic'
loop_
_space_group_symop_operation_xyz
x,y,z
-x,-y,-z
loop_
_atom_site_type_symbol
_atom_site_label
_atom_site_fract_x
_atom_site_fract_y
_atom_site_fract_z
Si Si1 0.118029 0.301671 0.023214
Si Si2 0.183263 0.975013 0.138001
Si Si3 0.501429 0.387461 0.626597
Si Si4 0.479436 0.991172 0.387484
Si Si5 0.800041 0.531235 0.876658
Si Si6 0.888450 0.201818 0.976791
Si Si7 0.328855 0.319256 0.272799
Si Si8 0.668262 0.315973 0.733742
O O1 0.288003 0.106632 0.833824
O O2 0.224123 0.327903 0.030549
O O3 0.000000 0.500000 0.000000
O O4 0.018174 0.226244 0.190426
O O5 0.173389 0.893256 0.279519
O O6 0.179352 0.853785 0.063605
O O7 0.429916 0.874763 0.946072
O O8 0.500000 0.500000 0.500000
O O9 0.518526 0.195452 0.608574
O O10 0.284381 0.595541 0.834143
O O11 0.678107 0.283464 0.598456
O O12 0.500000 0.000000 0.500000
O O13 0.317500 0.207830 0.406674
O O14 0.827687 0.589185 0.721924
O O15 0.986183 0.285108 0.814383
O O16 0.575047 0.583061 0.048367
O O17 0.000000 0.000000 0.000000
O O18 0.313509 0.511438 0.288633
#
# Coordination Sequence:
#
# PCOD9046893 Si02
#       8
#     2   2   2   2   2   2   2   2
#     4  11  23  37  56  86 120 150 188 236 285 340
#     4  10  19  30  57  85 113 144 184 239 288 322
#     4  11  23  38  58  85 116 151 192 233 280 341
#     4  11  24  38  57  84 116 155 190 231 286 335
#     4  10  18  34  54  87 114 145 189 236 286 328
#     4  11  20  36  59  86 116 147 186 231 283 340
#     4  10  18  33  58  82 116 141 188 242 284 325
#     4  10  17  34  56  85 113 141 190 242 279 331
#
# _framework density 25.579650000000001
#
# number of rings (size 3 to 8) (size 9 to 14) (size 15 to 20)
#    0.000    1.500    6.250    2.250    3.500    1.500 
#    0.000    0.000    0.000    3.000    0.000    0.000 
#    0.000    0.000    0.000    0.000    0.000    0.000 
#
# Total GULP energy -89222.419028 kJ/mol
# GULP energy per Si atom -5576.401189 kJ/mol
# Density = 2.552143 g / cm^3
# Si number density = 25.579650 Si / 1000 Ang^3
#
#
#
# Elastic Constant Matrix: (Units=GPa)
#
#
# Indices 1 2 3 4 5 6 
#
# 1 132.0600 86.8873 60.8127 -14.6148 59.0642 -20.2330
# 2 86.8873 255.2152 78.3452 -53.6388 47.7801 -29.4873
# 3 60.8127 78.3452 100.8495 -41.3621 37.9084 -17.9722
# 4 -14.6148 -53.6388 -41.3621 45.5200 -17.7284 20.4489
# 5 59.0642 47.7801 37.9084 -17.7284 49.3253 -9.7057
# 6 -20.2330 -29.4873 -17.9722 20.4489 -9.7057 59.2254
#
#
#
# Elastic Compliance Matrix: (Units=1/GPa)
#
#
# Indices 1 2 3 4 5 6 
#
# 1 0.022360 -0.003767 -0.007638 -0.014882 -0.021612 0.005042
# 2 -0.003767 0.006526 -0.000516 0.006475 0.000855 -0.000290
# 3 -0.007638 -0.000516 0.022385 0.017741 -0.001668 -0.002472
# 4 -0.014882 0.006475 0.017741 0.051888 0.014189 -0.012067
# 5 -0.021612 0.000855 -0.001668 0.014189 0.050915 -0.004019
# 6 0.005042 -0.000290 -0.002472 -0.012067 -0.004019 0.021221
#
#
# Mechanical properties :
#
#
# Convention : Reuss Voigt Hill
#
# Bulk Modulus (GPa) = 36.45768 104.46835 70.46302
# Shear Modulus (GPa) = 24.00623 48.28611 36.14617
#
# Velocity S-wave (km/s) = 3.06680 4.34945 3.76318
# Velocity P-wave (km/s) = 5.17918 8.13343 6.81823
#
# Compressibility (1/GPa) = 0.02742906
#
# Stress axis : x y z
#
# Youngs Moduli (GPa) = 44.72363 153.22497 44.67266
#
# Poissons Ratio (x) = 0.57714 0.34122
# Poissons Ratio (y) = 0.16846 0.02306
# Poissons Ratio (z) = 0.34161 0.07908
#
# Static dielectric constant tensor:
#      x y z
#    x 2.116860 -0.126410 -0.129430 
#    y -0.126410 2.143600 -0.006750 
#    z -0.129430 -0.006750 2.115680 
# 
# From -- ./inp_files/447337.got.cif
#   From: 2010.05.17/outbox.cif.g08.bks.cpg/sg2_224_cif.got.tgz:447337.got - 2010.06.03 11:33:40.
