data_PCOD9046966
_publ_section_title
;
Structure prediction by ZEFSAII (Michael W. Deem and Ramdas Pophale) SiO2 
 PCOD9046966
Probable space group: P -1
;
_chemical_formula_sum "Si O2"
_cell_formula_units_Z 14
_cell_length_a 21.675570
_cell_length_b 20.350211
_cell_length_c 11.243160
_cell_angle_alpha 157.146836
_cell_angle_beta 30.875772
_cell_angle_gamma 160.670761
_cell_volume 635.066577
_symmetry_space_group_name_H-M "P -1"
_symmetry_group_IT_number 2
_symmetry_cell_setting 'triclinic'
loop_
_space_group_symop_operation_xyz
x,y,z
-x,-y,-z
loop_
_atom_site_type_symbol
_atom_site_label
_atom_site_fract_x
_atom_site_fract_y
_atom_site_fract_z
Si Si1 0.951823 0.266218 0.335568
Si Si2 0.835074 0.779798 0.633187
Si Si3 0.212085 0.020752 0.426917
Si Si4 0.700651 0.642735 0.372286
Si Si5 0.893268 0.450481 0.214190
Si Si6 0.710334 0.295671 0.661186
Si Si7 0.554699 0.255674 0.352327
O O1 0.963532 0.331218 0.561325
O O2 0.162695 0.504505 0.327975
O O3 0.828535 0.271418 0.480962
O O4 0.855319 0.981450 0.999423
O O5 0.835017 0.816078 0.552613
O O6 0.653569 0.468453 0.438058
O O7 0.005102 0.852380 0.523728
O O8 0.257535 0.214850 0.581324
O O9 0.359453 0.147277 0.500617
O O10 0.201148 0.829542 0.057002
O O11 0.500000 0.500000 0.500000
O O12 0.700473 0.444551 0.013664
O O13 0.728723 0.413800 0.416615
O O14 0.000000 0.500000 0.000000
O O15 0.500000 0.000000 0.500000
O O16 0.500000 0.000000 0.000000
#
# Coordination Sequence:
#
# PCOD9046966 Si02
#       7
#     2   2   2   2   2   2   2
#     4  11  27  44  70 103 146 186 232 294 356 418
#     4  12  23  43  70 103 138 181 234 287 355 417
#     4  11  23  42  70  97 135 179 240 285 342 420
#     4  12  24  41  75 105 140 187 231 291 356 423
#     4  11  24  47  71  97 137 191 238 288 349 418
#     4  11  26  45  67 109 149 183 229 291 362 421
#     4  10  24  43  69  99 131 179 239 286 342 411
#
# _framework density 22.044931999999999
#
# number of rings (size 3 to 8) (size 9 to 14) (size 15 to 20)
#    0.000    0.857    4.286    2.143    6.000    0.571 
#    2.571    0.714    0.000    0.000    0.000    0.000 
#    0.000    0.000    0.000    0.000    0.000    0.000 
#
# Total GULP energy -78033.196168 kJ/mol
# GULP energy per Si atom -5573.799726 kJ/mol
# Density = 2.199476 g / cm^3
# Si number density = 22.044932 Si / 1000 Ang^3
#
#
#
# Elastic Constant Matrix: (Units=GPa)
#
#
# Indices 1 2 3 4 5 6 
#
# 1 82.8895 25.6163 43.0700 0.0031 -5.2667 22.0598
# 2 25.6163 114.2817 20.5512 0.7003 -2.6065 14.1854
# 3 43.0700 20.5512 128.4514 -0.4241 -9.3095 -0.8834
# 4 0.0031 0.7003 -0.4241 34.6046 2.5361 -13.2157
# 5 -5.2667 -2.6065 -9.3095 2.5361 43.0934 -7.5099
# 6 22.0598 14.1854 -0.8834 -13.2157 -7.5099 37.2445
#
#
#
# Elastic Compliance Matrix: (Units=1/GPa)
#
#
# Indices 1 2 3 4 5 6 
#
# 1 0.019225 -0.001555 -0.006381 -0.004896 -0.001083 -0.012902
# 2 -0.001555 0.009718 -0.001086 -0.001484 -0.000342 -0.003401
# 3 -0.006381 -0.001086 0.010307 0.002142 0.002239 0.005649
# 4 -0.004896 -0.001484 0.002142 0.035049 0.000510 0.016055
# 5 -0.001083 -0.000342 0.002239 0.000510 0.024544 0.005955
# 6 -0.012902 -0.003401 0.005649 0.016055 0.005955 0.042819
#
#
# Mechanical properties :
#
#
# Convention : Reuss Voigt Hill
#
# Bulk Modulus (GPa) = 47.15897 56.01083 51.58490
# Shear Modulus (GPa) = 29.98059 38.74752 34.36406
#
# Velocity S-wave (km/s) = 3.69179 4.19699 3.95247
# Velocity P-wave (km/s) = 6.29373 6.99636 6.65433
#
# Compressibility (1/GPa) = 0.02120488
#
# Stress axis : x y z
#
# Youngs Moduli (GPa) = 52.01430 102.90444 97.02489
#
# Poissons Ratio (x) = 0.16003 0.61911
# Poissons Ratio (y) = 0.08089 0.10541
# Poissons Ratio (z) = 0.33190 0.11180
#
# Static dielectric constant tensor:
#      x y z
#    x 2.062230 -0.635460 -0.503590 
#    y -0.635460 3.658180 1.477530 
#    z -0.503590 1.477530 2.956300 
# 
# From -- ./inp_files/433596.got.cif
#   From: 2010.05.17/outbox.cif.g08.bks.cpg/sg2_217_cif.got.tgz:433596.got - 2010.06.03 11:33:40.
