data_PCOD9046398
_publ_section_title
;
Structure prediction by ZEFSAII (Michael W. Deem and Ramdas Pophale) SiO2 
 PCOD9046398
Probable space group: P -1
;
_chemical_formula_sum "Si O2"
_cell_formula_units_Z 12
_cell_length_a 12.467334
_cell_length_b 10.192679
_cell_length_c 5.237036
_cell_angle_alpha 89.826673
_cell_angle_beta 110.774899
_cell_angle_gamma 57.442556
_cell_volume 508.323652
_symmetry_space_group_name_H-M "P -1"
_symmetry_group_IT_number 2
_symmetry_cell_setting 'triclinic'
loop_
_space_group_symop_operation_xyz
x,y,z
-x,-y,-z
loop_
_atom_site_type_symbol
_atom_site_label
_atom_site_fract_x
_atom_site_fract_y
_atom_site_fract_z
Si Si1 0.580747 0.350763 0.764457
Si Si2 0.384521 0.961672 0.448534
Si Si3 0.175376 0.382592 0.596877
Si Si4 0.196391 0.586155 0.981735
Si Si5 0.558644 0.725567 0.974113
Si Si6 0.904102 0.714497 0.957328
O O1 0.500000 0.500000 0.500000
O O2 0.598712 0.192670 0.667041
O O3 0.727904 0.324349 0.951731
O O4 0.488880 0.376160 0.933734
O O5 0.424307 0.893444 0.771219
O O6 0.500000 0.000000 0.500000
O O7 0.230208 0.109878 0.239146
O O8 0.155042 0.546330 0.675426
O O9 0.111727 0.388281 0.273138
O O10 0.343190 0.258411 0.751085
O O11 0.121907 0.323032 0.779661
O O12 0.055318 0.679519 0.028140
O O13 0.326311 0.395733 0.145450
#
# Coordination Sequence:
#
# PCOD9046398 Si02
#       6
#     2   2   2   2   2   2
#     4  12  25  45  73 104 143 190 248 289 359 432
#     4  12  25  44  72 106 143 189 237 303 357 429
#     4  10  24  42  74 101 145 184 244 289 356 425
#     4  10  24  43  69 101 142 193 235 298 351 432
#     4  10  24  42  72 101 138 185 244 291 352 423
#     4  12  25  45  68 111 143 189 235 300 362 423
#
# _framework density 23.607004
#
# number of rings (size 3 to 8) (size 9 to 14) (size 15 to 20)
#    1.000    0.000    3.333    2.500    4.667    3.333 
#    0.000    0.833    0.000    0.000    0.000    0.000 
#    0.000    0.000    0.000    0.000    0.000    0.000 
#
# Total GULP energy -66890.442811 kJ/mol
# GULP energy per Si atom -5574.203568 kJ/mol
# Density = 2.355327 g / cm^3
# Si number density = 23.607004 Si / 1000 Ang^3
#
#
#
# Elastic Constant Matrix: (Units=GPa)
#
#
# Indices 1 2 3 4 5 6 
#
# 1 223.0716 60.5807 73.3716 -4.4926 18.2545 -0.5842
# 2 60.5807 111.6340 20.9807 -15.6424 10.2653 5.9683
# 3 73.3716 20.9807 126.5591 -1.0754 2.3893 3.1170
# 4 -4.4926 -15.6424 -1.0754 34.6115 5.4283 7.8110
# 5 18.2545 10.2653 2.3893 5.4283 43.0450 0.6315
# 6 -0.5842 5.9683 3.1170 7.8110 0.6315 31.2801
#
#
#
# Elastic Compliance Matrix: (Units=1/GPa)
#
#
# Indices 1 2 3 4 5 6 
#
# 1 0.006484 -0.002871 -0.003282 -0.000533 -0.001833 0.001166
# 2 -0.002871 0.011818 -0.000105 0.006186 -0.002320 -0.003796
# 3 -0.003282 -0.000105 0.009829 -0.000079 0.000896 -0.001019
# 4 -0.000533 0.006186 -0.000079 0.034670 -0.005474 -0.009729
# 5 -0.001833 -0.002320 0.000896 -0.005474 0.025185 0.001178
# 6 0.001166 -0.003796 -0.001019 -0.009729 0.001178 0.035223
#
#
# Mechanical properties :
#
#
# Convention : Reuss Voigt Hill
#
# Bulk Modulus (GPa) = 64.03563 85.68121 74.85842
# Shear Modulus (GPa) = 35.47843 42.20944 38.84394
#
# Velocity S-wave (km/s) = 3.88090 4.23307 4.06080
# Velocity P-wave (km/s) = 6.87506 7.76308 7.33253
#
# Compressibility (1/GPa) = 0.01561631
#
# Stress axis : x y z
#
# Youngs Moduli (GPa) = 154.22073 84.61394 101.73889
#
# Poissons Ratio (x) = 0.24288 0.33390
# Poissons Ratio (y) = 0.44269 0.01071
# Poissons Ratio (z) = 0.50614 0.00890
#
# Static dielectric constant tensor:
#      x y z
#    x 1.950100 -0.066600 -0.000740 
#    y -0.066600 2.024800 0.053600 
#    z -0.000740 0.053600 2.085840 
# 
# From -- ./inp_files/63988.got.cif
#   From: 2010.05.17/outbox.cif.g08.bks.cpg/sg2_32_cif.got.tgz:63988.got - 2010.06.03 11:33:40.
