data_PCOD9046660
_publ_section_title
;
Structure prediction by ZEFSAII (Michael W. Deem and Ramdas Pophale) SiO2 
 PCOD9046660
Probable space group: P -1
;
_chemical_formula_sum "Si O2"
_cell_formula_units_Z 14
_cell_length_a 24.896972
_cell_length_b 8.866244
_cell_length_c 5.180028
_cell_angle_alpha 92.575554
_cell_angle_beta 82.722933
_cell_angle_gamma 148.646598
_cell_volume 585.717759
_symmetry_space_group_name_H-M "P -1"
_symmetry_group_IT_number 2
_symmetry_cell_setting 'triclinic'
loop_
_space_group_symop_operation_xyz
x,y,z
-x,-y,-z
loop_
_atom_site_type_symbol
_atom_site_label
_atom_site_fract_x
_atom_site_fract_y
_atom_site_fract_z
Si Si1 0.723870 0.188331 0.075323
Si Si2 0.291723 0.327350 0.513336
Si Si3 0.564852 0.102925 0.723020
Si Si4 0.483592 0.288825 0.554264
Si Si5 0.824406 0.761755 0.048011
Si Si6 0.810700 0.224794 0.535763
Si Si7 0.033862 0.906065 0.503824
O O1 0.778147 0.481941 0.046529
O O2 0.769472 0.203124 0.293910
O O3 0.602068 0.926071 0.186754
O O4 0.747971 0.149186 0.805120
O O5 0.322122 0.548255 0.342986
O O6 0.401040 0.498549 0.446475
O O7 0.263034 0.326992 0.810964
O O8 0.207775 0.999203 0.471696
O O9 0.500000 0.000000 0.500000
O O10 0.566069 0.927891 0.663982
O O11 0.500000 0.000000 0.000000
O O12 0.500000 0.500000 0.500000
O O13 0.905984 0.963313 0.253138
O O14 0.889105 0.949192 0.766795
O O15 0.930987 0.558211 0.526482
O O16 0.000000 0.000000 0.500000
#
# Coordination Sequence:
#
# PCOD9046660 Si02
#       7
#     2   2   2   2   2   2   2
#     4  12  24  45  72 108 137 191 236 289 350 421
#     4  11  27  47  68 109 150 186 230 295 356 420
#     4  10  24  43  66  96 137 181 224 281 342 403
#     4  11  24  47  74 105 143 190 240 285 344 429
#     4  12  25  46  76 104 144 185 235 295 361 414
#     4  12  27  44  74 105 143 181 242 295 351 419
#     4  12  24  46  77 107 135 185 243 297 350 421
#
# _framework density 23.902296
#
# number of rings (size 3 to 8) (size 9 to 14) (size 15 to 20)
#    0.000    0.571    5.714    1.286    2.000    7.429 
#    0.000    0.000    0.000    0.000    0.000    0.000 
#    0.000    0.000    0.000    0.000    0.000    0.000 
#
# Total GULP energy -78452.551557 kJ/mol
# GULP energy per Si atom -5603.753683 kJ/mol
# Density = 2.384789 g / cm^3
# Si number density = 23.902296 Si / 1000 Ang^3
#
#
#
# Elastic Constant Matrix: (Units=GPa)
#
#
# Indices 1 2 3 4 5 6 
#
# 1 76.3998 40.6969 34.1271 8.8333 -1.3786 -9.6260
# 2 40.6969 185.0412 54.6301 -7.9254 -15.0134 -47.1192
# 3 34.1271 54.6301 196.0649 0.9453 -19.9442 -16.5146
# 4 8.8333 -7.9254 0.9453 35.4149 8.0779 -15.9830
# 5 -1.3786 -15.0134 -19.9442 8.0779 38.0651 9.4911
# 6 -9.6260 -47.1192 -16.5146 -15.9830 9.4911 54.3682
#
#
#
# Elastic Compliance Matrix: (Units=1/GPa)
#
#
# Indices 1 2 3 4 5 6 
#
# 1 0.016505 -0.004126 -0.001948 -0.006435 0.000102 -0.003154
# 2 -0.004126 0.009306 -0.001231 0.007631 -0.001086 0.009394
# 3 -0.001948 -0.001231 0.006051 -0.000726 0.002839 -0.000283
# 4 -0.006435 0.007631 -0.000726 0.043304 -0.011791 0.020043
# 5 0.000102 -0.001086 0.002839 -0.011791 0.032113 -0.009133
# 6 -0.003154 0.009394 -0.000283 0.020043 -0.009133 0.033376
#
#
# Mechanical properties :
#
#
# Convention : Reuss Voigt Hill
#
# Bulk Modulus (GPa) = 57.95906 79.60156 68.78031
# Shear Modulus (GPa) = 31.05328 47.43976 39.24652
#
# Velocity S-wave (km/s) = 3.60832 4.45987 4.05650
# Velocity P-wave (km/s) = 6.45453 7.73924 7.12589
#
# Compressibility (1/GPa) = 0.01725356
#
# Stress axis : x y z
#
# Youngs Moduli (GPa) = 60.58738 107.46077 165.26836
#
# Poissons Ratio (x) = 0.44334 0.32188
# Poissons Ratio (y) = 0.24996 0.20341
# Poissons Ratio (z) = 0.11800 0.13226
#
# Static dielectric constant tensor:
#      x y z
#    x 2.221140 -0.020130 0.102460 
#    y -0.020130 1.933380 -0.009910 
#    z 0.102460 -0.009910 1.894580 
# 
# From -- ./inp_files/126485.got.cif
#   From: 2010.05.17/outbox.cif.g08.bks.cpg/sg2_64_cif.got.tgz:126485.got - 2010.06.03 11:33:40.
