data_PCOD9046352
_publ_section_title
;
Structure prediction by ZEFSAII (Michael W. Deem and Ramdas Pophale) SiO2 
 PCOD9046352
Probable space group: P -1
;
_chemical_formula_sum "Si O2"
_cell_formula_units_Z 12
_cell_length_a 5.007802
_cell_length_b 9.128432
_cell_length_c 12.223111
_cell_angle_alpha 80.862701
_cell_angle_beta 65.093835
_cell_angle_gamma 77.423017
_cell_volume 493.210520
_symmetry_space_group_name_H-M "P -1"
_symmetry_group_IT_number 2
_symmetry_cell_setting 'triclinic'
loop_
_space_group_symop_operation_xyz
x,y,z
-x,-y,-z
loop_
_atom_site_type_symbol
_atom_site_label
_atom_site_fract_x
_atom_site_fract_y
_atom_site_fract_z
Si Si1 0.744711 0.524457 0.871702
Si Si2 0.662338 0.974071 0.090798
Si Si3 0.691093 0.374780 0.243738
Si Si4 0.857460 0.873904 0.685488
Si Si5 0.249672 0.308316 0.734010
Si Si6 0.215384 0.128100 0.545313
O O1 0.584047 0.623751 0.789011
O O2 0.008976 0.593909 0.874998
O O3 0.900784 0.369787 0.809723
O O4 0.500000 0.500000 0.000000
O O5 0.449907 0.086642 0.196707
O O6 0.666989 0.813078 0.169246
O O7 0.500000 0.000000 0.000000
O O8 0.000000 0.000000 0.000000
O O9 0.620293 0.534407 0.302662
O O10 0.850288 0.228566 0.298321
O O11 0.836727 0.807607 0.574949
O O12 0.947661 0.039963 0.633836
O O13 0.278482 0.236137 0.618530
O O14 0.500000 0.000000 0.500000
#
# Coordination Sequence:
#
# PCOD9046352 Si02
#       6
#     2   2   2   2   2   2
#     4  10  24  42  71 101 148 188 234 294 362 429
#     4  12  28  42  73 107 148 183 239 297 363 434
#     4  10  26  42  73 102 144 180 248 289 365 420
#     4  11  27  45  74 108 142 196 245 300 368 427
#     4  10  26  45  73 104 146 191 242 296 366 422
#     4  11  24  48  74 101 150 191 247 302 358 436
#
# _framework density 24.330380999999999
#
# number of rings (size 3 to 8) (size 9 to 14) (size 15 to 20)
#    1.000    0.333    1.667    1.500   11.667    0.667 
#    0.000    1.667    0.000    0.000    0.000    0.000 
#    0.000    0.000    0.000    0.000    0.000    0.000 
#
# Total GULP energy -66967.823874 kJ/mol
# GULP energy per Si atom -5580.651989 kJ/mol
# Density = 2.427500 g / cm^3
# Si number density = 24.330381 Si / 1000 Ang^3
#
#
#
# Elastic Constant Matrix: (Units=GPa)
#
#
# Indices 1 2 3 4 5 6 
#
# 1 85.6301 32.7836 29.8343 4.1804 7.0767 -33.6383
# 2 32.7836 149.7917 73.1559 -3.6792 12.7230 -26.6327
# 3 29.8343 73.1559 136.0237 0.4149 9.0130 -12.3227
# 4 4.1804 -3.6792 0.4149 42.8836 -16.2513 4.9633
# 5 7.0767 12.7230 9.0130 -16.2513 34.3510 -13.0801
# 6 -33.6383 -26.6327 -12.3227 4.9633 -13.0801 42.5891
#
#
#
# Elastic Compliance Matrix: (Units=1/GPa)
#
#
# Indices 1 2 3 4 5 6 
#
# 1 0.018366 -0.000395 -0.002588 -0.003065 0.000988 0.014170
# 2 -0.000395 0.009943 -0.004832 0.000216 -0.000594 0.004300
# 3 -0.002588 -0.004832 0.010403 -0.000595 -0.001636 -0.002489
# 4 -0.003065 0.000216 -0.000595 0.029078 0.013859 -0.001591
# 5 0.000988 -0.000594 -0.001636 0.013859 0.040172 0.010658
# 6 0.014170 0.004300 -0.002489 -0.001591 0.010658 0.040100
#
#
# Mechanical properties :
#
#
# Convention : Reuss Voigt Hill
#
# Bulk Modulus (GPa) = 43.32750 71.44368 57.38559
# Shear Modulus (GPa) = 29.17396 39.67619 34.42507
#
# Velocity S-wave (km/s) = 3.46652 4.04261 3.76560
# Velocity P-wave (km/s) = 5.81971 7.15667 6.52254
#
# Compressibility (1/GPa) = 0.02308003
#
# Stress axis : x y z
#
# Youngs Moduli (GPa) = 54.44911 100.57554 96.12642
#
# Poissons Ratio (x) = 0.03976 0.24877
# Poissons Ratio (y) = 0.02153 0.46453
# Poissons Ratio (z) = 0.14091 0.48603
#
# Static dielectric constant tensor:
#      x y z
#    x 2.025690 0.060300 -0.063850 
#    y 0.060300 2.005360 -0.062160 
#    z -0.063850 -0.062160 1.933360 
# 
# From -- ./inp_files/361155.got.cif
#   From: 2010.05.17/outbox.cif.g08.bks.cpg/sg2_181_cif.got.tgz:361155.got - 2010.06.03 11:33:40.
