data_PCOD9046663
_publ_section_title
;
Structure prediction by ZEFSAII (Michael W. Deem and Ramdas Pophale) SiO2 
 PCOD9046663
Probable space group: P -1
;
_chemical_formula_sum "Si O2"
_cell_formula_units_Z 16
_cell_length_a 5.111024
_cell_length_b 8.259497
_cell_length_c 25.914098
_cell_angle_alpha 131.662615
_cell_angle_beta 55.981412
_cell_angle_gamma 119.653979
_cell_volume 663.922755
_symmetry_space_group_name_H-M "P -1"
_symmetry_group_IT_number 2
_symmetry_cell_setting 'triclinic'
loop_
_space_group_symop_operation_xyz
x,y,z
-x,-y,-z
loop_
_atom_site_type_symbol
_atom_site_label
_atom_site_fract_x
_atom_site_fract_y
_atom_site_fract_z
Si Si1 0.122819 0.556143 0.439610
Si Si2 0.714973 0.552517 0.938154
Si Si3 0.592348 0.229026 0.070759
Si Si4 0.185711 0.802692 0.213723
Si Si5 0.531867 0.215895 0.298217
Si Si6 0.554131 0.948420 0.338203
Si Si7 0.794105 0.516038 0.758492
Si Si8 0.668327 0.819665 0.495347
O O1 0.274420 0.373351 0.354595
O O2 0.444253 0.748473 0.455428
O O3 0.000000 0.500000 0.500000
O O4 0.818138 0.612863 0.455052
O O5 0.487357 0.599798 0.927014
O O6 0.850927 0.336053 0.863019
O O7 0.032693 0.737965 0.949650
O O8 0.500000 0.500000 0.000000
O O9 0.407892 0.304094 0.158122
O O10 0.500000 0.000000 0.000000
O O11 0.148059 0.627059 0.227551
O O12 0.499137 0.995081 0.220305
O O13 0.905402 0.933892 0.278795
O O14 0.438951 0.100736 0.339706
O O15 0.881859 0.359692 0.278144
O O16 0.547164 0.078705 0.418914
O O17 0.373721 0.690367 0.303093
O O18 0.000000 0.000000 0.500000
#
# Coordination Sequence:
#
# PCOD9046663 Si02
#       8
#     2   2   2   2   2   2   2   2
#     4  12  25  46  65 100 134 172 230 286 334 404
#     4  11  24  45  72 101 138 180 223 274 337 404
#     4  11  24  45  69 103 139 175 224 281 332 400
#     4  10  24  43  66  97 137 174 225 278 336 402
#     4  11  25  41  69  95 133 183 225 280 344 400
#     4  11  23  44  65  95 134 178 223 285 334 409
#     4  10  24  44  65  98 136 176 226 277 338 405
#     4  12  27  43  71  96 134 179 228 281 347 400
#
# _framework density 24.099191999999999
#
# number of rings (size 3 to 8) (size 9 to 14) (size 15 to 20)
#    0.000    1.000    2.500    3.000    7.000    2.000 
#    0.000    0.000    0.000    0.000    0.000    0.000 
#    0.000    0.000    0.000    0.000    0.000    0.000 
#
# Total GULP energy -89339.108078 kJ/mol
# GULP energy per Si atom -5583.694255 kJ/mol
# Density = 2.404434 g / cm^3
# Si number density = 24.099192 Si / 1000 Ang^3
#
#
#
# Elastic Constant Matrix: (Units=GPa)
#
#
# Indices 1 2 3 4 5 6 
#
# 1 73.5375 10.2525 17.2414 5.4685 -2.8457 7.2714
# 2 10.2525 108.3140 39.9950 16.6498 3.4860 31.2140
# 3 17.2414 39.9950 150.3835 19.6987 -0.9622 8.8936
# 4 5.4685 16.6498 19.6987 36.5222 13.7087 8.3937
# 5 -2.8457 3.4860 -0.9622 13.7087 35.9144 9.3674
# 6 7.2714 31.2140 8.8936 8.3937 9.3674 38.3623
#
#
#
# Elastic Compliance Matrix: (Units=1/GPa)
#
#
# Indices 1 2 3 4 5 6 
#
# 1 0.014383 0.000086 -0.001255 -0.001832 0.002505 -0.002716
# 2 0.000086 0.013601 -0.002545 -0.003446 0.002642 -0.010384
# 3 -0.001255 -0.002545 0.007912 -0.003705 0.001536 0.000910
# 4 -0.001832 -0.003446 -0.003705 0.036505 -0.013678 -0.000637
# 5 0.002505 0.002642 0.001536 -0.013678 0.035293 -0.008606
# 6 -0.002716 -0.010384 0.000910 -0.000637 -0.008606 0.037061
#
#
# Mechanical properties :
#
#
# Convention : Reuss Voigt Hill
#
# Bulk Modulus (GPa) = 35.12829 51.91251 43.52040
# Shear Modulus (GPa) = 30.92693 39.80953 35.36823
#
# Velocity S-wave (km/s) = 3.58623 4.06877 3.83510
# Velocity P-wave (km/s) = 5.63527 6.60766 6.14074
#
# Compressibility (1/GPa) = 0.02846709
#
# Stress axis : x y z
#
# Youngs Moduli (GPa) = 69.52870 73.52322 126.39538
#
# Poissons Ratio (x) = -0.00630 0.15865
# Poissons Ratio (y) = -0.00596 0.32163
# Poissons Ratio (z) = 0.08727 0.18709
#
# Static dielectric constant tensor:
#      x y z
#    x 1.970010 0.016390 0.010300 
#    y 0.016390 2.053110 0.079360 
#    z 0.010300 0.079360 1.948390 
# 
# From -- ./inp_files/47656.got.cif
#   From: 2010.05.17/outbox.cif.g08.bks.cpg/sg2_24_cif.got.tgz:47656.got - 2010.06.03 11:33:40.
