data_PCOD9046375
_publ_section_title
;
Structure prediction by ZEFSAII (Michael W. Deem and Ramdas Pophale) SiO2 
 PCOD9046375
Probable space group: P -1
;
_chemical_formula_sum "Si O2"
_cell_formula_units_Z 13
_cell_length_a 7.762191
_cell_length_b 9.320394
_cell_length_c 12.019103
_cell_angle_alpha 48.965198
_cell_angle_beta 70.944447
_cell_angle_gamma 100.878697
_cell_volume 511.382149
_symmetry_space_group_name_H-M "P -1"
_symmetry_group_IT_number 2
_symmetry_cell_setting 'triclinic'
loop_
_space_group_symop_operation_xyz
x,y,z
-x,-y,-z
loop_
_atom_site_type_symbol
_atom_site_label
_atom_site_fract_x
_atom_site_fract_y
_atom_site_fract_z
Si Si1 0.801360 0.345717 0.208781
Si Si2 0.307462 0.376793 0.192897
Si Si3 0.904522 0.339217 0.856627
Si Si4 0.332574 0.379986 0.440335
Si Si5 0.320891 0.987853 0.394034
Si Si6 0.432758 0.151989 0.716996
Si Si7 0.000000 0.500000 0.500000
O O1 0.577831 0.191026 0.263652
O O2 0.861346 0.543112 0.187749
O O3 0.776134 0.155331 0.399054
O O4 0.000000 0.500000 0.000000
O O5 0.191681 0.512815 0.156739
O O6 0.384619 0.387081 0.297417
O O7 0.197458 0.107547 0.324015
O O8 0.500000 0.500000 0.000000
O O9 0.929108 0.366770 0.706425
O O10 0.737665 0.080440 0.064963
O O11 0.342847 0.191170 0.602735
O O12 0.496685 0.630349 0.333587
O O13 0.103914 0.354593 0.514442
O O14 0.347860 0.841128 0.367255
#
# Coordination Sequence:
#
# PCOD9046375 Si02
#       7
#     2   2   2   2   2   2   1
#     4  11  21  39  65 102 129 180 221 282 327 409
#     4  11  22  43  66 106 135 180 220 282 345 416
#     4  11  24  43  70  95 142 174 233 278 342 405
#     4  10  24  42  71  95 136 173 233 276 344 399
#     4  11  23  41  72  99 143 174 227 283 346 394
#     4  11  22  45  70  99 125 188 225 285 330 406
#     4  10  24  44  56  98 136 174 216 284 330 410
#
# _framework density 25.421302000000001
#
# number of rings (size 3 to 8) (size 9 to 14) (size 15 to 20)
#    0.000    1.231    3.077    2.769    0.000    4.923 
#    2.769    3.077    0.000    0.000    0.000    0.000 
#    0.000    0.000    0.000    0.000    0.000    0.000 
#
# Total GULP energy -72436.100325 kJ/mol
# GULP energy per Si atom -5572.007717 kJ/mol
# Density = 2.536344 g / cm^3
# Si number density = 25.421302 Si / 1000 Ang^3
#
#
#
# Elastic Constant Matrix: (Units=GPa)
#
#
# Indices 1 2 3 4 5 6 
#
# 1 67.9484 13.9424 55.8006 2.3607 0.8372 -11.4292
# 2 13.9424 120.0541 71.5384 30.7590 7.3845 -32.2099
# 3 55.8006 71.5384 250.3904 15.4030 10.0007 4.1091
# 4 2.3607 30.7590 15.4030 59.9415 2.9296 6.4529
# 5 0.8372 7.3845 10.0007 2.9296 44.7501 -0.1732
# 6 -11.4292 -32.2099 4.1091 6.4529 -0.1732 34.9569
#
#
#
# Elastic Compliance Matrix: (Units=1/GPa)
#
#
# Indices 1 2 3 4 5 6 
#
# 1 0.021316 0.006177 -0.006523 -0.003873 0.000348 0.014144
# 2 0.006177 0.022003 -0.007272 -0.012343 -0.001215 0.025421
# 3 -0.006523 -0.007272 0.007522 0.003195 -0.000608 -0.010311
# 4 -0.003873 -0.012343 0.003195 0.024244 -0.000260 -0.017491
# 5 0.000348 -0.001215 -0.000608 -0.000260 0.022690 -0.000774
# 6 0.014144 0.025421 -0.010311 -0.017491 -0.000774 0.061091
#
#
# Mechanical properties :
#
#
# Convention : Reuss Voigt Hill
#
# Bulk Modulus (GPa) = 28.08644 80.10620 54.09632
# Shear Modulus (GPa) = 26.88603 47.73715 37.31159
#
# Velocity S-wave (km/s) = 3.25563 4.33811 3.83525
# Velocity P-wave (km/s) = 5.02041 7.52809 6.39831
#
# Compressibility (1/GPa) = 0.03560436
#
# Stress axis : x y z
#
# Youngs Moduli (GPa) = 46.91372 45.44842 132.94126
#
# Poissons Ratio (x) = -0.28074 0.86717
# Poissons Ratio (y) = -0.28979 0.96680
# Poissons Ratio (z) = 0.30601 0.33052
#
# Static dielectric constant tensor:
#      x y z
#    x 2.342980 0.314260 -0.148160 
#    y 0.314260 2.616680 -0.257420 
#    z -0.148160 -0.257420 2.020430 
# 
# From -- ./inp_files/377629.got.cif
#   From: 2010.05.17/outbox.cif.g08.bks.cpg/sg2_189_cif.got.tgz:377629.got - 2010.06.03 11:33:40.
