data_PCOD9046849
_publ_section_title
;
Structure prediction by ZEFSAII (Michael W. Deem and Ramdas Pophale) SiO2 
 PCOD9046849
Probable space group: P -1
;
_chemical_formula_sum "Si O2"
_cell_formula_units_Z 16
_cell_length_a 11.579767
_cell_length_b 12.588909
_cell_length_c 12.931643
_cell_angle_alpha 32.245191
_cell_angle_beta 66.931120
_cell_angle_gamma 47.073262
_cell_volume 649.485727
_symmetry_space_group_name_H-M "P -1"
_symmetry_group_IT_number 2
_symmetry_cell_setting 'triclinic'
loop_
_space_group_symop_operation_xyz
x,y,z
-x,-y,-z
loop_
_atom_site_type_symbol
_atom_site_label
_atom_site_fract_x
_atom_site_fract_y
_atom_site_fract_z
Si Si1 0.031431 0.924374 0.801692
Si Si2 0.576355 0.379215 0.329086
Si Si3 0.790482 0.778918 0.357155
Si Si4 0.199255 0.778039 0.067159
Si Si5 0.462481 0.098361 0.092421
Si Si6 0.797809 0.890633 0.484712
Si Si7 0.149040 0.429792 0.075687
Si Si8 0.662812 0.169672 0.692798
O O1 0.169268 0.717673 0.015329
O O2 0.835515 0.059358 0.781678
O O3 0.049445 0.134122 0.593889
O O4 0.098810 0.717538 0.854391
O O5 0.686874 0.171939 0.558660
O O6 0.661264 0.192711 0.346368
O O7 0.372276 0.523272 0.281153
O O8 0.566189 0.632880 0.141538
O O9 0.734798 0.837929 0.449057
O O10 0.000000 0.500000 0.500000
O O11 0.760389 0.040758 0.122537
O O12 0.664411 0.816519 0.286405
O O13 0.000000 0.000000 0.000000
O O14 0.347925 0.197960 0.154885
O O15 0.383512 0.010043 0.120666
O O16 0.866361 0.659779 0.735443
O O17 0.000000 0.500000 0.000000
O O18 0.500000 0.500000 0.500000
#
# Coordination Sequence:
#
# PCOD9046849 Si02
#       8
#     2   2   2   2   2   2   2   2
#     4  11  25  42  68  99 135 175 224 285 334 402
#     4  11  24  45  70  99 135 178 227 286 338 399
#     4  10  26  44  67 101 138 177 224 284 346 407
#     4  10  24  43  68  96 134 177 223 281 343 401
#     4  11  25  44  68  99 138 170 232 280 334 410
#     4  11  25  42  71 101 134 179 226 282 344 399
#     4  12  24  42  66 101 134 177 225 281 337 404
#     4  12  27  45  69  97 136 185 227 273 345 408
#
# _framework density 24.634875999999998
#
# number of rings (size 3 to 8) (size 9 to 14) (size 15 to 20)
#    0.000    1.000    3.750    0.750   10.500    3.500 
#    0.000    0.000    0.000    0.000    0.000    0.000 
#    0.000    0.000    0.000    0.000    0.000    0.000 
#
# Total GULP energy -89283.610790 kJ/mol
# GULP energy per Si atom -5580.225674 kJ/mol
# Density = 2.457881 g / cm^3
# Si number density = 24.634876 Si / 1000 Ang^3
#
#
#
# Elastic Constant Matrix: (Units=GPa)
#
#
# Indices 1 2 3 4 5 6 
#
# 1 110.4135 -0.7713 28.7831 -2.4147 0.5919 -20.2098
# 2 -0.7713 51.6656 -6.9270 -11.1833 4.6693 3.0488
# 3 28.7831 -6.9270 87.3426 5.3617 -7.6549 -13.8408
# 4 -2.4147 -11.1833 5.3617 47.3970 -1.9638 -0.4893
# 5 0.5919 4.6693 -7.6549 -1.9638 39.3289 -8.7423
# 6 -20.2098 3.0488 -13.8408 -0.4893 -8.7423 33.5514
#
#
#
# Elastic Compliance Matrix: (Units=1/GPa)
#
#
# Indices 1 2 3 4 5 6 
#
# 1 0.010799 -0.000408 -0.002697 0.000844 0.000650 0.005611
# 2 -0.000408 0.020854 0.000898 0.004666 -0.002590 -0.002377
# 3 -0.002697 0.000898 0.013561 -0.001262 0.003578 0.004802
# 4 0.000844 0.004666 -0.001262 0.022397 0.000299 -0.000032
# 5 0.000650 -0.002590 0.003578 0.000299 0.028558 0.009549
# 6 0.005611 -0.002377 0.004802 -0.000032 0.009549 0.037870
#
#
# Mechanical properties :
#
#
# Convention : Reuss Voigt Hill
#
# Bulk Modulus (GPa) = 24.50873 32.39901 28.45387
# Shear Modulus (GPa) = 32.88352 39.27794 36.08073
#
# Velocity S-wave (km/s) = 3.65750 3.99733 3.83119
# Velocity P-wave (km/s) = 5.27322 5.87240 5.58086
#
# Compressibility (1/GPa) = 0.04080178
#
# Stress axis : x y z
#
# Youngs Moduli (GPa) = 92.60095 47.95256 73.74044
#
# Poissons Ratio (x) = 0.01954 0.19885
# Poissons Ratio (y) = 0.03774 -0.06623
# Poissons Ratio (z) = 0.24971 -0.04307
#
# Static dielectric constant tensor:
#      x y z
#    x 2.035150 0.013920 0.004490 
#    y 0.013920 2.028280 -0.001630 
#    z 0.004490 -0.001630 1.906180 
# 
# From -- ./inp_files/522149.got.cif
#   From: 2010.05.17/outbox.cif.g08.bks.cpg/sg2_262_cif.got.tgz:522149.got - 2010.06.03 11:33:40.
