data_PCOD9046665
_publ_section_title
;
Structure prediction by ZEFSAII (Michael W. Deem and Ramdas Pophale) SiO2 
 PCOD9046665
Probable space group: P -1
;
_chemical_formula_sum "Si O2"
_cell_formula_units_Z 14
_cell_length_a 11.031583
_cell_length_b 18.170179
_cell_length_c 12.714034
_cell_angle_alpha 142.745770
_cell_angle_beta 36.545666
_cell_angle_gamma 154.653041
_cell_volume 624.738423
_symmetry_space_group_name_H-M "P -1"
_symmetry_group_IT_number 2
_symmetry_cell_setting 'triclinic'
loop_
_space_group_symop_operation_xyz
x,y,z
-x,-y,-z
loop_
_atom_site_type_symbol
_atom_site_label
_atom_site_fract_x
_atom_site_fract_y
_atom_site_fract_z
Si Si1 0.714449 0.948151 0.678260
Si Si2 0.889969 0.337352 0.327001
Si Si3 0.191047 0.748877 0.103384
Si Si4 0.857001 0.670874 0.461594
Si Si5 0.880373 0.460665 0.819606
Si Si6 0.207501 0.084810 0.184066
Si Si7 0.707284 0.689691 0.009953
O O1 0.773907 0.116898 0.841719
O O2 0.463861 0.829017 0.626967
O O3 0.644125 0.860359 0.740894
O O4 0.000000 0.000000 0.500000
O O5 0.000000 0.500000 0.500000
O O6 0.983073 0.401539 0.214162
O O7 0.063583 0.294372 0.196574
O O8 0.023363 0.725790 0.296365
O O9 0.522777 0.839914 0.993983
O O10 0.998704 0.565417 0.966151
O O11 0.500000 0.500000 0.500000
O O12 0.897007 0.823039 0.652619
O O13 0.999251 0.623004 0.374069
O O14 0.525355 0.326526 0.906853
O O15 0.926891 0.870623 0.130942
O O16 0.500000 0.500000 0.000000
#
# Coordination Sequence:
#
# PCOD9046665 Si02
#       7
#     2   2   2   2   2   2   2
#     4  12  23  39  70 105 132 177 233 288 350 399
#     4  11  24  42  66 101 138 175 231 291 348 408
#     4  12  24  44  74 100 141 180 236 289 342 411
#     4  12  26  45  72 104 139 184 240 283 338 421
#     4  11  25  44  67  99 140 188 226 281 351 410
#     4  12  24  46  71 104 141 181 233 290 344 417
#     4  10  24  43  66  97 139 178 221 287 350 405
#
# _framework density 22.409378
#
# number of rings (size 3 to 8) (size 9 to 14) (size 15 to 20)
#    0.000    0.571    5.714    2.571    6.000    0.571 
#    0.000    0.714    0.000    0.000    0.000    0.000 
#    0.000    0.000    0.000    0.000    0.000    0.000 
#
# Total GULP energy -78240.800086 kJ/mol
# GULP energy per Si atom -5588.628578 kJ/mol
# Density = 2.235837 g / cm^3
# Si number density = 22.409378 Si / 1000 Ang^3
#
#
#
# Elastic Constant Matrix: (Units=GPa)
#
#
# Indices 1 2 3 4 5 6 
#
# 1 50.8385 29.9717 28.3083 -10.4408 -28.7933 14.1989
# 2 29.9717 124.6732 64.6572 -4.3447 -14.0919 36.4575
# 3 28.3083 64.6572 166.0963 -5.1473 -43.6102 19.6518
# 4 -10.4408 -4.3447 -5.1473 51.3259 1.4846 -2.4175
# 5 -28.7933 -14.0919 -43.6102 1.4846 52.0927 -8.3661
# 6 14.1989 36.4575 19.6518 -2.4175 -8.3661 39.2390
#
#
#
# Elastic Compliance Matrix: (Units=1/GPa)
#
#
# Indices 1 2 3 4 5 6 
#
# 1 0.034887 -0.005966 0.001846 0.006069 0.018448 -0.003698
# 2 -0.005966 0.014129 -0.004643 -0.000800 -0.004904 -0.009738
# 3 0.001846 -0.004643 0.009516 0.000739 0.007804 0.000590
# 4 0.006069 -0.000800 0.000739 0.020638 0.003189 0.000129
# 5 0.018448 -0.004904 0.007804 0.003189 0.034763 0.001581
# 6 -0.003698 -0.009738 0.000590 0.000129 0.001581 0.035920
#
#
# Mechanical properties :
#
#
# Convention : Reuss Voigt Hill
#
# Bulk Modulus (GPa) = 24.38782 65.27584 44.83183
# Shear Modulus (GPa) = 27.61703 43.10959 35.36331
#
# Velocity S-wave (km/s) = 3.51435 4.39079 3.97679
# Velocity P-wave (km/s) = 5.23202 7.40928 6.41371
#
# Compressibility (1/GPa) = 0.04100408
#
# Stress axis : x y z
#
# Youngs Moduli (GPa) = 28.66385 70.77795 105.08976
#
# Poissons Ratio (x) = 0.42227 -0.19397
# Poissons Ratio (y) = 0.17101 0.48797
# Poissons Ratio (z) = -0.05291 0.32865
#
# Static dielectric constant tensor:
#      x y z
#    x 1.888780 -0.030410 -0.026320 
#    y -0.030410 1.874800 -0.037700 
#    z -0.026320 -0.037700 1.839820 
# 
# From -- ./inp_files/260929.got.cif
#   From: 2010.05.17/outbox.cif.g08.bks.cpg/sg2_131_cif.got.tgz:260929.got - 2010.06.03 11:33:40.
