data_PCOD9046054
_publ_section_title
;
Structure prediction by ZEFSAII (Michael W. Deem and Ramdas Pophale) SiO2 
 PCOD9046054
Probable space group: P -1
;
_chemical_formula_sum "Si O2"
_cell_formula_units_Z 11
_cell_length_a 13.358304
_cell_length_b 6.967598
_cell_length_c 4.851455
_cell_angle_alpha 71.338600
_cell_angle_beta 91.578261
_cell_angle_gamma 97.247616
_cell_volume 424.353161
_symmetry_space_group_name_H-M "P -1"
_symmetry_group_IT_number 2
_symmetry_cell_setting 'triclinic'
loop_
_space_group_symop_operation_xyz
x,y,z
-x,-y,-z
loop_
_atom_site_type_symbol
_atom_site_label
_atom_site_fract_x
_atom_site_fract_y
_atom_site_fract_z
Si Si1 0.622767 0.882429 0.040213
Si Si2 0.854871 0.902171 0.097607
Si Si3 0.633619 0.168376 0.407522
Si Si4 0.500000 0.500000 0.500000
Si Si5 0.066543 0.294388 0.315828
Si Si6 0.856286 0.307544 0.562045
O O1 0.549157 0.688359 0.216511
O O2 0.614980 0.079299 0.142475
O O3 0.736239 0.829396 0.121696
O O4 0.615002 0.966229 0.693080
O O5 0.910892 0.758039 0.969234
O O6 0.866249 0.122472 0.857729
O O7 0.901802 0.889226 0.407447
O O8 0.567270 0.339494 0.418919
O O9 0.751104 0.256088 0.419330
O O10 0.953235 0.330670 0.359672
O O11 0.138431 0.489003 0.348132
#
# Coordination Sequence:
#
# PCOD9046054 Si02
#       6
#     2   2   2   1   2   2
#     4  11  26  45  69 101 132 168 220 272 328 393
#     4  11  23  42  66  97 135 174 216 267 324 388
#     4  11  26  45  67 100 133 171 219 272 329 388
#     4  12  26  48  76  94 130 174 218 278 336 390
#     4  11  24  40  66 100 132 179 222 256 322 389
#     4  10  24  42  66  97 138 173 218 273 315 384
#
# _framework density 25.921806
#
# number of rings (size 3 to 8) (size 9 to 14) (size 15 to 20)
#    0.000    1.091    0.000    5.455    0.000   16.000 
#    0.000    0.000    0.000    0.000    0.000    0.000 
#    0.000    0.000    0.000    0.000    0.000    0.000 
#
# Total GULP energy -61555.126094 kJ/mol
# GULP energy per Si atom -5595.920554 kJ/mol
# Density = 2.586281 g / cm^3
# Si number density = 25.921806 Si / 1000 Ang^3
#
#
#
# Elastic Constant Matrix: (Units=GPa)
#
#
# Indices 1 2 3 4 5 6 
#
# 1 113.9085 29.6032 33.5072 -11.5602 -10.9575 -8.2013
# 2 29.6032 115.0523 28.4774 -22.4474 3.7115 -3.1416
# 3 33.5072 28.4774 96.5606 1.9303 3.2269 2.3918
# 4 -11.5602 -22.4474 1.9303 24.7222 2.8708 -3.8939
# 5 -10.9575 3.7115 3.2269 2.8708 38.5934 -2.6311
# 6 -8.2013 -3.1416 2.3918 -3.8939 -2.6311 41.7211
#
#
#
# Elastic Compliance Matrix: (Units=1/GPa)
#
#
# Indices 1 2 3 4 5 6 
#
# 1 0.011211 -0.001048 -0.003864 0.004662 0.003465 0.003000
# 2 -0.001048 0.012122 -0.003419 0.011293 -0.001892 0.001837
# 3 -0.003864 -0.003419 0.012940 -0.006123 -0.001560 -0.002429
# 4 0.004662 0.011293 -0.006123 0.054803 -0.002846 0.007053
# 5 0.003465 -0.001892 -0.001560 -0.002846 0.027562 0.002101
# 6 0.003000 0.001837 -0.002429 0.007053 0.002101 0.025627
#
#
# Mechanical properties :
#
#
# Convention : Reuss Voigt Hill
#
# Bulk Modulus (GPa) = 50.99612 56.52190 53.75901
# Shear Modulus (GPa) = 29.85698 36.60290 33.22994
#
# Velocity S-wave (km/s) = 3.39751 3.76180 3.58429
# Velocity P-wave (km/s) = 5.92508 6.38125 6.15739
#
# Compressibility (1/GPa) = 0.01960933
#
# Stress axis : x y z
#
# Youngs Moduli (GPa) = 89.20183 82.49279 77.27815
#
# Poissons Ratio (x) = 0.08647 0.29862
# Poissons Ratio (y) = 0.09351 0.26424
# Poissons Ratio (z) = 0.34470 0.28207
#
# Static dielectric constant tensor:
#      x y z
#    x 2.334960 -0.266560 0.515870 
#    y -0.266560 2.291370 -0.543360 
#    z 0.515870 -0.543360 2.914350 
# 
# From -- ./inp_files/85655.got.cif
#   From: 2010.05.17/outbox.cif.g08.bks.cpg/sg2_43_cif.got.tgz:85655.got - 2010.06.03 11:33:40.
