data_PCOD9046863
_publ_section_title
;
Structure prediction by ZEFSAII (Michael W. Deem and Ramdas Pophale) SiO2 
 PCOD9046863
Probable space group: P -1
;
_chemical_formula_sum "Si O2"
_cell_formula_units_Z 14
_cell_length_a 7.839592
_cell_length_b 13.817074
_cell_length_c 16.429974
_cell_angle_alpha 40.102815
_cell_angle_beta 71.629133
_cell_angle_gamma 43.635839
_cell_volume 667.693879
_symmetry_space_group_name_H-M "P -1"
_symmetry_group_IT_number 2
_symmetry_cell_setting 'triclinic'
loop_
_space_group_symop_operation_xyz
x,y,z
-x,-y,-z
loop_
_atom_site_type_symbol
_atom_site_label
_atom_site_fract_x
_atom_site_fract_y
_atom_site_fract_z
Si Si1 0.561613 0.920354 0.293528
Si Si2 0.724962 0.589481 0.945198
Si Si3 0.296584 0.335924 0.278013
Si Si4 0.084315 0.133867 0.429939
Si Si5 0.786605 0.321150 0.514210
Si Si6 0.038051 0.489548 0.383929
Si Si7 0.976854 0.145659 0.250661
O O1 0.811069 0.739845 0.305163
O O2 0.662192 0.737573 0.466670
O O3 0.523863 0.118289 0.196175
O O4 0.251244 0.056350 0.228378
O O5 0.748044 0.545718 0.873777
O O6 0.000000 0.500000 0.000000
O O7 0.710759 0.436737 0.088285
O O8 0.190055 0.236959 0.335507
O O9 0.100242 0.508231 0.273491
O O10 0.629590 0.115989 0.402986
O O11 0.021255 0.110879 0.364685
O O12 0.800583 0.315629 0.415663
O O13 0.500000 0.500000 0.500000
O O14 0.919111 0.397092 0.462788
O O15 0.984893 0.041253 0.676899
#
# Coordination Sequence:
#
# PCOD9046863 Si02
#       7
#     2   2   2   2   2   2   2
#     4  10  18  35  56  83 107 146 181 229 271 312
#     4  10  19  33  55  80 118 140 177 227 275 327
#     4  10  17  34  56  85 102 141 193 224 263 318
#     4  10  19  34  57  78 107 144 187 226 259 325
#     4  11  22  34  52  84 114 141 178 228 279 319
#     4  10  20  34  60  83 109 141 188 232 265 316
#     4  11  20  37  53  83 116 144 177 221 281 328
#
# _framework density 20.967692
#
# number of rings (size 3 to 8) (size 9 to 14) (size 15 to 20)
#    0.000    1.714    5.714    2.143    0.000    0.000 
#    0.000    7.143    0.000    0.000    0.000    8.000 
#    0.000    0.000    0.000    0.000    0.000    0.000 
#
# Total GULP energy -77958.563603 kJ/mol
# GULP energy per Si atom -5568.468829 kJ/mol
# Density = 2.091997 g / cm^3
# Si number density = 20.967692 Si / 1000 Ang^3
#
#
#
# Elastic Constant Matrix: (Units=GPa)
#
#
# Indices 1 2 3 4 5 6 
#
# 1 62.9910 35.1589 16.4410 -0.6371 -5.3050 3.1183
# 2 35.1589 159.4676 58.7550 -0.0398 -3.2589 12.1618
# 3 16.4410 58.7550 88.5198 8.9181 -7.1954 11.7501
# 4 -0.6371 -0.0398 8.9181 31.0899 11.2140 0.2641
# 5 -5.3050 -3.2589 -7.1954 11.2140 22.1441 1.7286
# 6 3.1183 12.1618 11.7501 0.2641 1.7286 27.6472
#
#
#
# Elastic Compliance Matrix: (Units=1/GPa)
#
#
# Indices 1 2 3 4 5 6 
#
# 1 0.018478 -0.003808 -0.000377 -0.001075 0.004328 -0.000509
# 2 -0.003808 0.009265 -0.005773 0.002549 -0.002633 -0.001052
# 3 -0.000377 -0.005773 0.017524 -0.008396 0.009426 -0.005375
# 4 -0.001075 0.002549 -0.008396 0.043518 -0.024938 0.003712
# 5 0.004328 -0.002633 0.009426 -0.024938 0.062044 -0.006977
# 6 -0.000509 -0.001052 -0.005375 0.003712 -0.006977 0.039375
#
#
# Mechanical properties :
#
#
# Convention : Reuss Voigt Hill
#
# Bulk Modulus (GPa) = 39.44631 59.07646 49.26138
# Shear Modulus (GPa) = 22.87586 29.55116 26.21351
#
# Velocity S-wave (km/s) = 3.30662 3.75823 3.53963
# Velocity P-wave (km/s) = 5.78205 6.86065 6.34431
#
# Compressibility (1/GPa) = 0.02535092
#
# Stress axis : x y z
#
# Youngs Moduli (GPa) = 54.11845 107.93674 57.06322
#
# Poissons Ratio (x) = 0.41105 0.02149
# Poissons Ratio (y) = 0.20609 0.32944
# Poissons Ratio (z) = 0.02038 0.62315
#
# Static dielectric constant tensor:
#      x y z
#    x 1.845590 -0.024810 0.018460 
#    y -0.024810 1.770500 0.003970 
#    z 0.018460 0.003970 1.822850 
# 
# From -- ./inp_files/318269.got.cif
#   From: 2010.05.17/outbox.cif.g08.bks.cpg/sg2_160_cif.got.tgz:318269.got - 2010.06.03 11:33:40.
