data_PCOD9046555
_publ_section_title
;
Structure prediction by ZEFSAII (Michael W. Deem and Ramdas Pophale) SiO2 
 PCOD9046555
Probable space group: P -1
;
_chemical_formula_sum "Si O2"
_cell_formula_units_Z 15
_cell_length_a 16.388499
_cell_length_b 8.314096
_cell_length_c 5.410054
_cell_angle_alpha 119.789405
_cell_angle_beta 80.623435
_cell_angle_gamma 76.259094
_cell_volume 585.910707
_symmetry_space_group_name_H-M "P -1"
_symmetry_group_IT_number 2
_symmetry_cell_setting 'triclinic'
loop_
_space_group_symop_operation_xyz
x,y,z
-x,-y,-z
loop_
_atom_site_type_symbol
_atom_site_label
_atom_site_fract_x
_atom_site_fract_y
_atom_site_fract_z
Si Si1 0.177495 0.178962 0.665634
Si Si2 0.643941 0.929144 0.772751
Si Si3 0.574988 0.647201 0.316466
Si Si4 0.000000 0.500000 0.000000
Si Si5 0.264412 0.420750 0.144884
Si Si6 0.802880 0.167451 0.263671
Si Si7 0.041136 0.882460 0.142350
Si Si8 0.597514 0.289308 0.390878
O O1 0.266462 0.060369 0.380100
O O2 0.155293 0.027273 0.738789
O O3 0.206914 0.333874 0.933404
O O4 0.087682 0.319448 0.687103
O O5 0.592124 0.844560 0.538602
O O6 0.684575 0.752589 0.818644
O O7 0.583235 0.134978 0.083813
O O8 0.586277 0.498113 0.428695
O O9 0.471878 0.693225 0.341457
O O10 0.655580 0.541998 0.010703
O O11 0.031626 0.670519 0.997154
O O12 0.201153 0.626298 0.454271
O O13 0.700902 0.189122 0.318620
O O14 0.854592 0.148271 0.966722
O O15 0.000000 0.000000 0.500000
O O16 0.000000 0.000000 0.000000
#
# Coordination Sequence:
#
# PCOD9046555 Si02
#       8
#     2   2   2   1   2   2   2   2
#     4  11  26  46  72 105 141 194 246 313 386 459
#     4  11  22  44  68 102 139 190 240 304 363 456
#     4  10  24  43  64 104 142 190 242 304 368 439
#     4  12  28  50  80 110 154 196 262 328 394 478
#     4  11  24  44  72  99 146 185 247 300 377 450
#     4  12  25  48  72 107 144 198 247 310 388 459
#     4  12  31  53  81 119 158 203 264 330 398 478
#     4  11  23  42  69  99 146 189 242 303 370 453
#
# _framework density 25.601167
#
# number of rings (size 3 to 8) (size 9 to 14) (size 15 to 20)
#    0.000    0.800    4.000    2.000    5.600    2.667 
#    2.400    0.000    0.000    0.000    0.000    0.000 
#    0.000    0.000    0.000    0.000    0.000    0.000 
#
# Total GULP energy -83753.372132 kJ/mol
# GULP energy per Si atom -5583.558142 kJ/mol
# Density = 2.554290 g / cm^3
# Si number density = 25.601167 Si / 1000 Ang^3
#
#
#
# Elastic Constant Matrix: (Units=GPa)
#
#
# Indices 1 2 3 4 5 6 
#
# 1 87.9488 32.9195 27.6628 -7.3463 -22.0228 22.8990
# 2 32.9195 143.0731 37.2447 12.6552 -13.0579 32.4194
# 3 27.6628 37.2447 142.2370 12.3682 -26.0349 20.4791
# 4 -7.3463 12.6552 12.3682 43.7163 7.9395 -6.9062
# 5 -22.0228 -13.0579 -26.0349 7.9395 43.7864 -8.1784
# 6 22.8990 32.4194 20.4791 -6.9062 -8.1784 39.4875
#
#
#
# Elastic Compliance Matrix: (Units=1/GPa)
#
#
# Indices 1 2 3 4 5 6 
#
# 1 0.015175 -0.001619 -0.000856 0.001396 0.005326 -0.005679
# 2 -0.001619 0.009614 -0.000601 -0.004219 0.001126 -0.007147
# 3 -0.000856 -0.000601 0.009081 -0.003962 0.004872 -0.003404
# 4 0.001396 -0.004219 -0.003962 0.027925 -0.006432 0.008260
# 5 0.005326 0.001126 0.004872 -0.006432 0.029631 -0.001528
# 6 -0.005679 -0.007147 -0.003404 0.008260 -0.001528 0.037379
#
#
# Mechanical properties :
#
#
# Convention : Reuss Voigt Hill
#
# Bulk Modulus (GPa) = 36.07851 63.21254 49.64552
# Shear Modulus (GPa) = 34.67551 43.76016 39.21783
#
# Velocity S-wave (km/s) = 3.68428 4.13886 3.91817
# Velocity P-wave (km/s) = 5.67641 6.89819 6.31691
#
# Compressibility (1/GPa) = 0.02771733
#
# Stress axis : x y z
#
# Youngs Moduli (GPa) = 65.89947 104.01805 110.12485
#
# Poissons Ratio (x) = 0.16843 0.09427
# Poissons Ratio (y) = 0.10671 0.06614
# Poissons Ratio (z) = 0.05641 0.06247
#
# Static dielectric constant tensor:
#      x y z
#    x 2.171050 -0.088910 -0.020860 
#    y -0.088910 1.969860 0.012420 
#    z -0.020860 0.012420 2.043180 
# 
# From -- ./inp_files/55683.got.cif
#   From: 2010.05.17/outbox.cif.g08.bks.cpg/sg2_28_cif.got.tgz:55683.got - 2010.06.03 11:33:40.
