data_PCOD9046278
_publ_section_title
;
Structure prediction by ZEFSAII (Michael W. Deem and Ramdas Pophale) SiO2 
 PCOD9046278
Probable space group: P -1
;
_chemical_formula_sum "Si O2"
_cell_formula_units_Z 16
_cell_length_a 9.380353
_cell_length_b 11.120554
_cell_length_c 13.593754
_cell_angle_alpha 147.143057
_cell_angle_beta 107.506230
_cell_angle_gamma 82.579064
_cell_volume 712.492107
_symmetry_space_group_name_H-M "P -1"
_symmetry_group_IT_number 2
_symmetry_cell_setting 'triclinic'
loop_
_space_group_symop_operation_xyz
x,y,z
-x,-y,-z
loop_
_atom_site_type_symbol
_atom_site_label
_atom_site_fract_x
_atom_site_fract_y
_atom_site_fract_z
Si Si1 0.333734 0.557907 0.499318
Si Si2 0.967592 0.432736 0.062716
Si Si3 0.627039 0.896268 0.513200
Si Si4 0.891652 0.842066 0.948323
Si Si5 0.145367 0.903563 0.441698
Si Si6 0.428869 0.010320 0.710102
Si Si7 0.673318 0.159542 0.133639
Si Si8 0.665589 0.413773 0.109606
O O1 0.500000 0.500000 0.500000
O O2 0.215322 0.371205 0.281942
O O3 0.358905 0.812932 0.635925
O O4 0.289685 0.608135 0.635479
O O5 0.800219 0.450811 0.080929
O O6 0.013539 0.224474 0.985519
O O7 0.095892 0.642277 0.279771
O O8 0.000000 0.500000 0.000000
O O9 0.567335 0.917801 0.624637
O O10 0.637439 0.645957 0.309669
O O11 0.500000 0.000000 0.500000
O O12 0.792675 0.055440 0.628990
O O13 0.780670 0.993719 0.069542
O O14 0.000000 0.000000 0.000000
O O15 0.290549 0.023080 0.617990
O O16 0.000000 0.000000 0.500000
O O17 0.504997 0.264569 0.933525
O O18 0.703091 0.249629 0.090246
O O19 0.500000 0.000000 0.000000
#
# Coordination Sequence:
#
# PCOD9046278 Si02
#       8
#     2   2   2   2   2   2   2   2
#     4  12  24  45  77 110 151 195 253 319 382 454
#     4  12  27  50  76 109 159 202 249 324 389 455
#     4  10  24  42  70 101 143 196 253 304 372 455
#     4  12  27  52  78 116 155 199 266 321 386 465
#     4  11  23  47  66  99 144 194 249 304 377 452
#     4  11  24  43  73 104 144 197 249 311 381 451
#     4  12  25  45  79 115 149 202 256 320 386 458
#     4  12  24  48  75 109 155 196 259 315 385 461
#
# _framework density 22.456389000000001
#
# number of rings (size 3 to 8) (size 9 to 14) (size 15 to 20)
#    0.000    0.500    6.250    1.500    0.000    3.500 
#    6.750    0.000    0.000    0.000    0.000    0.000 
#    0.000    0.000    0.000    0.000    0.000    0.000 
#
# Total GULP energy -89312.353800 kJ/mol
# GULP energy per Si atom -5582.022112 kJ/mol
# Density = 2.240528 g / cm^3
# Si number density = 22.456389 Si / 1000 Ang^3
#
#
#
# Elastic Constant Matrix: (Units=GPa)
#
#
# Indices 1 2 3 4 5 6 
#
# 1 115.9850 39.5071 19.3354 5.5059 -7.1164 2.8121
# 2 39.5071 115.2525 16.2261 4.8839 1.9379 0.8959
# 3 19.3354 16.2261 89.0641 11.2401 7.6716 -4.5689
# 4 5.5059 4.8839 11.2401 36.7543 0.9488 -0.5455
# 5 -7.1164 1.9379 7.6716 0.9488 39.9592 6.7570
# 6 2.8121 0.8959 -4.5689 -0.5455 6.7570 42.3209
#
#
#
# Elastic Compliance Matrix: (Units=1/GPa)
#
#
# Indices 1 2 3 4 5 6 
#
# 1 0.010256 -0.003264 -0.001836 -0.000625 0.002560 -0.001227
# 2 -0.003264 0.009968 -0.000965 -0.000517 -0.000873 0.000034
# 3 -0.001836 -0.000965 0.012576 -0.003338 -0.002941 0.001927
# 4 -0.000625 -0.000517 -0.003338 0.028396 -0.000133 0.000079
# 5 0.002560 -0.000873 -0.002941 -0.000133 0.026897 -0.004765
# 6 -0.001227 0.000034 0.001927 0.000079 -0.004765 0.024680
#
#
# Mechanical properties :
#
#
# Convention : Reuss Voigt Hill
#
# Bulk Modulus (GPa) = 48.38296 52.27098 50.32697
# Shear Modulus (GPa) = 37.93816 40.15573 39.04694
#
# Velocity S-wave (km/s) = 4.11471 4.23326 4.17440
# Velocity P-wave (km/s) = 6.64579 6.87177 6.75972
#
# Compressibility (1/GPa) = 0.02066843
#
# Stress axis : x y z
#
# Youngs Moduli (GPa) = 97.50084 100.32380 79.51766
#
# Poissons Ratio (x) = 0.32748 0.14603
# Poissons Ratio (y) = 0.31826 0.07674
# Poissons Ratio (z) = 0.17906 0.09682
#
# Static dielectric constant tensor:
#      x y z
#    x 2.275830 -0.204900 0.068270 
#    y -0.204900 2.211750 -0.149580 
#    z 0.068270 -0.149580 1.900320 
# 
# From -- ./inp_files/501270.got.cif
#   From: 2010.05.17/outbox.cif.g08.bks.cpg/sg2_251_cif.got.tgz:501270.got - 2010.06.03 11:33:40.
