data_PCOD9046879
_publ_section_title
;
Structure prediction by ZEFSAII (Michael W. Deem and Ramdas Pophale) SiO2 
 PCOD9046879
Probable space group: P -1
;
_chemical_formula_sum "Si O2"
_cell_formula_units_Z 12
_cell_length_a 5.074011
_cell_length_b 14.069550
_cell_length_c 9.471578
_cell_angle_alpha 132.155910
_cell_angle_beta 98.099228
_cell_angle_gamma 103.456543
_cell_volume 444.189025
_symmetry_space_group_name_H-M "P -1"
_symmetry_group_IT_number 2
_symmetry_cell_setting 'triclinic'
loop_
_space_group_symop_operation_xyz
x,y,z
-x,-y,-z
loop_
_atom_site_type_symbol
_atom_site_label
_atom_site_fract_x
_atom_site_fract_y
_atom_site_fract_z
Si Si1 0.663455 0.429975 0.851078
Si Si2 0.192428 0.763842 0.919273
Si Si3 0.264226 0.527540 0.417703
Si Si4 0.183830 0.869008 0.324516
Si Si5 0.329772 0.171066 0.185267
Si Si6 0.162909 0.125160 0.450365
O O1 0.658752 0.486632 0.751318
O O2 0.482813 0.255745 0.653772
O O3 0.500000 0.500000 0.000000
O O4 0.000000 0.500000 0.000000
O O5 0.501296 0.869175 0.969461
O O6 0.073043 0.592778 0.711256
O O7 0.921775 0.792881 0.868280
O O8 0.206431 0.778240 0.103810
O O9 0.500000 0.500000 0.500000
O O10 0.366259 0.695255 0.604797
O O11 0.039176 0.818914 0.417784
O O12 0.500000 0.000000 0.500000
O O13 0.031152 0.961275 0.330486
O O14 0.182375 0.109365 0.265900
#
# Coordination Sequence:
#
# PCOD9046879 Si02
#       6
#     2   2   2   2   2   2
#     4  11  25  42  71 105 136 181 228 288 350 414
#     4  11  24  42  70  98 135 179 228 273 344 408
#     4   9  21  42  67 100 138 175 222 284 349 413
#     4  11  27  45  69  95 139 190 231 285 332 411
#     4  10  24  43  69 101 132 174 225 289 340 405
#     4  10  26  46  67  99 142 177 234 286 343 404
#
# _framework density 27.015528
#
# number of rings (size 3 to 8) (size 9 to 14) (size 15 to 20)
#    0.000    1.667    0.000    1.500   11.667   10.667 
#    0.000    0.000    0.000    0.000    0.000    0.000 
#    0.000    0.000    0.000    0.000    0.000    0.000 
#
# Total GULP energy -66867.505480 kJ/mol
# GULP energy per Si atom -5572.292123 kJ/mol
# Density = 2.695404 g / cm^3
# Si number density = 27.015528 Si / 1000 Ang^3
#
#
#
# Elastic Constant Matrix: (Units=GPa)
#
#
# Indices 1 2 3 4 5 6 
#
# 1 108.9276 13.7980 20.8824 -11.7591 6.2398 41.5531
# 2 13.7980 125.0216 22.7423 -27.7541 -3.1763 38.1211
# 3 20.8824 22.7423 100.8666 -8.4367 15.3346 -1.3696
# 4 -11.7591 -27.7541 -8.4367 70.5231 0.4660 -4.4191
# 5 6.2398 -3.1763 15.3346 0.4660 31.8168 -4.0741
# 6 41.5531 38.1211 -1.3696 -4.4191 -4.0741 48.8798
#
#
#
# Elastic Compliance Matrix: (Units=1/GPa)
#
#
# Indices 1 2 3 4 5 6 
#
# 1 0.016910 0.005162 -0.004159 0.003216 -0.003212 -0.018495
# 2 0.005162 0.013745 -0.004012 0.004863 0.000333 -0.014753
# 3 -0.004159 -0.004012 0.012462 -0.000337 -0.004743 0.006588
# 4 0.003216 0.004863 -0.000337 0.016273 -0.000879 -0.005138
# 5 -0.003212 0.000333 -0.004743 -0.000879 0.035055 0.005180
# 6 -0.018495 -0.014753 0.006588 -0.005138 0.005180 0.047838
#
#
# Mechanical properties :
#
#
# Convention : Reuss Voigt Hill
#
# Bulk Modulus (GPa) = 26.95429 49.96236 38.45832
# Shear Modulus (GPa) = 31.12003 48.73682 39.92843
#
# Velocity S-wave (km/s) = 3.39769 4.25200 3.84862
# Velocity P-wave (km/s) = 5.03899 6.52993 5.83230
#
# Compressibility (1/GPa) = 0.03709984
#
# Stress axis : x y z
#
# Youngs Moduli (GPa) = 59.13602 72.75229 80.24483
#
# Poissons Ratio (x) = -0.37553 0.33370
# Poissons Ratio (y) = -0.30525 0.32194
# Poissons Ratio (z) = 0.24592 0.29188
#
# Static dielectric constant tensor:
#      x y z
#    x 3.096380 -0.187510 -0.474020 
#    y -0.187510 2.345670 0.050470 
#    z -0.474020 0.050470 2.417830 
# 
# From -- ./inp_files/26953.got.cif
#   From: 2010.05.17/outbox.cif.g08.bks.cpg/sg2_14_cif.got.tgz:26953.got - 2010.06.03 11:33:40.
