data_PCOD9046685
_publ_section_title
;
Structure prediction by ZEFSAII (Michael W. Deem and Ramdas Pophale) SiO2 
 PCOD9046685
Probable space group: P -1
;
_chemical_formula_sum "Si O2"
_cell_formula_units_Z 14
_cell_length_a 5.791856
_cell_length_b 5.868143
_cell_length_c 20.644039
_cell_angle_alpha 58.548780
_cell_angle_beta 111.105074
_cell_angle_gamma 97.005660
_cell_volume 556.488136
_symmetry_space_group_name_H-M "P -1"
_symmetry_group_IT_number 2
_symmetry_cell_setting 'triclinic'
loop_
_space_group_symop_operation_xyz
x,y,z
-x,-y,-z
loop_
_atom_site_type_symbol
_atom_site_label
_atom_site_fract_x
_atom_site_fract_y
_atom_site_fract_z
Si Si1 0.242503 0.724447 0.370831
Si Si2 0.026961 0.752725 0.764291
Si Si3 0.810581 0.379391 0.336901
Si Si4 0.235544 0.154558 0.024204
Si Si5 0.659635 0.352013 0.811451
Si Si6 0.336686 0.746259 0.523249
Si Si7 0.514317 0.474856 0.092405
O O1 0.197413 0.748029 0.440349
O O2 0.498729 0.540544 0.416549
O O3 0.034867 0.561811 0.341518
O O4 0.200279 0.017690 0.290710
O O5 0.912606 0.465204 0.796955
O O6 0.146742 0.784310 0.700883
O O7 0.240017 0.734670 0.843163
O O8 0.555178 0.560856 0.273258
O O9 0.799415 0.225756 0.426010
O O10 0.285272 0.426052 0.029044
O O11 0.336046 0.952680 0.121212
O O12 0.376194 0.248806 0.960356
O O13 0.000000 0.000000 0.000000
O O14 0.596461 0.498068 0.851580
O O15 0.500000 0.000000 0.500000
#
# Coordination Sequence:
#
# PCOD9046685 Si02
#       7
#     2   2   2   2   2   2   2
#     4  11  24  41  67  98 133 173 227 278 347 406
#     4  11  24  44  66 100 137 180 226 282 341 409
#     4  11  24  42  67  95 135 175 225 281 341 408
#     4  11  22  44  69  97 139 180 233 283 343 405
#     4  11  23  42  67  97 137 179 227 281 343 407
#     4  11  25  45  67  96 132 177 224 281 345 411
#     4  10  24  43  67 100 137 183 230 284 344 406
#
# _framework density 25.157771
#
# number of rings (size 3 to 8) (size 9 to 14) (size 15 to 20)
#    0.000    1.143    1.429    4.286    0.000    9.714 
#    2.571    0.000    0.000    0.000    0.000    0.000 
#    0.000    0.000    0.000    0.000    0.000    0.000 
#
# Total GULP energy -78126.419023 kJ/mol
# GULP energy per Si atom -5580.458502 kJ/mol
# Density = 2.510051 g / cm^3
# Si number density = 25.157771 Si / 1000 Ang^3
#
#
#
# Elastic Constant Matrix: (Units=GPa)
#
#
# Indices 1 2 3 4 5 6 
#
# 1 64.4752 24.6985 51.2532 0.4913 -3.0049 19.3936
# 2 24.6985 60.8559 53.2631 3.0734 12.4577 19.4106
# 3 51.2532 53.2631 151.5833 1.4641 -13.6802 8.8282
# 4 0.4913 3.0734 1.4641 51.0206 0.0657 11.1977
# 5 -3.0049 12.4577 -13.6802 0.0657 38.2020 18.3152
# 6 19.3936 19.4106 8.8282 11.1977 18.3152 25.4542
#
#
#
# Elastic Compliance Matrix: (Units=1/GPa)
#
#
# Indices 1 2 3 4 5 6 
#
# 1 0.036038 0.002952 -0.008779 0.009763 0.020692 -0.045847
# 2 0.002952 0.033291 -0.011875 0.003055 -0.004523 -0.021607
# 3 -0.008779 -0.011875 0.013556 -0.001590 0.003678 0.009096
# 4 0.009763 0.003055 -0.001590 0.026078 0.013856 -0.030658
# 5 0.020692 -0.004523 0.003678 0.013856 0.061082 -0.063638
# 6 -0.045847 -0.021607 0.009096 -0.030658 -0.063638 0.146816
#
#
# Mechanical properties :
#
#
# Convention : Reuss Voigt Hill
#
# Bulk Modulus (GPa) = 21.06136 59.48268 40.27202
# Shear Modulus (GPa) = 13.58354 32.78201 23.18278
#
# Velocity S-wave (km/s) = 2.32617 3.61370 3.03891
# Velocity P-wave (km/s) = 3.95027 6.41147 5.32502
#
# Compressibility (1/GPa) = 0.04748032
#
# Stress axis : x y z
#
# Youngs Moduli (GPa) = 27.74834 30.03818 73.76957
#
# Poissons Ratio (x) = -0.08868 0.64765
# Poissons Ratio (y) = -0.08192 0.87603
# Poissons Ratio (z) = 0.24361 0.35671
#
# Static dielectric constant tensor:
#      x y z
#    x 2.052270 -0.098030 0.001830 
#    y -0.098030 2.056690 -0.012290 
#    z 0.001830 -0.012290 2.014000 
# 
# From -- ./inp_files/8180.got.cif
#   From: 2010.05.17/outbox.cif.g08.bks.cpg/sg2_5_cif.got.tgz:8180.got - 2010.06.03 11:33:40.
