data_PCOD9046746
_publ_section_title
;
Structure prediction by ZEFSAII (Michael W. Deem and Ramdas Pophale) SiO2 
 PCOD9046746
Probable space group: P -1
;
_chemical_formula_sum "Si O2"
_cell_formula_units_Z 16
_cell_length_a 6.611057
_cell_length_b 18.145458
_cell_length_c 8.212947
_cell_angle_alpha 120.031198
_cell_angle_beta 62.923541
_cell_angle_gamma 125.177414
_cell_volume 677.533471
_symmetry_space_group_name_H-M "P -1"
_symmetry_group_IT_number 2
_symmetry_cell_setting 'triclinic'
loop_
_space_group_symop_operation_xyz
x,y,z
-x,-y,-z
loop_
_atom_site_type_symbol
_atom_site_label
_atom_site_fract_x
_atom_site_fract_y
_atom_site_fract_z
Si Si1 0.390046 0.028284 0.914094
Si Si2 0.027467 0.954240 0.702149
Si Si3 0.796028 0.515492 0.203088
Si Si4 0.749192 0.312395 0.714561
Si Si5 0.162774 0.775011 0.086017
Si Si6 0.641800 0.447903 0.739702
Si Si7 0.768898 0.847095 0.353443
Si Si8 0.799444 0.378329 0.292137
O O1 0.622460 0.117955 0.851340
O O2 0.249302 0.954323 0.737606
O O3 0.189648 0.058448 0.102591
O O4 0.500000 0.000000 0.000000
O O5 0.893068 0.881107 0.524304
O O6 0.142376 0.058948 0.689303
O O7 0.599667 0.536935 0.196270
O O8 0.673352 0.423059 0.259891
O O9 0.965529 0.609155 0.357569
O O10 0.000000 0.500000 0.000000
O O11 0.819552 0.283462 0.829882
O O12 0.611167 0.381397 0.832285
O O13 0.536357 0.215162 0.606433
O O14 0.904332 0.783950 0.170195
O O15 0.226984 0.724052 0.856552
O O16 0.684052 0.385335 0.512957
O O17 0.899773 0.547069 0.749778
#
# Coordination Sequence:
#
# PCOD9046746 Si02
#       8
#     2   2   2   2   2   2   2   2
#     4  11  23  45  68  97 133 174 222 281 342 411
#     4  10  24  45  68  94 131 181 222 274 355 404
#     4  11  22  41  68  97 135 180 225 276 343 403
#     4  11  24  41  64 100 134 174 229 277 336 408
#     4  12  24  41  66 102 132 173 230 278 345 400
#     4  10  24  45  66  94 140 180 231 276 343 403
#     4  11  24  43  67  96 136 176 226 285 331 423
#     4  10  24  43  67  97 132 184 224 285 334 410
#
# _framework density 23.615071
#
# number of rings (size 3 to 8) (size 9 to 14) (size 15 to 20)
#    0.000    1.250    3.750    1.125    3.500    2.500 
#    0.000    0.000    0.000    0.000    0.000    0.000 
#    0.000    0.000    0.000    0.000    0.000    0.000 
#
# Total GULP energy -89296.453518 kJ/mol
# GULP energy per Si atom -5581.028345 kJ/mol
# Density = 2.356132 g / cm^3
# Si number density = 23.615071 Si / 1000 Ang^3
#
#
#
# Elastic Constant Matrix: (Units=GPa)
#
#
# Indices 1 2 3 4 5 6 
#
# 1 123.6159 17.9051 11.0167 11.3957 4.2521 -12.8746
# 2 17.9051 44.0619 -10.8421 1.8106 -4.3409 3.6238
# 3 11.0167 -10.8421 66.6685 6.6024 5.8087 -2.1640
# 4 11.3957 1.8106 6.6024 28.9292 -0.5623 7.6445
# 5 4.2521 -4.3409 5.8087 -0.5623 30.2602 -0.8051
# 6 -12.8746 3.6238 -2.1640 7.6445 -0.8051 41.2879
#
#
#
# Elastic Compliance Matrix: (Units=1/GPa)
#
#
# Indices 1 2 3 4 5 6 
#
# 1 0.009814 -0.004734 -0.001681 -0.004317 -0.001705 0.004154
# 2 -0.004734 0.026386 0.004642 0.000148 0.003469 -0.003508
# 3 -0.001681 0.004642 0.016612 -0.003614 -0.002339 0.000563
# 4 -0.004317 0.000148 -0.003614 0.039448 0.001820 -0.008817
# 5 -0.001705 0.003469 -0.002339 0.001820 0.034250 -0.000628
# 6 0.004154 -0.003508 0.000563 -0.008817 -0.000628 0.027473
#
#
# Mechanical properties :
#
#
# Convention : Reuss Voigt Hill
#
# Bulk Modulus (GPa) = 20.29724 30.05618 25.17671
# Shear Modulus (GPa) = 28.74380 34.51324 31.62852
#
# Velocity S-wave (km/s) = 3.49260 3.82709 3.66366
# Velocity P-wave (km/s) = 4.98779 5.68190 5.34612
#
# Compressibility (1/GPa) = 0.04926778
#
# Stress axis : x y z
#
# Youngs Moduli (GPa) = 101.89231 37.89952 60.19644
#
# Poissons Ratio (x) = 0.17941 0.10117
# Poissons Ratio (y) = 0.48235 -0.27946
# Poissons Ratio (z) = 0.17125 -0.17595
#
# Static dielectric constant tensor:
#      x y z
#    x 1.974890 0.054100 0.039850 
#    y 0.054100 1.845450 0.057500 
#    z 0.039850 0.057500 1.924270 
# 
# From -- ./inp_files/139347.got.cif
#   From: 2010.05.17/outbox.cif.g08.bks.cpg/sg2_70_cif.got.tgz:139347.got - 2010.06.03 11:33:40.
