data_PCOD9046935
_publ_section_title
;
Structure prediction by ZEFSAII (Michael W. Deem and Ramdas Pophale) SiO2 
 PCOD9046935
Probable space group: P -1
;
_chemical_formula_sum "Si O2"
_cell_formula_units_Z 16
_cell_length_a 8.584025
_cell_length_b 9.518285
_cell_length_c 24.653225
_cell_angle_alpha 46.352082
_cell_angle_beta 60.614722
_cell_angle_gamma 31.906882
_cell_volume 746.087508
_symmetry_space_group_name_H-M "P -1"
_symmetry_group_IT_number 2
_symmetry_cell_setting 'triclinic'
loop_
_space_group_symop_operation_xyz
x,y,z
-x,-y,-z
loop_
_atom_site_type_symbol
_atom_site_label
_atom_site_fract_x
_atom_site_fract_y
_atom_site_fract_z
Si Si1 0.156592 0.371641 0.277403
Si Si2 0.819797 0.065733 0.787104
Si Si3 0.974107 0.325393 0.517771
Si Si4 0.486200 0.442187 0.383130
Si Si5 0.524162 0.498430 0.820257
Si Si6 0.917432 0.293705 0.418527
Si Si7 0.563005 0.939328 0.798855
Si Si8 0.685679 0.388497 0.944680
O O1 0.367317 0.376837 0.244596
O O2 0.277557 0.157110 0.260450
O O3 0.156331 0.226907 0.367064
O O4 0.804044 0.749065 0.228508
O O5 0.662021 0.376120 0.696877
O O6 0.743863 0.169632 0.834985
O O7 0.666829 0.005093 0.807305
O O8 0.176108 0.763413 0.794098
O O9 0.000000 0.500000 0.500000
O O10 0.763390 0.373644 0.577305
O O11 0.833811 0.465853 0.443965
O O12 0.297978 0.934893 0.558504
O O13 0.680977 0.453483 0.368540
O O14 0.550316 0.447159 0.893854
O O15 0.000000 0.000000 0.500000
O O16 0.694447 0.613876 0.879553
O O17 0.500000 0.500000 0.000000
O O18 0.000000 0.000000 0.000000
#
# Coordination Sequence:
#
# PCOD9046935 Si02
#       8
#     2   2   2   2   2   2   2   2
#     4  11  23  44  67  98 134 182 240 274 337 413
#     4  12  24  44  67 102 146 169 232 281 342 400
#     4  11  25  44  63  94 133 170 238 288 356 401
#     4  11  24  44  65  92 130 186 218 288 346 403
#     4  11  25  43  70 105 139 179 221 286 338 398
#     4  10  24  43  69  93 133 178 239 286 345 405
#     4  11  24  43  74 102 135 183 226 270 335 415
#     4  11  23  47  74 102 140 180 224 268 328 413
#
# _framework density 21.445204
#
# number of rings (size 3 to 8) (size 9 to 14) (size 15 to 20)
#    0.000    1.000    1.250    6.000    5.250    2.000 
#    9.000    3.750    0.000    0.000    0.000    0.000 
#    0.000    0.000    0.000    0.000    0.000    0.000 
#
# Total GULP energy -89460.005085 kJ/mol
# GULP energy per Si atom -5591.250318 kJ/mol
# Density = 2.139639 g / cm^3
# Si number density = 21.445204 Si / 1000 Ang^3
#
#
#
# Elastic Constant Matrix: (Units=GPa)
#
#
# Indices 1 2 3 4 5 6 
#
# 1 71.4583 24.0683 7.7115 3.8281 0.0514 14.3193
# 2 24.0683 118.2651 41.2826 10.4713 -3.9934 3.5493
# 3 7.7115 41.2826 86.0082 10.4985 -1.8691 4.4784
# 4 3.8281 10.4713 10.4985 48.0273 5.0796 11.0769
# 5 0.0514 -3.9934 -1.8691 5.0796 18.7398 -1.2437
# 6 14.3193 3.5493 4.4784 11.0769 -1.2437 47.4916
#
#
#
# Elastic Compliance Matrix: (Units=1/GPa)
#
#
# Indices 1 2 3 4 5 6 
#
# 1 0.016004 -0.003314 0.000304 0.000610 -0.001202 -0.004780
# 2 -0.003314 0.010990 -0.004789 -0.001581 0.002372 0.001060
# 3 0.000304 -0.004789 0.014198 -0.002048 0.000912 -0.000571
# 4 0.000610 -0.001581 -0.002048 0.023625 -0.007316 -0.005574
# 5 -0.001202 0.002372 0.000912 -0.007316 0.056163 0.003276
# 6 -0.004780 0.001060 -0.000571 -0.005574 0.003276 0.023858
#
#
# Mechanical properties :
#
#
# Convention : Reuss Voigt Hill
#
# Bulk Modulus (GPa) = 39.07185 46.87294 42.97240
# Shear Modulus (GPa) = 29.59188 36.36301 32.97744
#
# Velocity S-wave (km/s) = 3.71871 4.12226 3.92567
# Velocity P-wave (km/s) = 6.05783 6.67547 6.37414
#
# Compressibility (1/GPa) = 0.02559387
#
# Stress axis : x y z
#
# Youngs Moduli (GPa) = 62.48550 90.99329 70.43480
#
# Poissons Ratio (x) = 0.30158 -0.02143
# Poissons Ratio (y) = 0.20710 0.33728
# Poissons Ratio (z) = -0.01901 0.43572
#
# Static dielectric constant tensor:
#      x y z
#    x 1.800970 -0.012930 -0.001030 
#    y -0.012930 1.772080 -0.019830 
#    z -0.001030 -0.019830 1.880520 
# 
# From -- ./inp_files/606668.got.cif
#   From: 2010.05.17/outbox.cif.g08.bks.cpg/sg2_304_cif.got.tgz:606668.got - 2010.06.03 11:33:40.
