data_PCOD9046723
_publ_section_title
;
Structure prediction by ZEFSAII (Michael W. Deem and Ramdas Pophale) SiO2 
 PCOD9046723
Probable space group: P -1
;
_chemical_formula_sum "Si O2"
_cell_formula_units_Z 14
_cell_length_a 9.445193
_cell_length_b 7.975910
_cell_length_c 12.125642
_cell_angle_alpha 123.311457
_cell_angle_beta 121.897739
_cell_angle_gamma 69.860162
_cell_volume 646.222048
_symmetry_space_group_name_H-M "P -1"
_symmetry_group_IT_number 2
_symmetry_cell_setting 'triclinic'
loop_
_space_group_symop_operation_xyz
x,y,z
-x,-y,-z
loop_
_atom_site_type_symbol
_atom_site_label
_atom_site_fract_x
_atom_site_fract_y
_atom_site_fract_z
Si Si1 0.162848 0.612833 0.079208
Si Si2 0.049669 0.296947 0.375791
Si Si3 0.471793 0.339666 0.120226
Si Si4 0.155810 0.122617 0.578767
Si Si5 0.215966 0.552778 0.821398
Si Si6 0.834640 0.972994 0.846716
Si Si7 0.465789 0.001264 0.810173
O O1 0.316037 0.481919 0.148945
O O2 0.151932 0.851715 0.176801
O O3 0.203202 0.604015 0.961728
O O4 0.000000 0.500000 0.000000
O O5 0.142130 0.159513 0.456487
O O6 0.000000 0.500000 0.500000
O O7 0.871588 0.276939 0.234135
O O8 0.158593 0.244107 0.290881
O O9 0.599468 0.477764 0.162666
O O10 0.545809 0.205063 0.202243
O O11 0.428099 0.181048 0.949126
O O12 0.129778 0.345682 0.700457
O O13 0.329326 0.027724 0.666761
O O14 0.000000 0.000000 0.500000
O O15 0.657671 0.004027 0.848620
O O16 0.000000 0.000000 0.000000
#
# Coordination Sequence:
#
# PCOD9046723 Si02
#       7
#     2   2   2   2   2   2   2
#     4  12  24  36  65 105 139 168 219 291 351 396
#     4  10  24  43  67  91 137 181 222 270 345 409
#     4  11  22  41  67 102 137 178 223 294 356 396
#     4  11  24  41  66  92 132 190 232 263 332 422
#     4  11  21  43  68  95 134 179 228 283 344 405
#     4  12  23  42  71 105 135 172 231 293 345 403
#     4  11  23  40  69 100 139 177 234 284 340 410
#
# _framework density 21.664380000000001
#
# number of rings (size 3 to 8) (size 9 to 14) (size 15 to 20)
#    0.000    0.857    4.286    3.000    2.000    2.857 
#    0.000    0.000    0.000    6.000    0.000    0.000 
#    0.000    0.000    0.000    0.000    0.000    0.000 
#
# Total GULP energy -77962.497504 kJ/mol
# GULP energy per Si atom -5568.749822 kJ/mol
# Density = 2.161507 g / cm^3
# Si number density = 21.664380 Si / 1000 Ang^3
#
#
#
# Elastic Constant Matrix: (Units=GPa)
#
#
# Indices 1 2 3 4 5 6 
#
# 1 94.6052 30.9846 18.7268 -4.5966 15.7267 -1.2218
# 2 30.9846 112.7168 43.9414 -17.3767 6.1053 -7.4674
# 3 18.7268 43.9414 96.5500 -14.8189 -8.6841 -6.5473
# 4 -4.5966 -17.3767 -14.8189 53.0351 -7.2355 5.7597
# 5 15.7267 6.1053 -8.6841 -7.2355 30.7806 3.5753
# 6 -1.2218 -7.4674 -6.5473 5.7597 3.5753 36.2815
#
#
#
# Elastic Compliance Matrix: (Units=1/GPa)
#
#
# Indices 1 2 3 4 5 6 
#
# 1 0.012941 -0.002496 -0.002186 -0.001322 -0.007095 0.000437
# 2 -0.002496 0.011910 -0.004738 0.001916 -0.002138 0.001419
# 3 -0.002186 -0.004738 0.014032 0.003055 0.006694 0.000339
# 4 -0.001322 0.001916 0.003055 0.021461 0.006568 -0.003153
# 5 -0.007095 -0.002138 0.006694 0.006568 0.040493 -0.004504
# 6 0.000437 0.001419 0.000339 -0.003153 -0.004504 0.028874
#
#
# Mechanical properties :
#
#
# Convention : Reuss Voigt Hill
#
# Bulk Modulus (GPa) = 49.89211 54.57529 52.23370
# Shear Modulus (GPa) = 32.20964 38.03405 35.12184
#
# Velocity S-wave (km/s) = 3.86003 4.19454 4.03076
# Velocity P-wave (km/s) = 6.55332 6.97888 6.76945
#
# Compressibility (1/GPa) = 0.02004325
#
# Stress axis : x y z
#
# Youngs Moduli (GPa) = 77.27258 83.96036 71.26673
#
# Poissons Ratio (x) = 0.20956 0.15576
# Poissons Ratio (y) = 0.19287 0.33770
# Poissons Ratio (z) = 0.16889 0.39785
#
# Static dielectric constant tensor:
#      x y z
#    x 1.730230 -0.019310 0.024690 
#    y -0.019310 1.948740 0.013120 
#    z 0.024690 0.013120 1.793490 
# 
# From -- ./inp_files/174805.got.cif
#   From: 2010.05.17/outbox.cif.g08.bks.cpg/sg2_88_cif.got.tgz:174805.got - 2010.06.03 11:33:40.
