data_PCOD9046185
_publ_section_title
;
Structure prediction by ZEFSAII (Michael W. Deem and Ramdas Pophale) SiO2 
 PCOD9046185
Probable space group: P -1
;
_chemical_formula_sum "Si O2"
_cell_formula_units_Z 16
_cell_length_a 18.070906
_cell_length_b 8.996807
_cell_length_c 5.369152
_cell_angle_alpha 86.849312
_cell_angle_beta 50.790314
_cell_angle_gamma 84.052556
_cell_volume 672.667043
_symmetry_space_group_name_H-M "P -1"
_symmetry_group_IT_number 2
_symmetry_cell_setting 'triclinic'
loop_
_space_group_symop_operation_xyz
x,y,z
-x,-y,-z
loop_
_atom_site_type_symbol
_atom_site_label
_atom_site_fract_x
_atom_site_fract_y
_atom_site_fract_z
Si Si1 0.045540 0.422290 0.656880
Si Si2 0.974931 0.095882 0.794745
Si Si3 0.756716 0.167050 0.104918
Si Si4 0.561942 0.694691 0.476068
Si Si5 0.341353 0.091980 0.375434
Si Si6 0.264630 0.368658 0.273208
Si Si7 0.365596 0.585093 0.405094
Si Si8 0.385444 0.843110 0.967564
O O1 0.160084 0.430404 0.403759
O O2 0.000000 0.500000 0.500000
O O3 0.026144 0.248273 0.698594
O O4 0.000000 0.500000 0.000000
O O5 0.862982 0.145489 0.981847
O O6 0.000000 0.000000 0.500000
O O7 0.000000 0.000000 0.000000
O O8 0.710661 0.331551 0.255124
O O9 0.725239 0.151505 0.886121
O O10 0.701590 0.036263 0.361928
O O11 0.593675 0.809126 0.607997
O O12 0.556450 0.528657 0.615459
O O13 0.460252 0.778393 0.603101
O O14 0.651461 0.670142 0.102599
O O15 0.257914 0.210318 0.440476
O O16 0.397195 0.005037 0.038198
O O17 0.307366 0.483438 0.358966
O O18 0.402790 0.717066 0.152147
#
# Coordination Sequence:
#
# PCOD9046185 Si02
#       8
#     2   2   2   2   2   2   2   2
#     4  12  29  49  79 111 151 197 254 313 385 450
#     4  12  29  49  79 111 151 197 254 313 385 450
#     4  11  25  43  71  97 140 180 238 296 358 434
#     4  11  24  42  68 102 140 187 237 291 360 434
#     4  10  24  42  68  95 142 181 235 288 363 422
#     4  11  25  43  71  97 140 180 238 296 358 434
#     4  10  24  42  68  95 142 181 235 288 363 422
#     4  11  24  42  68 102 140 187 237 291 360 434
#
# _framework density 23.785912
#
# number of rings (size 3 to 8) (size 9 to 14) (size 15 to 20)
#    0.000    1.000    0.000    4.500   14.000    8.000 
#    0.000    0.000    0.000    0.000    0.000    0.000 
#    0.000    0.000    0.000    0.000    0.000    0.000 
#
# Total GULP energy -89515.060598 kJ/mol
# GULP energy per Si atom -5594.691287 kJ/mol
# Density = 2.373177 g / cm^3
# Si number density = 23.785912 Si / 1000 Ang^3
#
#
#
# Elastic Constant Matrix: (Units=GPa)
#
#
# Indices 1 2 3 4 5 6 
#
# 1 150.7636 33.6327 45.6555 22.5550 -2.0742 -8.9060
# 2 33.6327 122.8509 29.2284 18.8361 18.5662 18.3990
# 3 45.6555 29.2284 68.7103 17.8934 9.7912 9.9300
# 4 22.5550 18.8361 17.8934 44.7382 1.9866 5.0963
# 5 -2.0742 18.5662 9.7912 1.9866 42.7840 7.3533
# 6 -8.9060 18.3990 9.9300 5.0963 7.3533 38.9430
#
#
#
# Elastic Compliance Matrix: (Units=1/GPa)
#
#
# Indices 1 2 3 4 5 6 
#
# 1 0.009422 -0.001801 -0.005819 -0.002253 0.001915 0.004423
# 2 -0.001801 0.010485 -0.001602 -0.002255 -0.003478 -0.004006
# 3 -0.005819 -0.001602 0.021398 -0.004247 -0.003458 -0.004822
# 4 -0.002253 -0.002255 -0.004247 0.026321 0.000962 -0.001993
# 5 0.001915 -0.003478 -0.003458 0.000962 0.026081 -0.002088
# 6 0.004423 -0.004006 -0.004822 -0.001993 -0.002088 0.030467
#
#
# Mechanical properties :
#
#
# Convention : Reuss Voigt Hill
#
# Bulk Modulus (GPa) = 43.74466 62.15088 52.94777
# Shear Modulus (GPa) = 33.28056 40.88025 37.08040
#
# Velocity S-wave (km/s) = 3.74461 4.15019 3.95260
# Velocity P-wave (km/s) = 6.09320 7.01081 6.56805
#
# Compressibility (1/GPa) = 0.02285993
#
# Stress axis : x y z
#
# Youngs Moduli (GPa) = 106.13835 95.37069 46.73405
#
# Poissons Ratio (x) = 0.17177 0.27197
# Poissons Ratio (y) = 0.19117 0.07486
# Poissons Ratio (z) = 0.61767 0.15276
#
# Static dielectric constant tensor:
#      x y z
#    x 1.936630 -0.036050 0.052440 
#    y -0.036050 1.843390 -0.011390 
#    z 0.052440 -0.011390 2.012980 
# 
# From -- ./inp_files/55364.got.cif
#   From: 2010.05.17/outbox.cif.g08.bks.cpg/sg2_28_cif.got.tgz:55364.got - 2010.06.03 11:33:40.
