data_PCOD9046669
_publ_section_title
;
Structure prediction by ZEFSAII (Michael W. Deem and Ramdas Pophale) SiO2 
 PCOD9046669
Probable space group: P -1
;
_chemical_formula_sum "Si O2"
_cell_formula_units_Z 14
_cell_length_a 30.817169
_cell_length_b 8.948421
_cell_length_c 28.516407
_cell_angle_alpha 150.028197
_cell_angle_beta 170.633044
_cell_angle_gamma 29.529741
_cell_volume 627.858841
_symmetry_space_group_name_H-M "P -1"
_symmetry_group_IT_number 2
_symmetry_cell_setting 'triclinic'
loop_
_space_group_symop_operation_xyz
x,y,z
-x,-y,-z
loop_
_atom_site_type_symbol
_atom_site_label
_atom_site_fract_x
_atom_site_fract_y
_atom_site_fract_z
Si Si1 0.511930 0.682621 0.317751
Si Si2 0.841614 0.752233 0.205916
Si Si3 0.967229 0.355278 0.374168
Si Si4 0.476152 0.641466 0.373989
Si Si5 0.966768 0.689885 0.220895
Si Si6 0.338675 0.633406 0.770788
Si Si7 0.683762 0.606156 0.684885
O O1 0.573364 0.550101 0.400351
O O2 0.808488 0.564419 0.582280
O O3 0.398767 0.031406 0.300052
O O4 0.298904 0.539593 0.022539
O O5 0.816394 0.844747 0.149477
O O6 0.141523 0.683781 0.529078
O O7 0.666715 0.027046 0.123256
O O8 0.000000 0.500000 0.500000
O O9 0.171613 0.472404 0.587431
O O10 0.030647 0.987427 0.344381
O O11 0.649362 0.464359 0.050367
O O12 0.620672 0.503704 0.537530
O O13 0.500000 0.000000 0.500000
O O14 0.192290 0.520596 0.037271
O O15 0.500000 0.500000 0.500000
O O16 0.000000 0.500000 0.000000
#
# Coordination Sequence:
#
# PCOD9046669 Si02
#       7
#     2   2   2   2   2   2   2
#     4  10  24  44  70  94 136 175 230 268 337 414
#     4  10  24  43  66  98 134 182 225 271 343 392
#     4  12  25  43  66  99 138 175 229 277 334 388
#     4   9  23  44  67  95 130 177 224 268 333 407
#     4  11  24  41  72  95 133 182 225 278 330 408
#     4  11  26  43  68  97 140 181 223 283 330 396
#     4  11  27  45  70  99 135 170 216 282 338 393
#
# _framework density 22.298006000000001
#
# number of rings (size 3 to 8) (size 9 to 14) (size 15 to 20)
#    0.000    1.429    1.429    1.286   14.000    4.571 
#    0.000    0.000    0.000    0.000    0.000    0.000 
#    0.000    0.000    0.000    0.000    0.000    0.000 
#
# Total GULP energy -78055.652170 kJ/mol
# GULP energy per Si atom -5575.403726 kJ/mol
# Density = 2.224725 g / cm^3
# Si number density = 22.298006 Si / 1000 Ang^3
#
#
#
# Elastic Constant Matrix: (Units=GPa)
#
#
# Indices 1 2 3 4 5 6 
#
# 1 84.3079 14.3786 32.9559 3.6403 -12.9212 5.7551
# 2 14.3786 131.6872 56.7754 -0.5588 -4.5962 -8.6873
# 3 32.9559 56.7754 121.0927 0.2915 -7.6614 -6.5315
# 4 3.6403 -0.5588 0.2915 42.5431 -6.7036 1.1377
# 5 -12.9212 -4.5962 -7.6614 -6.7036 34.4515 7.4780
# 6 5.7551 -8.6873 -6.5315 1.1377 7.4780 26.0211
#
#
#
# Elastic Compliance Matrix: (Units=1/GPa)
#
#
# Indices 1 2 3 4 5 6 
#
# 1 0.014724 -0.000113 -0.003902 -0.000145 0.005906 -0.005965
# 2 -0.000113 0.009633 -0.004380 0.000077 -0.000193 0.002194
# 3 -0.003902 -0.004380 0.011498 0.000144 0.000045 0.002268
# 4 -0.000145 0.000077 0.000144 0.024417 0.005280 -0.002491
# 5 0.005906 -0.000193 0.000045 0.005280 0.034767 -0.011581
# 6 -0.005965 0.002194 0.002268 -0.002491 -0.011581 0.044488
#
#
# Mechanical properties :
#
#
# Convention : Reuss Voigt Hill
#
# Bulk Modulus (GPa) = 52.45013 60.58973 56.51993
# Shear Modulus (GPa) = 30.73663 36.13500 33.43582
#
# Velocity S-wave (km/s) = 3.71677 4.02997 3.87654
# Velocity P-wave (km/s) = 6.48017 6.99185 6.74087
#
# Compressibility (1/GPa) = 0.01906573
#
# Stress axis : x y z
#
# Youngs Moduli (GPa) = 67.91404 103.81366 86.96978
#
# Poissons Ratio (x) = 0.01178 0.33934
# Poissons Ratio (y) = 0.00771 0.38089
# Poissons Ratio (z) = 0.26499 0.45465
#
# Static dielectric constant tensor:
#      x y z
#    x 2.048010 0.210540 -0.562510 
#    y 0.210540 2.279960 -1.411010 
#    z -0.562510 -1.411010 6.125890 
# 
# From -- ./inp_files/37721.got.cif
#   From: 2010.05.17/outbox.cif.g08.bks.cpg/sg2_19_cif.got.tgz:37721.got - 2010.06.03 11:33:40.
