data_PCOD9046419
_publ_section_title
;
Structure prediction by ZEFSAII (Michael W. Deem and Ramdas Pophale) SiO2 
 PCOD9046419
Probable space group: P -1
;
_chemical_formula_sum "Si O2"
_cell_formula_units_Z 16
_cell_length_a 9.222675
_cell_length_b 9.378200
_cell_length_c 11.606759
_cell_angle_alpha 59.610199
_cell_angle_beta 123.304799
_cell_angle_gamma 100.014439
_cell_volume 716.184871
_symmetry_space_group_name_H-M "P -1"
_symmetry_group_IT_number 2
_symmetry_cell_setting 'triclinic'
loop_
_space_group_symop_operation_xyz
x,y,z
-x,-y,-z
loop_
_atom_site_type_symbol
_atom_site_label
_atom_site_fract_x
_atom_site_fract_y
_atom_site_fract_z
Si Si1 0.988245 0.118243 0.057999
Si Si2 0.987726 0.536838 0.188441
Si Si3 0.442245 0.819003 0.571817
Si Si4 0.811678 0.766643 0.711289
Si Si5 0.209360 0.983828 0.591016
Si Si6 0.175949 0.405828 0.677676
Si Si7 0.296619 0.014485 0.877577
Si Si8 0.666099 0.441170 0.518980
O O1 0.118317 0.092809 0.235885
O O2 0.799246 0.105863 0.034616
O O3 0.034018 0.294321 0.961951
O O4 0.000000 0.000000 0.000000
O O5 0.030951 0.379428 0.188225
O O6 0.163627 0.545613 0.336512
O O7 0.838313 0.533060 0.221254
O O8 0.636331 0.710921 0.711287
O O9 0.346104 0.744536 0.454778
O O10 0.500000 0.000000 0.500000
O O11 0.313118 0.838990 0.616138
O O12 0.760295 0.846434 0.530741
O O13 0.278970 0.970813 0.754685
O O14 0.000000 0.000000 0.500000
O O15 0.195620 0.204527 0.771601
O O16 0.325405 0.454922 0.638345
O O17 0.000000 0.500000 0.500000
O O18 0.500000 0.000000 0.000000
O O19 0.500000 0.500000 0.500000
#
# Coordination Sequence:
#
# PCOD9046419 Si02
#       8
#     2   2   2   2   2   2   2   2
#     4  12  27  45  71  99 148 195 241 300 381 442
#     4  11  24  43  71  97 143 188 243 299 365 445
#     4  10  25  38  66 104 138 176 235 304 357 423
#     4  11  24  46  69 103 140 192 250 304 363 442
#     4  11  24  43  71 100 144 189 248 303 366 433
#     4  10  24  42  72 104 142 189 250 298 362 442
#     4  12  28  46  71 112 149 192 243 314 374 442
#     4  11  23  42  69 104 140 185 241 301 365 430
#
# _framework density 22.340600999999999
#
# number of rings (size 3 to 8) (size 9 to 14) (size 15 to 20)
#    0.000    1.000    3.750    1.875   14.000    0.000 
#    0.000    0.000    0.000    3.000    0.000    0.000 
#    0.000    0.000    0.000    0.000    0.000    0.000 
#
# Total GULP energy -89341.757192 kJ/mol
# GULP energy per Si atom -5583.859824 kJ/mol
# Density = 2.228975 g / cm^3
# Si number density = 22.340601 Si / 1000 Ang^3
#
#
#
# Elastic Constant Matrix: (Units=GPa)
#
#
# Indices 1 2 3 4 5 6 
#
# 1 176.1137 28.6438 35.9038 18.2834 -17.0203 -22.2265
# 2 28.6438 103.8424 12.2171 17.6437 -8.1282 -28.1019
# 3 35.9038 12.2171 60.3867 15.1053 -15.7718 -7.5907
# 4 18.2834 17.6437 15.1053 47.9710 4.9092 -1.2829
# 5 -17.0203 -8.1282 -15.7718 4.9092 34.0109 5.1126
# 6 -22.2265 -28.1019 -7.5907 -1.2829 5.1126 47.5802
#
#
#
# Elastic Compliance Matrix: (Units=1/GPa)
#
#
# Indices 1 2 3 4 5 6 
#
# 1 0.006993 -0.000546 -0.002821 -0.001718 0.001973 0.002236
# 2 -0.000546 0.012568 0.000483 -0.004650 0.002597 0.006841
# 3 -0.002821 0.000483 0.022765 -0.007270 0.010112 0.001317
# 4 -0.001718 -0.004650 -0.007270 0.026306 -0.008679 -0.003067
# 5 0.001973 0.002597 0.010112 -0.008679 0.036973 -0.000138
# 6 0.002236 0.006841 0.001317 -0.003067 -0.000138 0.026244
#
#
# Mechanical properties :
#
#
# Convention : Reuss Voigt Hill
#
# Bulk Modulus (GPa) = 27.35346 54.87469 41.11408
# Shear Modulus (GPa) = 33.37698 43.48429 38.43064
#
# Velocity S-wave (km/s) = 3.86943 4.41662 4.15205
# Velocity P-wave (km/s) = 5.67748 7.11511 6.43656
#
# Compressibility (1/GPa) = 0.03655844
#
# Stress axis : x y z
#
# Youngs Moduli (GPa) = 142.99276 79.56568 43.92755
#
# Poissons Ratio (x) = 0.04341 0.12394
# Poissons Ratio (y) = 0.07801 -0.02122
# Poissons Ratio (z) = 0.40344 -0.03843
#
# Static dielectric constant tensor:
#      x y z
#    x 1.933220 -0.030470 0.120880 
#    y -0.030470 1.863370 -0.076090 
#    z 0.120880 -0.076090 2.088650 
# 
# From -- ./inp_files/279488.got.cif
#   From: 2010.05.17/outbox.cif.g08.bks.cpg/sg2_140_cif.got.tgz:279488.got - 2010.06.03 11:33:40.
