data_PCOD9046125
_publ_section_title
;
Structure prediction by ZEFSAII (Michael W. Deem and Ramdas Pophale) SiO2 
 PCOD9046125
Probable space group: P -1
;
_chemical_formula_sum "Si O2"
_cell_formula_units_Z 16
_cell_length_a 8.668669
_cell_length_b 15.769084
_cell_length_c 9.566680
_cell_angle_alpha 37.678879
_cell_angle_beta 112.054081
_cell_angle_gamma 104.255503
_cell_volume 737.847426
_symmetry_space_group_name_H-M "P -1"
_symmetry_group_IT_number 2
_symmetry_cell_setting 'triclinic'
loop_
_space_group_symop_operation_xyz
x,y,z
-x,-y,-z
loop_
_atom_site_type_symbol
_atom_site_label
_atom_site_fract_x
_atom_site_fract_y
_atom_site_fract_z
Si Si1 0.347278 0.211833 0.841870
Si Si2 0.809611 0.057512 0.819185
Si Si3 0.804831 0.532999 0.356076
Si Si4 0.172362 0.920971 0.715047
Si Si5 0.765514 0.798442 0.504881
Si Si6 0.705067 0.241839 0.802419
Si Si7 0.841281 0.256405 0.307849
Si Si8 0.315836 0.455084 0.016324
O O1 0.268158 0.339766 0.739157
O O2 0.272912 0.207293 0.665029
O O3 0.540964 0.227058 0.857774
O O4 0.295406 0.072244 0.079947
O O5 0.718460 0.138304 0.811873
O O6 0.819346 0.168329 0.555090
O O7 0.000000 0.000000 0.000000
O O8 0.717268 0.395976 0.550764
O O9 0.770076 0.559468 0.145348
O O10 0.000000 0.500000 0.500000
O O11 0.245372 0.825868 0.737003
O O12 0.269564 0.045827 0.648899
O O13 0.144172 0.815018 0.969881
O O14 0.000000 0.000000 0.500000
O O15 0.962541 0.754272 0.645529
O O16 0.675180 0.686547 0.707913
O O17 0.779264 0.416637 0.099083
O O18 0.500000 0.500000 0.000000
#
# Coordination Sequence:
#
# PCOD9046125 Si02
#       8
#     2   2   2   2   2   2   2   2
#     4  12  26  43  73 106 138 181 228 293 354 405
#     4  12  22  45  71 100 137 178 235 279 342 416
#     4  12  28  46  73 105 137 188 239 284 344 423
#     4  10  24  42  68 100 131 179 226 278 342 413
#     4  11  24  45  69 100 142 177 229 279 350 415
#     4  12  25  46  70  99 143 177 231 290 346 409
#     4  11  24  44  70  99 133 185 225 280 341 415
#     4  12  28  46  68 102 146 180 228 289 347 411
#
# _framework density 21.684698000000001
#
# number of rings (size 3 to 8) (size 9 to 14) (size 15 to 20)
#    0.000    0.500    3.750    4.125    8.750    0.000 
#    0.000    1.250    0.000    0.000    0.000    0.000 
#    0.000    0.000    0.000    0.000    0.000    0.000 
#
# Total GULP energy -89527.975677 kJ/mol
# GULP energy per Si atom -5595.498480 kJ/mol
# Density = 2.163534 g / cm^3
# Si number density = 21.684698 Si / 1000 Ang^3
#
#
#
# Elastic Constant Matrix: (Units=GPa)
#
#
# Indices 1 2 3 4 5 6 
#
# 1 82.7185 8.6317 -25.1280 -10.4624 -1.2939 -1.0567
# 2 8.6317 148.6039 25.2780 -7.7480 13.4109 -27.1740
# 3 -25.1280 25.2780 49.9757 -7.2007 -18.4055 -5.0962
# 4 -10.4624 -7.7480 -7.2007 27.7324 4.7329 -1.9360
# 5 -1.2939 13.4109 -18.4055 4.7329 32.4607 -2.5788
# 6 -1.0567 -27.1740 -5.0962 -1.9360 -2.5788 28.4417
#
#
#
# Elastic Compliance Matrix: (Units=1/GPa)
#
#
# Indices 1 2 3 4 5 6 
#
# 1 0.019103 -0.004401 0.017345 0.008646 0.011251 0.001221
# 2 -0.004401 0.011244 -0.010829 0.001001 -0.010491 0.007756
# 3 0.017345 -0.010829 0.047242 0.010726 0.030568 0.002265
# 4 0.008646 0.001001 0.010726 0.042768 0.000264 0.006135
# 5 0.011251 -0.010491 0.030568 0.000264 0.052938 0.000690
# 6 0.001221 0.007756 0.002265 0.006135 0.000690 0.043501
#
#
# Mechanical properties :
#
#
# Convention : Reuss Voigt Hill
#
# Bulk Modulus (GPa) = 12.22215 33.20683 22.71449
# Shear Modulus (GPa) = 20.84723 35.89473 28.37098
#
# Velocity S-wave (km/s) = 3.10398 4.07295 3.62102
# Velocity P-wave (km/s) = 4.30055 6.12089 5.28962
#
# Compressibility (1/GPa) = 0.08181866
#
# Stress axis : x y z
#
# Youngs Moduli (GPa) = 52.34905 88.93468 21.16745
#
# Poissons Ratio (x) = 0.39142 -0.36715
# Poissons Ratio (y) = 0.23040 0.22922
# Poissons Ratio (z) = -0.90799 0.96306
#
# Static dielectric constant tensor:
#      x y z
#    x 1.791790 0.028180 0.018760 
#    y 0.028180 1.806470 0.040360 
#    z 0.018760 0.040360 1.776670 
# 
# From -- ./inp_files/190843.got.cif
#   From: 2010.05.17/outbox.cif.g08.bks.cpg/sg2_96_cif.got.tgz:190843.got - 2010.06.03 11:33:40.
