data_PCOD9046052
_publ_section_title
;
Structure prediction by ZEFSAII (Michael W. Deem and Ramdas Pophale) SiO2 
 PCOD9046052
Probable space group: P -1
;
_chemical_formula_sum "Si O2"
_cell_formula_units_Z 16
_cell_length_a 14.512637
_cell_length_b 15.032629
_cell_length_c 12.090059
_cell_angle_alpha 28.301876
_cell_angle_beta 124.358827
_cell_angle_gamma 141.112521
_cell_volume 717.324465
_symmetry_space_group_name_H-M "P -1"
_symmetry_group_IT_number 2
_symmetry_cell_setting 'triclinic'
loop_
_space_group_symop_operation_xyz
x,y,z
-x,-y,-z
loop_
_atom_site_type_symbol
_atom_site_label
_atom_site_fract_x
_atom_site_fract_y
_atom_site_fract_z
Si Si1 0.360604 0.237759 0.264165
Si Si2 0.829914 0.645972 0.473200
Si Si3 0.511216 0.625783 0.559985
Si Si4 0.003587 0.278026 0.719718
Si Si5 0.682358 0.164173 0.467349
Si Si6 0.670900 0.952879 0.917752
Si Si7 0.328689 0.897756 0.000368
Si Si8 0.104256 0.234890 0.054674
O O1 0.441157 0.265416 0.401742
O O2 0.287727 0.987667 0.413680
O O3 0.500000 0.500000 0.000000
O O4 0.224729 0.229827 0.192728
O O5 0.657818 0.502524 0.463748
O O6 0.938364 0.701960 0.383862
O O7 0.794784 0.415951 0.773055
O O8 0.927126 0.932802 0.283185
O O9 0.647747 0.886541 0.291572
O O10 0.484478 0.368251 0.825375
O O11 0.000000 0.500000 0.500000
O O12 0.105291 0.278331 0.875222
O O13 0.819120 0.004816 0.919441
O O14 0.818823 0.472571 0.180978
O O15 0.500000 0.000000 0.500000
O O16 0.669462 0.106362 0.653074
O O17 0.704449 0.081945 0.918160
O O18 0.500000 0.000000 0.000000
#
# Coordination Sequence:
#
# PCOD9046052 Si02
#       8
#     2   2   2   2   2   2   2   2
#     4  12  24  42  67 100 144 182 221 273 358 415
#     4  11  23  40  67 100 138 171 235 286 343 398
#     4  11  24  44  68  99 139 183 226 284 338 415
#     4  12  22  35  67 102 135 170 215 295 352 392
#     4  12  25  38  66 101 143 179 217 280 350 416
#     4  12  22  40  66 104 133 172 236 278 349 406
#     4  10  24  42  66  97 133 183 231 290 336 399
#     4  12  24  40  63 100 137 175 222 282 341 407
#
# _framework density 22.305109999999999
#
# number of rings (size 3 to 8) (size 9 to 14) (size 15 to 20)
#    0.000    0.500    6.250    2.250    3.500    0.000 
#    0.000    0.625    0.000    1.500    0.000    0.000 
#    0.000    0.000    0.000    0.000    0.000    0.000 
#
# Total GULP energy -89241.887691 kJ/mol
# GULP energy per Si atom -5577.617981 kJ/mol
# Density = 2.225434 g / cm^3
# Si number density = 22.305110 Si / 1000 Ang^3
#
#
#
# Elastic Constant Matrix: (Units=GPa)
#
#
# Indices 1 2 3 4 5 6 
#
# 1 43.4863 10.2545 18.5586 -3.9716 6.8070 -4.6695
# 2 10.2545 90.7205 47.3618 -2.7442 -7.0479 7.4931
# 3 18.5586 47.3618 201.7697 -37.9948 14.2223 -19.7784
# 4 -3.9716 -2.7442 -37.9948 33.7706 -6.7908 4.9556
# 5 6.8070 -7.0479 14.2223 -6.7908 25.6208 -2.9849
# 6 -4.6695 7.4931 -19.7784 4.9556 -2.9849 25.8505
#
#
#
# Elastic Compliance Matrix: (Units=1/GPa)
#
#
# Indices 1 2 3 4 5 6 
#
# 1 0.025630 -0.003463 -0.000632 -0.000006 -0.006906 0.004354
# 2 -0.003463 0.014942 -0.004778 -0.002221 0.006224 -0.007468
# 3 -0.000632 -0.004778 0.008327 0.007419 -0.003120 0.005859
# 4 -0.000006 -0.002221 0.007419 0.038966 0.005541 -0.000511
# 5 -0.006906 0.006224 -0.003120 0.005541 0.045634 -0.001231
# 6 0.004354 -0.007468 0.005859 -0.000511 -0.001231 0.046074
#
#
# Mechanical properties :
#
#
# Convention : Reuss Voigt Hill
#
# Bulk Modulus (GPa) = 32.09997 54.25847 43.17922
# Shear Modulus (GPa) = 24.07269 34.36851 29.22060
#
# Velocity S-wave (km/s) = 3.28875 3.92961 3.62337
# Velocity P-wave (km/s) = 5.37064 6.70578 6.07500
#
# Compressibility (1/GPa) = 0.03115267
#
# Stress axis : x y z
#
# Youngs Moduli (GPa) = 39.01661 66.92657 120.09015
#
# Poissons Ratio (x) = 0.23179 0.07590
# Poissons Ratio (y) = 0.13513 0.57376
# Poissons Ratio (z) = 0.02466 0.31976
#
# Static dielectric constant tensor:
#      x y z
#    x 1.845280 0.047230 0.032610 
#    y 0.047230 1.889580 -0.029280 
#    z 0.032610 -0.029280 1.908140 
# 
# From -- ./inp_files/455415.got.cif
#   From: 2010.05.17/outbox.cif.g08.bks.cpg/sg2_228_cif.got.tgz:455415.got - 2010.06.03 11:33:40.
