data_PCOD9046831
_publ_section_title
;
Structure prediction by ZEFSAII (Michael W. Deem and Ramdas Pophale) SiO2 
 PCOD9046831
Probable space group: P -1
;
_chemical_formula_sum "Si O2"
_cell_formula_units_Z 16
_cell_length_a 18.798163
_cell_length_b 9.263486
_cell_length_c 10.972013
_cell_angle_alpha 140.200569
_cell_angle_beta 38.867055
_cell_angle_gamma 143.193842
_cell_volume 662.815906
_symmetry_space_group_name_H-M "P -1"
_symmetry_group_IT_number 2
_symmetry_cell_setting 'triclinic'
loop_
_space_group_symop_operation_xyz
x,y,z
-x,-y,-z
loop_
_atom_site_type_symbol
_atom_site_label
_atom_site_fract_x
_atom_site_fract_y
_atom_site_fract_z
Si Si1 0.689495 0.665482 0.419039
Si Si2 0.890273 0.706460 0.983787
Si Si3 0.437611 0.552343 0.998262
Si Si4 0.613816 0.951705 0.371050
Si Si5 0.859455 0.630023 0.700138
Si Si6 0.096350 0.615263 0.760782
Si Si7 0.939847 0.859250 0.360326
Si Si8 0.476443 0.094020 0.284242
O O1 0.796477 0.796494 0.467776
O O2 0.605602 0.350196 0.327666
O O3 0.595918 0.790739 0.626089
O O4 0.770076 0.711050 0.213723
O O5 0.863732 0.565356 0.795726
O O6 0.959980 0.609823 0.922412
O O7 0.000000 0.000000 0.000000
O O8 0.287738 0.436284 0.161174
O O9 0.494843 0.849584 0.067770
O O10 0.500000 0.500000 0.000000
O O11 0.436600 0.353695 0.771936
O O12 0.620153 0.022856 0.548616
O O13 0.500000 0.000000 0.500000
O O14 0.762405 0.124046 0.235466
O O15 0.890394 0.485143 0.457438
O O16 0.959551 0.935761 0.738453
O O17 0.079376 0.420313 0.764548
O O18 0.000000 0.000000 0.500000
#
# Coordination Sequence:
#
# PCOD9046831 Si02
#       8
#     2   2   2   2   2   2   2   2
#     4  11  25  47  74 107 157 199 248 314 378 449
#     4  12  24  43  71 107 143 191 245 303 373 450
#     4  12  25  42  73 109 142 195 251 304 370 452
#     4  12  23  45  72 106 149 194 250 304 375 444
#     4  11  23  44  70 108 150 186 247 305 380 448
#     4  11  24  43  72 104 149 196 241 310 371 442
#     4  10  24  43  68 107 145 195 243 306 376 442
#     4  11  25  48  74 108 152 198 249 312 377 448
#
# _framework density 24.139433
#
# number of rings (size 3 to 8) (size 9 to 14) (size 15 to 20)
#    0.000    0.750    3.750    3.375    0.000    4.500 
#    0.000    8.125    0.000    0.000    0.000    0.000 
#    0.000    0.000    0.000    0.000    0.000    0.000 
#
# Total GULP energy -89355.636392 kJ/mol
# GULP energy per Si atom -5584.727275 kJ/mol
# Density = 2.408449 g / cm^3
# Si number density = 24.139433 Si / 1000 Ang^3
#
#
#
# Elastic Constant Matrix: (Units=GPa)
#
#
# Indices 1 2 3 4 5 6 
#
# 1 156.3118 35.7321 34.5948 12.4468 -19.3185 14.2320
# 2 35.7321 142.5301 25.2187 20.3083 -12.3138 9.6165
# 3 34.5948 25.2187 111.9314 22.3590 7.7544 5.0640
# 4 12.4468 20.3083 22.3590 38.0347 -0.4966 -1.8142
# 5 -19.3185 -12.3138 7.7544 -0.4966 44.6390 -4.9278
# 6 14.2320 9.6165 5.0640 -1.8142 -4.9278 38.6045
#
#
#
# Elastic Compliance Matrix: (Units=1/GPa)
#
#
# Indices 1 2 3 4 5 6 
#
# 1 0.007745 -0.001045 -0.002139 -0.000769 0.003212 -0.001940
# 2 -0.001045 0.008192 -0.000863 -0.003572 0.001754 -0.001486
# 3 -0.002139 -0.000863 0.011168 -0.005502 -0.003291 -0.001140
# 4 -0.000769 -0.003572 -0.005502 0.031854 0.000371 0.003440
# 5 0.003212 0.001754 -0.003291 0.000371 0.025076 0.002029
# 6 -0.001940 -0.001486 -0.001140 0.003440 0.002029 0.027559
#
#
# Mechanical properties :
#
#
# Convention : Reuss Voigt Hill
#
# Bulk Modulus (GPa) = 52.60525 66.87385 59.73955
# Shear Modulus (GPa) = 39.67451 45.27083 42.47267
#
# Velocity S-wave (km/s) = 4.05848 4.33527 4.19916
# Velocity P-wave (km/s) = 6.61825 7.26793 6.95068
#
# Compressibility (1/GPa) = 0.01900951
#
# Stress axis : x y z
#
# Youngs Moduli (GPa) = 129.11952 122.07701 89.53902
#
# Poissons Ratio (x) = 0.12757 0.19155
# Poissons Ratio (y) = 0.13493 0.07730
# Poissons Ratio (z) = 0.27622 0.10539
#
# Static dielectric constant tensor:
#      x y z
#    x 2.020460 0.034460 0.012670 
#    y 0.034460 1.944920 0.016230 
#    z 0.012670 0.016230 2.070590 
# 
# From -- ./inp_files/462552.got.cif
#   From: 2010.05.17/outbox.cif.g08.bks.cpg/sg2_232_cif.got.tgz:462552.got - 2010.06.03 11:33:40.
