data_PCOD9046828
_publ_section_title
;
Structure prediction by ZEFSAII (Michael W. Deem and Ramdas Pophale) SiO2 
 PCOD9046828
Probable space group: P -1
;
_chemical_formula_sum "Si O2"
_cell_formula_units_Z 10
_cell_length_a 5.390965
_cell_length_b 8.663286
_cell_length_c 13.410148
_cell_angle_alpha 129.180642
_cell_angle_beta 94.314421
_cell_angle_gamma 61.823082
_cell_volume 404.498159
_symmetry_space_group_name_H-M "P -1"
_symmetry_group_IT_number 2
_symmetry_cell_setting 'triclinic'
loop_
_space_group_symop_operation_xyz
x,y,z
-x,-y,-z
loop_
_atom_site_type_symbol
_atom_site_label
_atom_site_fract_x
_atom_site_fract_y
_atom_site_fract_z
Si Si1 0.273900 0.939806 0.412674
Si Si2 0.649009 0.138561 0.942080
Si Si3 0.755030 0.660851 0.808581
Si Si4 0.283390 0.439536 0.874479
Si Si5 0.828033 0.399966 0.506353
O O1 0.073495 0.121231 0.392911
O O2 0.500000 0.000000 0.500000
O O3 0.471866 0.690247 0.259768
O O4 0.000000 0.000000 0.500000
O O5 0.544978 0.196611 0.078508
O O6 0.778879 0.302600 0.992931
O O7 0.391930 0.258879 0.897476
O O8 0.807885 0.853526 0.835349
O O9 0.775028 0.490669 0.654759
O O10 0.991061 0.498974 0.833830
O O11 0.500000 0.500000 0.500000
O O12 0.000000 0.500000 0.500000
#
# Coordination Sequence:
#
# PCOD9046828 Si02
#       5
#     2   2   2   2   2
#     4  12  25  46  74 103 143 191 236 299 365 422
#     4  10  24  43  68 107 134 192 237 292 361 426
#     4  11  23  45  72  97 148 182 240 298 358 425
#     4  11  23  44  71 102 143 182 244 292 360 431
#     4  12  27  47  73 107 142 190 243 298 363 431
#
# _framework density 24.721993000000001
#
# number of rings (size 3 to 8) (size 9 to 14) (size 15 to 20)
#    0.000    0.800    2.000    4.800    2.800    0.000 
#   14.400    0.000    0.000    0.000    0.000    0.000 
#    0.000    0.000    0.000    0.000    0.000    0.000 
#
# Total GULP energy -55790.280759 kJ/mol
# GULP energy per Si atom -5579.028076 kJ/mol
# Density = 2.466572 g / cm^3
# Si number density = 24.721993 Si / 1000 Ang^3
#
#
#
# Elastic Constant Matrix: (Units=GPa)
#
#
# Indices 1 2 3 4 5 6 
#
# 1 111.4623 26.1712 17.2493 -6.8435 -1.0487 -14.0337
# 2 26.1712 80.8339 16.1319 -7.2704 12.2486 -8.5271
# 3 17.2493 16.1319 107.0828 -2.2739 7.6440 -6.0937
# 4 -6.8435 -7.2704 -2.2739 50.6378 -0.2978 4.0794
# 5 -1.0487 12.2486 7.6440 -0.2978 41.8258 -18.8256
# 6 -14.0337 -8.5271 -6.0937 4.0794 -18.8256 43.7657
#
#
#
# Elastic Compliance Matrix: (Units=1/GPa)
#
#
# Indices 1 2 3 4 5 6 
#
# 1 0.010453 -0.003160 -0.001200 0.000612 0.003152 0.003868
# 2 -0.003160 0.014405 -0.001348 0.001584 -0.004196 -0.000347
# 3 -0.001200 -0.001348 0.009842 0.000068 -0.001378 0.000124
# 4 0.000612 0.001584 0.000068 0.020205 -0.001157 -0.001867
# 5 0.003152 -0.004196 -0.001378 -0.001157 0.031634 0.013716
# 6 0.003868 -0.000347 0.000124 -0.001867 0.013716 0.030113
#
#
# Mechanical properties :
#
#
# Convention : Reuss Voigt Hill
#
# Bulk Modulus (GPa) = 42.94457 46.49820 44.72138
# Shear Modulus (GPa) = 36.81148 43.23430 40.02289
#
# Velocity S-wave (km/s) = 3.86297 4.18643 4.02794
# Velocity P-wave (km/s) = 6.10781 6.49750 6.30567
#
# Compressibility (1/GPa) = 0.02328583
#
# Stress axis : x y z
#
# Youngs Moduli (GPa) = 95.66248 69.42207 101.60827
#
# Poissons Ratio (x) = 0.21934 0.12191
# Poissons Ratio (y) = 0.30225 0.13693
# Poissons Ratio (z) = 0.11477 0.09356
#
# Static dielectric constant tensor:
#      x y z
#    x 2.037580 -0.007150 -0.065030 
#    y -0.007150 1.731390 -0.010830 
#    z -0.065030 -0.010830 2.050750 
# 
# From -- ./inp_files/18209.got.cif
#   From: 2010.05.17/outbox.cif.g08.bks.cpg/sg2_10_cif.got.tgz:18209.got - 2010.06.03 11:33:40.
