data_PCOD9046811
_publ_section_title
;
Structure prediction by ZEFSAII (Michael W. Deem and Ramdas Pophale) SiO2 
 PCOD9046811
Probable space group: P -1
;
_chemical_formula_sum "Si O2"
_cell_formula_units_Z 16
_cell_length_a 8.811034
_cell_length_b 9.091570
_cell_length_c 14.329049
_cell_angle_alpha 57.750578
_cell_angle_beta 96.560570
_cell_angle_gamma 59.845727
_cell_volume 715.563920
_symmetry_space_group_name_H-M "P -1"
_symmetry_group_IT_number 2
_symmetry_cell_setting 'triclinic'
loop_
_space_group_symop_operation_xyz
x,y,z
-x,-y,-z
loop_
_atom_site_type_symbol
_atom_site_label
_atom_site_fract_x
_atom_site_fract_y
_atom_site_fract_z
Si Si1 0.782881 0.593886 0.915591
Si Si2 0.556586 0.776573 0.028596
Si Si3 0.150033 0.862182 0.969101
Si Si4 0.950705 0.316227 0.696013
Si Si5 0.700125 0.374942 0.496143
Si Si6 0.836180 0.508929 0.302543
Si Si7 0.185280 0.988591 0.496835
Si Si8 0.601929 0.762781 0.647541
O O1 0.705785 0.729104 0.764928
O O2 0.619322 0.748026 0.934984
O O3 0.814661 0.364342 0.976771
O O4 0.000000 0.500000 0.000000
O O5 0.753615 0.562893 0.173790
O O6 0.368893 0.787782 0.024875
O O7 0.500000 0.000000 0.000000
O O8 0.035364 0.063657 0.815032
O O9 0.000000 0.000000 0.000000
O O10 0.865291 0.357202 0.572968
O O11 0.762662 0.523780 0.679837
O O12 0.132871 0.317732 0.719458
O O13 0.500000 0.500000 0.500000
O O14 0.690273 0.499862 0.359659
O O15 0.752968 0.134960 0.556566
O O16 0.069159 0.258167 0.405199
O O17 0.388517 0.819966 0.630948
O O18 0.000000 0.000000 0.500000
O O19 0.500000 0.000000 0.500000
#
# Coordination Sequence:
#
# PCOD9046811 Si02
#       8
#     2   2   2   2   2   2   2   2
#     4  12  29  52  79 114 154 209 261 319 398 465
#     4  12  27  50  75 109 150 203 259 319 385 463
#     4  12  27  48  78 106 154 204 261 319 380 472
#     4  12  24  46  72 111 149 200 253 312 393 454
#     4  11  25  42  70 109 143 192 247 312 382 445
#     4  11  25  47  71 101 155 195 252 312 386 454
#     4  10  24  43  68 103 145 190 242 313 378 445
#     4  12  25  46  78 111 152 194 253 316 389 458
#
# _framework density 22.359988999999999
#
# number of rings (size 3 to 8) (size 9 to 14) (size 15 to 20)
#    0.000    0.500    5.000    2.250    7.000    3.000 
#    0.000    0.000    0.000    0.000    0.000    0.000 
#    0.000    0.000    0.000    0.000    0.000    0.000 
#
# Total GULP energy -89351.104463 kJ/mol
# GULP energy per Si atom -5584.444029 kJ/mol
# Density = 2.230910 g / cm^3
# Si number density = 22.359989 Si / 1000 Ang^3
#
#
#
# Elastic Constant Matrix: (Units=GPa)
#
#
# Indices 1 2 3 4 5 6 
#
# 1 116.9175 32.3442 28.5093 -3.7221 16.2828 7.7530
# 2 32.3442 124.3478 28.6228 2.7083 -7.2008 0.8722
# 3 28.5093 28.6228 111.9216 13.5548 5.5017 4.2803
# 4 -3.7221 2.7083 13.5548 39.1895 4.9199 4.6060
# 5 16.2828 -7.2008 5.5017 4.9199 43.4860 -0.8236
# 6 7.7530 0.8722 4.2803 4.6060 -0.8236 38.6702
#
#
#
# Elastic Compliance Matrix: (Units=1/GPa)
#
#
# Indices 1 2 3 4 5 6 
#
# 1 0.010641 -0.002596 -0.002070 0.002738 -0.004505 -0.002268
# 2 -0.002596 0.009306 -0.001798 -0.000700 0.002832 0.000653
# 3 -0.002070 -0.001798 0.010387 -0.003578 -0.000437 -0.000277
# 4 0.002738 -0.000700 -0.003578 0.027973 -0.003921 -0.003553
# 5 -0.004505 0.002832 -0.000437 -0.003921 0.025687 0.001902
# 6 -0.002268 0.000653 -0.000277 -0.003553 0.001902 0.026794
#
#
# Mechanical properties :
#
#
# Convention : Reuss Voigt Hill
#
# Bulk Modulus (GPa) = 57.45156 59.12661 58.28909
# Shear Modulus (GPa) = 38.60491 41.84984 40.22737
#
# Velocity S-wave (km/s) = 4.15965 4.33094 4.24616
# Velocity P-wave (km/s) = 6.98712 7.17703 7.08272
#
# Compressibility (1/GPa) = 0.01740597
#
# Stress axis : x y z
#
# Youngs Moduli (GPa) = 93.97697 107.46076 96.27107
#
# Poissons Ratio (x) = 0.27896 0.19929
# Poissons Ratio (y) = 0.24396 0.17310
# Poissons Ratio (z) = 0.19454 0.19321
#
# Static dielectric constant tensor:
#      x y z
#    x 1.944020 0.049590 -0.037540 
#    y 0.049590 1.730850 0.015590 
#    z -0.037540 0.015590 1.859820 
# 
# From -- ./inp_files/494511.got.cif
#   From: 2010.05.17/outbox.cif.g08.bks.cpg/sg2_248_cif.got.tgz:494511.got - 2010.06.03 11:33:40.
