data_PCOD9046712
_publ_section_title
;
Structure prediction by ZEFSAII (Michael W. Deem and Ramdas Pophale) SiO2 
 PCOD9046712
Probable space group: P -1
;
_chemical_formula_sum "Si O2"
_cell_formula_units_Z 12
_cell_length_a 15.140316
_cell_length_b 19.158336
_cell_length_c 11.908147
_cell_angle_alpha 23.103829
_cell_angle_beta 31.061210
_cell_angle_gamma 20.935230
_cell_volume 484.223222
_symmetry_space_group_name_H-M "P -1"
_symmetry_group_IT_number 2
_symmetry_cell_setting 'triclinic'
loop_
_space_group_symop_operation_xyz
x,y,z
-x,-y,-z
loop_
_atom_site_type_symbol
_atom_site_label
_atom_site_fract_x
_atom_site_fract_y
_atom_site_fract_z
Si Si1 0.285872 0.752089 0.026603
Si Si2 0.277361 0.780608 0.383060
Si Si3 0.106986 0.507745 0.548356
Si Si4 0.185170 0.104886 0.205025
Si Si5 0.455437 0.905850 0.440535
Si Si6 0.646460 0.052535 0.150571
O O1 0.285835 0.540997 0.335124
O O2 0.352188 0.808983 0.757865
O O3 0.440794 0.730241 0.988828
O O4 0.000000 0.000000 0.000000
O O5 0.500000 0.500000 0.500000
O O6 0.059123 0.815550 0.607080
O O7 0.317857 0.882721 0.293776
O O8 0.203465 0.962025 0.090472
O O9 0.250044 0.331286 0.544202
O O10 0.836477 0.785171 0.406743
O O11 0.116940 0.343333 0.870183
O O12 0.339468 0.019607 0.276552
O O13 0.432957 0.097095 0.259436
#
# Coordination Sequence:
#
# PCOD9046712 Si02
#       6
#     2   2   2   2   2   2
#     4  10  24  43  67 103 143 186 244 299 356 435
#     4  11  27  49  77 109 150 195 249 303 374 440
#     4  11  24  47  73 106 146 193 246 299 372 435
#     4  11  26  49  77 109 149 196 247 307 369 444
#     4  12  24  45  74 105 146 193 244 299 376 433
#     4  11  25  47  73 109 146 191 250 303 366 442
#
# _framework density 24.781959000000001
#
# number of rings (size 3 to 8) (size 9 to 14) (size 15 to 20)
#    0.000    1.000    1.667    4.000    2.333    4.000 
#    0.000    5.000    0.000    0.000    0.000    0.000 
#    0.000    0.000    0.000    0.000    0.000    0.000 
#
# Total GULP energy -67163.002288 kJ/mol
# GULP energy per Si atom -5596.916857 kJ/mol
# Density = 2.472555 g / cm^3
# Si number density = 24.781959 Si / 1000 Ang^3
#
#
#
# Elastic Constant Matrix: (Units=GPa)
#
#
# Indices 1 2 3 4 5 6 
#
# 1 188.4653 30.8777 82.2664 -8.6399 -8.3286 19.4778
# 2 30.8777 94.3478 51.0585 15.3238 10.5271 18.7784
# 3 82.2664 51.0585 217.3373 32.4904 -4.6856 8.6012
# 4 -8.6399 15.3238 32.4904 43.5684 7.6233 -0.2162
# 5 -8.3286 10.5271 -4.6856 7.6233 45.9086 2.3531
# 6 19.4778 18.7784 8.6012 -0.2162 2.3531 32.4847
#
#
#
# Elastic Compliance Matrix: (Units=1/GPa)
#
#
# Indices 1 2 3 4 5 6 
#
# 1 0.007279 -0.000849 -0.002989 0.003827 0.000734 -0.003110
# 2 -0.000849 0.014359 -0.002393 -0.002972 -0.002840 -0.006972
# 3 -0.002989 -0.002393 0.007073 -0.005291 0.001548 0.001155
# 4 0.003827 -0.002972 -0.005291 0.029430 -0.004119 0.001318
# 5 0.000734 -0.002840 0.001548 -0.004119 0.023457 -0.000935
# 6 -0.003110 -0.006972 0.001155 0.001318 -0.000935 0.036449
#
#
# Mechanical properties :
#
#
# Convention : Reuss Voigt Hill
#
# Bulk Modulus (GPa) = 61.54126 92.06176 76.80151
# Shear Modulus (GPa) = 36.78460 46.78883 41.78671
#
# Velocity S-wave (km/s) = 3.85688 4.34985 4.11076
# Velocity P-wave (km/s) = 6.68738 7.90301 7.32047
#
# Compressibility (1/GPa) = 0.01624926
#
# Stress axis : x y z
#
# Youngs Moduli (GPa) = 137.37722 69.64140 141.37556
#
# Poissons Ratio (x) = 0.05914 0.42258
# Poissons Ratio (y) = 0.11667 0.33830
# Poissons Ratio (z) = 0.41063 0.16665
#
# Static dielectric constant tensor:
#      x y z
#    x 2.070160 0.054820 -0.072020 
#    y 0.054820 1.964460 -0.046000 
#    z -0.072020 -0.046000 1.972780 
# 
# From -- ./inp_files/466836.got.cif
#   From: 2010.05.17/outbox.cif.g08.bks.cpg/sg2_234_cif.got.tgz:466836.got - 2010.06.03 11:33:40.
