data_PCOD9046503
_publ_section_title
;
Structure prediction by ZEFSAII (Michael W. Deem and Ramdas Pophale) SiO2 
 PCOD9046503
Probable space group: P -1
;
_chemical_formula_sum "Si O2"
_cell_formula_units_Z 11
_cell_length_a 20.085141
_cell_length_b 4.953836
_cell_length_c 20.010788
_cell_angle_alpha 65.990835
_cell_angle_beta 165.627841
_cell_angle_gamma 115.386200
_cell_volume 446.178400
_symmetry_space_group_name_H-M "P -1"
_symmetry_group_IT_number 2
_symmetry_cell_setting 'triclinic'
loop_
_space_group_symop_operation_xyz
x,y,z
-x,-y,-z
loop_
_atom_site_type_symbol
_atom_site_label
_atom_site_fract_x
_atom_site_fract_y
_atom_site_fract_z
Si Si1 0.386835 0.438273 0.566106
Si Si2 0.169930 0.630113 0.895389
Si Si3 0.268514 0.214299 0.756570
Si Si4 0.427932 0.097788 0.509334
Si Si5 0.000000 0.500000 0.000000
Si Si6 0.653924 0.689019 0.027190
O O1 0.381376 0.172886 0.534695
O O2 0.135666 0.365746 0.379319
O O3 0.360419 0.741984 0.470271
O O4 0.667089 0.497453 0.873195
O O5 0.188394 0.446143 0.864664
O O6 0.329319 0.962628 0.005197
O O7 0.758291 0.664854 0.206771
O O8 0.359434 0.486851 0.767066
O O9 0.000000 0.000000 0.500000
O O10 0.500000 0.000000 0.000000
O O11 0.740464 0.227881 0.787128
O O12 0.221321 0.267827 0.250917
#
# Coordination Sequence:
#
# PCOD9046503 Si02
#       6
#     2   2   2   2   1   2
#     4  12  26  45  68  99 144 182 226 282 336 404
#     4  12  26  43  70  97 136 190 230 282 340 426
#     4  11  26  46  71 101 137 178 224 316 349 411
#     4  11  24  44  68 104 138 177 228 278 338 399
#     4  10  24  42  76 102 136 180 224 282 334 402
#     4  11  26  47  70 103 136 179 244 286 360 415
#
# _framework density 24.653817
#
# number of rings (size 3 to 8) (size 9 to 14) (size 15 to 20)
#    0.000    0.727    1.818    4.364    2.545   10.182 
#    0.000    0.000    0.000    0.000    0.000    0.000 
#    0.000    0.000    0.000    0.000    0.000    0.000 
#
# Total GULP energy -61440.780381 kJ/mol
# GULP energy per Si atom -5585.525489 kJ/mol
# Density = 2.459770 g / cm^3
# Si number density = 24.653817 Si / 1000 Ang^3
#
#
#
# Elastic Constant Matrix: (Units=GPa)
#
#
# Indices 1 2 3 4 5 6 
#
# 1 129.0700 -17.9742 1.5834 -8.0381 6.9334 -35.0130
# 2 -17.9742 97.1085 -8.8322 -7.5311 -2.3081 4.4630
# 3 1.5834 -8.8322 121.6209 4.9615 15.9339 -7.8708
# 4 -8.0381 -7.5311 4.9615 24.6669 0.8840 2.9005
# 5 6.9334 -2.3081 15.9339 0.8840 17.2201 1.2855
# 6 -35.0130 4.4630 -7.8708 2.9005 1.2855 40.3015
#
#
#
# Elastic Compliance Matrix: (Units=1/GPa)
#
#
# Indices 1 2 3 4 5 6 
#
# 1 0.011154 0.001820 0.001327 0.003007 -0.006356 0.009735
# 2 0.001820 0.010975 0.000642 0.003791 -0.000067 0.000220
# 3 0.001327 0.000642 0.009800 -0.001396 -0.009699 0.003405
# 4 0.003007 0.003791 -0.001396 0.043147 -0.001541 -0.001136
# 5 -0.006356 -0.000067 -0.009699 -0.001541 0.070388 -0.009543
# 6 0.009735 0.000220 0.003405 -0.001136 -0.009543 0.034297
#
#
# Mechanical properties :
#
#
# Convention : Reuss Voigt Hill
#
# Bulk Modulus (GPa) = 25.31227 33.03927 29.17577
# Shear Modulus (GPa) = 26.97564 41.30586 34.14075
#
# Velocity S-wave (km/s) = 3.31142 4.09765 3.72534
# Velocity P-wave (km/s) = 4.99100 5.98481 5.51036
#
# Compressibility (1/GPa) = 0.03950653
#
# Stress axis : x y z
#
# Youngs Moduli (GPa) = 89.65144 91.11354 102.04558
#
# Poissons Ratio (x) = -0.16583 -0.13542
# Poissons Ratio (y) = -0.16317 -0.06548
# Poissons Ratio (z) = -0.11897 -0.05846
#
# Static dielectric constant tensor:
#      x y z
#    x 1.968830 0.025730 -0.043180 
#    y 0.025730 1.946410 -0.022260 
#    z -0.043180 -0.022260 1.944040 
# 
# From -- ./inp_files/125103.got.cif
#   From: 2010.05.17/outbox.cif.g08.bks.cpg/sg2_63_cif.got.tgz:125103.got - 2010.06.03 11:33:40.
