data_PCOD9046132
_publ_section_title
;
Structure prediction by ZEFSAII (Michael W. Deem and Ramdas Pophale) SiO2 
 PCOD9046132
Probable space group: P -1
;
_chemical_formula_sum "Si O2"
_cell_formula_units_Z 15
_cell_length_a 10.899525
_cell_length_b 10.903295
_cell_length_c 7.447105
_cell_angle_alpha 83.052298
_cell_angle_beta 44.412231
_cell_angle_gamma 92.757504
_cell_volume 603.166383
_symmetry_space_group_name_H-M "P -1"
_symmetry_group_IT_number 2
_symmetry_cell_setting 'triclinic'
loop_
_space_group_symop_operation_xyz
x,y,z
-x,-y,-z
loop_
_atom_site_type_symbol
_atom_site_label
_atom_site_fract_x
_atom_site_fract_y
_atom_site_fract_z
Si Si1 0.071858 0.796439 0.954352
Si Si2 0.048647 0.348505 0.250443
Si Si3 0.161636 0.099012 0.237958
Si Si4 0.500000 0.000000 0.000000
Si Si5 0.438640 0.476793 0.860345
Si Si6 0.353548 0.722692 0.248604
Si Si7 0.573476 0.268128 0.249968
Si Si8 0.230628 0.081965 0.738932
O O1 0.987321 0.699650 0.906869
O O2 0.229653 0.739835 0.887069
O O3 0.169353 0.938022 0.770151
O O4 0.899972 0.832481 0.227457
O O5 0.850137 0.355985 0.519148
O O6 0.113819 0.233224 0.300546
O O7 0.223632 0.455106 0.069903
O O8 0.336059 0.072340 0.154214
O O9 0.197464 0.083692 0.989505
O O10 0.000000 0.000000 0.500000
O O11 0.628703 0.130811 0.747999
O O12 0.500000 0.500000 0.000000
O O13 0.522631 0.353669 0.751630
O O14 0.500355 0.603916 0.658839
O O15 0.409749 0.733309 0.980995
O O16 0.433255 0.145411 0.478217
#
# Coordination Sequence:
#
# PCOD9046132 Si02
#       8
#     2   2   2   1   2   2   2   2
#     4  10  24  42  68 100 142 177 222 290 353 410
#     4  11  24  43  67 101 141 175 236 293 339 411
#     4  11  23  39  67 106 138 174 224 281 348 412
#     4  12  22  36  72 100 134 172 224 290 346 396
#     4  10  25  48  66  98 141 188 242 284 336 413
#     4  11  25  40  71 103 137 183 234 288 344 409
#     4  11  25  43  70  97 138 194 230 278 348 413
#     4  10  24  43  66 101 145 178 227 284 351 417
#
# _framework density 24.868759000000001
#
# number of rings (size 3 to 8) (size 9 to 14) (size 15 to 20)
#    0.000    1.333    2.667    1.200    3.733    6.933 
#    0.000    4.667    0.000    0.000    0.000    0.000 
#    0.000    0.000    0.000    0.000    0.000    0.000 
#
# Total GULP energy -83579.980281 kJ/mol
# GULP energy per Si atom -5571.998685 kJ/mol
# Density = 2.481216 g / cm^3
# Si number density = 24.868759 Si / 1000 Ang^3
#
#
#
# Elastic Constant Matrix: (Units=GPa)
#
#
# Indices 1 2 3 4 5 6 
#
# 1 134.6014 45.8715 36.6842 -1.7804 -32.5673 -14.3883
# 2 45.8715 70.1400 -6.2269 -2.8763 -5.3512 -12.3067
# 3 36.6842 -6.2269 89.4426 -2.2133 -23.5141 8.3880
# 4 -1.7804 -2.8763 -2.2133 32.0840 6.1374 -14.4148
# 5 -32.5673 -5.3512 -23.5141 6.1374 47.6564 5.6884
# 6 -14.3883 -12.3067 8.3880 -14.4148 5.6884 46.8768
#
#
#
# Elastic Compliance Matrix: (Units=1/GPa)
#
#
# Indices 1 2 3 4 5 6 
#
# 1 0.013019 -0.008207 -0.004639 -0.000575 0.005543 0.001822
# 2 -0.008207 0.020587 0.003964 0.003706 -0.002247 0.003588
# 3 -0.004639 0.003964 0.015170 -0.001861 0.005518 -0.004340
# 4 -0.000575 0.003706 -0.001861 0.039125 -0.007615 0.014084
# 5 0.005543 -0.002247 0.005518 -0.007615 0.028906 -0.005725
# 6 0.001822 0.003588 -0.004340 0.014084 -0.005725 0.028636
#
#
# Mechanical properties :
#
#
# Convention : Reuss Voigt Hill
#
# Bulk Modulus (GPa) = 32.24583 49.64907 40.94745
# Shear Modulus (GPa) = 28.81111 39.84712 34.32912
#
# Velocity S-wave (km/s) = 3.40741 4.00721 3.71942
# Velocity P-wave (km/s) = 5.33621 6.43569 5.91157
#
# Compressibility (1/GPa) = 0.03101177
#
# Stress axis : x y z
#
# Youngs Moduli (GPa) = 76.81157 48.57494 65.91764
#
# Poissons Ratio (x) = 0.39866 0.30578
# Poissons Ratio (y) = 0.63041 -0.26129
# Poissons Ratio (z) = 0.35632 -0.19254
#
# Static dielectric constant tensor:
#      x y z
#    x 2.005600 0.093730 0.013700 
#    y 0.093730 2.139270 0.028870 
#    z 0.013700 0.028870 2.043200 
# 
# From -- ./inp_files/252752.got.cif
#   From: 2010.05.17/outbox.cif.g08.bks.cpg/sg2_127_cif.got.tgz:252752.got - 2010.06.03 11:33:40.
