data_PCOD9046758
_publ_section_title
;
Structure prediction by ZEFSAII (Michael W. Deem and Ramdas Pophale) SiO2 
 PCOD9046758
Probable space group: P -1
;
_chemical_formula_sum "Si O2"
_cell_formula_units_Z 16
_cell_length_a 5.344276
_cell_length_b 23.179076
_cell_length_c 18.639889
_cell_angle_alpha 163.676630
_cell_angle_beta 106.754915
_cell_angle_gamma 73.032105
_cell_volume 620.429919
_symmetry_space_group_name_H-M "P -1"
_symmetry_group_IT_number 2
_symmetry_cell_setting 'triclinic'
loop_
_space_group_symop_operation_xyz
x,y,z
-x,-y,-z
loop_
_atom_site_type_symbol
_atom_site_label
_atom_site_fract_x
_atom_site_fract_y
_atom_site_fract_z
Si Si1 0.672401 0.679390 0.656799
Si Si2 0.143436 0.585107 0.835423
Si Si3 0.441356 0.693892 0.109305
Si Si4 0.248761 0.995923 0.565875
Si Si5 0.635931 0.977503 0.886268
Si Si6 0.855775 0.249758 0.118003
Si Si7 0.168506 0.646371 0.241590
Si Si8 0.714762 0.340930 0.573006
O O1 0.651616 0.444191 0.352076
O O2 0.879837 0.687125 0.746950
O O3 0.767520 0.809586 0.751227
O O4 0.420475 0.814032 0.824030
O O5 0.120913 0.743528 0.957307
O O6 0.420714 0.450554 0.689883
O O7 0.893306 0.450168 0.660620
O O8 0.170500 0.693324 0.044118
O O9 0.448408 0.835714 0.348568
O O10 0.626151 0.788550 0.176759
O O11 0.545561 0.471180 0.876894
O O12 0.180196 0.876907 0.489207
O O13 0.000000 0.000000 0.500000
O O14 0.363620 0.881316 0.725998
O O15 0.772378 0.044648 0.904983
O O16 0.125457 0.659948 0.339807
O O17 0.000000 0.500000 0.000000
#
# Coordination Sequence:
#
# PCOD9046758 Si02
#       8
#     2   2   2   2   2   2   2   2
#     4  10  24  44  70 104 146 179 245 287 365 424
#     4  11  26  48  72 101 150 187 238 296 359 422
#     4  10  24  43  67  98 142 184 233 296 354 417
#     4  11  22  41  68 104 131 180 243 291 347 427
#     4  11  24  44  71 105 143 186 239 298 356 425
#     4  11  24  43  74 103 138 194 236 288 365 424
#     4  11  22  44  72  97 142 191 234 287 364 416
#     4  11  27  47  72 106 147 188 242 297 359 423
#
# _framework density 25.788568000000001
#
# number of rings (size 3 to 8) (size 9 to 14) (size 15 to 20)
#    0.000    1.250    2.500    1.875    7.000    5.000 
#    2.250    0.000    0.000    0.000    0.000    0.000 
#    0.000    0.000    0.000    0.000    0.000    0.000 
#
# Total GULP energy -89426.451152 kJ/mol
# GULP energy per Si atom -5589.153197 kJ/mol
# Density = 2.572987 g / cm^3
# Si number density = 25.788568 Si / 1000 Ang^3
#
#
#
# Elastic Constant Matrix: (Units=GPa)
#
#
# Indices 1 2 3 4 5 6 
#
# 1 86.4673 22.8755 10.0539 9.3221 14.4987 11.6402
# 2 22.8755 177.7336 13.6063 19.0752 8.3919 4.4767
# 3 10.0539 13.6063 58.4153 8.8884 -3.2507 5.2791
# 4 9.3221 19.0752 8.8884 54.3485 2.6985 12.0129
# 5 14.4987 8.3919 -3.2507 2.6985 35.0306 4.4681
# 6 11.6402 4.4767 5.2791 12.0129 4.4681 36.6120
#
#
#
# Elastic Compliance Matrix: (Units=1/GPa)
#
#
# Indices 1 2 3 4 5 6 
#
# 1 0.013424 -0.001197 -0.001939 -0.000650 -0.005014 -0.003017
# 2 -0.001197 0.006089 -0.001035 -0.001825 -0.000983 0.000504
# 3 -0.001939 -0.001035 0.018331 -0.002106 0.003117 -0.001590
# 4 -0.000650 -0.001825 -0.002106 0.020854 -0.000322 -0.006070
# 5 -0.005014 -0.000983 0.003117 -0.000322 0.031487 -0.002472
# 6 -0.003017 0.000504 -0.001590 -0.006070 -0.002472 0.030734
#
#
# Mechanical properties :
#
#
# Convention : Reuss Voigt Hill
#
# Bulk Modulus (GPa) = 33.89534 46.18752 40.04143
# Shear Modulus (GPa) = 35.94674 43.60357 39.77515
#
# Velocity S-wave (km/s) = 3.73755 4.11641 3.93154
# Velocity P-wave (km/s) = 5.63895 6.36726 6.01414
#
# Compressibility (1/GPa) = 0.02950258
#
# Stress axis : x y z
#
# Youngs Moduli (GPa) = 74.49245 164.22286 54.55218
#
# Poissons Ratio (x) = 0.19655 0.10579
# Poissons Ratio (y) = 0.08916 0.05645
# Poissons Ratio (z) = 0.14446 0.16995
#
# Static dielectric constant tensor:
#      x y z
#    x 2.133890 0.060230 -0.056590 
#    y 0.060230 2.037720 -0.063760 
#    z -0.056590 -0.063760 2.135330 
# 
# From -- ./inp_files/551027.got.cif
#   From: 2010.05.17/outbox.cif.g08.bks.cpg/sg2_276_cif.got.tgz:551027.got - 2010.06.03 11:33:40.
