data_PCOD9046942
_publ_section_title
;
Structure prediction by ZEFSAII (Michael W. Deem and Ramdas Pophale) SiO2 
 PCOD9046942
Probable space group: P -1
;
_chemical_formula_sum "Si O2"
_cell_formula_units_Z 12
_cell_length_a 14.103004
_cell_length_b 13.321164
_cell_length_c 4.964924
_cell_angle_alpha 107.707204
_cell_angle_beta 85.378511
_cell_angle_gamma 144.693656
_cell_volume 489.158256
_symmetry_space_group_name_H-M "P -1"
_symmetry_group_IT_number 2
_symmetry_cell_setting 'triclinic'
loop_
_space_group_symop_operation_xyz
x,y,z
-x,-y,-z
loop_
_atom_site_type_symbol
_atom_site_label
_atom_site_fract_x
_atom_site_fract_y
_atom_site_fract_z
Si Si1 0.545273 0.153778 0.235224
Si Si2 0.939486 0.850216 0.195424
Si Si3 0.167355 0.453454 0.759944
Si Si4 0.689876 0.877540 0.622062
Si Si5 0.102722 0.505160 0.323954
Si Si6 0.637907 0.696694 0.965972
O O1 0.646555 0.321326 0.134651
O O2 0.385959 0.075966 0.304811
O O3 0.695074 0.277774 0.525009
O O4 0.500000 0.000000 0.000000
O O5 0.830436 0.660931 0.222581
O O6 0.117009 0.955618 0.173205
O O7 0.190590 0.217033 0.040537
O O8 0.000000 0.000000 0.500000
O O9 0.089038 0.390701 0.429568
O O10 0.063926 0.433597 0.974213
O O11 0.682233 0.829799 0.279368
O O12 0.586632 0.701482 0.698690
O O13 0.000000 0.500000 0.500000
O O14 0.500000 0.500000 0.000000
#
# Coordination Sequence:
#
# PCOD9046942 Si02
#       6
#     2   2   2   2   2   2
#     4  10  26  45  68 100 134 173 224 274 332 395
#     4  10  24  45  68 100 134 177 222 271 328 396
#     4  10  24  43  69  95 136 169 222 272 334 385
#     4  11  25  42  64 101 131 175 218 274 328 392
#     4  10  24  43  69  98 130 177 224 272 331 391
#     4  11  24  43  70  96 133 173 223 272 331 390
#
# _framework density 24.531936999999999
#
# number of rings (size 3 to 8) (size 9 to 14) (size 15 to 20)
#    1.000    0.667    0.000    2.500    7.000    7.333 
#    0.000    0.000    0.000    0.000    0.000    0.000 
#    0.000    0.000    0.000    0.000    0.000    0.000 
#
# Total GULP energy -67037.949615 kJ/mol
# GULP energy per Si atom -5586.495801 kJ/mol
# Density = 2.447610 g / cm^3
# Si number density = 24.531937 Si / 1000 Ang^3
#
#
#
# Elastic Constant Matrix: (Units=GPa)
#
#
# Indices 1 2 3 4 5 6 
#
# 1 154.1043 14.6135 11.8336 15.1509 -19.1980 19.6418
# 2 14.6135 77.6160 24.1881 13.1159 -12.7403 -7.3312
# 3 11.8336 24.1881 81.1425 -6.9358 -16.4640 2.2445
# 4 15.1509 13.1159 -6.9358 37.4755 -6.9946 -6.4107
# 5 -19.1980 -12.7403 -16.4640 -6.9946 29.9111 0.1734
# 6 19.6418 -7.3312 2.2445 -6.4107 0.1734 42.3516
#
#
#
# Elastic Compliance Matrix: (Units=1/GPa)
#
#
# Indices 1 2 3 4 5 6 
#
# 1 0.007901 -0.000635 -0.000301 -0.003013 0.003955 -0.004230
# 2 -0.000635 0.016019 -0.004681 -0.005306 0.002584 0.002502
# 3 -0.000301 -0.004681 0.015927 0.006096 0.008008 -0.000625
# 4 -0.003013 -0.005306 0.006096 0.033045 0.006859 0.005130
# 5 0.003955 0.002584 0.008008 0.006859 0.043089 -0.000949
# 6 -0.004230 0.002502 -0.000625 0.005130 -0.000949 0.026820
#
#
# Mechanical properties :
#
#
# Convention : Reuss Voigt Hill
#
# Bulk Modulus (GPa) = 34.95025 46.01479 40.48252
# Shear Modulus (GPa) = 30.56752 39.42948 34.99850
#
# Velocity S-wave (km/s) = 3.53374 4.01343 3.78120
# Velocity P-wave (km/s) = 5.56126 6.34623 5.96667
#
# Compressibility (1/GPa) = 0.02861210
#
# Stress axis : x y z
#
# Youngs Moduli (GPa) = 126.57393 62.42439 62.78818
#
# Poissons Ratio (x) = 0.03964 0.01890
# Poissons Ratio (y) = 0.08037 0.29392
# Poissons Ratio (z) = 0.03811 0.29222
#
# Static dielectric constant tensor:
#      x y z
#    x 1.964360 0.042160 0.021520 
#    y 0.042160 2.041170 -0.004010 
#    z 0.021520 -0.004010 1.912210 
# 
# From -- ./inp_files/93922.got.cif
#   From: 2010.05.17/outbox.cif.g08.bks.cpg/sg2_47_cif.got.tgz:93922.got - 2010.06.03 11:33:40.
