data_PCOD9046161
_publ_section_title
;
Structure prediction by ZEFSAII (Michael W. Deem and Ramdas Pophale) SiO2 
 PCOD9046161
Probable space group: P -1
;
_chemical_formula_sum "Si O2"
_cell_formula_units_Z 14
_cell_length_a 27.199366
_cell_length_b 5.135801
_cell_length_c 16.268005
_cell_angle_alpha 89.169787
_cell_angle_beta 163.177440
_cell_angle_gamma 98.116127
_cell_volume 590.548543
_symmetry_space_group_name_H-M "P -1"
_symmetry_group_IT_number 2
_symmetry_cell_setting 'triclinic'
loop_
_space_group_symop_operation_xyz
x,y,z
-x,-y,-z
loop_
_atom_site_type_symbol
_atom_site_label
_atom_site_fract_x
_atom_site_fract_y
_atom_site_fract_z
Si Si1 0.158379 0.349729 0.561158
Si Si2 0.395578 0.121881 0.518398
Si Si3 0.809379 0.536632 0.201639
Si Si4 0.650834 0.384681 0.658576
Si Si5 0.222196 0.166466 0.007614
Si Si6 0.120961 0.831573 0.220782
Si Si7 0.281617 0.935194 0.660840
O O1 0.227799 0.391227 0.766151
O O2 0.192519 0.654707 0.577254
O O3 0.258443 0.199055 0.665976
O O4 0.938543 0.129408 0.216668
O O5 0.351964 0.383174 0.414733
O O6 0.301193 0.849523 0.307899
O O7 0.313736 0.996644 0.476666
O O8 0.622053 0.249161 0.878273
O O9 0.823489 0.777914 0.157937
O O10 0.000000 0.500000 0.500000
O O11 0.774164 0.577752 0.929199
O O12 0.437080 0.213388 0.351887
O O13 0.173894 0.862090 0.401251
O O14 0.000000 0.500000 0.000000
O O15 0.000000 0.000000 0.000000
O O16 0.500000 0.000000 0.000000
#
# Coordination Sequence:
#
# PCOD9046161 Si02
#       7
#     2   2   2   2   2   2   2
#     4  12  26  44  77 105 149 190 246 299 373 434
#     4  11  25  45  73  99 146 186 240 296 371 423
#     4  11  24  46  72 110 146 193 241 300 365 451
#     4  10  24  43  70 103 142 186 229 289 358 437
#     4  10  24  42  68 106 146 183 238 287 359 437
#     4  12  28  49  75 109 146 193 254 314 368 440
#     4  12  29  51  75 110 148 199 255 315 374 442
#
# _framework density 23.706772000000001
#
# number of rings (size 3 to 8) (size 9 to 14) (size 15 to 20)
#    0.000    0.857    0.000    5.143    6.000   14.286 
#    0.000    0.000    0.000    0.000    0.000    0.000 
#    0.000    0.000    0.000    0.000    0.000    0.000 
#
# Total GULP energy -78519.584401 kJ/mol
# GULP energy per Si atom -5608.541743 kJ/mol
# Density = 2.365281 g / cm^3
# Si number density = 23.706772 Si / 1000 Ang^3
#
#
#
# Elastic Constant Matrix: (Units=GPa)
#
#
# Indices 1 2 3 4 5 6 
#
# 1 105.0388 -0.7783 27.2645 -3.0801 -27.8536 6.9896
# 2 -0.7783 83.8791 29.3651 -3.9970 -9.4522 -1.8038
# 3 27.2645 29.3651 85.0008 7.0747 -14.0233 23.7150
# 4 -3.0801 -3.9970 7.0747 33.5575 5.2078 -6.3268
# 5 -27.8536 -9.4522 -14.0233 5.2078 54.7703 13.1063
# 6 6.9896 -1.8038 23.7150 -6.3268 13.1063 35.7186
#
#
#
# Elastic Compliance Matrix: (Units=1/GPa)
#
#
# Indices 1 2 3 4 5 6 
#
# 1 0.012126 0.001730 -0.002679 0.000361 0.006414 -0.002797
# 2 0.001730 0.015191 -0.008418 0.005254 -0.000894 0.007276
# 3 -0.002679 -0.008418 0.024138 -0.011905 0.009661 -0.021581
# 4 0.000361 0.005254 -0.011905 0.038008 -0.009999 0.018500
# 5 0.006414 -0.000894 0.009661 -0.009999 0.029665 -0.020371
# 6 -0.002797 0.007276 -0.021581 0.018500 -0.020371 0.053991
#
#
# Mechanical properties :
#
#
# Convention : Reuss Voigt Hill
#
# Bulk Modulus (GPa) = 30.56073 42.84683 36.70378
# Shear Modulus (GPa) = 24.65978 39.34710 32.00344
#
# Velocity S-wave (km/s) = 3.22871 4.07841 3.67818
# Velocity P-wave (km/s) = 5.17866 6.34751 5.79264
#
# Compressibility (1/GPa) = 0.03272173
#
# Stress axis : x y z
#
# Youngs Moduli (GPa) = 82.46721 65.82841 41.42884
#
# Poissons Ratio (x) = -0.11390 0.11098
# Poissons Ratio (y) = -0.14269 0.34874
# Poissons Ratio (z) = 0.22092 0.55414
#
# Static dielectric constant tensor:
#      x y z
#    x 1.919980 -0.017560 0.008420 
#    y -0.017560 1.892090 -0.001800 
#    z 0.008420 -0.001800 1.901630 
# 
# From -- ./inp_files/542223.got.cif
#   From: 2010.05.17/outbox.cif.g08.bks.cpg/sg2_272_cif.got.tgz:542223.got - 2010.06.03 11:33:40.
