data_PCOD9046918
_publ_section_title
;
Structure prediction by ZEFSAII (Michael W. Deem and Ramdas Pophale) SiO2 
 PCOD9046918
Probable space group: P -1
;
_chemical_formula_sum "Si O2"
_cell_formula_units_Z 16
_cell_length_a 10.245705
_cell_length_b 19.533010
_cell_length_c 13.650694
_cell_angle_alpha 34.263445
_cell_angle_beta 148.939243
_cell_angle_gamma 146.577374
_cell_volume 714.130497
_symmetry_space_group_name_H-M "P -1"
_symmetry_group_IT_number 2
_symmetry_cell_setting 'triclinic'
loop_
_space_group_symop_operation_xyz
x,y,z
-x,-y,-z
loop_
_atom_site_type_symbol
_atom_site_label
_atom_site_fract_x
_atom_site_fract_y
_atom_site_fract_z
Si Si1 0.679089 0.071446 0.435025
Si Si2 0.734572 0.693003 0.288185
Si Si3 0.698815 0.188284 0.596470
Si Si4 0.377739 0.352628 0.144982
Si Si5 0.676437 0.877069 0.179743
Si Si6 0.016439 0.636471 0.722674
Si Si7 0.758267 0.180979 0.864720
Si Si8 0.278645 0.446156 0.172712
O O1 0.705095 0.222046 0.268076
O O2 0.001397 0.094344 0.624632
O O3 0.500000 0.000000 0.500000
O O4 0.526338 0.967196 0.374047
O O5 0.592256 0.778701 0.147928
O O6 0.542347 0.575675 0.231454
O O7 0.011026 0.791168 0.291069
O O8 0.834181 0.629819 0.518215
O O9 0.580341 0.279021 0.353094
O O10 0.744861 0.231471 0.687648
O O11 0.348624 0.370215 0.221195
O O12 0.500000 0.500000 0.000000
O O13 0.072326 0.260360 0.014037
O O14 0.464254 0.809939 0.212514
O O15 0.683951 0.022471 0.994975
O O16 0.863864 0.640132 0.721329
O O17 0.079021 0.507755 0.924455
#
# Coordination Sequence:
#
# PCOD9046918 Si02
#       8
#     2   2   2   2   2   2   2   2
#     4  11  22  45  74 102 142 179 237 293 354 409
#     4  11  24  45  72 104 140 180 240 295 345 416
#     4  12  26  44  75 105 135 196 232 289 359 425
#     4  12  28  48  69  99 154 187 233 291 352 430
#     4  10  24  46  70 103 146 178 226 311 343 409
#     4  10  24  43  69 104 137 181 232 297 343 418
#     4  11  27  45  70 107 143 182 238 287 358 421
#     4  11  26  43  70 104 138 193 234 281 359 419
#
# _framework density 22.404866999999999
#
# number of rings (size 3 to 8) (size 9 to 14) (size 15 to 20)
#    0.000    1.000    3.750    1.875    8.750    6.000 
#    0.000    0.000    0.000    0.000    0.000    0.000 
#    0.000    0.000    0.000    0.000    0.000    0.000 
#
# Total GULP energy -89548.272770 kJ/mol
# GULP energy per Si atom -5596.767048 kJ/mol
# Density = 2.235387 g / cm^3
# Si number density = 22.404867 Si / 1000 Ang^3
#
#
#
# Elastic Constant Matrix: (Units=GPa)
#
#
# Indices 1 2 3 4 5 6 
#
# 1 101.7640 7.7340 23.1731 11.4621 5.3402 -0.3689
# 2 7.7340 84.4714 12.0713 15.0362 -4.9475 -8.8168
# 3 23.1731 12.0713 68.2185 2.0764 -4.1821 -4.2181
# 4 11.4621 15.0362 2.0764 30.9262 -6.3258 -9.2794
# 5 5.3402 -4.9475 -4.1821 -6.3258 24.6494 -2.1154
# 6 -0.3689 -8.8168 -4.2181 -9.2794 -2.1154 38.9817
#
#
#
# Elastic Compliance Matrix: (Units=1/GPa)
#
#
# Indices 1 2 3 4 5 6 
#
# 1 0.011665 0.000052 -0.004217 -0.005639 -0.004846 -0.001939
# 2 0.000052 0.013360 -0.002055 -0.005730 0.000979 0.001489
# 3 -0.004217 -0.002055 0.016767 0.002995 0.004308 0.002256
# 4 -0.005639 -0.005730 0.002995 0.042453 0.012311 0.009748
# 5 -0.004846 0.000979 0.004308 0.012311 0.046227 0.006081
# 6 -0.001939 0.001489 0.002256 0.009748 0.006081 0.028866
#
#
# Mechanical properties :
#
#
# Convention : Reuss Voigt Hill
#
# Bulk Modulus (GPa) = 34.06915 37.82339 35.94627
# Shear Modulus (GPa) = 27.53851 33.00984 30.27418
#
# Velocity S-wave (km/s) = 3.50970 3.84257 3.67990
# Velocity P-wave (km/s) = 5.62700 6.05025 5.84246
#
# Compressibility (1/GPa) = 0.02935206
#
# Stress axis : x y z
#
# Youngs Moduli (GPa) = 85.72370 74.85058 59.63932
#
# Poissons Ratio (x) = -0.00390 0.25151
# Poissons Ratio (y) = -0.00446 0.12257
# Poissons Ratio (z) = 0.36151 0.15384
#
# Static dielectric constant tensor:
#      x y z
#    x 1.820840 -0.012030 0.010760 
#    y -0.012030 1.821950 -0.007000 
#    z 0.010760 -0.007000 1.836500 
# 
# From -- ./inp_files/402913.got.cif
#   From: 2010.05.17/outbox.cif.g08.bks.cpg/sg2_202_cif.got.tgz:402913.got - 2010.06.03 11:33:40.
