data_PCOD9046715
_publ_section_title
;
Structure prediction by ZEFSAII (Michael W. Deem and Ramdas Pophale) SiO2 
 PCOD9046715
Probable space group: P -1
;
_chemical_formula_sum "Si O2"
_cell_formula_units_Z 16
_cell_length_a 16.882163
_cell_length_b 5.037136
_cell_length_c 9.028517
_cell_angle_alpha 61.655517
_cell_angle_beta 91.528610
_cell_angle_gamma 80.591666
_cell_volume 661.801351
_symmetry_space_group_name_H-M "P -1"
_symmetry_group_IT_number 2
_symmetry_cell_setting 'triclinic'
loop_
_space_group_symop_operation_xyz
x,y,z
-x,-y,-z
loop_
_atom_site_type_symbol
_atom_site_label
_atom_site_fract_x
_atom_site_fract_y
_atom_site_fract_z
Si Si1 0.685911 0.485965 0.804459
Si Si2 0.103217 0.633013 0.930634
Si Si3 0.508051 0.641424 0.624305
Si Si4 0.740891 0.572986 0.469550
Si Si5 0.104412 0.218096 0.622316
Si Si6 0.664610 0.284147 0.302000
Si Si7 0.737805 0.795488 0.997483
Si Si8 0.962114 0.541481 0.737589
O O1 0.594146 0.522533 0.735490
O O2 0.741445 0.509086 0.659928
O O3 0.698568 0.747890 0.849237
O O4 0.713061 0.141960 0.960274
O O5 0.020428 0.664343 0.824803
O O6 0.141503 0.899027 0.787856
O O7 0.165772 0.316649 0.984745
O O8 0.086515 0.638522 0.104531
O O9 0.500000 0.500000 0.500000
O O10 0.431933 0.611255 0.729940
O O11 0.500000 0.000000 0.500000
O O12 0.831069 0.562340 0.417738
O O13 0.696651 0.325766 0.458189
O O14 0.692284 0.927075 0.353642
O O15 0.087287 0.213049 0.445855
O O16 0.023294 0.333221 0.682154
O O17 0.703208 0.544694 0.156515
#
# Coordination Sequence:
#
# PCOD9046715 Si02
#       8
#     2   2   2   2   2   2   2   2
#     4  12  26  45  70 109 137 188 236 295 347 434
#     4  11  23  45  69  95 146 187 231 300 368 418
#     4  12  23  45  75 102 144 184 234 295 352 418
#     4  12  24  44  74 100 141 183 243 284 352 424
#     4  11  23  43  69 102 136 185 243 299 351 436
#     4  12  24  45  72 104 135 194 228 286 357 425
#     4  12  27  44  70 104 148 180 238 291 361 420
#     4  10  24  43  67 104 133 185 242 295 363 430
#
# _framework density 24.176442000000002
#
# number of rings (size 3 to 8) (size 9 to 14) (size 15 to 20)
#    0.000    0.500    3.750    4.500    1.750    1.000 
#    9.000    0.000    0.000    0.000    0.000    0.000 
#    0.000    0.000    0.000    0.000    0.000    0.000 
#
# Total GULP energy -89520.670572 kJ/mol
# GULP energy per Si atom -5595.041911 kJ/mol
# Density = 2.412141 g / cm^3
# Si number density = 24.176442 Si / 1000 Ang^3
#
#
#
# Elastic Constant Matrix: (Units=GPa)
#
#
# Indices 1 2 3 4 5 6 
#
# 1 114.5991 14.1744 36.0344 -5.6946 3.6737 -5.6231
# 2 14.1744 91.3848 28.8114 -9.6783 11.5740 1.9232
# 3 36.0344 28.8114 137.9707 9.1214 -6.1321 -4.8625
# 4 -5.6946 -9.6783 9.1214 42.0214 5.1507 8.5675
# 5 3.6737 11.5740 -6.1321 5.1507 40.2696 3.4719
# 6 -5.6231 1.9232 -4.8625 8.5675 3.4719 31.2921
#
#
#
# Elastic Compliance Matrix: (Units=1/GPa)
#
#
# Indices 1 2 3 4 5 6 
#
# 1 0.009785 -0.000325 -0.002637 0.001797 -0.001521 0.001045
# 2 -0.000325 0.013153 -0.003255 0.004700 -0.004663 -0.002142
# 3 -0.002637 -0.003255 0.009062 -0.003806 0.002883 0.001856
# 4 0.001797 0.004700 -0.003806 0.028136 -0.005029 -0.007703
# 5 -0.001521 -0.004663 0.002883 -0.005029 0.027498 -0.001213
# 6 0.001045 -0.002142 0.001856 -0.007703 -0.001213 0.034808
#
#
# Mechanical properties :
#
#
# Convention : Reuss Voigt Hill
#
# Bulk Modulus (GPa) = 51.11417 55.77724 53.44570
# Shear Modulus (GPa) = 35.36091 40.37891 37.86991
#
# Velocity S-wave (km/s) = 3.82857 4.09121 3.96207
# Velocity P-wave (km/s) = 6.38216 6.74080 6.56393
#
# Compressibility (1/GPa) = 0.01956405
#
# Stress axis : x y z
#
# Youngs Moduli (GPa) = 102.19874 76.02899 110.35617
#
# Poissons Ratio (x) = 0.02474 0.29102
# Poissons Ratio (y) = 0.03326 0.35922
# Poissons Ratio (z) = 0.26951 0.24748
#
# Static dielectric constant tensor:
#      x y z
#    x 1.968060 0.036820 0.041950 
#    y 0.036820 1.952930 0.063150 
#    z 0.041950 0.063150 2.015600 
# 
# From -- ./inp_files/323199.got.cif
#   From: 2010.05.17/outbox.cif.g08.bks.cpg/sg2_162_cif.got.tgz:323199.got - 2010.06.03 11:33:40.
