data_PCOD9046323
_publ_section_title
;
Structure prediction by ZEFSAII (Michael W. Deem and Ramdas Pophale) SiO2 
 PCOD9046323
Probable space group: P -1
;
_chemical_formula_sum "Si O2"
_cell_formula_units_Z 13
_cell_length_a 8.441530
_cell_length_b 24.979904
_cell_length_c 22.924323
_cell_angle_alpha 168.564593
_cell_angle_beta 35.844863
_cell_angle_gamma 144.977917
_cell_volume 548.684707
_symmetry_space_group_name_H-M "P -1"
_symmetry_group_IT_number 2
_symmetry_cell_setting 'triclinic'
loop_
_space_group_symop_operation_xyz
x,y,z
-x,-y,-z
loop_
_atom_site_type_symbol
_atom_site_label
_atom_site_fract_x
_atom_site_fract_y
_atom_site_fract_z
Si Si1 0.702218 0.072546 0.329748
Si Si2 0.876498 0.982830 0.612483
Si Si3 0.306443 0.545265 0.482105
Si Si4 0.000000 0.500000 0.000000
Si Si5 0.647670 0.108872 0.930239
Si Si6 0.575371 0.627792 0.177942
Si Si7 0.053946 0.607580 0.744065
O O1 0.393783 0.961805 0.279927
O O2 0.658881 0.234031 0.575199
O O3 0.865288 0.304582 0.485080
O O4 0.866470 0.830694 0.027383
O O5 0.868532 0.077403 0.781610
O O6 0.872018 0.663024 0.263281
O O7 0.144748 0.137861 0.663564
O O8 0.269640 0.606828 0.626934
O O9 0.000000 0.500000 0.500000
O O10 0.502401 0.807355 0.673932
O O11 0.424139 0.271177 0.145156
O O12 0.307951 0.554956 0.003494
O O13 0.788341 0.296795 0.141410
O O14 0.500000 0.500000 0.000000
#
# Coordination Sequence:
#
# PCOD9046323 Si02
#       7
#     2   2   2   1   2   2   2
#     4  11  25  43  70 101 139 189 234 292 357 431
#     4  11  26  44  69 101 140 189 238 295 359 429
#     4  12  25  46  71 103 139 184 233 294 361 426
#     4  10  24  42  70  92 144 182 240 290 362 414
#     4  12  26  44  73 102 141 183 236 295 356 434
#     4  11  26  44  70 103 145 189 247 298 365 431
#     4  12  25  45  70 104 140 184 237 293 361 423
#
# _framework density 23.693026
#
# number of rings (size 3 to 8) (size 9 to 14) (size 15 to 20)
#    0.000    0.615    0.000    7.846   12.923    0.615 
#    0.000    0.000    0.000    0.000    0.000    0.000 
#    0.000    0.000    0.000    0.000    0.000    0.000 
#
# Total GULP energy -72587.736944 kJ/mol
# GULP energy per Si atom -5583.672073 kJ/mol
# Density = 2.363910 g / cm^3
# Si number density = 23.693026 Si / 1000 Ang^3
#
#
#
# Elastic Constant Matrix: (Units=GPa)
#
#
# Indices 1 2 3 4 5 6 
#
# 1 -90.2774 -525.6166 71.9470 -110.5068 -143.8097 381.0750
# 2 -525.6166-1615.5231 169.5975 -353.5877 -526.4949 1252.6793
# 3 71.9470 169.5975 67.6583 9.7376 32.6258 -132.3551
# 4 -110.5068 -353.5877 9.7376 -26.7005 -111.6897 273.7358
# 5 -143.8097 -526.4949 32.6258 -111.6897 -102.3663 372.0221
# 6 381.0750 1252.6793 -132.3551 273.7358 372.0221 -933.1534
#
#
#
# Elastic Compliance Matrix: (Units=1/GPa)
#
#
# Indices 1 2 3 4 5 6 
#
# 1 0.018179 0.001990 -0.006311 -0.004616 -0.005060 0.007619
# 2 0.001990 0.022696 0.004122 -0.002988 0.014668 0.035667
# 3 -0.006311 0.004122 0.019742 0.010407 0.012777 0.008303
# 4 -0.004616 -0.002988 0.010407 0.025429 0.005032 0.002094
# 5 -0.005060 0.014668 0.012777 0.005032 0.037185 0.032113
# 6 0.007619 0.035667 0.008303 0.002094 0.032113 0.062160
#
#
# Mechanical properties :
#
#
# Convention : Reuss Voigt Hill
#
# Bulk Modulus (GPa) = 16.60593 -245.14294 -114.26850
# Shear Modulus (GPa) = 24.28812 -302.71537 -139.21362
#
# Velocity S-wave (km/s) = 3.20522 -11.31561 -7.67364
# Velocity P-wave (km/s) = 4.55213 16.56547 11.26261
#
# Compressibility (1/GPa) = 0.06021944
#
# Stress axis : x y z
#
# Youngs Moduli (GPa) = 55.00838 44.06009 50.65393
#
# Poissons Ratio (x) = -0.08769 0.31967
# Poissons Ratio (y) = -0.10948 -0.20878
# Poissons Ratio (z) = 0.34715 -0.18161
#
# Static dielectric constant tensor:
#      x y z
#    x 2.055100 -0.088800 -0.116850 
#    y -0.088800 1.932660 0.088910 
#    z -0.116850 0.088910 1.984530 
# 
# From -- ./inp_files/28045.got.cif
#   From: 2010.05.17/outbox.cif.g08.bks.cpg/sg2_15_cif.got.tgz:28045.got - 2010.06.03 11:33:40.
