data_PCOD9046051
_publ_section_title
;
Structure prediction by ZEFSAII (Michael W. Deem and Ramdas Pophale) SiO2 
 PCOD9046051
Probable space group: P -1
;
_chemical_formula_sum "Si O2"
_cell_formula_units_Z 16
_cell_length_a 9.192949
_cell_length_b 15.042641
_cell_length_c 11.128214
_cell_angle_alpha 52.222739
_cell_angle_beta 120.040441
_cell_angle_gamma 138.793567
_cell_volume 798.948345
_symmetry_space_group_name_H-M "P -1"
_symmetry_group_IT_number 2
_symmetry_cell_setting 'triclinic'
loop_
_space_group_symop_operation_xyz
x,y,z
-x,-y,-z
loop_
_atom_site_type_symbol
_atom_site_label
_atom_site_fract_x
_atom_site_fract_y
_atom_site_fract_z
Si Si1 0.866045 0.955244 0.217933
Si Si2 0.174517 0.438120 0.892588
Si Si3 0.883059 0.134608 0.886241
Si Si4 0.768735 0.676613 0.339876
Si Si5 0.585414 0.549268 0.798695
Si Si6 0.789477 0.876385 0.596381
Si Si7 0.889835 0.478590 0.602936
Si Si8 0.504087 0.135444 0.688168
O O1 0.780816 0.791049 0.332155
O O2 0.701503 0.958591 0.227914
O O3 0.116744 0.071087 0.274292
O O4 0.854580 0.000256 0.042942
O O5 0.384054 0.507910 0.833604
O O6 0.999195 0.263557 0.929977
O O7 0.056232 0.501922 0.752222
O O8 0.264092 0.462895 0.043678
O O9 0.651005 0.088507 0.791955
O O10 0.047360 0.216897 0.774253
O O11 0.534161 0.561422 0.270926
O O12 0.832968 0.584889 0.498814
O O13 0.718707 0.717774 0.676533
O O14 0.592897 0.871402 0.475686
O O15 0.000000 0.000000 0.500000
O O16 0.668703 0.307254 0.654532
O O17 0.000000 0.500000 0.500000
#
# Coordination Sequence:
#
# PCOD9046051 Si02
#       8
#     2   2   2   2   2   2   2   2
#     4  11  23  37  53  87 117 142 179 232 282 325
#     4   9  18  29  59  82  98 141 195 225 255 313
#     4  10  19  37  58  82 110 148 187 223 270 333
#     4  11  22  35  59  85 113 142 179 239 282 312
#     4  10  17  34  55  81 105 143 190 221 264 331
#     4  10  20  35  54  80 110 148 183 219 267 337
#     4  11  17  35  58  82 107 141 193 228 264 328
#     4  10  20  36  61  79 105 153 191 217 267 333
#
# _framework density 20.026326999999998
#
# number of rings (size 3 to 8) (size 9 to 14) (size 15 to 20)
#    0.000    1.750    6.250    0.750    0.000    0.500 
#    0.000    1.875    0.000    3.000    0.000    0.000 
#    0.000    0.000    0.000    0.000    0.000    0.000 
#
# Total GULP energy -89294.369141 kJ/mol
# GULP energy per Si atom -5580.898071 kJ/mol
# Density = 1.998075 g / cm^3
# Si number density = 20.026327 Si / 1000 Ang^3
#
#
#
# Elastic Constant Matrix: (Units=GPa)
#
#
# Indices 1 2 3 4 5 6 
#
# 1 34.3340 15.9100 28.9956 9.4474 15.3209 7.6757
# 2 15.9100 70.6065 32.1658 8.5768 17.6646 9.1240
# 3 28.9956 32.1658 134.4349 12.8125 42.2553 12.3327
# 4 9.4474 8.5768 12.8125 36.2896 10.9554 6.9512
# 5 15.3209 17.6646 42.2553 10.9554 31.2136 -0.9514
# 6 7.6757 9.1240 12.3327 6.9512 -0.9514 23.5394
#
#
#
# Elastic Compliance Matrix: (Units=1/GPa)
#
#
# Indices 1 2 3 4 5 6 
#
# 1 0.042657 -0.002853 -0.002312 -0.002722 -0.015586 -0.011418
# 2 -0.002853 0.017880 -0.000502 0.000408 -0.008370 -0.006196
# 3 -0.002312 -0.000502 0.014844 0.003176 -0.020053 -0.008577
# 4 -0.002722 0.000408 0.003176 0.033931 -0.015457 -0.011579
# 5 -0.015586 -0.008370 -0.020053 -0.015457 0.077805 0.026542
# 6 -0.011418 -0.006196 -0.008577 -0.011579 0.026542 0.057593
#
#
# Mechanical properties :
#
#
# Convention : Reuss Voigt Hill
#
# Bulk Modulus (GPa) = 15.61370 43.72425 29.66897
# Shear Modulus (GPa) = 18.02493 29.02879 23.52686
#
# Velocity S-wave (km/s) = 3.00336 3.81140 3.43125
# Velocity P-wave (km/s) = 4.45426 6.42260 5.52676
#
# Compressibility (1/GPa) = 0.06404633
#
# Stress axis : x y z
#
# Youngs Moduli (GPa) = 23.44296 55.92860 67.36511
#
# Poissons Ratio (x) = 0.15958 0.15574
# Poissons Ratio (y) = 0.06689 0.03383
# Poissons Ratio (z) = 0.05420 0.02809
#
# Static dielectric constant tensor:
#      x y z
#    x 1.711470 -0.003980 -0.024500 
#    y -0.003980 1.715110 0.021930 
#    z -0.024500 0.021930 1.758250 
# 
# From -- ./inp_files/398832.got.cif
#   From: 2010.05.17/outbox.cif.g08.bks.cpg/sg2_200_cif.got.tgz:398832.got - 2010.06.03 11:33:40.
