data_PCOD9046979
_publ_section_title
;
Structure prediction by ZEFSAII (Michael W. Deem and Ramdas Pophale) SiO2 
 PCOD9046979
Probable space group: P -1
;
_chemical_formula_sum "Si O2"
_cell_formula_units_Z 12
_cell_length_a 9.006469
_cell_length_b 6.052440
_cell_length_c 16.155416
_cell_angle_alpha 97.680489
_cell_angle_beta 142.616307
_cell_angle_gamma 82.259127
_cell_volume 529.294796
_symmetry_space_group_name_H-M "P -1"
_symmetry_group_IT_number 2
_symmetry_cell_setting 'triclinic'
loop_
_space_group_symop_operation_xyz
x,y,z
-x,-y,-z
loop_
_atom_site_type_symbol
_atom_site_label
_atom_site_fract_x
_atom_site_fract_y
_atom_site_fract_z
Si Si1 0.510933 0.352500 0.387388
Si Si2 0.346567 0.219792 0.474450
Si Si3 0.607046 0.813443 0.102759
Si Si4 0.816805 0.797904 0.896159
Si Si5 0.794155 0.529788 0.034650
Si Si6 0.995999 0.060175 0.596785
O O1 0.331896 0.344789 0.386881
O O2 0.529204 0.618402 0.396065
O O3 0.414377 0.185824 0.266848
O O4 0.788506 0.261081 0.524966
O O5 0.500000 0.000000 0.500000
O O6 0.101465 0.141313 0.401776
O O7 0.811719 0.675578 0.132036
O O8 0.742802 0.894198 0.247708
O O9 0.402231 0.650318 0.036158
O O10 0.500000 0.000000 0.000000
O O11 0.974158 0.605626 0.906865
O O12 0.727890 0.702531 0.939366
O O13 0.000000 0.000000 0.000000
O O14 0.000000 0.000000 0.500000
#
# Coordination Sequence:
#
# PCOD9046979 Si02
#       6
#     2   2   2   2   2   2
#     4  10  24  43  70 101 135 177 230 289 345 403
#     4   9  22  42  67  99 133 178 221 279 346 412
#     4  11  26  47  70  97 144 186 231 281 354 416
#     4  11  25  43  74 101 139 180 235 288 343 406
#     4  10  26  43  70 102 135 183 239 281 341 421
#     4  11  27  42  70 103 140 178 230 283 349 414
#
# _framework density 22.671676999999999
#
# number of rings (size 3 to 8) (size 9 to 14) (size 15 to 20)
#    0.000    1.667    0.000    1.000   18.667    4.667 
#    0.000    0.000    0.000    0.000    0.000    0.000 
#    0.000    0.000    0.000    0.000    0.000    0.000 
#
# Total GULP energy -66914.967222 kJ/mol
# GULP energy per Si atom -5576.247269 kJ/mol
# Density = 2.262008 g / cm^3
# Si number density = 22.671677 Si / 1000 Ang^3
#
#
#
# Elastic Constant Matrix: (Units=GPa)
#
#
# Indices 1 2 3 4 5 6 
#
# 1 101.6202 16.4393 6.9370 -5.1902 -23.4791 -3.3622
# 2 16.4393 87.9402 39.0837 14.0189 0.6701 8.4926
# 3 6.9370 39.0837 126.2752 9.0576 -19.3834 -1.0197
# 4 -5.1902 14.0189 9.0576 28.5096 -4.4868 -0.4760
# 5 -23.4791 0.6701 -19.3834 -4.4868 28.4766 2.9700
# 6 -3.3622 8.4926 -1.0197 -0.4760 2.9700 42.5674
#
#
#
# Elastic Compliance Matrix: (Units=1/GPa)
#
#
# Indices 1 2 3 4 5 6 
#
# 1 0.014207 -0.005067 0.002548 0.006567 0.014471 0.001258
# 2 -0.005067 0.016669 -0.005735 -0.008851 -0.009524 -0.003298
# 3 0.002548 -0.005735 0.010972 0.001359 0.009820 0.000938
# 4 0.006567 -0.008851 0.001359 0.042271 0.013012 0.001882
# 5 0.014471 -0.009524 0.009820 0.013012 0.056057 -0.000487
# 6 0.001258 -0.003298 0.000938 0.001882 -0.000487 0.024327
#
#
# Mechanical properties :
#
#
# Convention : Reuss Voigt Hill
#
# Bulk Modulus (GPa) = 39.46160 48.97282 44.21721
# Shear Modulus (GPa) = 26.39130 36.80245 31.59687
#
# Velocity S-wave (km/s) = 3.41554 4.03336 3.73724
# Velocity P-wave (km/s) = 5.74439 6.58320 6.17805
#
# Compressibility (1/GPa) = 0.02534109
#
# Stress axis : x y z
#
# Youngs Moduli (GPa) = 70.38939 59.99069 91.14363
#
# Poissons Ratio (x) = 0.30396 -0.23225
# Poissons Ratio (y) = 0.35665 0.52268
# Poissons Ratio (z) = -0.17936 0.34403
#
# Static dielectric constant tensor:
#      x y z
#    x 1.825260 0.011360 -0.010430 
#    y 0.011360 2.056090 -0.008600 
#    z -0.010430 -0.008600 1.927190 
# 
# From -- ./inp_files/39383.got.cif
#   From: 2010.05.17/outbox.cif.g08.bks.cpg/sg2_20_cif.got.tgz:39383.got - 2010.06.03 11:33:40.
