data_PCOD9046497
_publ_section_title
;
Structure prediction by ZEFSAII (Michael W. Deem and Ramdas Pophale) SiO2 
 PCOD9046497
Probable space group: P -1
;
_chemical_formula_sum "Si O2"
_cell_formula_units_Z 14
_cell_length_a 9.000681
_cell_length_b 9.457359
_cell_length_c 9.378002
_cell_angle_alpha 58.986793
_cell_angle_beta 74.999112
_cell_angle_gamma 68.731338
_cell_volume 634.975144
_symmetry_space_group_name_H-M "P -1"
_symmetry_group_IT_number 2
_symmetry_cell_setting 'triclinic'
loop_
_space_group_symop_operation_xyz
x,y,z
-x,-y,-z
loop_
_atom_site_type_symbol
_atom_site_label
_atom_site_fract_x
_atom_site_fract_y
_atom_site_fract_z
Si Si1 0.547717 0.970912 0.669700
Si Si2 0.072909 0.128811 0.329028
Si Si3 0.853108 0.375794 0.739151
Si Si4 0.924999 0.417469 0.407635
Si Si5 0.641533 0.745194 0.221816
Si Si6 0.080987 0.124138 0.998791
Si Si7 0.467037 0.668084 0.022278
O O1 0.739980 0.901902 0.666904
O O2 0.474232 0.826443 0.835319
O O3 0.500000 0.000000 0.500000
O O4 0.485756 0.146797 0.687687
O O5 0.962909 0.314621 0.305966
O O6 0.060138 0.106904 0.177197
O O7 0.000000 0.000000 0.500000
O O8 0.889929 0.303699 0.607585
O O9 0.900027 0.553660 0.612205
O O10 0.980394 0.305511 0.868261
O O11 0.695356 0.339918 0.854574
O O12 0.766893 0.578435 0.346976
O O13 0.578078 0.682135 0.123794
O O14 0.738675 0.881311 0.080393
O O15 0.000000 0.000000 0.000000
O O16 0.500000 0.500000 0.000000
#
# Coordination Sequence:
#
# PCOD9046497 Si02
#       7
#     2   2   2   2   2   2   2
#     4  12  30  50  74 110 156 195 250 316 376 441
#     4  12  28  45  73 105 146 192 253 305 372 445
#     4  10  24  42  74  99 147 187 246 294 377 436
#     4  10  25  48  72 108 145 194 246 306 368 447
#     4  11  27  49  77 103 153 196 248 311 374 448
#     4  11  24  44  73 103 143 196 247 299 371 445
#     4  12  27  47  77 112 151 200 252 312 379 445
#
# _framework density 22.048106000000001
#
# number of rings (size 3 to 8) (size 9 to 14) (size 15 to 20)
#    0.000    0.857    1.429    3.000   18.000    1.714 
#    0.000    0.000    0.000    0.000    0.000    0.000 
#    0.000    0.000    0.000    0.000    0.000    0.000 
#
# Total GULP energy -78054.111408 kJ/mol
# GULP energy per Si atom -5575.293672 kJ/mol
# Density = 2.199792 g / cm^3
# Si number density = 22.048106 Si / 1000 Ang^3
#
#
#
# Elastic Constant Matrix: (Units=GPa)
#
#
# Indices 1 2 3 4 5 6 
#
# 1 95.0332 41.1134 71.6029 11.6474 -7.5947 6.2615
# 2 41.1134 128.0014 45.1958 18.4189 7.7083 -6.8558
# 3 71.6029 45.1958 184.2817 21.8556 6.4683 0.1925
# 4 11.6474 18.4189 21.8556 31.3700 10.4123 4.1804
# 5 -7.5947 7.7083 6.4683 10.4123 56.4203 5.2796
# 6 6.2615 -6.8558 0.1925 4.1804 5.2796 30.6363
#
#
#
# Elastic Compliance Matrix: (Units=1/GPa)
#
#
# Indices 1 2 3 4 5 6 
#
# 1 0.017377 -0.003925 -0.005836 -0.000796 0.004159 -0.005001
# 2 -0.003925 0.010123 -0.000408 -0.004242 -0.001447 0.003898
# 3 -0.005836 -0.000408 0.008206 -0.003121 -0.001253 0.001692
# 4 -0.000796 -0.004242 -0.003121 0.039506 -0.005981 -0.005127
# 5 0.004159 -0.001447 -0.001253 -0.005981 0.020086 -0.003811
# 6 -0.005001 0.003898 0.001692 -0.005127 -0.003811 0.035881
#
#
# Mechanical properties :
#
#
# Convention : Reuss Voigt Hill
#
# Bulk Modulus (GPa) = 65.06299 80.34895 72.70597
# Shear Modulus (GPa) = 31.92042 40.31228 36.11635
#
# Velocity S-wave (km/s) = 3.80908 4.28059 4.05170
# Velocity P-wave (km/s) = 6.99421 7.80724 7.41188
#
# Compressibility (1/GPa) = 0.01536972
#
# Stress axis : x y z
#
# Youngs Moduli (GPa) = 57.54791 98.78145 121.85746
#
# Poissons Ratio (x) = 0.38768 0.71111
# Poissons Ratio (y) = 0.22586 0.04973
# Poissons Ratio (z) = 0.33583 0.04031
#
# Static dielectric constant tensor:
#      x y z
#    x 1.873650 0.021480 0.038380 
#    y 0.021480 2.085070 -0.174880 
#    z 0.038380 -0.174880 2.007390 
# 
# From -- ./inp_files/157181.got.cif
#   From: 2010.05.17/outbox.cif.g08.bks.cpg/sg2_79_cif.got.tgz:157181.got - 2010.06.03 11:33:40.
