data_PCOD9046116
_publ_section_title
;
Structure prediction by ZEFSAII (Michael W. Deem and Ramdas Pophale) SiO2 
 PCOD9046116
Probable space group: P -1
;
_chemical_formula_sum "Si O2"
_cell_formula_units_Z 16
_cell_length_a 9.873930
_cell_length_b 18.675723
_cell_length_c 9.349950
_cell_angle_alpha 88.812445
_cell_angle_beta 92.732077
_cell_angle_gamma 153.618339
_cell_volume 764.316974
_symmetry_space_group_name_H-M "P -1"
_symmetry_group_IT_number 2
_symmetry_cell_setting 'triclinic'
loop_
_space_group_symop_operation_xyz
x,y,z
-x,-y,-z
loop_
_atom_site_type_symbol
_atom_site_label
_atom_site_fract_x
_atom_site_fract_y
_atom_site_fract_z
Si Si1 0.614501 0.583298 0.851105
Si Si2 0.866170 0.446500 0.835674
Si Si3 0.271160 0.919934 0.607573
Si Si4 0.742866 0.470063 0.348752
Si Si5 0.315718 0.970824 0.906903
Si Si6 0.098506 0.113335 0.404496
Si Si7 0.872574 0.595369 0.662753
Si Si8 0.761354 0.914457 0.105242
O O1 0.404693 0.544700 0.771488
O O2 0.613241 0.517526 0.738313
O O3 0.954887 0.778605 0.886622
O O4 0.500000 0.500000 0.000000
O O5 0.936580 0.556896 0.765462
O O6 0.504465 0.263618 0.848478
O O7 0.002382 0.453930 0.727749
O O8 0.000000 0.500000 0.000000
O O9 0.441358 0.032419 0.748813
O O10 0.031571 0.869675 0.553524
O O11 0.119397 0.774921 0.660139
O O12 0.500000 0.000000 0.500000
O O13 0.460960 0.287172 0.394230
O O14 0.832486 0.551347 0.498385
O O15 0.373636 0.076498 0.968057
O O16 0.500000 0.000000 0.000000
O O17 0.000000 0.000000 0.500000
O O18 0.949737 0.028725 0.247315
O O19 0.000000 0.000000 0.000000
#
# Coordination Sequence:
#
# PCOD9046116 Si02
#       8
#     2   2   2   2   2   2   2   2
#     4  11  24  44  71  97 139 180 225 287 341 407
#     4  12  28  43  73 101 139 185 228 286 346 409
#     4  10  24  42  67  98 135 174 226 279 335 406
#     4  12  24  46  69 102 140 178 232 288 337 419
#     4  10  24  44  66  97 131 175 227 275 340 401
#     4  11  24  45  68  97 136 177 224 279 343 399
#     4  11  25  44  68 102 137 182 232 275 350 400
#     4  11  25  46  66  98 136 174 230 276 340 411
#
# _framework density 20.933723000000001
#
# number of rings (size 3 to 8) (size 9 to 14) (size 15 to 20)
#    0.000    1.000    3.750    3.000   12.250    1.000 
#    0.000    0.000    0.000    0.000    0.000    0.000 
#    0.000    0.000    0.000    0.000    0.000    0.000 
#
# Total GULP energy -89270.529612 kJ/mol
# GULP energy per Si atom -5579.408101 kJ/mol
# Density = 2.088608 g / cm^3
# Si number density = 20.933723 Si / 1000 Ang^3
#
#
#
# Elastic Constant Matrix: (Units=GPa)
#
#
# Indices 1 2 3 4 5 6 
#
# 1 138.5633 33.0083 55.4146 -29.7160 2.0247 -13.7732
# 2 33.0083 65.2844 30.9910 -21.1724 -10.9661 -8.9903
# 3 55.4146 30.9910 99.4739 -34.1571 -13.6587 -3.3455
# 4 -29.7160 -21.1724 -34.1571 39.5500 1.8544 -0.3850
# 5 2.0247 -10.9661 -13.6587 1.8544 45.7511 -11.8010
# 6 -13.7732 -8.9903 -3.3455 -0.3850 -11.8010 30.5390
#
#
#
# Elastic Compliance Matrix: (Units=1/GPa)
#
#
# Indices 1 2 3 4 5 6 
#
# 1 0.010385 -0.002077 -0.004141 0.003216 -0.001533 0.003067
# 2 -0.002077 0.022181 -0.001567 0.008726 0.006679 0.008112
# 3 -0.004141 -0.001567 0.017272 0.010751 0.004944 0.001609
# 4 0.003216 0.008726 0.010751 0.041475 0.005501 0.007846
# 5 -0.001533 0.006679 0.004944 0.005501 0.028063 0.012730
# 6 0.003067 0.008112 0.001609 0.007846 0.012730 0.041710
#
#
# Mechanical properties :
#
#
# Convention : Reuss Voigt Hill
#
# Bulk Modulus (GPa) = 29.18213 60.23880 44.71047
# Shear Modulus (GPa) = 26.58458 35.42856 31.00657
#
# Velocity S-wave (km/s) = 3.56749 4.11836 3.85278
# Velocity P-wave (km/s) = 5.56236 7.17307 6.41844
#
# Compressibility (1/GPa) = 0.03426754
#
# Stress axis : x y z
#
# Youngs Moduli (GPa) = 96.29527 45.08438 57.89552
#
# Poissons Ratio (x) = 0.09364 0.23975
# Poissons Ratio (y) = 0.20001 0.09073
# Poissons Ratio (z) = 0.39876 0.07065
#
# Static dielectric constant tensor:
#      x y z
#    x 1.805770 -0.000210 -0.003720 
#    y -0.000210 1.801280 -0.010910 
#    z -0.003720 -0.010910 1.794720 
# 
# From -- ./inp_files/217704.got.cif
#   From: 2010.05.17/outbox.cif.g08.bks.cpg/sg2_109_cif.got.tgz:217704.got - 2010.06.03 11:33:40.
