data_PCOD9046294
_publ_section_title
;
Structure prediction by ZEFSAII (Michael W. Deem and Ramdas Pophale) SiO2 
 PCOD9046294
Probable space group: P -1
;
_chemical_formula_sum "Si O2"
_cell_formula_units_Z 14
_cell_length_a 11.718856
_cell_length_b 9.036670
_cell_length_c 8.934756
_cell_angle_alpha 95.678346
_cell_angle_beta 48.299601
_cell_angle_gamma 116.028301
_cell_volume 607.978201
_symmetry_space_group_name_H-M "P -1"
_symmetry_group_IT_number 2
_symmetry_cell_setting 'triclinic'
loop_
_space_group_symop_operation_xyz
x,y,z
-x,-y,-z
loop_
_atom_site_type_symbol
_atom_site_label
_atom_site_fract_x
_atom_site_fract_y
_atom_site_fract_z
Si Si1 0.153430 0.142200 0.274433
Si Si2 0.823503 0.511606 0.613950
Si Si3 0.799441 0.390360 0.047414
Si Si4 0.238935 0.120615 0.854155
Si Si5 0.606585 0.425959 0.498391
Si Si6 0.985994 0.244535 0.023442
Si Si7 0.470535 0.809976 0.988820
O O1 0.153204 0.320559 0.303616
O O2 0.157633 0.093097 0.090731
O O3 0.341386 0.176550 0.172849
O O4 0.000000 0.000000 0.500000
O O5 0.745953 0.526899 0.520257
O O6 0.663195 0.328311 0.790016
O O7 0.000000 0.500000 0.500000
O O8 0.718518 0.386294 0.278819
O O9 0.918184 0.302916 0.946595
O O10 0.634875 0.281486 0.077480
O O11 0.929679 0.592271 0.923385
O O12 0.444701 0.251759 0.689821
O O13 0.180681 0.939007 0.809288
O O14 0.142110 0.204746 0.857000
O O15 0.500000 0.500000 0.500000
O O16 0.500000 0.000000 0.000000
#
# Coordination Sequence:
#
# PCOD9046294 Si02
#       7
#     2   2   2   2   2   2   2
#     4  12  27  47  76 105 151 200 255 308 386 446
#     4  12  29  47  76 113 157 202 259 317 388 461
#     4  11  25  43  74 102 146 189 246 300 381 435
#     4  11  24  46  70 105 145 187 249 305 370 446
#     4  12  26  46  74 109 151 197 253 311 378 449
#     4  10  24  42  70 103 141 185 239 304 368 441
#     4  12  26  50  77 112 153 198 255 317 383 462
#
# _framework density 23.027139999999999
#
# number of rings (size 3 to 8) (size 9 to 14) (size 15 to 20)
#    0.000    0.571    2.857    3.857    8.000    2.857 
#    0.000    0.000    0.000    0.000    0.000    0.000 
#    0.000    0.000    0.000    0.000    0.000    0.000 
#
# Total GULP energy -78133.607295 kJ/mol
# GULP energy per Si atom -5580.971950 kJ/mol
# Density = 2.297473 g / cm^3
# Si number density = 23.027140 Si / 1000 Ang^3
#
#
#
# Elastic Constant Matrix: (Units=GPa)
#
#
# Indices 1 2 3 4 5 6 
#
# 1 184.2693 71.8902 60.5956 -4.2924 -29.0858 13.4363
# 2 71.8902 163.2033 35.9545 -12.6989 -15.3732 -11.8535
# 3 60.5956 35.9545 123.3614 -23.2009 -10.8155 5.9792
# 4 -4.2924 -12.6989 -23.2009 32.7602 10.4749 -1.4275
# 5 -29.0858 -15.3732 -10.8155 10.4749 43.5560 2.6278
# 6 13.4363 -11.8535 5.9792 -1.4275 2.6278 47.4757
#
#
#
# Elastic Compliance Matrix: (Units=1/GPa)
#
#
# Indices 1 2 3 4 5 6 
#
# 1 0.008797 -0.003175 -0.003621 -0.004419 0.005113 -0.003242
# 2 -0.003175 0.008030 -0.000464 0.002566 -0.000202 0.003050
# 3 -0.003621 -0.000464 0.011375 0.007921 -0.001651 -0.000194
# 4 -0.004419 0.002566 0.007921 0.039801 -0.009809 0.002633
# 5 0.005113 -0.000202 -0.001651 -0.009809 0.028442 -0.003159
# 6 -0.003242 0.003050 -0.000194 0.002633 -0.003159 0.023021
#
#
# Mechanical properties :
#
#
# Convention : Reuss Voigt Hill
#
# Bulk Modulus (GPa) = 73.09247 89.74605 81.41926
# Shear Modulus (GPa) = 36.08915 44.91798 40.50356
#
# Velocity S-wave (km/s) = 3.96314 4.42141 4.19853
# Velocity P-wave (km/s) = 7.26311 8.06993 7.67713
#
# Compressibility (1/GPa) = 0.01368130
#
# Stress axis : x y z
#
# Youngs Moduli (GPa) = 113.67758 124.53014 87.91488
#
# Poissons Ratio (x) = 0.39536 0.31837
# Poissons Ratio (y) = 0.36091 0.04079
# Poissons Ratio (z) = 0.41167 0.05778
#
# Static dielectric constant tensor:
#      x y z
#    x 1.969260 0.031500 0.105990 
#    y 0.031500 1.911570 0.014060 
#    z 0.105990 0.014060 1.925110 
# 
# From -- ./inp_files/244406.got.cif
#   From: 2010.05.17/outbox.cif.g08.bks.cpg/sg2_123_cif.got.tgz:244406.got - 2010.06.03 11:33:40.
