data_PCOD9046951
_publ_section_title
;
Structure prediction by ZEFSAII (Michael W. Deem and Ramdas Pophale) SiO2 
 PCOD9046951
Probable space group: P -1
;
_chemical_formula_sum "Si O2"
_cell_formula_units_Z 14
_cell_length_a 6.736795
_cell_length_b 11.770103
_cell_length_c 10.718275
_cell_angle_alpha 109.186562
_cell_angle_beta 49.134068
_cell_angle_gamma 96.614124
_cell_volume 601.055383
_symmetry_space_group_name_H-M "P -1"
_symmetry_group_IT_number 2
_symmetry_cell_setting 'triclinic'
loop_
_space_group_symop_operation_xyz
x,y,z
-x,-y,-z
loop_
_atom_site_type_symbol
_atom_site_label
_atom_site_fract_x
_atom_site_fract_y
_atom_site_fract_z
Si Si1 0.147387 0.515143 0.815532
Si Si2 0.137302 0.264230 0.142046
Si Si3 0.813869 0.921828 0.623930
Si Si4 0.710978 0.522933 0.688813
Si Si5 0.239258 0.893046 0.840003
Si Si6 0.929983 0.313162 0.684940
Si Si7 0.319824 0.860098 0.084310
O O1 0.454095 0.527012 0.711579
O O2 0.124570 0.399988 0.694765
O O3 0.976930 0.635103 0.874097
O O4 0.000000 0.500000 0.000000
O O5 0.276209 0.346760 0.209873
O O6 0.880124 0.197211 0.239368
O O7 0.390017 0.163931 0.979273
O O8 0.519135 0.926058 0.690980
O O9 0.945537 0.782196 0.505872
O O10 0.780509 0.997356 0.793716
O O11 0.000000 0.000000 0.500000
O O12 0.000000 0.500000 0.500000
O O13 0.705841 0.412721 0.750758
O O14 0.301538 0.841019 0.936719
O O15 0.000000 0.000000 0.000000
O O16 0.838370 0.231436 0.805330
#
# Coordination Sequence:
#
# PCOD9046951 Si02
#       7
#     2   2   2   2   2   2   2
#     4  11  23  44  69  99 131 179 231 270 327 402
#     4  11  24  40  71  97 133 172 233 270 329 398
#     4  10  24  46  67  98 139 174 218 280 343 398
#     4  11  26  41  66 102 140 178 216 281 342 387
#     4  12  25  42  73 101 130 179 231 275 331 406
#     4  10  24  43  69  97 142 179 221 276 337 396
#     4  11  23  46  69 101 134 180 226 279 333 398
#
# _framework density 23.292362000000001
#
# number of rings (size 3 to 8) (size 9 to 14) (size 15 to 20)
#    0.000    1.143    1.429    3.857    6.000    3.429 
#    0.000    1.429    0.000    0.000    0.000    0.000 
#    0.000    0.000    0.000    0.000    0.000    0.000 
#
# Total GULP energy -78132.623378 kJ/mol
# GULP energy per Si atom -5580.901670 kJ/mol
# Density = 2.323935 g / cm^3
# Si number density = 23.292362 Si / 1000 Ang^3
#
#
#
# Elastic Constant Matrix: (Units=GPa)
#
#
# Indices 1 2 3 4 5 6 
#
# 1 158.5630 66.9921 38.9105 -3.4396 -24.2219 10.8825
# 2 66.9921 120.5102 43.0662 2.9732 -5.1618 5.0369
# 3 38.9105 43.0662 69.9412 3.0739 -17.5092 4.4134
# 4 -3.4396 2.9732 3.0739 38.4479 14.4911 1.6870
# 5 -24.2219 -5.1618 -17.5092 14.4911 30.5674 3.7234
# 6 10.8825 5.0369 4.4134 1.6870 3.7234 45.5244
#
#
#
# Elastic Compliance Matrix: (Units=1/GPa)
#
#
# Indices 1 2 3 4 5 6 
#
# 1 0.009733 -0.004844 -0.000273 -0.001555 0.007760 -0.002341
# 2 -0.004844 0.013211 -0.007214 0.001567 -0.006589 0.000876
# 3 -0.000273 -0.007214 0.023239 -0.007069 0.015520 -0.002397
# 4 -0.001555 0.001567 -0.007069 0.034344 -0.021465 0.001367
# 5 0.007760 -0.006589 0.015520 -0.021465 0.057614 -0.006547
# 6 -0.002341 0.000876 -0.002397 0.001367 -0.006547 0.023146
#
#
# Mechanical properties :
#
#
# Convention : Reuss Voigt Hill
#
# Bulk Modulus (GPa) = 46.46631 71.88355 59.17493
# Shear Modulus (GPa) = 25.89028 36.24430 31.06729
#
# Velocity S-wave (km/s) = 3.33759 3.94897 3.65608
# Velocity P-wave (km/s) = 5.90297 7.19173 6.57898
#
# Compressibility (1/GPa) = 0.02152097
#
# Stress axis : x y z
#
# Youngs Moduli (GPa) = 102.74627 75.69230 43.03202
#
# Poissons Ratio (x) = 0.36668 0.01175
# Poissons Ratio (y) = 0.49773 0.31041
# Poissons Ratio (z) = 0.02804 0.54601
#
# Static dielectric constant tensor:
#      x y z
#    x 1.800480 0.065830 0.162560 
#    y 0.065830 1.880560 -0.093580 
#    z 0.162560 -0.093580 1.688510 
# 
# From -- ./inp_files/47393.got.cif
#   From: 2010.05.17/outbox.cif.g08.bks.cpg/sg2_24_cif.got.tgz:47393.got - 2010.06.03 11:33:40.
