data_PCOD9046767
_publ_section_title
;
Structure prediction by ZEFSAII (Michael W. Deem and Ramdas Pophale) SiO2 
 PCOD9046767
Probable space group: P -1
;
_chemical_formula_sum "Si O2"
_cell_formula_units_Z 12
_cell_length_a 15.144546
_cell_length_b 9.360192
_cell_length_c 14.589077
_cell_angle_alpha 54.775853
_cell_angle_beta 19.721292
_cell_angle_gamma 55.736257
_cell_volume 568.576880
_symmetry_space_group_name_H-M "P -1"
_symmetry_group_IT_number 2
_symmetry_cell_setting 'triclinic'
loop_
_space_group_symop_operation_xyz
x,y,z
-x,-y,-z
loop_
_atom_site_type_symbol
_atom_site_label
_atom_site_fract_x
_atom_site_fract_y
_atom_site_fract_z
Si Si1 0.230745 0.399003 0.988040
Si Si2 0.241931 0.008863 0.189361
Si Si3 0.699072 0.529920 0.377338
Si Si4 0.724302 0.354223 0.801563
Si Si5 0.761347 0.875854 0.291330
Si Si6 0.053272 0.405095 0.641395
O O1 0.218034 0.195408 0.094491
O O2 0.997762 0.446248 0.123732
O O3 0.147700 0.514319 0.115917
O O4 0.521926 0.448170 0.659846
O O5 0.296160 0.848836 0.124838
O O6 0.000000 0.000000 0.500000
O O7 0.500000 0.000000 0.000000
O O8 0.500000 0.500000 0.500000
O O9 0.733750 0.733117 0.290723
O O10 0.796665 0.432317 0.602970
O O11 0.927797 0.349683 0.688825
O O12 0.500000 0.500000 0.000000
O O13 0.796562 0.758059 0.393017
O O14 0.500000 0.000000 0.500000
O O15 0.000000 0.000000 0.000000
#
# Coordination Sequence:
#
# PCOD9046767 Si02
#       6
#     2   2   2   2   2   2
#     4  11  23  44  71 100 138 186 225 290 347 420
#     4  12  25  43  68 102 140 179 234 276 345 419
#     4  11  25  45  71 100 139 181 233 291 355 410
#     4  11  25  42  71 101 143 185 226 291 340 428
#     4  11  25  44  71  97 134 182 231 290 342 416
#     4  10  24  43  67  99 138 181 232 277 359 402
#
# _framework density 21.105326000000002
#
# number of rings (size 3 to 8) (size 9 to 14) (size 15 to 20)
#    0.000    1.000    1.667    4.500   11.667    2.667 
#    0.000    0.000    0.000    0.000    0.000    0.000 
#    0.000    0.000    0.000    0.000    0.000    0.000 
#
# Total GULP energy -66939.318070 kJ/mol
# GULP energy per Si atom -5578.276506 kJ/mol
# Density = 2.105729 g / cm^3
# Si number density = 21.105326 Si / 1000 Ang^3
#
#
#
# Elastic Constant Matrix: (Units=GPa)
#
#
# Indices 1 2 3 4 5 6 
#
# 1 121.8829 44.5855 4.4191 -5.2421 -22.8409 -8.9351
# 2 44.5855 183.9113 26.5553 -6.2085 -26.1076 -10.7894
# 3 4.4191 26.5553 92.7983 -6.6722 -20.5404 -4.7350
# 4 -5.2421 -6.2085 -6.6722 36.5724 -3.8856 -7.3093
# 5 -22.8409 -26.1076 -20.5404 -3.8856 36.9572 -0.5793
# 6 -8.9351 -10.7894 -4.7350 -7.3093 -0.5793 38.6022
#
#
#
# Elastic Compliance Matrix: (Units=1/GPa)
#
#
# Indices 1 2 3 4 5 6 
#
# 1 0.010260 -0.001553 0.001747 0.002777 0.006551 0.002779
# 2 -0.001553 0.006565 -0.000869 0.001429 0.003372 0.001690
# 3 0.001747 -0.000869 0.013183 0.003912 0.008245 0.002643
# 4 0.002777 0.001429 0.003912 0.031083 0.008287 0.007532
# 5 0.006551 0.003372 0.008245 0.008287 0.039031 0.005625
# 6 0.002779 0.001690 0.002643 0.007532 0.005625 0.028856
#
#
# Mechanical properties :
#
#
# Convention : Reuss Voigt Hill
#
# Bulk Modulus (GPa) = 34.89396 61.07914 47.98655
# Shear Modulus (GPa) = 35.74453 43.96186 39.85319
#
# Velocity S-wave (km/s) = 4.11983 4.56891 4.35017
# Velocity P-wave (km/s) = 6.26098 7.53898 6.92951
#
# Compressibility (1/GPa) = 0.02865825
#
# Stress axis : x y z
#
# Youngs Moduli (GPa) = 97.46465 152.31152 75.85606
#
# Poissons Ratio (x) = 0.23653 -0.13254
# Poissons Ratio (y) = 0.15135 0.06596
# Poissons Ratio (z) = -0.17030 0.13243
#
# Static dielectric constant tensor:
#      x y z
#    x 1.884430 0.083000 0.039050 
#    y 0.083000 1.850210 0.015220 
#    z 0.039050 0.015220 1.801700 
# 
# From -- ./inp_files/51528.got.cif
#   From: 2010.05.17/outbox.cif.g08.bks.cpg/sg2_26_cif.got.tgz:51528.got - 2010.06.03 11:33:40.
