data_PCOD9046919
_publ_section_title
;
Structure prediction by ZEFSAII (Michael W. Deem and Ramdas Pophale) SiO2 
 PCOD9046919
Probable space group: P -1
;
_chemical_formula_sum "Si O2"
_cell_formula_units_Z 16
_cell_length_a 14.582328
_cell_length_b 8.660870
_cell_length_c 8.982814
_cell_angle_alpha 100.709249
_cell_angle_beta 84.451632
_cell_angle_gamma 137.696070
_cell_volume 748.858766
_symmetry_space_group_name_H-M "P -1"
_symmetry_group_IT_number 2
_symmetry_cell_setting 'triclinic'
loop_
_space_group_symop_operation_xyz
x,y,z
-x,-y,-z
loop_
_atom_site_type_symbol
_atom_site_label
_atom_site_fract_x
_atom_site_fract_y
_atom_site_fract_z
Si Si1 0.583718 0.637034 0.858102
Si Si2 0.792752 0.148584 0.012665
Si Si3 0.186625 0.340414 0.204346
Si Si4 0.067018 0.358110 0.965919
Si Si5 0.937016 0.880721 0.327665
Si Si6 0.379030 0.528411 0.652538
Si Si7 0.427895 0.939723 0.841734
Si Si8 0.412723 0.747928 0.396107
O O1 0.699635 0.653004 0.812040
O O2 0.476014 0.532614 0.726107
O O3 0.500000 0.500000 0.000000
O O4 0.671973 0.907893 0.905100
O O5 0.866222 0.388233 0.966889
O O6 0.712451 0.138403 0.151669
O O7 0.914104 0.178354 0.023444
O O8 0.251879 0.553572 0.343430
O O9 0.162523 0.362082 0.043374
O O10 0.039145 0.103166 0.243376
O O11 0.058195 0.286210 0.783889
O O12 0.777403 0.718499 0.341562
O O13 0.000000 0.000000 0.500000
O O14 0.396368 0.725596 0.752021
O O15 0.418703 0.614016 0.490214
O O16 0.523416 0.166057 0.763247
O O17 0.500000 0.000000 0.000000
O O18 0.500000 0.000000 0.500000
#
# Coordination Sequence:
#
# PCOD9046919 Si02
#       8
#     2   2   2   2   2   2   2   2
#     4  12  26  41  70 110 139 181 239 297 352 411
#     4  11  23  42  71 108 135 177 242 296 346 414
#     4  12  25  46  71 101 138 188 237 290 352 421
#     4  11  25  44  74 100 137 187 241 292 347 422
#     4  12  24  45  68  97 143 187 230 284 357 423
#     4  11  24  43  68  99 143 188 228 290 355 419
#     4  11  20  40  74 103 132 178 234 295 341 411
#     4  10  24  43  69 104 141 184 232 289 362 419
#
# _framework density 21.365846000000001
#
# number of rings (size 3 to 8) (size 9 to 14) (size 15 to 20)
#    0.000    0.750    5.000    2.625    3.500    0.500 
#    0.000    0.000    0.000    3.000    0.000    0.000 
#    0.000    0.000    0.000    0.000    0.000    0.000 
#
# Total GULP energy -89102.081991 kJ/mol
# GULP energy per Si atom -5568.880124 kJ/mol
# Density = 2.131722 g / cm^3
# Si number density = 21.365846 Si / 1000 Ang^3
#
#
#
# Elastic Constant Matrix: (Units=GPa)
#
#
# Indices 1 2 3 4 5 6 
#
# 1 128.1199 40.5999 54.4364 1.8726 12.9132 15.4799
# 2 40.5999 148.0401 45.2572 10.7082 10.0027 29.3968
# 3 54.4364 45.2572 126.3650 0.1251 15.3826 -0.3043
# 4 1.8726 10.7082 0.1251 47.1803 -6.2761 -6.7694
# 5 12.9132 10.0027 15.3826 -6.2761 28.0506 12.2212
# 6 15.4799 29.3968 -0.3043 -6.7694 12.2212 20.8962
#
#
#
# Elastic Compliance Matrix: (Units=1/GPa)
#
#
# Indices 1 2 3 4 5 6 
#
# 1 0.010966 0.000833 -0.005289 -0.001948 0.001983 -0.011163
# 2 0.000833 0.013626 -0.006346 -0.005808 0.008614 -0.026798
# 3 -0.005289 -0.006346 0.013874 0.003079 -0.011193 0.020592
# 4 -0.001948 -0.005808 0.003079 0.025078 -0.001151 0.018456
# 5 0.001983 0.008614 -0.011193 -0.001151 0.058642 -0.048419
# 6 -0.011163 -0.026798 0.020592 0.018456 -0.048419 0.128422
#
#
# Mechanical properties :
#
#
# Convention : Reuss Voigt Hill
#
# Bulk Modulus (GPa) = 59.30528 75.90133 67.60331
# Shear Modulus (GPa) = 17.99657 36.70752 27.35205
#
# Velocity S-wave (km/s) = 2.90540 4.14943 3.58184
# Velocity P-wave (km/s) = 6.25079 7.65237 6.98682
#
# Compressibility (1/GPa) = 0.01686190
#
# Stress axis : x y z
#
# Youngs Moduli (GPa) = 91.19420 73.38870 72.07825
#
# Poissons Ratio (x) = -0.06114 0.38119
# Poissons Ratio (y) = -0.07597 0.45743
# Poissons Ratio (z) = 0.48228 0.46575
#
# Static dielectric constant tensor:
#      x y z
#    x 1.841660 -0.018430 -0.082560 
#    y -0.018430 1.891640 0.045390 
#    z -0.082560 0.045390 1.849450 
# 
# From -- ./inp_files/298586.got.cif
#   From: 2010.05.17/outbox.cif.g08.bks.cpg/sg2_150_cif.got.tgz:298586.got - 2010.06.03 11:33:40.
