data_PCOD9046004
_publ_section_title
;
Structure prediction by ZEFSAII (Michael W. Deem and Ramdas Pophale) SiO2 
 PCOD9046004
Probable space group: P -1
;
_chemical_formula_sum "Si O2"
_cell_formula_units_Z 14
_cell_length_a 9.773354
_cell_length_b 5.062431
_cell_length_c 21.332170
_cell_angle_alpha 114.496024
_cell_angle_beta 38.596048
_cell_angle_gamma 108.644610
_cell_volume 599.135226
_symmetry_space_group_name_H-M "P -1"
_symmetry_group_IT_number 2
_symmetry_cell_setting 'triclinic'
loop_
_space_group_symop_operation_xyz
x,y,z
-x,-y,-z
loop_
_atom_site_type_symbol
_atom_site_label
_atom_site_fract_x
_atom_site_fract_y
_atom_site_fract_z
Si Si1 0.609723 0.152555 0.536130
Si Si2 0.311200 0.318718 0.844247
Si Si3 0.344669 0.258032 0.059193
Si Si4 0.139464 0.875874 0.993641
Si Si5 0.578024 0.785769 0.635721
Si Si6 0.288580 0.656954 0.225694
Si Si7 0.882595 0.729063 0.642975
O O1 0.486335 0.456362 0.629601
O O2 0.855442 0.269902 0.448236
O O3 0.500000 0.000000 0.500000
O O4 0.635713 0.916601 0.559586
O O5 0.449544 0.291295 0.857256
O O6 0.052873 0.301820 0.919610
O O7 0.418611 0.046221 0.742836
O O8 0.325541 0.672916 0.875111
O O9 0.227778 0.407794 0.174466
O O10 0.201055 0.120919 0.043744
O O11 0.500000 0.500000 0.000000
O O12 0.500000 0.000000 0.000000
O O13 0.000000 0.000000 0.000000
O O14 0.772557 0.748464 0.614706
O O15 0.210150 0.542198 0.310961
O O16 0.186114 0.961296 0.273003
#
# Coordination Sequence:
#
# PCOD9046004 Si02
#       7
#     2   2   2   2   2   2   2
#     4  12  26  45  71 104 142 175 224 294 352 413
#     4  10  24  42  66 102 131 181 233 284 341 400
#     4  12  25  44  68  99 141 186 233 279 350 405
#     4  11  25  42  70  96 143 179 237 288 338 409
#     4  11  24  45  74  97 136 184 231 281 346 424
#     4  11  23  43  70 101 138 182 229 287 333 415
#     4  11  24  44  72 100 135 177 237 275 343 414
#
# _framework density 23.367008999999999
#
# number of rings (size 3 to 8) (size 9 to 14) (size 15 to 20)
#    0.000    0.857    1.429    5.571    8.000    2.286 
#    0.000    0.000    0.000    0.000    0.000    0.000 
#    0.000    0.000    0.000    0.000    0.000    0.000 
#
# Total GULP energy -78015.436192 kJ/mol
# GULP energy per Si atom -5572.531157 kJ/mol
# Density = 2.331382 g / cm^3
# Si number density = 23.367009 Si / 1000 Ang^3
#
#
#
# Elastic Constant Matrix: (Units=GPa)
#
#
# Indices 1 2 3 4 5 6 
#
# 1 118.5562 48.1066 41.8565 9.8959 23.1908 29.8198
# 2 48.1066 151.7226 27.8345 24.3090 13.5654 7.3173
# 3 41.8565 27.8345 51.2435 24.9034 -1.5817 11.9606
# 4 9.8959 24.3090 24.9034 55.3485 -2.2420 8.4999
# 5 23.1908 13.5654 -1.5817 -2.2420 34.0189 7.4181
# 6 29.8198 7.3173 11.9606 8.4999 7.4181 52.3785
#
#
#
# Elastic Compliance Matrix: (Units=1/GPa)
#
#
# Indices 1 2 3 4 5 6 
#
# 1 0.017481 -0.002541 -0.014239 0.004871 -0.009997 -0.005720
# 2 -0.002541 0.008229 -0.001408 -0.002822 -0.002100 0.001374
# 3 -0.014239 -0.001408 0.039015 -0.013951 0.011145 0.000079
# 4 0.004871 -0.002822 -0.013951 0.025187 -0.000483 -0.003212
# 5 -0.009997 -0.002100 0.011145 -0.000483 0.037939 -0.001855
# 6 -0.005720 0.001374 0.000079 -0.003212 -0.001855 0.022922
#
#
# Mechanical properties :
#
#
# Convention : Reuss Voigt Hill
#
# Bulk Modulus (GPa) = 35.27459 61.90195 48.58827
# Shear Modulus (GPa) = 25.43267 41.93083 33.68175
#
# Velocity S-wave (km/s) = 3.30267 4.24069 3.80073
# Velocity P-wave (km/s) = 5.44722 7.10820 6.33241
#
# Compressibility (1/GPa) = 0.02834902
#
# Stress axis : x y z
#
# Youngs Moduli (GPa) = 57.20620 121.52633 25.63095
#
# Poissons Ratio (x) = 0.30881 0.36495
# Poissons Ratio (y) = 0.14536 0.03609
# Poissons Ratio (z) = 0.81454 0.17112
#
# Static dielectric constant tensor:
#      x y z
#    x 1.853520 -0.003440 0.032560 
#    y -0.003440 1.910110 0.035230 
#    z 0.032560 0.035230 1.879290 
# 
# From -- ./inp_files/585816.got.cif
#   From: 2010.05.17/outbox.cif.g08.bks.cpg/sg2_293_cif.got.tgz:585816.got - 2010.06.03 11:33:40.
