data_PCOD9046038
_publ_section_title
;
Structure prediction by ZEFSAII (Michael W. Deem and Ramdas Pophale) SiO2 
 PCOD9046038
Probable space group: P -1
;
_chemical_formula_sum "Si O2"
_cell_formula_units_Z 14
_cell_length_a 26.315218
_cell_length_b 13.823073
_cell_length_c 14.664683
_cell_angle_alpha 18.476080
_cell_angle_beta 160.911221
_cell_angle_gamma 160.020492
_cell_volume 501.769518
_symmetry_space_group_name_H-M "P -1"
_symmetry_group_IT_number 2
_symmetry_cell_setting 'triclinic'
loop_
_space_group_symop_operation_xyz
x,y,z
-x,-y,-z
loop_
_atom_site_type_symbol
_atom_site_label
_atom_site_fract_x
_atom_site_fract_y
_atom_site_fract_z
Si Si1 0.691817 0.803115 0.652731
Si Si2 0.888369 0.623838 0.835848
Si Si3 0.000000 0.500000 0.500000
Si Si4 0.621678 0.632834 0.226214
Si Si5 0.871570 0.674433 0.457197
Si Si6 0.500000 0.000000 0.000000
Si Si7 0.197465 0.681955 0.837726
Si Si8 0.613065 0.004767 0.525286
O O1 0.700167 0.455881 0.943227
O O2 0.868722 0.109848 0.651889
O O3 0.549202 0.862083 0.303542
O O4 0.667101 0.813441 0.708858
O O5 0.738436 0.610600 0.527175
O O6 0.834908 0.493175 0.964845
O O7 0.025934 0.008752 0.715843
O O8 0.988169 0.394726 0.182755
O O9 0.972209 0.402272 0.431376
O O10 0.738383 0.726378 0.251421
O O11 0.471526 0.257579 0.302663
O O12 0.528221 0.877935 0.859289
O O13 0.767340 0.336522 0.526203
O O14 0.339930 0.056291 0.734990
#
# Coordination Sequence:
#
# PCOD9046038 Si02
#       8
#     2   2   1   2   2   1   2   2
#     4  11  25  41  69 100 146 186 238 293 360 435
#     4  12  27  46  79 109 146 198 250 300 380 439
#     4  10  24  42  66  94 146 182 242 278 362 410
#     4  12  26  49  75 109 149 192 252 313 371 436
#     4  12  26  50  75 109 149 193 250 316 369 438
#     4  10  24  42  66  96 144 186 236 286 358 416
#     4  11  25  44  70 103 147 187 238 300 354 442
#     4  12  27  44  76 110 146 198 247 300 380 443
#
# _framework density 27.901254999999999
#
# number of rings (size 3 to 8) (size 9 to 14) (size 15 to 20)
#    0.000    0.571    0.000    6.857   12.000    0.000 
#    0.000    0.000    0.000    0.000    0.000    0.000 
#    0.000    0.000    0.000    0.000    0.000    0.000 
#
# Total GULP energy -78146.266156 kJ/mol
# GULP energy per Si atom -5581.876154 kJ/mol
# Density = 2.783775 g / cm^3
# Si number density = 27.901255 Si / 1000 Ang^3
#
#
#
# Elastic Constant Matrix: (Units=GPa)
#
#
# Indices 1 2 3 4 5 6 
#
# 1 147.5061 56.2792 22.1970 2.7530 -25.6946 10.7055
# 2 56.2792 156.9827 8.1443 -21.4399 -10.8389 26.5657
# 3 22.1970 8.1443 107.8822 -4.0774 -6.1511 6.5617
# 4 2.7530 -21.4399 -4.0774 24.2124 2.6126 -3.9260
# 5 -25.6946 -10.8389 -6.1511 2.6126 40.2131 -13.8136
# 6 10.7055 26.5657 6.5617 -3.9260 -13.8136 31.1702
#
#
#
# Elastic Compliance Matrix: (Units=1/GPa)
#
#
# Indices 1 2 3 4 5 6 
#
# 1 0.009524 -0.004051 -0.001664 -0.005184 0.005938 0.002510
# 2 -0.004051 0.010024 0.000691 0.008550 -0.002917 -0.007514
# 3 -0.001664 0.000691 0.009745 0.002157 -0.000170 -0.001872
# 4 -0.005184 0.008550 0.002157 0.050042 -0.004496 -0.001650
# 5 0.005938 -0.002917 -0.000170 -0.004496 0.033161 0.014612
# 6 0.002510 -0.007514 -0.001872 -0.001650 0.014612 0.044285
#
#
# Mechanical properties :
#
#
# Convention : Reuss Voigt Hill
#
# Bulk Modulus (GPa) = 51.96066 65.06801 58.51434
# Shear Modulus (GPa) = 28.86056 40.83584 34.84820
#
# Velocity S-wave (km/s) = 3.21967 3.82983 3.53793
# Velocity P-wave (km/s) = 5.69958 6.55197 6.14058
#
# Compressibility (1/GPa) = 0.01924533
#
# Stress axis : x y z
#
# Youngs Moduli (GPa) = 104.99364 99.75643 102.61374
#
# Poissons Ratio (x) = 0.40412 0.17074
# Poissons Ratio (y) = 0.42534 -0.07086
# Poissons Ratio (z) = 0.17470 -0.06889
#
# Static dielectric constant tensor:
#      x y z
#    x 2.129720 -0.025700 0.170810 
#    y -0.025700 2.286510 0.727080 
#    z 0.170810 0.727080 2.447950 
# 
# From -- ./inp_files/88956.got.cif
#   From: 2010.05.17/outbox.cif.g08.bks.cpg/sg2_45_cif.got.tgz:88956.got - 2010.06.03 11:33:40.
