data_PCOD9046056
_publ_section_title
;
Structure prediction by ZEFSAII (Michael W. Deem and Ramdas Pophale) SiO2 
 PCOD9046056
Probable space group: P -1
;
_chemical_formula_sum "Si O2"
_cell_formula_units_Z 16
_cell_length_a 17.523675
_cell_length_b 7.972149
_cell_length_c 8.811598
_cell_angle_alpha 131.856586
_cell_angle_beta 133.507071
_cell_angle_gamma 71.493987
_cell_volume 641.615679
_symmetry_space_group_name_H-M "P -1"
_symmetry_group_IT_number 2
_symmetry_cell_setting 'triclinic'
loop_
_space_group_symop_operation_xyz
x,y,z
-x,-y,-z
loop_
_atom_site_type_symbol
_atom_site_label
_atom_site_fract_x
_atom_site_fract_y
_atom_site_fract_z
Si Si1 0.706723 0.053877 0.827241
Si Si2 0.698187 0.700066 0.125505
Si Si3 0.524827 0.279922 0.208618
Si Si4 0.286672 0.801742 0.406521
Si Si5 0.819125 0.654298 0.703753
Si Si6 0.887225 0.637337 0.120255
Si Si7 0.919989 0.415139 0.477173
Si Si8 0.640745 0.340043 0.113961
O O1 0.673136 0.142007 0.675806
O O2 0.735851 0.815033 0.685256
O O3 0.817299 0.228984 0.150831
O O4 0.622409 0.084705 0.859908
O O5 0.801742 0.698424 0.160521
O O6 0.676677 0.522412 0.133811
O O7 0.713781 0.959353 0.368334
O O8 0.583187 0.650907 0.848945
O O9 0.634298 0.338917 0.493461
O O10 0.546145 0.359499 0.109677
O O11 0.500000 0.000000 0.000000
O O12 0.163785 0.642115 0.130380
O O13 0.899687 0.646772 0.670621
O O14 0.742733 0.393543 0.405138
O O15 0.876559 0.710901 0.977249
O O16 0.011080 0.699765 0.381771
O O17 0.000000 0.500000 0.500000
#
# Coordination Sequence:
#
# PCOD9046056 Si02
#       8
#     2   2   2   2   2   2   2   2
#     4  11  24  42  68  97 133 175 216 264 329 390
#     4  11  24  42  67  95 132 176 219 269 330 379
#     4  10  24  42  66  98 132 170 219 277 321 387
#     4  11  22  43  65  95 132 171 218 267 325 384
#     4  11  25  41  69  97 131 177 216 263 335 384
#     4  12  24  44  67  98 132 174 219 273 322 387
#     4  11  24  43  67  99 134 168 221 271 317 393
#     4  11  21  44  64  96 136 170 219 272 318 391
#
# _framework density 24.937045999999999
#
# number of rings (size 3 to 8) (size 9 to 14) (size 15 to 20)
#    0.000    1.000    5.000    1.500    3.500    2.500 
#    0.000    2.500    0.000    0.000    0.000    0.000 
#    0.000    0.000    0.000    0.000    0.000    0.000 
#
# Total GULP energy -89279.132942 kJ/mol
# GULP energy per Si atom -5579.945809 kJ/mol
# Density = 2.488029 g / cm^3
# Si number density = 24.937046 Si / 1000 Ang^3
#
#
#
# Elastic Constant Matrix: (Units=GPa)
#
#
# Indices 1 2 3 4 5 6 
#
# 1 104.5089 35.4098 43.5547 10.1196 -39.1449 -22.1526
# 2 35.4098 80.7772 25.0577 -14.3808 -24.3037 -10.5721
# 3 43.5547 25.0577 78.5970 -7.8363 -25.0781 -7.8886
# 4 10.1196 -14.3808 -7.8363 45.8502 -7.1528 -6.7668
# 5 -39.1449 -24.3037 -25.0781 -7.1528 44.3845 0.5302
# 6 -22.1526 -10.5721 -7.8886 -6.7668 0.5302 31.7371
#
#
#
# Elastic Compliance Matrix: (Units=1/GPa)
#
#
# Indices 1 2 3 4 5 6 
#
# 1 0.019952 -0.002168 -0.005377 -0.002351 0.012859 0.011152
# 2 -0.002168 0.018632 -0.000202 0.008706 0.009503 0.006341
# 3 -0.005377 -0.000202 0.018601 0.005601 0.006537 0.001888
# 4 -0.002351 0.008706 0.005601 0.028917 0.010416 0.008643
# 5 0.012859 0.009503 0.006537 0.010416 0.044265 0.015248
# 6 0.011152 0.006341 0.001888 0.008643 0.015248 0.043462
#
#
# Mechanical properties :
#
#
# Convention : Reuss Voigt Hill
#
# Bulk Modulus (GPa) = 23.98649 52.43641 38.21145
# Shear Modulus (GPa) = 24.60361 35.05176 29.82769
#
# Velocity S-wave (km/s) = 3.14447 3.75321 3.46225
# Velocity P-wave (km/s) = 4.77737 6.31311 5.59815
#
# Compressibility (1/GPa) = 0.04169014
#
# Stress axis : x y z
#
# Youngs Moduli (GPa) = 50.11940 53.67131 53.76046
#
# Poissons Ratio (x) = 0.11637 0.28909
# Poissons Ratio (y) = 0.10867 0.01086
# Poissons Ratio (z) = 0.26951 0.01084
#
# Static dielectric constant tensor:
#      x y z
#    x 2.135360 -0.024830 0.043670 
#    y -0.024830 2.074540 -0.047650 
#    z 0.043670 -0.047650 1.993130 
# 
# From -- ./inp_files/328163.got.cif
#   From: 2010.05.17/outbox.cif.g08.bks.cpg/sg2_165_cif.got.tgz:328163.got - 2010.06.03 11:33:40.
