data_PCOD9046452
_publ_section_title
;
Structure prediction by ZEFSAII (Michael W. Deem and Ramdas Pophale) SiO2 
 PCOD9046452
Probable space group: P -1
;
_chemical_formula_sum "Si O2"
_cell_formula_units_Z 14
_cell_length_a 8.730414
_cell_length_b 20.370453
_cell_length_c 8.992755
_cell_angle_alpha 139.893037
_cell_angle_beta 44.194769
_cell_angle_gamma 143.570499
_cell_volume 589.854176
_symmetry_space_group_name_H-M "P -1"
_symmetry_group_IT_number 2
_symmetry_cell_setting 'triclinic'
loop_
_space_group_symop_operation_xyz
x,y,z
-x,-y,-z
loop_
_atom_site_type_symbol
_atom_site_label
_atom_site_fract_x
_atom_site_fract_y
_atom_site_fract_z
Si Si1 0.050360 0.627273 0.738746
Si Si2 0.643138 0.118963 0.215974
Si Si3 0.079899 0.408968 0.730259
Si Si4 0.305400 0.992347 0.491639
Si Si5 0.298994 0.770795 0.092337
Si Si6 0.830159 0.852063 0.994361
Si Si7 0.352448 0.410328 0.242354
O O1 0.251140 0.754577 0.727159
O O2 0.000000 0.500000 0.500000
O O3 0.765704 0.603077 0.860569
O O4 0.156385 0.656621 0.881968
O O5 0.438143 0.092149 0.441397
O O6 0.883320 0.126832 0.154751
O O7 0.500000 0.000000 0.000000
O O8 0.155665 0.405920 0.500646
O O9 0.362504 0.463713 0.710155
O O10 0.842551 0.277232 0.731786
O O11 0.000000 0.500000 0.000000
O O12 0.500000 0.000000 0.500000
O O13 0.218903 0.863140 0.256235
O O14 0.115436 0.023991 0.753554
O O15 0.616075 0.830864 0.979694
O O16 0.648716 0.711485 0.943425
#
# Coordination Sequence:
#
# PCOD9046452 Si02
#       7
#     2   2   2   2   2   2   2
#     4  11  25  44  68 106 142 179 233 293 351 411
#     4  11  24  50  71  98 146 186 229 293 351 417
#     4  11  22  42  70  95 136 185 230 287 345 412
#     4  10  24  44  68 103 135 181 235 286 341 418
#     4  11  23  44  67 103 144 174 239 292 343 419
#     4  10  24  42  73 100 132 184 239 281 347 415
#     4  10  24  43  69 100 133 185 238 274 360 418
#
# _framework density 23.734679
#
# number of rings (size 3 to 8) (size 9 to 14) (size 15 to 20)
#    0.000    1.429    2.857    0.857   10.000    4.571 
#    2.571    0.000    0.000    0.000    0.000    0.000 
#    0.000    0.000    0.000    0.000    0.000    0.000 
#
# Total GULP energy -77984.397566 kJ/mol
# GULP energy per Si atom -5570.314112 kJ/mol
# Density = 2.368066 g / cm^3
# Si number density = 23.734679 Si / 1000 Ang^3
#
#
#
# Elastic Constant Matrix: (Units=GPa)
#
#
# Indices 1 2 3 4 5 6 
#
# 1 77.8780 23.5381 31.6395 -2.0761 10.7084 13.5613
# 2 23.5381 99.1716 37.0192 9.5057 7.4773 -5.3407
# 3 31.6395 37.0192 99.4302 22.7370 -3.2457 -1.7961
# 4 -2.0761 9.5057 22.7370 50.8494 -2.8428 -0.8930
# 5 10.7084 7.4773 -3.2457 -2.8428 34.3353 15.7736
# 6 13.5613 -5.3407 -1.7961 -0.8930 15.7736 42.3196
#
#
#
# Elastic Compliance Matrix: (Units=1/GPa)
#
#
# Indices 1 2 3 4 5 6 
#
# 1 0.017132 -0.002382 -0.005515 0.003367 -0.002813 -0.004905
# 2 -0.002382 0.012679 -0.003819 -0.000927 -0.004173 0.003737
# 3 -0.005515 -0.003819 0.014697 -0.005895 0.003177 0.000600
# 4 0.003367 -0.000927 -0.005895 0.022650 0.001104 -0.001380
# 5 -0.002813 -0.004173 0.003177 0.001104 0.037474 -0.013435
# 6 -0.004905 0.003737 0.000600 -0.001380 -0.013435 0.030677
#
#
# Mechanical properties :
#
#
# Convention : Reuss Voigt Hill
#
# Bulk Modulus (GPa) = 47.45001 51.20817 49.32909
# Shear Modulus (GPa) = 30.16271 37.78639 33.97455
#
# Velocity S-wave (km/s) = 3.56874 3.99436 3.78753
# Velocity P-wave (km/s) = 6.08411 6.54945 6.32106
#
# Compressibility (1/GPa) = 0.02107481
#
# Stress axis : x y z
#
# Youngs Moduli (GPa) = 58.37031 78.86779 68.04253
#
# Poissons Ratio (x) = 0.18789 0.37526
# Poissons Ratio (y) = 0.13906 0.25987
# Poissons Ratio (z) = 0.32191 0.30122
#
# Static dielectric constant tensor:
#      x y z
#    x 1.947540 -0.007290 -0.007990 
#    y -0.007290 1.964960 0.019850 
#    z -0.007990 0.019850 1.965070 
# 
# From -- ./inp_files/224172.got.cif
#   From: 2010.05.17/outbox.cif.g08.bks.cpg/sg2_113_cif.got.tgz:224172.got - 2010.06.03 11:33:40.
