data_PCOD9046152
_publ_section_title
;
Structure prediction by ZEFSAII (Michael W. Deem and Ramdas Pophale) SiO2 
 PCOD9046152
Probable space group: P -1
;
_chemical_formula_sum "Si O2"
_cell_formula_units_Z 13
_cell_length_a 6.782840
_cell_length_b 9.857804
_cell_length_c 9.947497
_cell_angle_alpha 69.170917
_cell_angle_beta 73.121353
_cell_angle_gamma 103.623609
_cell_volume 550.550234
_symmetry_space_group_name_H-M "P -1"
_symmetry_group_IT_number 2
_symmetry_cell_setting 'triclinic'
loop_
_space_group_symop_operation_xyz
x,y,z
-x,-y,-z
loop_
_atom_site_type_symbol
_atom_site_label
_atom_site_fract_x
_atom_site_fract_y
_atom_site_fract_z
Si Si1 0.000000 0.000000 0.000000
Si Si2 0.563163 0.670799 0.861153
Si Si3 0.031073 0.426919 0.656835
Si Si4 0.045083 0.921443 0.655978
Si Si5 0.672093 0.160938 0.965486
Si Si6 0.663810 0.276018 0.377743
Si Si7 0.709789 0.792388 0.309969
O O1 0.245779 0.152699 0.870710
O O2 0.875096 0.122095 0.998695
O O3 0.825134 0.771769 0.781997
O O4 0.484472 0.682141 0.719678
O O5 0.500000 0.500000 0.000000
O O6 0.440412 0.765453 0.931827
O O7 0.120559 0.566631 0.696705
O O8 0.217850 0.352710 0.631335
O O9 0.000000 0.500000 0.500000
O O10 0.797471 0.292352 0.785690
O O11 0.249198 0.862792 0.623457
O O12 0.000000 0.000000 0.500000
O O13 0.093684 0.052309 0.717534
O O14 0.500000 0.000000 0.000000
O O15 0.514262 0.231827 0.558520
#
# Coordination Sequence:
#
# PCOD9046152 Si02
#       7
#     1   2   2   2   2   2   2
#     4  10  24  42  68 104 136 178 242 294 356 422
#     4  12  28  47  76 109 150 197 243 307 379 434
#     4  11  26  46  73 105 146 194 244 299 368 442
#     4  12  25  46  74 107 143 189 250 298 362 447
#     4  11  26  47  74 104 143 190 242 305 357 435
#     4  12  27  46  74 107 151 193 245 307 371 436
#     4  11  24  45  72 104 141 192 239 305 360 435
#
# _framework density 23.612739000000001
#
# number of rings (size 3 to 8) (size 9 to 14) (size 15 to 20)
#    0.000    0.615    1.538    5.538    6.462    7.385 
#    0.000    0.000    0.000    0.000    0.000    0.000 
#    0.000    0.000    0.000    0.000    0.000    0.000 
#
# Total GULP energy -72538.670577 kJ/mol
# GULP energy per Si atom -5579.897737 kJ/mol
# Density = 2.355900 g / cm^3
# Si number density = 23.612739 Si / 1000 Ang^3
#
#
#
# Elastic Constant Matrix: (Units=GPa)
#
#
# Indices 1 2 3 4 5 6 
#
# 1 74.6112 22.2914 27.4291 -3.1047 -10.7360 -11.2149
# 2 22.2914 102.1093 2.4344 -15.6659 -11.5593 -10.6714
# 3 27.4291 2.4344 118.1724 -26.4038 -22.9453 -10.4895
# 4 -3.1047 -15.6659 -26.4038 35.9701 -4.2368 -7.4607
# 5 -10.7360 -11.5593 -22.9453 -4.2368 52.7927 -0.6317
# 6 -11.2149 -10.6714 -10.4895 -7.4607 -0.6317 56.7373
#
#
#
# Elastic Compliance Matrix: (Units=1/GPa)
#
#
# Indices 1 2 3 4 5 6 
#
# 1 0.016165 -0.003674 -0.004102 -0.002874 0.000486 0.001373
# 2 -0.003674 0.012862 0.003924 0.009475 0.004579 0.003715
# 3 -0.004102 0.003924 0.014171 0.013533 0.007323 0.004408
# 4 -0.002874 0.009475 0.013533 0.044943 0.011096 0.009749
# 5 0.000486 0.004579 0.007323 0.011096 0.024165 0.004039
# 6 0.001373 0.003715 0.004408 0.009749 0.004039 0.020737
#
#
# Mechanical properties :
#
#
# Convention : Reuss Voigt Hill
#
# Bulk Modulus (GPa) = 28.17412 44.35585 36.26499
# Shear Modulus (GPa) = 32.76998 45.28255 39.02627
#
# Velocity S-wave (km/s) = 3.72937 4.38393 4.06983
# Velocity P-wave (km/s) = 5.52286 6.66713 6.12179
#
# Compressibility (1/GPa) = 0.03549357
#
# Stress axis : x y z
#
# Youngs Moduli (GPa) = 61.86102 77.74686 70.56905
#
# Poissons Ratio (x) = 0.28561 0.28950
# Poissons Ratio (y) = 0.22725 -0.27689
# Poissons Ratio (z) = 0.25378 -0.30506
#
# Static dielectric constant tensor:
#      x y z
#    x 1.747960 -0.010570 -0.291130 
#    y -0.010570 1.837930 -0.081750 
#    z -0.291130 -0.081750 1.529910 
# 
# From -- ./inp_files/108983.got.cif
#   From: 2010.05.17/outbox.cif.g08.bks.cpg/sg2_55_cif.got.tgz:108983.got - 2010.06.03 11:33:40.
