data_PCOD9046757
_publ_section_title
;
Structure prediction by ZEFSAII (Michael W. Deem and Ramdas Pophale) SiO2 
 PCOD9046757
Probable space group: P -1
;
_chemical_formula_sum "Si O2"
_cell_formula_units_Z 15
_cell_length_a 15.501220
_cell_length_b 24.738930
_cell_length_c 9.677321
_cell_angle_alpha 143.887309
_cell_angle_beta 144.119590
_cell_angle_gamma 19.204899
_cell_volume 697.702471
_symmetry_space_group_name_H-M "P -1"
_symmetry_group_IT_number 2
_symmetry_cell_setting 'triclinic'
loop_
_space_group_symop_operation_xyz
x,y,z
-x,-y,-z
loop_
_atom_site_type_symbol
_atom_site_label
_atom_site_fract_x
_atom_site_fract_y
_atom_site_fract_z
Si Si1 0.000000 0.500000 0.500000
Si Si2 0.797488 0.229112 0.795905
Si Si3 0.435578 0.291671 0.094337
Si Si4 0.173047 0.573663 0.686795
Si Si5 0.631729 0.848966 0.442315
Si Si6 0.635303 0.963721 0.241715
Si Si7 0.983939 0.948834 0.570147
Si Si8 0.906476 0.632265 0.962513
O O1 0.104268 0.547031 0.675364
O O2 0.070271 0.420635 0.271118
O O3 0.484614 0.391480 0.679607
O O4 0.993216 0.100853 0.659239
O O5 0.852415 0.303689 0.068649
O O6 0.849290 0.120130 0.746827
O O7 0.710585 0.201666 0.291392
O O8 0.316478 0.305656 0.106812
O O9 0.500122 0.174958 0.831353
O O10 0.193457 0.472699 0.081606
O O11 0.954637 0.667164 0.476435
O O12 0.500000 0.000000 0.500000
O O13 0.581760 0.897047 0.636472
O O14 0.806369 0.966579 0.452171
O O15 0.815249 0.785049 0.156126
O O16 0.500000 0.000000 0.000000
#
# Coordination Sequence:
#
# PCOD9046757 Si02
#       8
#     1   2   2   2   2   2   2   2
#     4  12  22  40  74 102 136 170 242 294 328 406
#     4  10  24  43  67  98 142 184 230 288 351 417
#     4  11  25  45  69 100 142 190 228 274 367 425
#     4  11  24  43  69 103 132 185 238 284 346 411
#     4  12  24  45  71  99 142 187 229 286 349 431
#     4  12  28  44  72 106 139 180 243 295 345 405
#     4  11  25  43  67 103 141 182 229 298 348 416
#     4  11  25  44  71 103 138 188 230 286 348 427
#
# _framework density 21.499136
#
# number of rings (size 3 to 8) (size 9 to 14) (size 15 to 20)
#    0.000    0.800    2.667    4.000    9.333    1.067 
#    0.000    2.667    0.000    0.000    0.000    0.000 
#    0.000    0.000    0.000    0.000    0.000    0.000 
#
# Total GULP energy -83640.146928 kJ/mol
# GULP energy per Si atom -5576.009795 kJ/mol
# Density = 2.145020 g / cm^3
# Si number density = 21.499136 Si / 1000 Ang^3
#
#
#
# Elastic Constant Matrix: (Units=GPa)
#
#
# Indices 1 2 3 4 5 6 
#
# 1 96.1997 43.9771 34.9162 5.7695 16.3411 4.6529
# 2 43.9771 92.6535 23.4216 3.7865 21.7602 3.0228
# 3 34.9162 23.4216 101.8363 10.2617 10.1765 -1.6438
# 4 5.7695 3.7865 10.2617 42.1511 -4.0692 8.1752
# 5 16.3411 21.7602 10.1765 -4.0692 48.6944 10.4153
# 6 4.6529 3.0228 -1.6438 8.1752 10.4153 19.6233
#
#
#
# Elastic Compliance Matrix: (Units=1/GPa)
#
#
# Indices 1 2 3 4 5 6 
#
# 1 0.014613 -0.005665 -0.003590 -0.000320 -0.001194 -0.002126
# 2 -0.005665 0.014878 -0.000793 -0.001310 -0.005179 0.002279
# 3 -0.003590 -0.000793 0.011869 -0.003420 -0.002180 0.004549
# 4 -0.000320 -0.001310 -0.003420 0.028440 0.007130 -0.015641
# 5 -0.001194 -0.005179 -0.002180 0.007130 0.027915 -0.016888
# 6 -0.002126 0.002279 0.004549 -0.015641 -0.016888 0.066973
#
#
# Mechanical properties :
#
#
# Convention : Reuss Voigt Hill
#
# Bulk Modulus (GPa) = 47.03105 55.03547 51.03326
# Shear Modulus (GPa) = 26.05904 34.65209 30.35556
#
# Velocity S-wave (km/s) = 3.48530 4.01907 3.76166
# Velocity P-wave (km/s) = 6.17411 6.86962 6.53113
#
# Compressibility (1/GPa) = 0.02126255
#
# Stress axis : x y z
#
# Youngs Moduli (GPa) = 68.43314 67.21423 84.25430
#
# Poissons Ratio (x) = 0.38080 0.30247
# Poissons Ratio (y) = 0.38771 0.06681
# Poissons Ratio (z) = 0.24567 0.05330
#
# Static dielectric constant tensor:
#      x y z
#    x 1.776490 0.023090 -0.014900 
#    y 0.023090 1.771390 0.019230 
#    z -0.014900 0.019230 1.781220 
# 
# From -- ./inp_files/320224.got.cif
#   From: 2010.05.17/outbox.cif.g08.bks.cpg/sg2_161_cif.got.tgz:320224.got - 2010.06.03 11:33:40.
