data_PCOD9046790
_publ_section_title
;
Structure prediction by ZEFSAII (Michael W. Deem and Ramdas Pophale) SiO2 
 PCOD9046790
Probable space group: P -1
;
_chemical_formula_sum "Si O2"
_cell_formula_units_Z 16
_cell_length_a 8.206734
_cell_length_b 16.972061
_cell_length_c 5.656250
_cell_angle_alpha 73.634928
_cell_angle_beta 64.663971
_cell_angle_gamma 72.705124
_cell_volume 668.868915
_symmetry_space_group_name_H-M "P -1"
_symmetry_group_IT_number 2
_symmetry_cell_setting 'triclinic'
loop_
_space_group_symop_operation_xyz
x,y,z
-x,-y,-z
loop_
_atom_site_type_symbol
_atom_site_label
_atom_site_fract_x
_atom_site_fract_y
_atom_site_fract_z
Si Si1 0.805544 0.345608 0.992419
Si Si2 0.193487 0.474110 0.266304
Si Si3 0.540921 0.683916 0.518036
Si Si4 0.374300 0.188901 0.286311
Si Si5 0.198261 0.820418 0.085882
Si Si6 0.888479 0.094987 0.436114
Si Si7 0.815377 0.656236 0.988643
Si Si8 0.399732 0.009107 0.305405
O O1 0.669133 0.318945 0.295191
O O2 0.731584 0.441120 0.880504
O O3 0.806850 0.277104 0.848674
O O4 0.012922 0.340677 0.954646
O O5 0.335656 0.397828 0.362295
O O6 0.000000 0.500000 0.500000
O O7 0.847809 0.567228 0.918392
O O8 0.590241 0.769993 0.515549
O O9 0.615242 0.671380 0.220833
O O10 0.300268 0.106456 0.319947
O O11 0.585271 0.172935 0.066151
O O12 0.216110 0.264697 0.229183
O O13 0.113936 0.855147 0.358963
O O14 0.093638 0.865010 0.871782
O O15 0.691125 0.070945 0.563710
O O16 0.000000 0.000000 0.500000
O O17 0.500000 0.000000 0.500000
O O18 0.500000 0.000000 0.000000
#
# Coordination Sequence:
#
# PCOD9046790 Si02
#       8
#     2   2   2   2   2   2   2   2
#     4  11  25  44  73 105 139 190 240 293 371 428
#     4  11  23  47  68 102 146 184 240 300 356 438
#     4  10  24  45  70  99 144 185 237 299 360 433
#     4  10  24  43  68 101 139 180 242 294 357 433
#     4  11  26  47  70 105 145 190 237 298 363 430
#     4  12  26  47  69 105 146 186 239 301 354 429
#     4  11  25  45  70 104 140 186 239 301 358 433
#     4  12  24  43  73 100 135 191 235 286 360 421
#
# _framework density 23.920978999999999
#
# number of rings (size 3 to 8) (size 9 to 14) (size 15 to 20)
#    0.000    1.000    3.750    1.125    7.000    2.500 
#    4.500    0.000    0.000    0.000    0.000    0.000 
#    0.000    0.000    0.000    0.000    0.000    0.000 
#
# Total GULP energy -89224.847941 kJ/mol
# GULP energy per Si atom -5576.552996 kJ/mol
# Density = 2.386653 g / cm^3
# Si number density = 23.920979 Si / 1000 Ang^3
#
#
#
# Elastic Constant Matrix: (Units=GPa)
#
#
# Indices 1 2 3 4 5 6 
#
# 1 49.3327 30.5340 38.5753 7.8027 7.5750 -6.1008
# 2 30.5340 193.0116 52.1863 22.6342 19.7388 20.1140
# 3 38.5753 52.1863 108.7378 33.4679 10.0004 16.3138
# 4 7.8027 22.6342 33.4679 44.7730 -5.9925 7.8403
# 5 7.5750 19.7388 10.0004 -5.9925 29.8695 -4.5440
# 6 -6.1008 20.1140 16.3138 7.8403 -4.5440 49.6869
#
#
#
# Elastic Compliance Matrix: (Units=1/GPa)
#
#
# Indices 1 2 3 4 5 6 
#
# 1 0.032442 -0.003117 -0.012485 0.003733 0.000095 0.008764
# 2 -0.003117 0.006909 -0.000522 -0.002647 -0.004589 -0.003010
# 3 -0.012485 -0.000522 0.018877 -0.011381 -0.006047 -0.006277
# 4 0.003733 -0.002647 -0.011381 0.032856 0.011375 0.001122
# 5 0.000095 -0.004589 -0.006047 0.011375 0.041688 0.005873
# 6 0.008764 -0.003010 -0.006277 0.001122 0.005873 0.024842
#
#
# Mechanical properties :
#
#
# Convention : Reuss Voigt Hill
#
# Bulk Modulus (GPa) = 38.49310 65.96371 52.22841
# Shear Modulus (GPa) = 25.18644 40.18497 32.68570
#
# Velocity S-wave (km/s) = 3.24836 4.10311 3.70050
# Velocity P-wave (km/s) = 5.49508 7.07693 6.33557
#
# Compressibility (1/GPa) = 0.02597868
#
# Stress axis : x y z
#
# Youngs Moduli (GPa) = 30.82466 144.74781 52.97512
#
# Poissons Ratio (x) = 0.45121 0.66141
# Poissons Ratio (y) = 0.09609 0.02763
# Poissons Ratio (z) = 0.38486 0.07549
#
# Static dielectric constant tensor:
#      x y z
#    x 2.058980 -0.102030 -0.025100 
#    y -0.102030 1.934570 -0.059440 
#    z -0.025100 -0.059440 2.026220 
# 
# From -- ./inp_files/47371.got.cif
#   From: 2010.05.17/outbox.cif.g08.bks.cpg/sg2_24_cif.got.tgz:47371.got - 2010.06.03 11:33:40.
