data_PCOD9046198
_publ_section_title
;
Structure prediction by ZEFSAII (Michael W. Deem and Ramdas Pophale) SiO2 
 PCOD9046198
Probable space group: P -1
;
_chemical_formula_sum "Si O2"
_cell_formula_units_Z 16
_cell_length_a 8.136735
_cell_length_b 16.105009
_cell_length_c 7.569715
_cell_angle_alpha 109.041586
_cell_angle_beta 47.977236
_cell_angle_gamma 109.420298
_cell_volume 687.323319
_symmetry_space_group_name_H-M "P -1"
_symmetry_group_IT_number 2
_symmetry_cell_setting 'triclinic'
loop_
_space_group_symop_operation_xyz
x,y,z
-x,-y,-z
loop_
_atom_site_type_symbol
_atom_site_label
_atom_site_fract_x
_atom_site_fract_y
_atom_site_fract_z
Si Si1 0.896254 0.221811 0.627495
Si Si2 0.311531 0.370673 0.534376
Si Si3 0.986129 0.496280 0.295538
Si Si4 0.586865 0.360358 0.996238
Si Si5 0.663709 0.992618 0.152870
Si Si6 0.961139 0.848341 0.901900
Si Si7 0.765671 0.031205 0.710906
Si Si8 0.212106 0.341345 0.965850
O O1 0.690222 0.275839 0.792019
O O2 0.988180 0.186522 0.354240
O O3 0.813217 0.138022 0.753818
O O4 0.098689 0.292211 0.607526
O O5 0.359949 0.367596 0.703926
O O6 0.220137 0.460517 0.601700
O O7 0.502495 0.351471 0.251140
O O8 0.214577 0.557095 0.106819
O O9 0.000000 0.500000 0.500000
O O10 0.008648 0.397641 0.150087
O O11 0.370522 0.368948 0.039749
O O12 0.398808 0.992794 0.355863
O O13 0.816677 0.084157 0.157959
O O14 0.765369 0.909032 0.093135
O O15 0.683929 0.985009 0.921016
O O16 0.887833 0.762046 0.014061
O O17 0.000000 0.000000 0.500000
#
# Coordination Sequence:
#
# PCOD9046198 Si02
#       8
#     2   2   2   2   2   2   2   2
#     4  11  23  44  67  97 142 183 224 295 347 415
#     4  11  25  44  69 102 138 180 232 284 343 419
#     4  11  23  46  72  99 146 181 224 287 350 413
#     4  11  24  46  67  99 141 182 231 284 347 415
#     4  10  24  42  68  98 136 184 237 291 353 425
#     4  11  22  46  67 100 142 183 237 292 356 421
#     4  11  22  42  66  98 136 182 233 293 351 415
#     4  12  23  44  72 101 137 184 233 288 348 416
#
# _framework density 23.278711000000001
#
# number of rings (size 3 to 8) (size 9 to 14) (size 15 to 20)
#    0.000    1.000    3.750    3.000    0.000    1.000 
#   15.750    0.000    0.000    0.000    0.000    0.000 
#    0.000    0.000    0.000    0.000    0.000    0.000 
#
# Total GULP energy -89548.780066 kJ/mol
# GULP energy per Si atom -5596.798754 kJ/mol
# Density = 2.322573 g / cm^3
# Si number density = 23.278711 Si / 1000 Ang^3
#
#
#
# Elastic Constant Matrix: (Units=GPa)
#
#
# Indices 1 2 3 4 5 6 
#
# 1 62.0041 32.0674 19.4128 7.0639 -7.5832 -1.7202
# 2 32.0674 138.0639 19.8670 4.6123 -10.3396 -22.4106
# 3 19.4128 19.8670 85.8242 -1.3993 9.7114 -10.6485
# 4 7.0639 4.6123 -1.3993 35.2918 -6.7195 3.4388
# 5 -7.5832 -10.3396 9.7114 -6.7195 42.7106 -4.8161
# 6 -1.7202 -22.4106 -10.6485 3.4388 -4.8161 26.5846
#
#
#
# Elastic Compliance Matrix: (Units=1/GPa)
#
#
# Indices 1 2 3 4 5 6 
#
# 1 0.020284 -0.004304 -0.004344 -0.002837 0.002741 -0.003193
# 2 -0.004304 0.009913 -0.000583 -0.000783 0.002594 0.008416
# 3 -0.004344 -0.000583 0.013670 0.000430 -0.003501 0.004013
# 4 -0.002837 -0.000783 0.000430 0.030071 0.003497 -0.003928
# 5 0.002741 0.002594 -0.003501 0.003497 0.026472 0.005305
# 6 -0.003193 0.008416 0.004013 -0.003928 0.005305 0.047580
#
#
# Mechanical properties :
#
#
# Convention : Reuss Voigt Hill
#
# Bulk Modulus (GPa) = 39.36389 47.62074 43.49232
# Shear Modulus (GPa) = 28.58402 35.22039 31.90221
#
# Velocity S-wave (km/s) = 3.50795 3.89393 3.70597
# Velocity P-wave (km/s) = 5.77530 6.38108 6.08573
#
# Compressibility (1/GPa) = 0.02540399
#
# Stress axis : x y z
#
# Youngs Moduli (GPa) = 49.29978 100.87570 73.15069
#
# Poissons Ratio (x) = 0.43420 0.31778
# Poissons Ratio (y) = 0.21220 0.04267
# Poissons Ratio (z) = 0.21417 0.05884
#
# Static dielectric constant tensor:
#      x y z
#    x 1.923410 -0.069380 -0.063750 
#    y -0.069380 1.529550 0.099750 
#    z -0.063750 0.099750 1.963790 
# 
# From -- ./inp_files/208117.got.cif
#   From: 2010.05.17/outbox.cif.g08.bks.cpg/sg2_105_cif.got.tgz:208117.got - 2010.06.03 11:33:40.
