data_PCOD9046922
_publ_section_title
;
Structure prediction by ZEFSAII (Michael W. Deem and Ramdas Pophale) SiO2 
 PCOD9046922
Probable space group: P -1
;
_chemical_formula_sum "Si O2"
_cell_formula_units_Z 12
_cell_length_a 9.791928
_cell_length_b 5.444427
_cell_length_c 11.473927
_cell_angle_alpha 104.544877
_cell_angle_beta 121.443275
_cell_angle_gamma 71.054681
_cell_volume 491.057603
_symmetry_space_group_name_H-M "P -1"
_symmetry_group_IT_number 2
_symmetry_cell_setting 'triclinic'
loop_
_space_group_symop_operation_xyz
x,y,z
-x,-y,-z
loop_
_atom_site_type_symbol
_atom_site_label
_atom_site_fract_x
_atom_site_fract_y
_atom_site_fract_z
Si Si1 0.644822 0.742303 0.542667
Si Si2 0.422282 0.709856 0.640813
Si Si3 0.309437 0.581118 0.951654
Si Si4 0.115648 0.960845 0.366527
Si Si5 0.092952 0.734559 0.077377
Si Si6 0.237397 0.034476 0.789934
O O1 0.591851 0.660450 0.637413
O O2 0.611745 0.575604 0.396795
O O3 0.500000 0.000000 0.500000
O O4 0.828412 0.779682 0.619792
O O5 0.266439 0.830695 0.501042
O O6 0.390886 0.892830 0.760318
O O7 0.244762 0.849637 0.884044
O O8 0.239163 0.332705 0.851364
O O9 0.500000 0.500000 0.000000
O O10 0.263299 0.635821 0.071970
O O11 0.114396 0.801450 0.228296
O O12 0.937437 0.983669 0.344584
O O13 0.000000 0.500000 0.000000
O O14 0.000000 0.000000 0.000000
#
# Coordination Sequence:
#
# PCOD9046922 Si02
#       6
#     2   2   2   2   2   2
#     4   9  22  42  64 102 137 182 229 275 354 417
#     4  10  24  43  69 105 140 181 228 289 359 417
#     4  12  28  49  71 106 141 192 235 291 354 411
#     4  11  24  42  73 101 137 185 229 292 350 415
#     4  12  25  48  72 103 141 183 241 290 341 422
#     4  12  27  46  73 104 144 178 237 293 350 422
#
# _framework density 24.437052000000001
#
# number of rings (size 3 to 8) (size 9 to 14) (size 15 to 20)
#    0.000    1.000    3.333    1.000   11.667    3.333 
#    0.000    0.000    0.000    0.000    0.000    0.000 
#    0.000    0.000    0.000    0.000    0.000    0.000 
#
# Total GULP energy -67023.495847 kJ/mol
# GULP energy per Si atom -5585.291321 kJ/mol
# Density = 2.438143 g / cm^3
# Si number density = 24.437052 Si / 1000 Ang^3
#
#
#
# Elastic Constant Matrix: (Units=GPa)
#
#
# Indices 1 2 3 4 5 6 
#
# 1 117.9630 15.4253 7.5907 9.0662 14.0803 -6.5159
# 2 15.4253 66.3233 3.9068 -4.9172 1.2564 16.7953
# 3 7.5907 3.9068 46.9852 4.1086 -13.6677 14.2050
# 4 9.0662 -4.9172 4.1086 36.0551 -5.5268 5.4281
# 5 14.0803 1.2564 -13.6677 -5.5268 50.4632 13.8125
# 6 -6.5159 16.7953 14.2050 5.4281 13.8125 42.7407
#
#
#
# Elastic Compliance Matrix: (Units=1/GPa)
#
#
# Indices 1 2 3 4 5 6 
#
# 1 0.011223 -0.004681 -0.005719 -0.005239 -0.007473 0.008531
# 2 -0.004681 0.019415 0.004112 0.006150 0.006013 -0.012434
# 3 -0.005719 0.004112 0.031651 0.003550 0.015510 -0.018470
# 4 -0.005239 0.006150 0.003550 0.032582 0.008968 -0.011431
# 5 -0.007473 0.006013 0.015510 0.008968 0.032490 -0.020296
# 6 0.008531 -0.012434 -0.018470 -0.011431 -0.020296 0.043733
#
#
# Mechanical properties :
#
#
# Convention : Reuss Voigt Hill
#
# Bulk Modulus (GPa) = 20.11485 31.67969 25.89727
# Shear Modulus (GPa) = 24.97013 39.47506 32.22259
#
# Velocity S-wave (km/s) = 3.20005 4.02354 3.63519
# Velocity P-wave (km/s) = 4.68006 5.88023 5.31413
#
# Compressibility (1/GPa) = 0.04971451
#
# Stress axis : x y z
#
# Youngs Moduli (GPa) = 89.10197 51.50732 31.59482
#
# Poissons Ratio (x) = 0.24108 0.18069
# Poissons Ratio (y) = 0.41705 -0.12993
# Poissons Ratio (z) = 0.50956 -0.21182
#
# Static dielectric constant tensor:
#      x y z
#    x 2.031250 0.164910 -0.006530 
#    y 0.164910 2.271580 -0.064100 
#    z -0.006530 -0.064100 1.961400 
# 
# From -- ./inp_files/22684.got.cif
#   From: 2010.05.17/outbox.cif.g08.bks.cpg/sg2_12_cif.got.tgz:22684.got - 2010.06.03 11:33:40.
