data_PCOD9046733
_publ_section_title
;
Structure prediction by ZEFSAII (Michael W. Deem and Ramdas Pophale) SiO2 
 PCOD9046733
Probable space group: P -1
;
_chemical_formula_sum "Si O2"
_cell_formula_units_Z 16
_cell_length_a 9.584561
_cell_length_b 8.918417
_cell_length_c 14.679067
_cell_angle_alpha 79.309610
_cell_angle_beta 48.818875
_cell_angle_gamma 106.863826
_cell_volume 770.443806
_symmetry_space_group_name_H-M "P -1"
_symmetry_group_IT_number 2
_symmetry_cell_setting 'triclinic'
loop_
_space_group_symop_operation_xyz
x,y,z
-x,-y,-z
loop_
_atom_site_type_symbol
_atom_site_label
_atom_site_fract_x
_atom_site_fract_y
_atom_site_fract_z
Si Si1 0.265206 0.016060 0.623845
Si Si2 0.253356 0.637066 0.404739
Si Si3 0.425168 0.010505 0.374683
Si Si4 0.195810 0.029756 0.147382
Si Si5 0.485333 0.256519 0.164648
Si Si6 0.652627 0.424795 0.426674
Si Si7 0.143888 0.664081 0.137755
Si Si8 0.560603 0.401348 0.851235
O O1 0.242594 0.927429 0.544705
O O2 0.481651 0.219718 0.489180
O O3 0.348403 0.947668 0.678663
O O4 0.054721 0.021038 0.738587
O O5 0.270743 0.580014 0.504349
O O6 0.397794 0.616308 0.269926
O O7 0.000000 0.500000 0.500000
O O8 0.342803 0.849857 0.353758
O O9 0.452734 0.179842 0.289173
O O10 0.300614 0.097655 0.194945
O O11 0.205513 0.859840 0.128646
O O12 0.346461 0.209331 0.000022
O O13 0.465016 0.429660 0.144139
O O14 0.720969 0.307871 0.015765
O O15 0.500000 0.500000 0.500000
O O16 0.876775 0.539264 0.258881
O O17 0.237552 0.579288 0.177741
#
# Coordination Sequence:
#
# PCOD9046733 Si02
#       8
#     2   2   2   2   2   2   2   2
#     4  10  24  43  67  94 134 177 212 270 326 395
#     4  11  23  41  69  93 130 170 215 273 321 382
#     4  10  24  45  64  96 134 172 221 264 329 387
#     4  11  22  41  69  94 133 173 220 266 332 386
#     4  11  25  40  68  97 130 174 224 271 320 385
#     4  11  23  41  66  97 130 169 216 263 329 385
#     4  11  21  42  69  95 135 170 218 274 327 384
#     4  11  24  41  65 100 132 169 221 275 325 380
#
# _framework density 20.767251000000002
#
# number of rings (size 3 to 8) (size 9 to 14) (size 15 to 20)
#    0.000    1.250    2.500    4.500    3.500    4.500 
#    2.250    3.125    0.000    0.000    0.000    0.000 
#    0.000    0.000    0.000    0.000    0.000    0.000 
#
# Total GULP energy -89376.313416 kJ/mol
# GULP energy per Si atom -5586.019588 kJ/mol
# Density = 2.071998 g / cm^3
# Si number density = 20.767251 Si / 1000 Ang^3
#
#
#
# Elastic Constant Matrix: (Units=GPa)
#
#
# Indices 1 2 3 4 5 6 
#
# 1 75.3406 43.1318 58.4530 -6.9760 -4.8296 -24.4905
# 2 43.1318 110.4681 38.0057 10.2347 -7.1193 -20.8279
# 3 58.4530 38.0057 94.2292 3.9549 -18.5174 -4.4732
# 4 -6.9760 10.2347 3.9549 32.4199 1.0778 0.1477
# 5 -4.8296 -7.1193 -18.5174 1.0778 39.1548 2.6915
# 6 -24.4905 -20.8279 -4.4732 0.1477 2.6915 38.7353
#
#
#
# Elastic Compliance Matrix: (Units=1/GPa)
#
#
# Indices 1 2 3 4 5 6 
#
# 1 0.048111 -0.006457 -0.028935 0.016177 -0.011040 0.024311
# 2 -0.006457 0.012868 -0.000587 -0.005433 0.001229 0.002704
# 3 -0.028935 -0.000587 0.030889 -0.010146 0.012302 -0.015859
# 4 0.016177 -0.005433 -0.010146 0.037425 -0.005258 0.006357
# 5 -0.011040 0.001229 0.012302 -0.005258 0.030847 -0.007022
# 6 0.024311 0.002704 -0.015859 0.006357 -0.007022 0.041273
#
#
# Mechanical properties :
#
#
# Convention : Reuss Voigt Hill
#
# Bulk Modulus (GPa) = 50.22365 62.13544 56.17954
# Shear Modulus (GPa) = 17.85670 31.42516 24.64093
#
# Velocity S-wave (km/s) = 2.93550 3.89422 3.44834
# Velocity P-wave (km/s) = 5.97713 7.08553 6.55480
#
# Compressibility (1/GPa) = 0.01991094
#
# Stress axis : x y z
#
# Youngs Moduli (GPa) = 20.78506 77.71405 32.37411
#
# Poissons Ratio (x) = 0.50177 0.93675
# Poissons Ratio (y) = 0.13420 0.01899
# Poissons Ratio (z) = 0.60142 0.04559
#
# Static dielectric constant tensor:
#      x y z
#    x 1.713840 0.058120 -0.004460 
#    y 0.058120 1.971400 0.000050 
#    z -0.004460 0.000050 1.744910 
# 
# From -- ./inp_files/494819.got.cif
#   From: 2010.05.17/outbox.cif.g08.bks.cpg/sg2_248_cif.got.tgz:494819.got - 2010.06.03 11:33:40.
