data_PCOD9046033
_publ_section_title
;
Structure prediction by ZEFSAII (Michael W. Deem and Ramdas Pophale) SiO2 
 PCOD9046033
Probable space group: P -1
;
_chemical_formula_sum "Si O2"
_cell_formula_units_Z 12
_cell_length_a 8.915907
_cell_length_b 11.286557
_cell_length_c 11.626029
_cell_angle_alpha 36.080131
_cell_angle_beta 128.348529
_cell_angle_gamma 136.256113
_cell_volume 474.465848
_symmetry_space_group_name_H-M "P -1"
_symmetry_group_IT_number 2
_symmetry_cell_setting 'triclinic'
loop_
_space_group_symop_operation_xyz
x,y,z
-x,-y,-z
loop_
_atom_site_type_symbol
_atom_site_label
_atom_site_fract_x
_atom_site_fract_y
_atom_site_fract_z
Si Si1 0.148727 0.255859 0.567361
Si Si2 0.620605 0.332335 0.804390
Si Si3 0.711881 0.973310 0.492740
Si Si4 0.370970 0.613534 0.782471
Si Si5 0.019185 0.783615 0.226546
Si Si6 0.524518 0.006148 0.821223
O O1 0.383266 0.297164 0.686822
O O2 0.199070 0.431157 0.347497
O O3 0.055007 0.286790 0.622149
O O4 0.947118 0.024317 0.607292
O O5 0.646734 0.148725 0.880845
O O6 0.597602 0.254266 0.986929
O O7 0.679190 0.198487 0.324922
O O8 0.653808 0.932669 0.362936
O O9 0.536032 0.758977 0.646372
O O10 0.145522 0.420248 0.773611
O O11 0.500000 0.500000 0.000000
O O12 0.278889 0.887517 0.259049
O O13 0.000000 0.000000 0.000000
#
# Coordination Sequence:
#
# PCOD9046033 Si02
#       6
#     2   2   2   2   2   2
#     4  11  23  43  66  98 131 180 223 278 334 404
#     4  10  24  42  66  92 138 180 222 272 340 406
#     4  11  24  42  66 102 140 173 228 280 336 401
#     4  11  24  40  66 106 140 172 222 289 342 389
#     4  12  22  41  73  98 129 181 230 276 333 399
#     4  11  23  43  66  98 131 180 223 278 334 404
#
# _framework density 25.291599999999999
#
# number of rings (size 3 to 8) (size 9 to 14) (size 15 to 20)
#    0.000    1.000    1.667    6.000    0.000    3.333 
#    0.000    0.000    0.000    0.000    0.000    0.000 
#    0.000    0.000    0.000    0.000    0.000    0.000 
#
# Total GULP energy -67027.764694 kJ/mol
# GULP energy per Si atom -5585.647058 kJ/mol
# Density = 2.523403 g / cm^3
# Si number density = 25.291600 Si / 1000 Ang^3
#
#
#
# Elastic Constant Matrix: (Units=GPa)
#
#
# Indices 1 2 3 4 5 6 
#
# 1 88.3856 19.9394 37.2778 -6.1620 -26.8337 23.7330
# 2 19.9394 98.2279 37.5647 1.0711 -13.6268 10.3931
# 3 37.2778 37.5647 176.0354 -1.5680 -25.5605 10.5297
# 4 -6.1620 1.0711 -1.5680 43.5682 1.0866 4.6592
# 5 -26.8337 -13.6268 -25.5605 1.0866 45.6082 -6.9944
# 6 23.7330 10.3931 10.5297 4.6592 -6.9944 30.2581
#
#
#
# Elastic Compliance Matrix: (Units=1/GPa)
#
#
# Indices 1 2 3 4 5 6 
#
# 1 0.017985 -0.000683 -0.001832 0.003601 0.007413 -0.012075
# 2 -0.000683 0.011536 -0.001947 -0.000240 0.001600 -0.002342
# 3 -0.001832 -0.001947 0.006785 -0.000049 0.002184 0.000257
# 4 0.003601 -0.000240 -0.000049 0.024131 0.000474 -0.006331
# 5 0.007413 0.001600 0.002184 0.000474 0.027862 -0.000756
# 6 -0.012075 -0.002342 0.000257 -0.006331 -0.000756 0.044035
#
#
# Mechanical properties :
#
#
# Convention : Reuss Voigt Hill
#
# Bulk Modulus (GPa) = 36.52028 61.35696 48.93862
# Shear Modulus (GPa) = 33.24768 41.74470 37.49619
#
# Velocity S-wave (km/s) = 3.62964 4.06709 3.85457
# Velocity P-wave (km/s) = 5.66010 6.80936 6.26116
#
# Compressibility (1/GPa) = 0.02738205
#
# Stress axis : x y z
#
# Youngs Moduli (GPa) = 55.60221 86.68512 147.37680
#
# Poissons Ratio (x) = 0.05924 0.26999
# Poissons Ratio (y) = 0.03800 0.28689
# Poissons Ratio (z) = 0.10186 0.16875
#
# Static dielectric constant tensor:
#      x y z
#    x 2.141220 -0.122730 0.029960 
#    y -0.122730 2.032450 0.005800 
#    z 0.029960 0.005800 2.037140 
# 
# From -- ./inp_files/391878.got.cif
#   From: 2010.05.17/outbox.cif.g08.bks.cpg/sg2_196_cif.got.tgz:391878.got - 2010.06.03 11:33:40.
