data_PCOD9046470
_publ_section_title
;
Structure prediction by ZEFSAII (Michael W. Deem and Ramdas Pophale) SiO2 
 PCOD9046470
Probable space group: P -1
;
_chemical_formula_sum "Si O2"
_cell_formula_units_Z 11
_cell_length_a 6.514435
_cell_length_b 13.385032
_cell_length_c 9.503007
_cell_angle_alpha 136.854225
_cell_angle_beta 54.117099
_cell_angle_gamma 100.791540
_cell_volume 413.645876
_symmetry_space_group_name_H-M "P -1"
_symmetry_group_IT_number 2
_symmetry_cell_setting 'triclinic'
loop_
_space_group_symop_operation_xyz
x,y,z
-x,-y,-z
loop_
_atom_site_type_symbol
_atom_site_label
_atom_site_fract_x
_atom_site_fract_y
_atom_site_fract_z
Si Si1 0.955146 0.149270 0.772680
Si Si2 0.441323 0.231109 0.730837
Si Si3 0.122696 0.340376 0.483164
Si Si4 0.000000 0.500000 0.000000
Si Si5 0.936944 0.964759 0.832897
Si Si6 0.419583 0.416856 0.195291
O O1 0.259092 0.137016 0.668197
O O2 0.764367 0.338036 0.991298
O O3 0.000000 0.000000 0.500000
O O4 0.820015 0.122533 0.942984
O O5 0.762244 0.140945 0.469330
O O6 0.282965 0.394387 0.873786
O O7 0.406875 0.276817 0.956134
O O8 0.137671 0.379842 0.679659
O O9 0.220285 0.149513 0.227052
O O10 0.805959 0.424434 0.628243
O O11 0.291079 0.413790 0.395250
O O12 0.000000 0.000000 0.000000
#
# Coordination Sequence:
#
# PCOD9046470 Si02
#       6
#     2   2   2   1   2   2
#     4  12  25  43  71 100 139 190 222 283 350 415
#     4  11  25  45  67 103 139 181 232 281 347 407
#     4  10  24  48  70 104 137 181 234 288 338 408
#     4  10  24  42  74 100 132 182 228 294 330 404
#     4  12  27  43  71 104 144 179 226 292 343 413
#     4  10  24  47  73  96 140 182 233 284 338 416
#
# _framework density 26.592796
#
# number of rings (size 3 to 8) (size 9 to 14) (size 15 to 20)
#    0.000    1.091    1.818    2.727    7.636    2.182 
#    0.000    3.636    0.000    0.000    0.000    0.000 
#    0.000    0.000    0.000    0.000    0.000    0.000 
#
# Total GULP energy -61395.808024 kJ/mol
# GULP energy per Si atom -5581.437093 kJ/mol
# Density = 2.653227 g / cm^3
# Si number density = 26.592796 Si / 1000 Ang^3
#
#
#
# Elastic Constant Matrix: (Units=GPa)
#
#
# Indices 1 2 3 4 5 6 
#
# 1 76.4920 -4.5161 8.0991 -7.4585 -17.9539 -7.8439
# 2 -4.5161 111.4383 25.7515 -7.6821 14.1788 -30.5314
# 3 8.0991 25.7515 76.3202 -12.3282 20.8425 -13.5759
# 4 -7.4585 -7.6821 -12.3282 63.3918 -16.7058 0.3050
# 5 -17.9539 14.1788 20.8425 -16.7058 70.2538 -5.8951
# 6 -7.8439 -30.5314 -13.5759 0.3050 -5.8951 42.1549
#
#
#
# Elastic Compliance Matrix: (Units=1/GPa)
#
#
# Indices 1 2 3 4 5 6 
#
# 1 0.015418 0.001860 -0.002516 0.002942 0.005358 0.004133
# 2 0.001860 0.011978 -0.002547 0.001071 -0.000247 0.008159
# 3 -0.002516 -0.002547 0.016040 0.001350 -0.004380 0.002230
# 4 0.002942 0.001071 0.001350 0.017697 0.004534 0.002264
# 5 0.005358 -0.000247 -0.004380 0.004534 0.018192 0.001919
# 6 0.004133 0.008159 0.002230 0.002264 0.001919 0.031371
#
#
# Mechanical properties :
#
#
# Convention : Reuss Voigt Hill
#
# Bulk Modulus (GPa) = 27.00612 35.87994 31.44303
# Shear Modulus (GPa) = 38.62633 50.82116 44.72374
#
# Velocity S-wave (km/s) = 3.81532 4.37634 4.10542
# Velocity P-wave (km/s) = 5.43933 6.24965 5.85852
#
# Compressibility (1/GPa) = 0.03702864
#
# Stress axis : x y z
#
# Youngs Moduli (GPa) = 64.86005 83.48533 62.34424
#
# Poissons Ratio (x) = -0.15527 0.15688
# Poissons Ratio (y) = -0.12063 0.15880
# Poissons Ratio (z) = 0.16321 0.21265
#
# Static dielectric constant tensor:
#      x y z
#    x 2.017260 -0.024100 -0.049300 
#    y -0.024100 2.166640 0.086240 
#    z -0.049300 0.086240 2.046830 
# 
# From -- ./inp_files/17912.got.cif
#   From: 2010.05.17/outbox.cif.g08.bks.cpg/sg2_9_cif.got.tgz:17912.got - 2010.06.03 11:33:40.
