data_PCOD9046917
_publ_section_title
;
Structure prediction by ZEFSAII (Michael W. Deem and Ramdas Pophale) SiO2 
 PCOD9046917
Probable space group: P -1
;
_chemical_formula_sum "Si O2"
_cell_formula_units_Z 14
_cell_length_a 7.463360
_cell_length_b 15.738003
_cell_length_c 11.929646
_cell_angle_alpha 134.062246
_cell_angle_beta 94.234883
_cell_angle_gamma 54.491330
_cell_volume 676.680597
_symmetry_space_group_name_H-M "P -1"
_symmetry_group_IT_number 2
_symmetry_cell_setting 'triclinic'
loop_
_space_group_symop_operation_xyz
x,y,z
-x,-y,-z
loop_
_atom_site_type_symbol
_atom_site_label
_atom_site_fract_x
_atom_site_fract_y
_atom_site_fract_z
Si Si1 0.435533 0.017901 0.695695
Si Si2 0.059731 0.765069 0.529135
Si Si3 0.302716 0.323962 0.881814
Si Si4 0.760144 0.300468 0.288025
Si Si5 0.744285 0.827462 0.924783
Si Si6 0.626098 0.633385 0.821052
Si Si7 0.276084 0.842025 0.431487
O O1 0.331854 0.167172 0.740518
O O2 0.373987 0.914755 0.562204
O O3 0.293127 0.107793 0.891044
O O4 0.748352 0.896314 0.612028
O O5 0.105177 0.807462 0.689524
O O6 0.189374 0.571988 0.364514
O O7 0.212901 0.767402 0.445640
O O8 0.496171 0.291916 0.772546
O O9 0.386259 0.323770 0.010281
O O10 0.000000 0.500000 0.000000
O O11 0.500000 0.500000 0.500000
O O12 0.651273 0.261747 0.156396
O O13 0.980371 0.270786 0.209210
O O14 0.737229 0.689779 0.808879
O O15 0.500000 0.000000 0.000000
O O16 0.000000 0.000000 0.500000
#
# Coordination Sequence:
#
# PCOD9046917 Si02
#       7
#     2   2   2   2   2   2   2
#     4  11  25  45  69 101 140 174 233 280 340 408
#     4  11  24  45  69 104 137 182 223 285 341 405
#     4  11  25  47  71  99 139 181 228 287 338 398
#     4  10  24  43  69 104 137 171 228 277 338 406
#     4  11  24  44  72 102 135 186 217 277 352 398
#     4  10  26  44  71 101 141 173 235 282 335 402
#     4  12  27  43  72  99 134 187 231 274 347 400
#
# _framework density 20.689226999999999
#
# number of rings (size 3 to 8) (size 9 to 14) (size 15 to 20)
#    0.000    1.143    2.857    1.286    6.000   10.286 
#    0.000    0.000    0.000    0.000    0.000    0.000 
#    0.000    0.000    0.000    0.000    0.000    0.000 
#
# Total GULP energy -78259.637561 kJ/mol
# GULP energy per Si atom -5589.974111 kJ/mol
# Density = 2.064214 g / cm^3
# Si number density = 20.689227 Si / 1000 Ang^3
#
#
#
# Elastic Constant Matrix: (Units=GPa)
#
#
# Indices 1 2 3 4 5 6 
#
# 1 272.8202 166.9283 71.0490 36.7201 3.5406 30.0460
# 2 166.9283 179.6296 49.4292 29.8936 17.6373 29.5226
# 3 71.0490 49.4292 88.3004 -2.6488 -26.4533 5.0327
# 4 36.7201 29.8936 -2.6488 54.8504 20.5169 9.5425
# 5 3.5406 17.6373 -26.4533 20.5169 62.4895 4.4654
# 6 30.0460 29.5226 5.0327 9.5425 4.4654 51.1915
#
#
#
# Elastic Compliance Matrix: (Units=1/GPa)
#
#
# Indices 1 2 3 4 5 6 
#
# 1 0.009515 -0.007563 -0.003110 -0.002768 0.001224 -0.000508
# 2 -0.007563 0.014604 -0.003320 -0.000789 -0.004618 -0.003107
# 3 -0.003110 -0.003320 0.018141 0.001525 0.008224 0.000955
# 4 -0.002768 -0.000789 0.001525 0.023345 -0.006507 -0.001854
# 5 0.001224 -0.004618 0.008224 -0.006507 0.022829 0.000358
# 6 -0.000508 -0.003107 0.000955 -0.001854 0.000358 0.021845
#
#
# Mechanical properties :
#
#
# Convention : Reuss Voigt Hill
#
# Bulk Modulus (GPa) = 70.05429 123.95146 97.00288
# Shear Modulus (GPa) = 34.95952 50.59586 42.77769
#
# Velocity S-wave (km/s) = 4.11511 4.95058 4.55205
# Velocity P-wave (km/s) = 7.51749 9.62906 8.63804
#
# Compressibility (1/GPa) = 0.01427464
#
# Stress axis : x y z
#
# Youngs Moduli (GPa) = 105.09289 68.47558 55.12381
#
# Poissons Ratio (x) = 0.51786 0.17145
# Poissons Ratio (y) = 0.79478 0.18300
# Poissons Ratio (z) = 0.32687 0.22732
#
# Static dielectric constant tensor:
#      x y z
#    x 1.725460 -0.013410 0.027770 
#    y -0.013410 1.748960 -0.012300 
#    z 0.027770 -0.012300 1.734370 
# 
# From -- ./inp_files/40261.got.cif
#   From: 2010.05.17/outbox.cif.g08.bks.cpg/sg2_21_cif.got.tgz:40261.got - 2010.06.03 11:33:40.
