data_PCOD9046267
_publ_section_title
;
Structure prediction by ZEFSAII (Michael W. Deem and Ramdas Pophale) SiO2 
 PCOD9046267
Probable space group: P -1
;
_chemical_formula_sum "Si O2"
_cell_formula_units_Z 16
_cell_length_a 26.509554
_cell_length_b 5.268310
_cell_length_c 11.300352
_cell_angle_alpha 120.050703
_cell_angle_beta 33.748826
_cell_angle_gamma 121.807457
_cell_volume 738.547939
_symmetry_space_group_name_H-M "P -1"
_symmetry_group_IT_number 2
_symmetry_cell_setting 'triclinic'
loop_
_space_group_symop_operation_xyz
x,y,z
-x,-y,-z
loop_
_atom_site_type_symbol
_atom_site_label
_atom_site_fract_x
_atom_site_fract_y
_atom_site_fract_z
Si Si1 0.008227 0.817021 0.202591
Si Si2 0.438179 0.183020 0.091407
Si Si3 0.409867 0.717577 0.833805
Si Si4 0.946931 0.478659 0.722272
Si Si5 0.269087 0.625635 0.867080
Si Si6 0.846230 0.503244 0.287294
Si Si7 0.737518 0.863903 0.416400
Si Si8 0.419315 0.109784 0.613724
O O1 0.905700 0.684168 0.320120
O O2 0.013996 0.725387 0.306967
O O3 0.037088 0.167791 0.193198
O O4 0.081606 0.650494 0.959928
O O5 0.358061 0.227855 0.346536
O O6 0.500000 0.500000 0.000000
O O7 0.500000 0.000000 0.000000
O O8 0.398082 0.961177 0.008882
O O9 0.335910 0.703657 0.868284
O O10 0.392614 0.362153 0.809171
O O11 0.520351 0.780109 0.595737
O O12 0.000000 0.500000 0.500000
O O13 0.835604 0.350792 0.900114
O O14 0.267543 0.301407 0.738784
O O15 0.326134 0.859964 0.714968
O O16 0.809647 0.728082 0.323698
O O17 0.768114 0.222706 0.422856
O O18 0.500000 0.000000 0.500000
#
# Coordination Sequence:
#
# PCOD9046267 Si02
#       8
#     2   2   2   2   2   2   2   2
#     4  11  23  46  70 100 142 178 236 289 356 411
#     4  12  29  48  69 103 148 183 230 294 355 417
#     4  10  24  42  69  99 136 181 230 281 360 408
#     4  12  26  45  68 105 142 185 230 293 355 416
#     4  11  24  40  71  96 139 175 238 282 345 420
#     4  11  23  44  74  98 135 186 237 293 340 421
#     4  12  25  44  71 106 136 186 243 289 348 419
#     4   9  21  41  69  96 130 177 230 278 344 413
#
# _framework density 21.664131000000001
#
# number of rings (size 3 to 8) (size 9 to 14) (size 15 to 20)
#    0.000    1.000    2.500    2.625   12.250    4.000 
#    2.250    0.000    0.000    0.000    0.000    0.000 
#    0.000    0.000    0.000    0.000    0.000    0.000 
#
# Total GULP energy -89360.014730 kJ/mol
# GULP energy per Si atom -5585.000921 kJ/mol
# Density = 2.161482 g / cm^3
# Si number density = 21.664131 Si / 1000 Ang^3
#
#
#
# Elastic Constant Matrix: (Units=GPa)
#
#
# Indices 1 2 3 4 5 6 
#
# 1 118.3269 29.8537 14.0521 -0.8096 -4.4873 6.5715
# 2 29.8537 93.8361 -4.1170 -15.5962 -7.0052 -1.2981
# 3 14.0521 -4.1170 62.9558 -10.0774 4.5336 16.8636
# 4 -0.8096 -15.5962 -10.0774 41.3534 -2.2419 -2.6952
# 5 -4.4873 -7.0052 4.5336 -2.2419 19.8710 1.5245
# 6 6.5715 -1.2981 16.8636 -2.6952 1.5245 38.0524
#
#
#
# Elastic Compliance Matrix: (Units=1/GPa)
#
#
# Indices 1 2 3 4 5 6 
#
# 1 0.009694 -0.003377 -0.002532 -0.001677 0.001452 -0.000844
# 2 -0.003377 0.013059 0.002135 0.005615 0.003963 0.000321
# 3 -0.002532 0.002135 0.019668 0.004873 -0.003163 -0.007735
# 4 -0.001677 0.005615 0.004873 0.027658 0.003599 0.000136
# 5 0.001452 0.003963 -0.003163 0.003599 0.053223 -0.000591
# 6 -0.000844 0.000321 -0.007735 0.000136 -0.000591 0.029897
#
#
# Mechanical properties :
#
#
# Convention : Reuss Voigt Hill
#
# Bulk Modulus (GPa) = 28.67473 39.41071 34.04272
# Shear Modulus (GPa) = 29.00709 35.54401 32.27555
#
# Velocity S-wave (km/s) = 3.66313 4.05493 3.86400
# Velocity P-wave (km/s) = 5.58177 6.33676 5.97121
#
# Compressibility (1/GPa) = 0.03487391
#
# Stress axis : x y z
#
# Youngs Moduli (GPa) = 103.15255 76.57808 50.84274
#
# Poissons Ratio (x) = 0.25863 0.12871
# Poissons Ratio (y) = 0.34839 -0.10856
# Poissons Ratio (z) = 0.26113 -0.16350
#
# Static dielectric constant tensor:
#      x y z
#    x 1.842640 -0.047130 0.056210 
#    y -0.047130 1.855170 -0.009430 
#    z 0.056210 -0.009430 1.803840 
# 
# From -- ./inp_files/476041.got.cif
#   From: 2010.05.17/outbox.cif.g08.bks.cpg/sg2_239_cif.got.tgz:476041.got - 2010.06.03 11:33:40.
