data_PCOD9046120
_publ_section_title
;
Structure prediction by ZEFSAII (Michael W. Deem and Ramdas Pophale) SiO2 
 PCOD9046120
Probable space group: P -1
;
_chemical_formula_sum "Si O2"
_cell_formula_units_Z 16
_cell_length_a 8.581692
_cell_length_b 15.205498
_cell_length_c 15.398669
_cell_angle_alpha 151.393123
_cell_angle_beta 106.410882
_cell_angle_gamma 91.252289
_cell_volume 746.734519
_symmetry_space_group_name_H-M "P -1"
_symmetry_group_IT_number 2
_symmetry_cell_setting 'triclinic'
loop_
_space_group_symop_operation_xyz
x,y,z
-x,-y,-z
loop_
_atom_site_type_symbol
_atom_site_label
_atom_site_fract_x
_atom_site_fract_y
_atom_site_fract_z
Si Si1 0.710462 0.068591 0.132439
Si Si2 0.141374 0.212336 0.642394
Si Si3 0.019918 0.315426 0.531727
Si Si4 0.399095 0.088211 0.471716
Si Si5 0.075912 0.739908 0.840246
Si Si6 0.641186 0.596881 0.689867
Si Si7 0.283696 0.181960 0.363653
Si Si8 0.767265 0.386333 0.881654
O O1 0.796426 0.182122 0.338794
O O2 0.871250 0.243195 0.237806
O O3 0.500000 0.000000 0.000000
O O4 0.692647 0.837808 0.932391
O O5 0.294915 0.169401 0.587939
O O6 0.036263 0.247975 0.574272
O O7 0.243429 0.433405 0.910322
O O8 0.000000 0.000000 0.500000
O O9 0.120599 0.581971 0.762908
O O10 0.137526 0.246291 0.429473
O O11 0.306384 0.056354 0.336421
O O12 0.635203 0.289969 0.689900
O O13 0.337165 0.845573 0.281890
O O14 0.845378 0.631633 0.728512
O O15 0.197391 0.002677 0.116747
O O16 0.500000 0.500000 0.500000
O O17 0.501817 0.409150 0.576306
O O18 0.000000 0.500000 0.000000
#
# Coordination Sequence:
#
# PCOD9046120 Si02
#       8
#     2   2   2   2   2   2   2   2
#     4  12  24  44  68 101 141 183 226 277 338 402
#     4  11  23  44  69  98 136 178 224 280 344 400
#     4  11  25  43  67 100 135 179 228 279 336 407
#     4  10  24  42  67  99 132 174 222 281 330 414
#     4  12  24  45  69  95 142 177 225 284 332 401
#     4  12  23  41  68  96 131 182 223 276 338 392
#     4  11  24  44  66  98 134 175 229 271 339 395
#     4  11  22  43  69  97 131 172 223 276 346 393
#
# _framework density 21.426622999999999
#
# number of rings (size 3 to 8) (size 9 to 14) (size 15 to 20)
#    0.000    0.750    3.750    4.125    0.000    3.000 
#    0.000    1.250    0.000    0.000    0.000    0.000 
#    0.000    0.000    0.000    0.000    0.000    0.000 
#
# Total GULP energy -89407.184027 kJ/mol
# GULP energy per Si atom -5587.949002 kJ/mol
# Density = 2.137786 g / cm^3
# Si number density = 21.426623 Si / 1000 Ang^3
#
#
#
# Elastic Constant Matrix: (Units=GPa)
#
#
# Indices 1 2 3 4 5 6 
#
# 1 43.2894 12.6633 24.8875 6.7624 15.6889 -11.2322
# 2 12.6633 88.3086 25.5812 19.5335 0.5786 -9.0120
# 3 24.8875 25.5812 123.4925 23.5532 -4.7628 -6.2547
# 4 6.7624 19.5335 23.5532 32.6168 -7.0018 -2.7482
# 5 15.6889 0.5786 -4.7628 -7.0018 39.1249 5.3243
# 6 -11.2322 -9.0120 -6.2547 -2.7482 5.3243 27.2549
#
#
#
# Elastic Compliance Matrix: (Units=1/GPa)
#
#
# Indices 1 2 3 4 5 6 
#
# 1 0.040225 -0.000482 -0.006715 -0.006065 -0.020512 0.018272
# 2 -0.000482 0.013774 -0.001239 -0.007367 -0.001985 0.003716
# 3 -0.006715 -0.001239 0.010701 -0.005028 0.003371 -0.001887
# 4 -0.006065 -0.007367 -0.005028 0.041768 0.009923 -0.003816
# 5 -0.020512 -0.001985 0.003371 0.009923 0.038009 -0.014761
# 6 0.018272 0.003716 -0.001887 -0.003816 -0.014761 0.047515
#
#
# Mechanical properties :
#
#
# Convention : Reuss Voigt Hill
#
# Bulk Modulus (GPa) = 20.90907 42.37270 31.64089
# Shear Modulus (GPa) = 22.24120 32.59657 27.41888
#
# Velocity S-wave (km/s) = 3.22532 3.90463 3.58112
# Velocity P-wave (km/s) = 4.86312 6.33615 5.64786
#
# Compressibility (1/GPa) = 0.04782613
#
# Stress axis : x y z
#
# Youngs Moduli (GPa) = 24.86036 72.60105 93.44716
#
# Poissons Ratio (x) = 0.03500 0.62754
# Poissons Ratio (y) = 0.01198 0.11581
# Poissons Ratio (z) = 0.16695 0.08998
#
# Static dielectric constant tensor:
#      x y z
#    x 1.811860 -0.016400 0.031030 
#    y -0.016400 1.800190 -0.021610 
#    z 0.031030 -0.021610 1.778350 
# 
# From -- ./inp_files/48144.got.cif
#   From: 2010.05.17/outbox.cif.g08.bks.cpg/sg2_25_cif.got.tgz:48144.got - 2010.06.03 11:33:40.
