data_PCOD9046307
_publ_section_title
;
Structure prediction by ZEFSAII (Michael W. Deem and Ramdas Pophale) SiO2 
 PCOD9046307
Probable space group: P -1
;
_chemical_formula_sum "Si O2"
_cell_formula_units_Z 16
_cell_length_a 18.994272
_cell_length_b 11.097377
_cell_length_c 22.294012
_cell_angle_alpha 153.647445
_cell_angle_beta 20.073305
_cell_angle_gamma 150.704971
_cell_volume 701.494218
_symmetry_space_group_name_H-M "P -1"
_symmetry_group_IT_number 2
_symmetry_cell_setting 'triclinic'
loop_
_space_group_symop_operation_xyz
x,y,z
-x,-y,-z
loop_
_atom_site_type_symbol
_atom_site_label
_atom_site_fract_x
_atom_site_fract_y
_atom_site_fract_z
Si Si1 0.316958 0.005667 0.098481
Si Si2 0.968562 0.848171 0.394592
Si Si3 0.108435 0.839843 0.684673
Si Si4 0.210363 0.418623 0.269580
Si Si5 0.331159 0.541290 0.605807
Si Si6 0.921552 0.540539 0.013455
Si Si7 0.077338 0.293166 0.100977
Si Si8 0.483136 0.841782 0.298329
O O1 0.109736 0.032101 0.314290
O O2 0.320405 0.233939 0.144756
O O3 0.253651 0.713177 0.983556
O O4 0.500000 0.000000 0.000000
O O5 0.735167 0.722590 0.502526
O O6 0.056928 0.566618 0.204483
O O7 0.000000 0.000000 0.500000
O O8 0.307405 0.770797 0.459279
O O9 0.888048 0.750206 0.784954
O O10 0.059755 0.709904 0.730749
O O11 0.152786 0.170924 0.802183
O O12 0.366522 0.716819 0.274729
O O13 0.000000 0.500000 0.500000
O O14 0.500000 0.500000 0.500000
O O15 0.424785 0.831236 0.628609
O O16 0.125258 0.562718 0.818332
O O17 0.000000 0.500000 0.000000
O O18 0.320144 0.301299 0.918882
O O19 0.000000 0.000000 0.000000
#
# Coordination Sequence:
#
# PCOD9046307 Si02
#       8
#     2   2   2   2   2   2   2   2
#     4  11  24  45  70 102 146 185 234 303 368 427
#     4  11  27  45  71 103 148 185 234 307 361 430
#     4  11  24  43  74 105 138 189 241 298 362 435
#     4  10  24  42  70 106 139 183 245 297 357 435
#     4  11  24  44  69 102 142 187 239 298 355 432
#     4  11  21  43  72 102 144 183 240 303 355 433
#     4  12  24  50  68 104 149 183 244 299 362 432
#     4  11  24  44  72 102 139 187 235 295 364 426
#
# _framework density 22.808457000000001
#
# number of rings (size 3 to 8) (size 9 to 14) (size 15 to 20)
#    0.000    1.000    3.750    2.250    8.750    3.000 
#    2.250    0.000    0.000    0.000    0.000    0.000 
#    0.000    0.000    0.000    0.000    0.000    0.000 
#
# Total GULP energy -89340.794744 kJ/mol
# GULP energy per Si atom -5583.799672 kJ/mol
# Density = 2.275654 g / cm^3
# Si number density = 22.808457 Si / 1000 Ang^3
#
#
#
# Elastic Constant Matrix: (Units=GPa)
#
#
# Indices 1 2 3 4 5 6 
#
# 1 92.0067 36.6825 6.1442 -13.2169 6.7982 18.8250
# 2 36.6825 107.7848 17.8191 -12.2136 10.5734 39.0165
# 3 6.1442 17.8191 58.2847 -11.2012 0.7197 3.1072
# 4 -13.2169 -12.2136 -11.2012 34.5574 2.7077 3.2550
# 5 6.7982 10.5734 0.7197 2.7077 40.8981 -3.5316
# 6 18.8250 39.0165 3.1072 3.2550 -3.5316 54.2714
#
#
#
# Elastic Compliance Matrix: (Units=1/GPa)
#
#
# Indices 1 2 3 4 5 6 
#
# 1 0.013421 -0.002784 0.000548 0.004785 -0.002106 -0.003109
# 2 -0.002784 0.015592 -0.002907 0.004883 -0.004763 -0.010680
# 3 0.000548 -0.002907 0.018977 0.005285 0.000020 0.000498
# 4 0.004785 0.004883 0.005285 0.035359 -0.005176 -0.007930
# 5 -0.002106 -0.004763 0.000020 -0.005176 0.026911 0.006215
# 6 -0.003109 -0.010680 0.000498 -0.007930 0.006215 0.028034
#
#
# Mechanical properties :
#
#
# Convention : Reuss Voigt Hill
#
# Bulk Modulus (GPa) = 26.52221 42.15197 34.33709
# Shear Modulus (GPa) = 31.02708 39.10740 35.06724
#
# Velocity S-wave (km/s) = 3.69227 4.14527 3.92531
# Velocity P-wave (km/s) = 5.46174 6.43677 5.96919
#
# Compressibility (1/GPa) = 0.03770425
#
# Stress axis : x y z
#
# Youngs Moduli (GPa) = 74.50871 64.13373 52.69534
#
# Poissons Ratio (x) = 0.17854 -0.02885
# Poissons Ratio (y) = 0.20742 0.15318
# Poissons Ratio (z) = -0.04080 0.18643
#
# Static dielectric constant tensor:
#      x y z
#    x 1.903810 -0.027130 0.061150 
#    y -0.027130 1.841760 0.088460 
#    z 0.061150 0.088460 1.729730 
# 
# From -- ./inp_files/600130.got.cif
#   From: 2010.05.17/outbox.cif.g08.bks.cpg/sg2_301_cif.got.tgz:600130.got - 2010.06.03 11:33:40.
