data_PCOD9046447
_publ_section_title
;
Structure prediction by ZEFSAII (Michael W. Deem and Ramdas Pophale) SiO2 
 PCOD9046447
Probable space group: P -1
;
_chemical_formula_sum "Si O2"
_cell_formula_units_Z 13
_cell_length_a 15.376853
_cell_length_b 9.171210
_cell_length_c 15.415176
_cell_angle_alpha 57.069309
_cell_angle_beta 161.655523
_cell_angle_gamma 128.981925
_cell_volume 518.991404
_symmetry_space_group_name_H-M "P -1"
_symmetry_group_IT_number 2
_symmetry_cell_setting 'triclinic'
loop_
_space_group_symop_operation_xyz
x,y,z
-x,-y,-z
loop_
_atom_site_type_symbol
_atom_site_label
_atom_site_fract_x
_atom_site_fract_y
_atom_site_fract_z
Si Si1 0.500000 0.500000 0.000000
Si Si2 0.196276 0.357483 0.571539
Si Si3 0.101767 0.713271 0.361958
Si Si4 0.545230 0.760674 0.309310
Si Si5 0.776150 0.196912 0.370789
Si Si6 0.184423 0.040045 0.071155
Si Si7 0.061141 0.335598 0.160662
O O1 0.408255 0.453197 0.824152
O O2 0.462684 0.712557 0.888084
O O3 0.103006 0.518983 0.392561
O O4 0.342017 0.281352 0.660967
O O5 0.904641 0.202062 0.395442
O O6 0.996027 0.669264 0.379521
O O7 0.446718 0.875568 0.613775
O O8 0.884697 0.791806 0.088366
O O9 0.636379 0.646572 0.507943
O O10 0.697255 0.987293 0.400520
O O11 0.191858 0.714982 0.987440
O O12 0.037535 0.845100 0.939229
O O13 0.000000 0.000000 0.000000
O O14 0.000000 0.500000 0.000000
#
# Coordination Sequence:
#
# PCOD9046447 Si02
#       7
#     1   2   2   2   2   2   2
#     4  10  24  42  72  98 148 182 244 282 344 408
#     4  11  28  41  72 107 144 196 231 291 346 434
#     4  11  25  44  73 104 146 180 237 290 361 412
#     4  12  28  47  76 104 147 189 237 292 360 429
#     4  11  24  46  69 105 146 190 233 290 350 424
#     4  12  26  47  76 105 135 186 239 302 353 424
#     4  12  28  51  74 104 144 185 239 303 361 420
#
# _framework density 25.048583000000001
#
# number of rings (size 3 to 8) (size 9 to 14) (size 15 to 20)
#    0.000    0.615    3.077    3.231   17.231    0.615 
#    0.000    0.000    0.000    0.000    0.000    0.000 
#    0.000    0.000    0.000    0.000    0.000    0.000 
#
# Total GULP energy -72519.160383 kJ/mol
# GULP energy per Si atom -5578.396953 kJ/mol
# Density = 2.499157 g / cm^3
# Si number density = 25.048583 Si / 1000 Ang^3
#
#
#
# Elastic Constant Matrix: (Units=GPa)
#
#
# Indices 1 2 3 4 5 6 
#
# 1 192.3805 37.1263 27.8229 -13.6501 30.1077 -15.4506
# 2 37.1263 85.5757 19.0991 -41.8180 -10.0626 -7.0742
# 3 27.8229 19.0991 113.7416 -26.7406 7.7485 -7.2913
# 4 -13.6501 -41.8180 -26.7406 43.3236 0.8627 2.1374
# 5 30.1077 -10.0626 7.7485 0.8627 38.4760 -10.2103
# 6 -15.4506 -7.0742 -7.2913 2.1374 -10.2103 41.1749
#
#
#
# Elastic Compliance Matrix: (Units=1/GPa)
#
#
# Indices 1 2 3 4 5 6 
#
# 1 0.007216 -0.005363 -0.001234 -0.003536 -0.006697 0.000091
# 2 -0.005363 0.028242 0.002309 0.026525 0.011796 0.004797
# 3 -0.001234 0.002309 0.010808 0.008457 -0.000453 0.001296
# 4 -0.003536 0.026525 0.008457 0.052439 0.007876 0.003959
# 5 -0.006697 0.011796 -0.000453 0.007876 0.036365 0.008042
# 6 0.000091 0.004797 0.001296 0.003959 0.008042 0.027163
#
#
# Mechanical properties :
#
#
# Convention : Reuss Voigt Hill
#
# Bulk Modulus (GPa) = 26.53115 62.19938 44.36527
# Shear Modulus (GPa) = 27.26701 45.10486 36.18594
#
# Velocity S-wave (km/s) = 3.30292 4.24806 3.80495
# Velocity P-wave (km/s) = 5.01603 6.99620 6.08717
#
# Compressibility (1/GPa) = 0.03769154
#
# Stress axis : x y z
#
# Youngs Moduli (GPa) = 138.58086 35.40770 92.52462
#
# Poissons Ratio (x) = 0.18990 0.11416
# Poissons Ratio (y) = 0.74322 -0.21368
# Poissons Ratio (z) = 0.17098 -0.08177
#
# Static dielectric constant tensor:
#      x y z
#    x 1.978770 0.097490 -0.037960 
#    y 0.097490 1.969400 0.045920 
#    z -0.037960 0.045920 1.830680 
# 
# From -- ./inp_files/32874.got.cif
#   From: 2010.05.17/outbox.cif.g08.bks.cpg/sg2_17_cif.got.tgz:32874.got - 2010.06.03 11:33:40.
