data_PCOD9046086
_publ_section_title
;
Structure prediction by ZEFSAII (Michael W. Deem and Ramdas Pophale) SiO2 
 PCOD9046086
Probable space group: P -1
;
_chemical_formula_sum "Si O2"
_cell_formula_units_Z 16
_cell_length_a 7.714056
_cell_length_b 11.939336
_cell_length_c 8.746273
_cell_angle_alpha 66.882007
_cell_angle_beta 101.347107
_cell_angle_gamma 74.022356
_cell_volume 668.565427
_symmetry_space_group_name_H-M "P -1"
_symmetry_group_IT_number 2
_symmetry_cell_setting 'triclinic'
loop_
_space_group_symop_operation_xyz
x,y,z
-x,-y,-z
loop_
_atom_site_type_symbol
_atom_site_label
_atom_site_fract_x
_atom_site_fract_y
_atom_site_fract_z
Si Si1 0.663317 0.208563 0.401713
Si Si2 0.436529 0.908055 0.831534
Si Si3 0.398216 0.519230 0.810289
Si Si4 0.531282 0.252344 0.787644
Si Si5 0.334037 0.184233 0.528157
Si Si6 0.997950 0.368747 0.151522
Si Si7 0.115059 0.147648 0.049986
Si Si8 0.078436 0.873668 0.257733
O O1 0.640414 0.183640 0.233944
O O2 0.563193 0.364779 0.331153
O O3 0.539392 0.137500 0.500992
O O4 0.874118 0.158875 0.538308
O O5 0.663436 0.875930 0.868472
O O6 0.319746 0.053623 0.666529
O O7 0.420172 0.873000 0.023230
O O8 0.467095 0.384482 0.803081
O O9 0.175847 0.579674 0.786598
O O10 0.500000 0.500000 0.000000
O O11 0.362482 0.262550 0.637256
O O12 0.722814 0.219762 0.740672
O O13 0.179867 0.275911 0.333225
O O14 0.988015 0.274018 0.061411
O O15 0.000000 0.500000 0.000000
O O16 0.063109 0.023615 0.155736
O O17 0.074216 0.156883 0.855606
#
# Coordination Sequence:
#
# PCOD9046086 Si02
#       8
#     2   2   2   2   2   2   2   2
#     4  11  22  42  68  98 135 181 223 277 331 406
#     4  12  21  43  73  99 139 178 226 278 340 401
#     4  12  25  44  65  95 137 180 226 268 339 407
#     4  11  24  43  69 100 136 180 222 282 337 402
#     4  11  24  42  69 103 130 177 234 274 342 399
#     4  12  26  45  68 100 137 182 225 279 340 405
#     4  11  22  42  70  96 137 171 224 273 341 397
#     4  10  24  42  67 104 133 173 227 280 346 384
#
# _framework density 23.931837000000002
#
# number of rings (size 3 to 8) (size 9 to 14) (size 15 to 20)
#    0.000    0.750    5.000    3.750    0.000    4.500 
#    2.250    1.250    0.000    0.000    0.000    0.000 
#    0.000    0.000    0.000    0.000    0.000    0.000 
#
# Total GULP energy -89509.307257 kJ/mol
# GULP energy per Si atom -5594.331704 kJ/mol
# Density = 2.387737 g / cm^3
# Si number density = 23.931837 Si / 1000 Ang^3
#
#
#
# Elastic Constant Matrix: (Units=GPa)
#
#
# Indices 1 2 3 4 5 6 
#
# 1 61.8893 27.0912 24.5930 -3.3129 9.8380 -6.5162
# 2 27.0912 164.3150 34.4670 8.1824 14.7089 14.6655
# 3 24.5930 34.4670 152.8262 6.3520 17.3081 27.5918
# 4 -3.3129 8.1824 6.3520 41.1755 7.2368 0.8173
# 5 9.8380 14.7089 17.3081 7.2368 41.4879 -0.5070
# 6 -6.5162 14.6655 27.5918 0.8173 -0.5070 27.9357
#
#
#
# Elastic Compliance Matrix: (Units=1/GPa)
#
#
# Indices 1 2 3 4 5 6 
#
# 1 0.021186 -0.003492 -0.004491 0.003285 -0.002350 0.011072
# 2 -0.003492 0.007284 -0.000014 -0.001359 -0.001568 -0.004614
# 3 -0.004491 -0.000014 0.009527 -0.001122 -0.002837 -0.010469
# 4 0.003285 -0.001359 -0.001122 0.025713 -0.004293 0.001758
# 5 -0.002350 -0.001568 -0.002837 -0.004293 0.027194 0.003696
# 6 0.011072 -0.004614 -0.010469 0.001758 0.003696 0.051157
#
#
# Mechanical properties :
#
#
# Convention : Reuss Voigt Hill
#
# Bulk Modulus (GPa) = 45.44776 61.25923 53.35350
# Shear Modulus (GPa) = 30.23123 41.64511 35.93817
#
# Velocity S-wave (km/s) = 3.55804 4.17604 3.87937
# Velocity P-wave (km/s) = 5.99260 6.99324 6.51217
#
# Compressibility (1/GPa) = 0.02200328
#
# Stress axis : x y z
#
# Youngs Moduli (GPa) = 47.19998 137.27922 104.96207
#
# Poissons Ratio (x) = 0.47945 0.47140
# Poissons Ratio (y) = 0.16485 0.00145
# Poissons Ratio (z) = 0.21198 0.00189
#
# Static dielectric constant tensor:
#      x y z
#    x 2.030810 -0.015740 0.013160 
#    y -0.015740 1.894340 -0.000090 
#    z 0.013160 -0.000090 1.960660 
# 
# From -- ./inp_files/186058.got.cif
#   From: 2010.05.17/outbox.cif.g08.bks.cpg/sg2_94_cif.got.tgz:186058.got - 2010.06.03 11:33:40.
