data_PCOD9046992
_publ_section_title
;
Structure prediction by ZEFSAII (Michael W. Deem and Ramdas Pophale) SiO2 
 PCOD9046992
Probable space group: P -1
;
_chemical_formula_sum "Si O2"
_cell_formula_units_Z 16
_cell_length_a 9.135965
_cell_length_b 22.550421
_cell_length_c 5.138765
_cell_angle_alpha 129.172805
_cell_angle_beta 55.021434
_cell_angle_gamma 130.566528
_cell_volume 599.278224
_symmetry_space_group_name_H-M "P -1"
_symmetry_group_IT_number 2
_symmetry_cell_setting 'triclinic'
loop_
_space_group_symop_operation_xyz
x,y,z
-x,-y,-z
loop_
_atom_site_type_symbol
_atom_site_label
_atom_site_fract_x
_atom_site_fract_y
_atom_site_fract_z
Si Si1 0.426087 0.846809 0.514625
Si Si2 0.926285 0.158956 0.880380
Si Si3 0.853095 0.538789 0.154305
Si Si4 0.914456 0.281907 0.829947
Si Si5 0.305103 0.286740 0.343677
Si Si6 0.704652 0.849987 0.635202
Si Si7 0.424056 0.401049 0.059701
Si Si8 0.291957 0.002834 0.669473
O O1 0.492582 0.813539 0.606916
O O2 0.631074 0.925735 0.436920
O O3 0.301313 0.774126 0.231675
O O4 0.266204 0.880816 0.851653
O O5 0.932687 0.245884 0.994077
O O6 0.137311 0.163060 0.743629
O O7 0.864901 0.090412 0.513861
O O8 0.997863 0.618022 0.041528
O O9 0.653816 0.474162 0.021664
O O10 0.739173 0.568287 0.578481
O O11 0.000000 0.500000 0.000000
O O12 0.073217 0.260938 0.449498
O O13 0.314683 0.206808 0.247683
O O14 0.424766 0.336275 0.106377
O O15 0.366246 0.355255 0.712352
O O16 0.769132 0.948614 0.914837
O O17 0.500000 0.000000 0.500000
#
# Coordination Sequence:
#
# PCOD9046992 Si02
#       8
#     2   2   2   2   2   2   2   2
#     4  12  25  44  71 102 143 190 244 304 368 435
#     4  11  25  47  71 100 142 192 245 305 368 438
#     4  10  24  44  75 110 147 190 244 299 367 439
#     4  10  24  43  70 102 146 186 240 297 367 434
#     4  10  25  47  79 105 152 195 247 299 373 435
#     4  11  27  42  75 108 139 195 248 301 366 444
#     4  10  24  50  73 107 151 196 238 308 365 436
#     4  12  24  47  67 101 148 189 242 306 371 432
#
# _framework density 26.698782999999999
#
# number of rings (size 3 to 8) (size 9 to 14) (size 15 to 20)
#    0.000    1.250    2.500    0.750   10.500    7.000 
#    0.000    5.625    0.000    0.000    0.000    0.000 
#    0.000    0.000    0.000    0.000    0.000    0.000 
#
# Total GULP energy -89528.770123 kJ/mol
# GULP energy per Si atom -5595.548133 kJ/mol
# Density = 2.663802 g / cm^3
# Si number density = 26.698783 Si / 1000 Ang^3
#
#
#
# Elastic Constant Matrix: (Units=GPa)
#
#
# Indices 1 2 3 4 5 6 
#
# 1 137.2407 38.8868 21.0320 4.3034 -17.5538 0.5926
# 2 38.8868 124.7274 21.9007 8.9643 1.5837 -2.0219
# 3 21.0320 21.9007 94.4672 1.5110 -17.5003 6.6475
# 4 4.3034 8.9643 1.5110 40.9147 -4.2781 0.2246
# 5 -17.5538 1.5837 -17.5003 -4.2781 47.1122 -2.9025
# 6 0.5926 -2.0219 6.6475 0.2246 -2.9025 45.8805
#
#
#
# Elastic Compliance Matrix: (Units=1/GPa)
#
#
# Indices 1 2 3 4 5 6 
#
# 1 0.008507 -0.002557 -0.000755 0.000004 0.002981 0.000075
# 2 -0.002557 0.009343 -0.002007 -0.001932 -0.002150 0.000609
# 3 -0.000755 -0.002007 0.012105 0.000523 0.004234 -0.001567
# 4 0.000004 -0.001932 0.000523 0.025110 0.002534 -0.000124
# 5 0.002981 -0.002150 0.004234 0.002534 0.024259 0.000776
# 6 0.000075 0.000609 -0.001567 -0.000124 0.000776 0.022098
#
#
# Mechanical properties :
#
#
# Convention : Reuss Voigt Hill
#
# Bulk Modulus (GPa) = 51.76304 57.78603 54.77454
# Shear Modulus (GPa) = 42.19411 45.08923 43.64167
#
# Velocity S-wave (km/s) = 3.97971 4.11397 4.04740
# Velocity P-wave (km/s) = 6.36768 6.65260 6.51170
#
# Compressibility (1/GPa) = 0.01931881
#
# Stress axis : x y z
#
# Youngs Moduli (GPa) = 117.54579 107.03088 82.60888
#
# Poissons Ratio (x) = 0.27366 0.06233
# Poissons Ratio (y) = 0.30054 0.16580
# Poissons Ratio (z) = 0.08869 0.21482
#
# Static dielectric constant tensor:
#      x y z
#    x 2.084560 -0.034720 0.018080 
#    y -0.034720 2.189670 -0.015180 
#    z 0.018080 -0.015180 2.182210 
# 
# From -- ./inp_files/55686.got.cif
#   From: 2010.05.17/outbox.cif.g08.bks.cpg/sg2_28_cif.got.tgz:55686.got - 2010.06.03 11:33:40.
