data_PCOD9046060
_publ_section_title
;
Structure prediction by ZEFSAII (Michael W. Deem and Ramdas Pophale) SiO2 
 PCOD9046060
Probable space group: P -1
;
_chemical_formula_sum "Si O2"
_cell_formula_units_Z 16
_cell_length_a 8.280776
_cell_length_b 12.155439
_cell_length_c 9.392097
_cell_angle_alpha 66.533785
_cell_angle_beta 109.279683
_cell_angle_gamma 78.100463
_cell_volume 753.739357
_symmetry_space_group_name_H-M "P -1"
_symmetry_group_IT_number 2
_symmetry_cell_setting 'triclinic'
loop_
_space_group_symop_operation_xyz
x,y,z
-x,-y,-z
loop_
_atom_site_type_symbol
_atom_site_label
_atom_site_fract_x
_atom_site_fract_y
_atom_site_fract_z
Si Si1 0.553986 0.920260 0.911289
Si Si2 0.752780 0.631565 0.541549
Si Si3 0.039368 0.108747 0.041685
Si Si4 0.221034 0.611894 0.146067
Si Si5 0.148988 0.602081 0.801024
Si Si6 0.364702 0.092728 0.528437
Si Si7 0.601666 0.640890 0.178527
Si Si8 0.966101 0.124135 0.331606
O O1 0.741256 0.923808 0.893453
O O2 0.386944 0.997829 0.716854
O O3 0.583191 0.773275 0.027181
O O4 0.500000 0.000000 0.000000
O O5 0.723342 0.515664 0.675567
O O6 0.615172 0.776002 0.480433
O O7 0.720342 0.625014 0.366858
O O8 0.961570 0.612627 0.658744
O O9 0.949010 0.103366 0.171709
O O10 0.935163 0.261160 0.892122
O O11 0.000000 0.000000 0.000000
O O12 0.400843 0.645196 0.159560
O O13 0.147475 0.589166 0.979935
O O14 0.307110 0.479394 0.839567
O O15 0.176537 0.738523 0.720916
O O16 0.160573 0.142238 0.380512
O O17 0.500000 0.000000 0.500000
O O18 0.000000 0.000000 0.500000
#
# Coordination Sequence:
#
# PCOD9046060 Si02
#       8
#     2   2   2   2   2   2   2   2
#     4  12  25  44  67  97 135 171 224 273 329 398
#     4  11  24  44  66  94 134 170 225 271 330 400
#     4  11  25  43  67  98 132 177 217 270 337 389
#     4  11  25  44  66  98 133 170 223 275 331 396
#     4  10  24  43  65  97 128 177 218 265 339 389
#     4  11  24  42  68  97 129 177 220 269 333 388
#     4  12  25  42  69  98 132 175 219 277 333 390
#     4  10  24  42  66  98 135 170 220 272 325 399
#
# _framework density 21.227497
#
# number of rings (size 3 to 8) (size 9 to 14) (size 15 to 20)
#    0.000    1.000    2.500    3.000    7.000    2.000 
#    0.000    0.000    0.000    0.000    0.000    0.000 
#    0.000    0.000    0.000    0.000    0.000    0.000 
#
# Total GULP energy -89351.095286 kJ/mol
# GULP energy per Si atom -5584.443455 kJ/mol
# Density = 2.117918 g / cm^3
# Si number density = 21.227497 Si / 1000 Ang^3
#
#
#
# Elastic Constant Matrix: (Units=GPa)
#
#
# Indices 1 2 3 4 5 6 
#
# 1 38.3761 13.7818 -6.0886 -3.4584 3.2935 3.3819
# 2 13.7818 185.5902 53.9467 -14.8558 -17.0095 -9.7843
# 3 -6.0886 53.9467 122.2730 -5.8260 -13.9913 12.1022
# 4 -3.4584 -14.8558 -5.8260 42.9256 11.3218 1.6277
# 5 3.2935 -17.0095 -13.9913 11.3218 36.5924 -7.4375
# 6 3.3819 -9.7843 12.1022 1.6277 -7.4375 32.7754
#
#
#
# Elastic Compliance Matrix: (Units=1/GPa)
#
#
# Indices 1 2 3 4 5 6 
#
# 1 0.029278 -0.003735 0.003301 0.003215 -0.005477 -0.006757
# 2 -0.003735 0.007242 -0.003437 0.000762 0.003062 0.004473
# 3 0.003301 -0.003437 0.010489 0.000440 0.000954 -0.005045
# 4 0.003215 0.000762 0.000440 0.026285 -0.008617 -0.003527
# 5 -0.005477 0.003062 0.000954 -0.008617 0.034167 0.009308
# 6 -0.006757 0.004473 -0.005045 -0.003527 0.009308 0.036694
#
#
# Mechanical properties :
#
#
# Convention : Reuss Voigt Hill
#
# Bulk Modulus (GPa) = 25.46670 52.16880 38.81775
# Shear Modulus (GPa) = 30.30567 41.43197 35.86882
#
# Velocity S-wave (km/s) = 3.78254 4.42272 4.11510
# Velocity P-wave (km/s) = 5.57673 7.12109 6.39570
#
# Compressibility (1/GPa) = 0.03926696
#
# Stress axis : x y z
#
# Youngs Moduli (GPa) = 34.15532 138.08118 95.33998
#
# Poissons Ratio (x) = 0.51567 -0.31470
# Poissons Ratio (y) = 0.12755 0.32771
# Poissons Ratio (z) = -0.11274 0.47463
#
# Static dielectric constant tensor:
#      x y z
#    x 1.809220 0.064160 0.098960 
#    y 0.064160 1.889440 0.124610 
#    z 0.098960 0.124610 1.961460 
# 
# From -- ./inp_files/185067.got.cif
#   From: 2010.05.17/outbox.cif.g08.bks.cpg/sg2_93_cif.got.tgz:185067.got - 2010.06.03 11:33:40.
