data_PCOD9046039
_publ_section_title
;
Structure prediction by ZEFSAII (Michael W. Deem and Ramdas Pophale) SiO2 
 PCOD9046039
Probable space group: P -1
;
_chemical_formula_sum "Si O2"
_cell_formula_units_Z 7
_cell_length_a 4.855993
_cell_length_b 4.782456
_cell_length_c 13.185135
_cell_angle_alpha 86.162543
_cell_angle_beta 67.223093
_cell_angle_gamma 68.087804
_cell_volume 260.852901
_symmetry_space_group_name_H-M "P -1"
_symmetry_group_IT_number 2
_symmetry_cell_setting 'triclinic'
loop_
_space_group_symop_operation_xyz
x,y,z
-x,-y,-z
loop_
_atom_site_type_symbol
_atom_site_label
_atom_site_fract_x
_atom_site_fract_y
_atom_site_fract_z
Si Si1 0.582764 0.586442 0.599106
Si Si2 0.263815 0.404906 0.106579
Si Si3 0.169404 0.921558 0.820032
Si Si4 0.000000 0.000000 0.500000
O O1 0.500000 0.500000 0.500000
O O2 0.261668 0.753339 0.703010
O O3 0.812035 0.256776 0.609732
O O4 0.764177 0.814922 0.558861
O O5 0.492685 0.201377 0.166310
O O6 0.078961 0.207453 0.088497
O O7 0.500000 0.500000 0.000000
O O8 0.993379 0.720992 0.172540
#
# Coordination Sequence:
#
# PCOD9046039 Si02
#       4
#     2   2   2   1
#     4  11  25  42  69 101 146 189 239 298 358 438
#     4  12  26  49  74 107 144 189 244 309 363 434
#     4  12  27  45  77 106 146 190 246 292 376 436
#     4  10  24  42  66  94 146 182 246 280 364 412
#
# _framework density 26.835052000000001
#
# number of rings (size 3 to 8) (size 9 to 14) (size 15 to 20)
#    0.000    0.571    0.000    6.857   12.000    0.000 
#    0.000    0.000    0.000    0.000    0.000    0.000 
#    0.000    0.000    0.000    0.000    0.000    0.000 
#
# Total GULP energy -39025.994702 kJ/mol
# GULP energy per Si atom -5575.142100 kJ/mol
# Density = 2.677397 g / cm^3
# Si number density = 26.835052 Si / 1000 Ang^3
#
#
#
# Elastic Constant Matrix: (Units=GPa)
#
#
# Indices 1 2 3 4 5 6 
#
# 1 139.7250 72.7921 13.1450 -21.9238 -33.4627 25.0494
# 2 72.7921 207.3486 49.5209 32.9792 -6.2062 11.9063
# 3 13.1450 49.5209 69.2375 16.2451 -3.4586 -1.9117
# 4 -21.9238 32.9792 16.2451 39.0968 5.6542 -6.0197
# 5 -33.4627 -6.2062 -3.4586 5.6542 42.8669 -16.6267
# 6 25.0494 11.9063 -1.9117 -6.0197 -16.6267 73.6696
#
#
#
# Elastic Compliance Matrix: (Units=1/GPa)
#
#
# Indices 1 2 3 4 5 6 
#
# 1 0.015175 -0.006972 -0.000594 0.013230 0.008649 -0.001015
# 2 -0.006972 0.009665 -0.003354 -0.010327 -0.003287 -0.000864
# 3 -0.000594 -0.003354 0.018281 -0.005159 0.001660 0.001172
# 4 0.013230 -0.010327 -0.005159 0.043594 0.003177 0.001316
# 5 0.008649 -0.003287 0.001660 0.003177 0.031236 0.004943
# 6 -0.001015 -0.000864 0.001172 0.001316 0.004943 0.015312
#
#
# Mechanical properties :
#
#
# Convention : Reuss Voigt Hill
#
# Bulk Modulus (GPa) = 46.99541 76.35858 61.67699
# Shear Modulus (GPa) = 30.82647 49.85020 40.33834
#
# Velocity S-wave (km/s) = 3.39298 4.31473 3.88131
# Velocity P-wave (km/s) = 5.73589 7.30336 6.56656
#
# Compressibility (1/GPa) = 0.02127867
#
# Stress axis : x y z
#
# Youngs Moduli (GPa) = 65.89977 103.46203 54.70218
#
# Poissons Ratio (x) = 0.72138 0.03251
# Poissons Ratio (y) = 0.45948 0.18349
# Poissons Ratio (z) = 0.03916 0.34705
#
# Static dielectric constant tensor:
#      x y z
#    x 2.075480 -0.129250 0.067700 
#    y -0.129250 2.000480 -0.018840 
#    z 0.067700 -0.018840 2.263970 
# 
# From -- ./inp_files/57172.got.cif
#   From: 2010.05.17/outbox.cif.g08.bks.cpg/sg2_29_cif.got.tgz:57172.got - 2010.06.03 11:33:40.
