data_PCOD9046645
_publ_section_title
;
Structure prediction by ZEFSAII (Michael W. Deem and Ramdas Pophale) SiO2 
 PCOD9046645
Probable space group: P -1
;
_chemical_formula_sum "Si O2"
_cell_formula_units_Z 14
_cell_length_a 16.266532
_cell_length_b 8.980751
_cell_length_c 10.461353
_cell_angle_alpha 97.951072
_cell_angle_beta 128.624097
_cell_angle_gamma 42.108516
_cell_volume 628.192432
_symmetry_space_group_name_H-M "P -1"
_symmetry_group_IT_number 2
_symmetry_cell_setting 'triclinic'
loop_
_space_group_symop_operation_xyz
x,y,z
-x,-y,-z
loop_
_atom_site_type_symbol
_atom_site_label
_atom_site_fract_x
_atom_site_fract_y
_atom_site_fract_z
Si Si1 0.561210 0.327444 0.662767
Si Si2 0.788854 0.297341 0.435540
Si Si3 0.941180 0.996622 0.111813
Si Si4 0.036256 0.213302 0.536154
Si Si5 0.152234 0.580368 0.051120
Si Si6 0.582211 0.024589 0.486980
Si Si7 0.007200 0.467982 0.295242
O O1 0.500000 0.500000 0.500000
O O2 0.383841 0.491323 0.602503
O O3 0.654103 0.071067 0.654268
O O4 0.720003 0.218132 0.890699
O O5 0.824016 0.387605 0.379142
O O6 0.805405 0.110750 0.372178
O O7 0.989185 0.078933 0.686289
O O8 0.958552 0.146940 0.095154
O O9 0.078213 0.707957 0.137698
O O10 0.018851 0.331794 0.404235
O O11 0.089949 0.265843 0.706885
O O12 0.095808 0.492060 0.919031
O O13 0.390217 0.306790 0.252321
O O14 0.500000 0.000000 0.500000
O O15 0.770098 0.755066 0.553715
#
# Coordination Sequence:
#
# PCOD9046645 Si02
#       7
#     2   2   2   2   2   2   2
#     4  12  21  38  67  98 128 162 210 268 328 373
#     4  11  22  43  65  95 129 165 223 263 301 379
#     4  11  21  37  68 101 125 162 213 270 321 376
#     4  10  24  43  66  86 130 186 210 250 308 381
#     4  11  22  39  66  99 130 162 211 266 328 379
#     4  12  25  39  64 102 133 159 205 272 331 380
#     4  11  23  45  64  91 133 175 209 251 326 387
#
# _framework density 22.286165
#
# number of rings (size 3 to 8) (size 9 to 14) (size 15 to 20)
#    0.000    0.857    5.714    2.571    0.000    1.714 
#    0.000    8.571    0.000    0.000    0.000    0.000 
#    0.000    0.000    0.000    0.000    0.000    0.000 
#
# Total GULP energy -78180.754547 kJ/mol
# GULP energy per Si atom -5584.339611 kJ/mol
# Density = 2.223544 g / cm^3
# Si number density = 22.286165 Si / 1000 Ang^3
#
#
#
# Elastic Constant Matrix: (Units=GPa)
#
#
# Indices 1 2 3 4 5 6 
#
# 1 105.5791 4.6611 -1.6684 -3.9031 7.8848 -5.4686
# 2 4.6611 97.7906 25.8957 38.5210 -6.2905 0.3760
# 3 -1.6684 25.8957 83.1003 10.7765 12.9486 -8.0267
# 4 -3.9031 38.5210 10.7765 30.5828 2.1121 9.0567
# 5 7.8848 -6.2905 12.9486 2.1121 19.0801 2.2933
# 6 -5.4686 0.3760 -8.0267 9.0567 2.2933 37.8497
#
#
#
# Elastic Compliance Matrix: (Units=1/GPa)
#
#
# Indices 1 2 3 4 5 6 
#
# 1 0.010489 -0.003650 0.001931 0.005448 -0.007586 0.001117
# 2 -0.003650 0.026968 -0.006222 -0.035010 0.017875 0.005179
# 3 0.001931 -0.006222 0.016453 0.002051 -0.014751 0.004233
# 4 0.005448 -0.035010 0.002051 0.083353 -0.022367 -0.017019
# 5 -0.007586 0.017875 -0.014751 -0.022367 0.074352 -0.003555
# 6 0.001117 0.005179 0.004233 -0.017019 -0.003555 0.031716
#
#
# Mechanical properties :
#
#
# Convention : Reuss Voigt Hill
#
# Bulk Modulus (GPa) = 26.29565 38.24962 32.27263
# Shear Modulus (GPa) = 18.38991 34.67464 26.53227
#
# Velocity S-wave (km/s) = 2.87570 3.94875 3.45414
# Velocity P-wave (km/s) = 4.78026 6.16363 5.51549
#
# Compressibility (1/GPa) = 0.03802911
#
# Stress axis : x y z
#
# Youngs Moduli (GPa) = 95.33759 37.08041 60.78060
#
# Poissons Ratio (x) = 0.13534 -0.11739
# Poissons Ratio (y) = 0.34797 0.37818
# Poissons Ratio (z) = -0.18413 0.23071
#
# Static dielectric constant tensor:
#      x y z
#    x 2.036190 0.047930 0.050090 
#    y 0.047930 1.840920 0.022190 
#    z 0.050090 0.022190 1.825050 
# 
# From -- ./inp_files/257257.got.cif
#   From: 2010.05.17/outbox.cif.g08.bks.cpg/sg2_129_cif.got.tgz:257257.got - 2010.06.03 11:33:40.
