data_PCOD9046687
_publ_section_title
;
Structure prediction by ZEFSAII (Michael W. Deem and Ramdas Pophale) SiO2 
 PCOD9046687
Probable space group: P -1
;
_chemical_formula_sum "Si O2"
_cell_formula_units_Z 16
_cell_length_a 9.621597
_cell_length_b 8.486208
_cell_length_c 13.432206
_cell_angle_alpha 76.113568
_cell_angle_beta 44.178167
_cell_angle_gamma 79.643024
_cell_volume 741.931107
_symmetry_space_group_name_H-M "P -1"
_symmetry_group_IT_number 2
_symmetry_cell_setting 'triclinic'
loop_
_space_group_symop_operation_xyz
x,y,z
-x,-y,-z
loop_
_atom_site_type_symbol
_atom_site_label
_atom_site_fract_x
_atom_site_fract_y
_atom_site_fract_z
Si Si1 0.562934 0.151921 0.800438
Si Si2 0.660604 0.093585 0.543891
Si Si3 0.635206 0.474734 0.839610
Si Si4 0.526368 0.648304 0.538088
Si Si5 0.035892 0.387296 0.593358
Si Si6 0.166456 0.956380 0.002377
Si Si7 0.931409 0.031844 0.720559
Si Si8 0.540285 0.248372 0.241243
O O1 0.649749 0.184452 0.641251
O O2 0.569899 0.311899 0.839704
O O3 0.704899 0.011773 0.799885
O O4 0.339937 0.089230 0.908046
O O5 0.518918 0.188254 0.525260
O O6 0.571789 0.915405 0.640663
O O7 0.886902 0.083963 0.388131
O O8 0.604113 0.629194 0.761243
O O9 0.867487 0.447799 0.748179
O O10 0.500000 0.500000 0.000000
O O11 0.500000 0.500000 0.500000
O O12 0.748195 0.624027 0.469240
O O13 0.393607 0.663063 0.704340
O O14 0.000000 0.500000 0.500000
O O15 0.984736 0.203996 0.618507
O O16 0.286234 0.804355 0.915991
O O17 0.073825 0.940900 0.162161
O O18 0.000000 0.000000 0.000000
#
# Coordination Sequence:
#
# PCOD9046687 Si02
#       8
#     2   2   2   2   2   2   2   2
#     4  10  24  43  67 100 139 173 230 277 330 404
#     4  11  23  41  72 102 134 172 226 283 341 398
#     4  11  23  46  70  97 136 179 229 278 334 399
#     4  12  25  42  67 100 140 174 225 283 340 403
#     4  11  23  43  69  96 133 178 224 275 338 400
#     4  11  25  44  67  99 141 175 223 279 340 401
#     4  11  22  42  72  99 132 178 227 274 337 398
#     4  11  22  44  68  97 134 180 220 277 336 403
#
# _framework density 21.565345000000001
#
# number of rings (size 3 to 8) (size 9 to 14) (size 15 to 20)
#    0.000    1.000    2.500    4.125    5.250    1.000 
#    9.000    0.625    0.000    0.000    0.000    0.000 
#    0.000    0.000    0.000    0.000    0.000    0.000 
#
# Total GULP energy -89387.703047 kJ/mol
# GULP energy per Si atom -5586.731440 kJ/mol
# Density = 2.151626 g / cm^3
# Si number density = 21.565345 Si / 1000 Ang^3
#
#
#
# Elastic Constant Matrix: (Units=GPa)
#
#
# Indices 1 2 3 4 5 6 
#
# 1 152.5452 45.3870 50.5565 1.4460 1.2055 -21.3706
# 2 45.3870 95.1177 45.4187 13.4086 0.1477 -13.8878
# 3 50.5565 45.4187 137.0021 31.0882 17.4260 -5.7478
# 4 1.4460 13.4086 31.0882 41.9271 0.2511 7.6719
# 5 1.2055 0.1477 17.4260 0.2511 39.6473 4.1832
# 6 -21.3706 -13.8878 -5.7478 7.6719 4.1832 42.6676
#
#
#
# Elastic Compliance Matrix: (Units=1/GPa)
#
#
# Indices 1 2 3 4 5 6 
#
# 1 0.008611 -0.002723 -0.002729 0.002115 0.000659 0.002614
# 2 -0.002723 0.014126 -0.003051 -0.002756 0.001050 0.003215
# 3 -0.002729 -0.003051 0.011808 -0.007865 -0.005167 0.001152
# 4 0.002115 -0.002756 -0.007865 0.031747 0.003940 -0.006992
# 5 0.000659 0.001050 -0.005167 0.003940 0.027810 -0.003459
# 6 0.002614 0.003215 0.001152 -0.006992 -0.003459 0.027544
#
#
# Mechanical properties :
#
#
# Convention : Reuss Voigt Hill
#
# Bulk Modulus (GPa) = 57.01864 74.15438 65.58651
# Shear Modulus (GPa) = 34.60221 41.06861 37.83541
#
# Velocity S-wave (km/s) = 4.01000 4.36865 4.19316
# Velocity P-wave (km/s) = 6.92369 7.73999 7.34319
#
# Compressibility (1/GPa) = 0.01753813
#
# Stress axis : x y z
#
# Youngs Moduli (GPa) = 116.12939 70.79065 84.68795
#
# Poissons Ratio (x) = 0.19279 0.23110
# Poissons Ratio (y) = 0.31627 0.25841
# Poissons Ratio (z) = 0.31690 0.21601
#
# Static dielectric constant tensor:
#      x y z
#    x 1.815050 0.007740 -0.017360 
#    y 0.007740 1.809080 0.001700 
#    z -0.017360 0.001700 1.850210 
# 
# From -- ./inp_files/381882.got.cif
#   From: 2010.05.17/outbox.cif.g08.bks.cpg/sg2_191_cif.got.tgz:381882.got - 2010.06.03 11:33:40.
