data_PCOD9046282
_publ_section_title
;
Structure prediction by ZEFSAII (Michael W. Deem and Ramdas Pophale) SiO2 
 PCOD9046282
Probable space group: P -1
;
_chemical_formula_sum "Si O2"
_cell_formula_units_Z 13
_cell_length_a 9.941069
_cell_length_b 5.080762
_cell_length_c 12.385795
_cell_angle_alpha 91.003569
_cell_angle_beta 103.965616
_cell_angle_gamma 64.857855
_cell_volume 546.994536
_symmetry_space_group_name_H-M "P -1"
_symmetry_group_IT_number 2
_symmetry_cell_setting 'triclinic'
loop_
_space_group_symop_operation_xyz
x,y,z
-x,-y,-z
loop_
_atom_site_type_symbol
_atom_site_label
_atom_site_fract_x
_atom_site_fract_y
_atom_site_fract_z
Si Si1 0.751594 0.166365 0.393377
Si Si2 0.630308 0.290431 0.941422
Si Si3 0.835359 0.613142 0.027195
Si Si4 0.871976 0.562175 0.291159
Si Si5 0.808284 0.458732 0.596953
Si Si6 0.575830 0.383028 0.686325
Si Si7 0.500000 0.000000 0.500000
O O1 0.801012 0.351598 0.319981
O O2 0.836152 0.188925 0.519551
O O3 0.566312 0.316337 0.382114
O O4 0.789426 0.867184 0.339717
O O5 0.559498 0.343354 0.808469
O O6 0.500000 0.500000 0.000000
O O7 0.761670 0.401590 0.973374
O O8 0.713055 0.945851 0.979842
O O9 0.855514 0.593330 0.160054
O O10 0.000000 0.500000 0.000000
O O11 0.048804 0.472855 0.355377
O O12 0.734257 0.401192 0.690634
O O13 0.670150 0.724524 0.515064
O O14 0.569088 0.126482 0.614153
#
# Coordination Sequence:
#
# PCOD9046282 Si02
#       7
#     2   2   2   2   2   2   1
#     4  11  26  45  70 107 143 188 234 295 360 432
#     4  12  27  49  75 109 144 196 245 302 358 427
#     4  12  27  48  72 109 144 192 250 298 359 428
#     4  12  26  46  73 101 149 187 234 297 364 418
#     4  11  26  44  71 105 141 190 237 288 362 431
#     4  11  26  44  76 100 148 186 243 291 359 424
#     4  10  24  42  70 102 138 174 238 286 354 414
#
# _framework density 23.766235000000002
#
# number of rings (size 3 to 8) (size 9 to 14) (size 15 to 20)
#    0.000    0.615    0.000    7.385   15.077    0.000 
#    0.000    0.000    0.000    0.000    0.000    0.000 
#    0.000    0.000    0.000    0.000    0.000    0.000 
#
# Total GULP energy -72679.531061 kJ/mol
# GULP energy per Si atom -5590.733159 kJ/mol
# Density = 2.371214 g / cm^3
# Si number density = 23.766235 Si / 1000 Ang^3
#
#
#
# Elastic Constant Matrix: (Units=GPa)
#
#
# Indices 1 2 3 4 5 6 
#
# 1 116.1306 2.5240 16.5411 7.4913 -5.5060 -9.1628
# 2 2.5240 76.1839 9.4781 12.4315 -12.5025 3.6650
# 3 16.5411 9.4781 136.8095 8.7922 -21.7927 -4.8624
# 4 7.4913 12.4315 8.7922 23.2338 -2.2791 1.5228
# 5 -5.5060 -12.5025 -21.7927 -2.2791 46.4060 6.9886
# 6 -9.1628 3.6650 -4.8624 1.5228 6.9886 39.2854
#
#
#
# Elastic Compliance Matrix: (Units=1/GPa)
#
#
# Indices 1 2 3 4 5 6 
#
# 1 0.009081 0.000215 -0.000808 -0.002842 0.000307 0.002054
# 2 0.000215 0.015106 -0.000010 -0.007641 0.003982 -0.001773
# 3 -0.000808 -0.000010 0.008145 -0.002485 0.003562 0.000283
# 4 -0.002842 -0.007641 -0.002485 0.049034 -0.000853 -0.002007
# 5 0.000307 0.003982 0.003562 -0.000853 0.024931 -0.004261
# 6 0.002054 -0.001773 0.000283 -0.002007 -0.004261 0.026970
#
#
# Mechanical properties :
#
#
# Convention : Reuss Voigt Hill
#
# Bulk Modulus (GPa) = 32.12820 42.91226 37.52023
# Shear Modulus (GPa) = 34.51874 41.82378 38.17126
#
# Velocity S-wave (km/s) = 3.81521 4.19955 4.01198
# Velocity P-wave (km/s) = 5.74069 6.45059 6.10596
#
# Compressibility (1/GPa) = 0.03112530
#
# Stress axis : x y z
#
# Youngs Moduli (GPa) = 110.11575 66.19913 122.77472
#
# Poissons Ratio (x) = -0.01423 0.09925
# Poissons Ratio (y) = -0.02367 0.00124
# Poissons Ratio (z) = 0.08901 0.00067
#
# Static dielectric constant tensor:
#      x y z
#    x 1.882240 -0.073530 0.037460 
#    y -0.073530 1.825900 0.014120 
#    z 0.037460 0.014120 1.813250 
# 
# From -- ./inp_files/25334.got.cif
#   From: 2010.05.17/outbox.cif.g08.bks.cpg/sg2_13_cif.got.tgz:25334.got - 2010.06.03 11:33:40.
