data_PCOD9046252
_publ_section_title
;
Structure prediction by ZEFSAII (Michael W. Deem and Ramdas Pophale) SiO2 
 PCOD9046252
Probable space group: P -1
;
_chemical_formula_sum "Si O2"
_cell_formula_units_Z 16
_cell_length_a 21.781995
_cell_length_b 9.287199
_cell_length_c 24.719476
_cell_angle_alpha 151.179229
_cell_angle_beta 160.630139
_cell_angle_gamma 30.628100
_cell_volume 781.291664
_symmetry_space_group_name_H-M "P -1"
_symmetry_group_IT_number 2
_symmetry_cell_setting 'triclinic'
loop_
_space_group_symop_operation_xyz
x,y,z
-x,-y,-z
loop_
_atom_site_type_symbol
_atom_site_label
_atom_site_fract_x
_atom_site_fract_y
_atom_site_fract_z
Si Si1 0.015801 0.405409 0.617728
Si Si2 0.248673 0.267521 0.975143
Si Si3 0.680345 0.168823 0.303162
Si Si4 0.029081 0.191602 0.388104
Si Si5 0.631852 0.684992 0.521467
Si Si6 0.000691 0.591966 0.967539
Si Si7 0.335175 0.631817 0.447213
Si Si8 0.950463 0.301736 0.141092
O O1 0.006246 0.689149 0.663509
O O2 0.050440 0.509112 0.741790
O O3 0.823094 0.270632 0.411243
O O4 0.190045 0.126506 0.658187
O O5 0.189938 0.513318 0.959006
O O6 0.193034 0.446342 0.045421
O O7 0.118766 0.012757 0.782546
O O8 0.470194 0.121446 0.101355
O O9 0.642044 0.455464 0.405284
O O10 0.000000 0.500000 0.500000
O O11 0.242261 0.985487 0.499323
O O12 0.581064 0.526975 0.480507
O O13 0.842305 0.729751 0.722333
O O14 0.500000 0.000000 0.500000
O O15 0.844373 0.468051 0.762435
O O16 0.000000 0.500000 0.000000
O O17 0.939884 0.957716 0.032892
O O18 0.500000 0.500000 0.500000
#
# Coordination Sequence:
#
# PCOD9046252 Si02
#       8
#     2   2   2   2   2   2   2   2
#     4  10  24  44  68  93 137 175 222 278 343 403
#     4  11  24  42  69  99 132 175 231 279 336 406
#     4  10  24  42  69  97 130 173 233 275 337 405
#     4  11  24  47  70  94 141 181 222 282 346 404
#     4  11  23  39  67  93 131 175 218 272 339 403
#     4  11  24  42  66  95 139 174 217 284 338 398
#     4  11  26  42  63 103 133 171 229 274 340 408
#     4  11  22  42  66  94 130 175 220 275 336 400
#
# _framework density 20.478907
#
# number of rings (size 3 to 8) (size 9 to 14) (size 15 to 20)
#    0.000    1.250    2.500    3.375   12.250    1.000 
#    2.250    0.000    0.000    0.000    0.000    0.000 
#    0.000    0.000    0.000    0.000    0.000    0.000 
#
# Total GULP energy -89268.497945 kJ/mol
# GULP energy per Si atom -5579.281122 kJ/mol
# Density = 2.043230 g / cm^3
# Si number density = 20.478907 Si / 1000 Ang^3
#
#
#
# Elastic Constant Matrix: (Units=GPa)
#
#
# Indices 1 2 3 4 5 6 
#
# 1 84.5272 60.0737 8.8970 -8.7172 -0.5777 6.7787
# 2 60.0737 171.5826 30.5233 -4.5655 10.4161 -5.8191
# 3 8.8970 30.5233 53.8974 -9.0044 15.1175 -11.4067
# 4 -8.7172 -4.5655 -9.0044 41.1495 -9.2093 4.0448
# 5 -0.5777 10.4161 15.1175 -9.2093 27.4822 -2.4801
# 6 6.7787 -5.8191 -11.4067 4.0448 -2.4801 43.2931
#
#
#
# Elastic Compliance Matrix: (Units=1/GPa)
#
#
# Indices 1 2 3 4 5 6 
#
# 1 0.016981 -0.006103 -0.000596 0.004061 0.004017 -0.003785
# 2 -0.006103 0.008683 -0.003349 -0.001638 -0.002011 0.001278
# 3 -0.000596 -0.003349 0.025249 0.001918 -0.011497 0.005458
# 4 0.004061 -0.001638 0.001918 0.027580 0.008674 -0.002431
# 5 0.004017 -0.002011 -0.011497 0.008674 0.046276 -0.002088
# 6 -0.003785 0.001278 0.005458 -0.002431 -0.002088 0.025408
#
#
# Mechanical properties :
#
#
# Convention : Reuss Voigt Hill
#
# Bulk Modulus (GPa) = 32.45104 56.55501 44.50303
# Shear Modulus (GPa) = 27.69387 36.41918 32.05653
#
# Velocity S-wave (km/s) = 3.68137 4.22165 3.96073
# Velocity P-wave (km/s) = 5.82670 7.17212 6.53413
#
# Compressibility (1/GPa) = 0.03081565
#
# Stress axis : x y z
#
# Youngs Moduli (GPa) = 58.89021 115.17385 39.60557
#
# Poissons Ratio (x) = 0.70295 0.02361
# Poissons Ratio (y) = 0.35943 0.13263
# Poissons Ratio (z) = 0.03510 0.38570
#
# Static dielectric constant tensor:
#      x y z
#    x 1.700100 0.024390 -0.003770 
#    y 0.024390 1.791260 0.026260 
#    z -0.003770 0.026260 1.774910 
# 
# From -- ./inp_files/207531.got.cif
#   From: 2010.05.17/outbox.cif.g08.bks.cpg/sg2_104_cif.got.tgz:207531.got - 2010.06.03 11:33:40.
