data_PCOD9046961
_publ_section_title
;
Structure prediction by ZEFSAII (Michael W. Deem and Ramdas Pophale) SiO2 
 PCOD9046961
Probable space group: P -1
;
_chemical_formula_sum "Si O2"
_cell_formula_units_Z 16
_cell_length_a 11.645369
_cell_length_b 8.884124
_cell_length_c 12.186340
_cell_angle_alpha 64.257390
_cell_angle_beta 107.605255
_cell_angle_gamma 142.840253
_cell_volume 683.767541
_symmetry_space_group_name_H-M "P -1"
_symmetry_group_IT_number 2
_symmetry_cell_setting 'triclinic'
loop_
_space_group_symop_operation_xyz
x,y,z
-x,-y,-z
loop_
_atom_site_type_symbol
_atom_site_label
_atom_site_fract_x
_atom_site_fract_y
_atom_site_fract_z
Si Si1 0.422374 0.933436 0.622382
Si Si2 0.662169 0.968294 0.819829
Si Si3 0.757924 0.564926 0.161203
Si Si4 0.742325 0.803187 0.719233
Si Si5 0.314773 0.258567 0.748868
Si Si6 0.852452 0.592226 0.945210
Si Si7 0.699683 0.816953 0.466194
Si Si8 0.251763 0.871013 0.957844
O O1 0.597247 0.068010 0.708973
O O2 0.263338 0.623880 0.709582
O O3 0.500000 0.000000 0.500000
O O4 0.348325 0.038397 0.589486
O O5 0.461545 0.651954 0.877763
O O6 0.786156 0.992921 0.762229
O O7 0.739279 0.090649 0.922188
O O8 0.806114 0.774710 0.183770
O O9 0.879627 0.678720 0.051222
O O10 0.512745 0.574147 0.704822
O O11 0.786175 0.673139 0.826646
O O12 0.812559 0.898321 0.584637
O O13 0.214056 0.136191 0.641833
O O14 0.374067 0.138381 0.844087
O O15 0.040170 0.706408 0.914126
O O16 0.710825 0.280107 0.012283
O O17 0.500000 0.500000 0.500000
#
# Coordination Sequence:
#
# PCOD9046961 Si02
#       8
#     2   2   2   2   2   2   2   2
#     4  10  17  34  56  88 117 141 175 230 278 326
#     4   9  20  34  57  88 106 143 181 225 276 326
#     4   9  20  36  59  85 112 142 182 232 275 326
#     4  10  20  36  57  86 115 143 182 228 273 332
#     4  10  20  36  58  86 113 140 190 226 277 329
#     4  11  24  39  54  79 115 148 188 230 279 323
#     4  10  19  32  54  89 116 145 177 225 277 329
#     4  11  24  38  55  81 111 149 188 233 274 330
#
# _framework density 23.399766
#
# number of rings (size 3 to 8) (size 9 to 14) (size 15 to 20)
#    0.750    1.250    1.250    3.000    3.500    5.000 
#    0.000    0.625    0.000    0.750    0.000    0.000 
#    0.000    0.000    0.000    0.000    0.000    0.000 
#
# Total GULP energy -89307.668927 kJ/mol
# GULP energy per Si atom -5581.729308 kJ/mol
# Density = 2.334651 g / cm^3
# Si number density = 23.399766 Si / 1000 Ang^3
#
#
#
# Elastic Constant Matrix: (Units=GPa)
#
#
# Indices 1 2 3 4 5 6 
#
# 1 93.6230 27.4756 46.1397 8.1739 4.5819 -28.1933
# 2 27.4756 52.4976 24.1369 0.9469 -4.0583 -26.3960
# 3 46.1397 24.1369 154.9395 13.5406 -4.3623 -29.9884
# 4 8.1739 0.9469 13.5406 32.0461 -23.0208 -3.5041
# 5 4.5819 -4.0583 -4.3623 -23.0208 33.2432 2.8661
# 6 -28.1933 -26.3960 -29.9884 -3.5041 2.8661 44.3138
#
#
#
# Elastic Compliance Matrix: (Units=1/GPa)
#
#
# Indices 1 2 3 4 5 6 
#
# 1 0.016554 -0.005400 -0.002425 -0.010179 -0.010788 0.005567
# 2 -0.005400 0.029798 -0.000892 0.009140 0.009402 0.013825
# 3 -0.002425 -0.000892 0.008217 -0.003451 -0.001371 0.003302
# 4 -0.010179 0.009140 -0.003451 0.072483 0.052349 -0.001022
# 5 -0.010788 0.009402 -0.001371 0.052349 0.069004 -0.002515
# 6 0.005567 0.013825 0.003302 -0.001022 -0.002515 0.036660
#
#
# Mechanical properties :
#
#
# Convention : Reuss Voigt Hill
#
# Bulk Modulus (GPa) = 26.92886 55.17385 41.05136
# Shear Modulus (GPa) = 19.04543 35.47448 27.25995
#
# Velocity S-wave (km/s) = 2.85602 3.89783 3.41686
# Velocity P-wave (km/s) = 4.73381 6.62476 5.75745
#
# Compressibility (1/GPa) = 0.03713488
#
# Stress axis : x y z
#
# Youngs Moduli (GPa) = 60.40735 33.55933 121.69211
#
# Poissons Ratio (x) = 0.18123 0.29511
# Poissons Ratio (y) = 0.32621 0.10857
# Poissons Ratio (z) = 0.14649 0.02994
#
# Static dielectric constant tensor:
#      x y z
#    x 1.910560 0.049200 -0.055420 
#    y 0.049200 1.967610 -0.045760 
#    z -0.055420 -0.045760 1.914010 
# 
# From -- ./inp_files/419190.got.cif
#   From: 2010.05.17/outbox.cif.g08.bks.cpg/sg2_210_cif.got.tgz:419190.got - 2010.06.03 11:33:40.
