data_PCOD9046360
_publ_section_title
;
Structure prediction by ZEFSAII (Michael W. Deem and Ramdas Pophale) SiO2 
 PCOD9046360
Probable space group: P -1
;
_chemical_formula_sum "Si O2"
_cell_formula_units_Z 16
_cell_length_a 14.723705
_cell_length_b 15.011532
_cell_length_c 15.758507
_cell_angle_alpha 36.518781
_cell_angle_beta 35.972148
_cell_angle_gamma 20.025897
_cell_volume 684.190777
_symmetry_space_group_name_H-M "P -1"
_symmetry_group_IT_number 2
_symmetry_cell_setting 'triclinic'
loop_
_space_group_symop_operation_xyz
x,y,z
-x,-y,-z
loop_
_atom_site_type_symbol
_atom_site_label
_atom_site_fract_x
_atom_site_fract_y
_atom_site_fract_z
Si Si1 0.906509 0.168242 0.723329
Si Si2 0.677583 0.164108 0.768813
Si Si3 0.665049 0.344564 0.112525
Si Si4 0.919402 0.401792 0.182899
Si Si5 0.551884 0.091599 0.090423
Si Si6 0.915504 0.645603 0.541078
Si Si7 0.473212 0.770890 0.830533
Si Si8 0.075567 0.473770 0.739164
O O1 0.810961 0.211976 0.665265
O O2 0.632962 0.408909 0.804056
O O3 0.083773 0.176140 0.598234
O O4 0.104568 0.871512 0.826623
O O5 0.390232 0.397767 0.758945
O O6 0.602525 0.147109 0.927936
O O7 0.880880 0.886892 0.781423
O O8 0.683451 0.187959 0.156011
O O9 0.671796 0.482516 0.940023
O O10 0.939734 0.392711 0.276557
O O11 0.000000 0.500000 0.000000
O O12 0.695626 0.041093 0.104595
O O13 0.227788 0.354471 0.151926
O O14 0.675457 0.829825 0.186566
O O15 0.099334 0.476289 0.617752
O O16 0.000000 0.500000 0.500000
O O17 0.629344 0.792024 0.664203
#
# Coordination Sequence:
#
# PCOD9046360 Si02
#       8
#     2   2   2   2   2   2   2   2
#     4  12  27  46  68 105 146 192 236 289 366 426
#     4  12  23  40  68 103 146 177 225 298 363 416
#     4  11  25  43  70 102 142 181 246 297 357 407
#     4  12  22  41  71 107 139 177 237 298 363 414
#     4  11  21  37  66 102 140 168 229 286 357 405
#     4  11  26  49  73 102 148 196 243 286 355 432
#     4  10  24  42  71 104 139 188 240 301 347 422
#     4  11  25  41  68 105 134 180 235 294 345 422
#
# _framework density 23.385289
#
# number of rings (size 3 to 8) (size 9 to 14) (size 15 to 20)
#    0.000    0.750    5.000    1.875    5.250    4.500 
#    0.000    1.250    0.000    0.000    0.000    0.000 
#    0.000    0.000    0.000    0.000    0.000    0.000 
#
# Total GULP energy -89330.850549 kJ/mol
# GULP energy per Si atom -5583.178159 kJ/mol
# Density = 2.333206 g / cm^3
# Si number density = 23.385289 Si / 1000 Ang^3
#
#
#
# Elastic Constant Matrix: (Units=GPa)
#
#
# Indices 1 2 3 4 5 6 
#
# 1 145.6458 59.5078 27.8023 10.5118 -9.6856 30.8709
# 2 59.5078 24.4425 8.9660 2.8932 15.1356 -17.3068
# 3 27.8023 8.9660 72.5308 0.7882 2.1646 0.5936
# 4 10.5118 2.8932 0.7882 15.2616 5.8645 8.5594
# 5 -9.6856 15.1356 2.1646 5.8645 27.5776 10.6641
# 6 30.8709 -17.3068 0.5936 8.5594 10.6641 42.1534
#
#
#
# Elastic Compliance Matrix: (Units=1/GPa)
#
#
# Indices 1 2 3 4 5 6 
#
# 1 -0.000046 0.012388 -0.001271 -0.003287 -0.009157 0.008122
# 2 0.012388 -0.014641 -0.003371 -0.002483 0.020837 -0.019803
# 3 -0.001271 -0.003371 0.014675 0.001165 0.000389 -0.000995
# 4 -0.003287 -0.002483 0.001165 0.079452 -0.012271 -0.011657
# 5 -0.009157 0.020837 0.000389 -0.012271 0.019205 0.012889
# 6 0.008122 -0.019803 -0.000995 -0.011657 0.012889 0.008765
#
#
# Mechanical properties :
#
#
# Convention : Reuss Voigt Hill
#
# Bulk Modulus (GPa) = 64.60487 48.35238 56.47862
# Shear Modulus (GPa) = 51.50453 26.75474 39.12964
#
# Velocity S-wave (km/s) = 4.69810 3.38610 4.09499
# Velocity P-wave (km/s) = 7.55750 6.00074 6.82366
#
# Compressibility (1/GPa) = 0.01547871
#
# Stress axis : x y z
#
# Youngs Moduli (GPa) = -21794.50856 -68.30116 68.14239
#
# Poissons Ratio (x) = 0.84611 0.08662
# Poissons Ratio (y) = 269.98757 0.22974
# Poissons Ratio (z) = -27.70580 -0.23027
#
# Static dielectric constant tensor:
#      x y z
#    x 1.933070 0.011400 -0.035920 
#    y 0.011400 1.818370 0.010470 
#    z -0.035920 0.010470 1.959100 
# 
# From -- ./inp_files/534249.got.cif
#   From: 2010.05.17/outbox.cif.g08.bks.cpg/sg2_268_cif.got.tgz:534249.got - 2010.06.03 11:33:40.
