data_PCOD9046548
_publ_section_title
;
Structure prediction by ZEFSAII (Michael W. Deem and Ramdas Pophale) SiO2 
 PCOD9046548
Probable space group: P -1
;
_chemical_formula_sum "Si O2"
_cell_formula_units_Z 16
_cell_length_a 26.254902
_cell_length_b 10.017750
_cell_length_c 9.779070
_cell_angle_alpha 139.887495
_cell_angle_beta 152.593318
_cell_angle_gamma 40.062181
_cell_volume 729.697551
_symmetry_space_group_name_H-M "P -1"
_symmetry_group_IT_number 2
_symmetry_cell_setting 'triclinic'
loop_
_space_group_symop_operation_xyz
x,y,z
-x,-y,-z
loop_
_atom_site_type_symbol
_atom_site_label
_atom_site_fract_x
_atom_site_fract_y
_atom_site_fract_z
Si Si1 0.405943 0.664133 0.081507
Si Si2 0.665989 0.585533 0.648360
Si Si3 0.778890 0.162819 0.723435
Si Si4 0.083707 0.753923 0.516385
Si Si5 0.746198 0.981965 0.209543
Si Si6 0.231911 0.437214 0.416575
Si Si7 0.997539 0.302517 0.441107
Si Si8 0.714905 0.056100 0.767836
O O1 0.539043 0.592774 0.301592
O O2 0.398368 0.805705 0.313431
O O3 0.346542 0.470923 0.790241
O O4 0.322452 0.826830 0.902958
O O5 0.705909 0.411956 0.726355
O O6 0.753456 0.526292 0.681083
O O7 0.672829 0.813068 0.897311
O O8 0.723232 0.053945 0.623468
O O9 0.765823 0.056741 0.465594
O O10 0.908432 0.174859 0.073756
O O11 0.120363 0.605039 0.352734
O O12 0.042930 0.630359 0.447262
O O13 0.200376 0.802844 0.879420
O O14 0.000000 0.000000 0.500000
O O15 0.874729 0.860229 0.369149
O O16 0.238256 0.187720 0.257055
O O17 0.000000 0.500000 0.500000
#
# Coordination Sequence:
#
# PCOD9046548 Si02
#       8
#     2   2   2   2   2   2   2   2
#     4  11  24  44  73 100 134 175 236 286 325 400
#     4  12  25  43  73 101 132 179 234 280 333 401
#     4  11  26  43  67 102 141 175 224 278 344 404
#     4  10  24  43  64  98 136 172 228 283 331 400
#     4  12  24  43  70  98 136 175 228 278 333 405
#     4  11  23  42  69  96 134 177 225 277 338 401
#     4  11  23  44  68  97 134 178 221 274 342 401
#     4  10  24  43  64 100 136 177 220 279 343 399
#
# _framework density 21.926891999999999
#
# number of rings (size 3 to 8) (size 9 to 14) (size 15 to 20)
#    0.000    1.000    3.750    2.625    1.750    2.000 
#    0.000    1.250    0.000    0.000    0.000    0.000 
#    0.000    0.000    0.000    0.000    0.000    0.000 
#
# Total GULP energy -89382.290125 kJ/mol
# GULP energy per Si atom -5586.393133 kJ/mol
# Density = 2.187699 g / cm^3
# Si number density = 21.926892 Si / 1000 Ang^3
#
#
#
# Elastic Constant Matrix: (Units=GPa)
#
#
# Indices 1 2 3 4 5 6 
#
# 1 104.7172 14.4131 10.3860 -5.5298 0.9952 2.5661
# 2 14.4131 52.9918 -7.2901 1.0452 18.5335 24.4390
# 3 10.3860 -7.2901 74.7581 0.7999 13.6244 18.4672
# 4 -5.5298 1.0452 0.7999 34.1370 -17.6223 -14.6638
# 5 0.9952 18.5335 13.6244 -17.6223 -5.8802 -28.7413
# 6 2.5661 24.4390 18.4672 -14.6638 -28.7413 -11.7336
#
#
#
# Elastic Compliance Matrix: (Units=1/GPa)
#
#
# Indices 1 2 3 4 5 6 
#
# 1 0.009979 -0.001839 -0.001027 0.000547 -0.001018 -0.001454
# 2 -0.001839 0.014560 -0.000806 0.004966 0.007372 0.004390
# 3 -0.001027 -0.000806 0.011998 0.002919 0.004450 0.002432
# 4 0.000547 0.004966 0.002919 0.023926 -0.002129 -0.009629
# 5 -0.001018 0.007372 0.004450 -0.002129 0.022921 -0.031349
# 6 -0.001454 0.004390 0.002432 -0.009629 -0.031349 0.016251
#
#
# Mechanical properties :
#
#
# Convention : Reuss Voigt Hill
#
# Bulk Modulus (GPa) = 34.25592 29.72057 31.98824
# Shear Modulus (GPa) = 42.84154 17.63519 30.23836
#
# Velocity S-wave (km/s) = 4.42502 2.83905 3.71759
# Velocity P-wave (km/s) = 6.46254 4.93262 5.74870
#
# Compressibility (1/GPa) = 0.02919204
#
# Stress axis : x y z
#
# Youngs Moduli (GPa) = 100.21331 68.68347 83.35016
#
# Poissons Ratio (x) = 0.12634 0.08558
# Poissons Ratio (y) = 0.18433 0.06716
# Poissons Ratio (z) = 0.10290 0.05534
#
# Static dielectric constant tensor:
#      x y z
#    x 1.927540 -0.126260 -0.049480 
#    y -0.126260 2.151950 0.227120 
#    z -0.049480 0.227120 1.929150 
# 
# From -- ./inp_files/352466.got.cif
#   From: 2010.05.17/outbox.cif.g08.bks.cpg/sg2_177_cif.got.tgz:352466.got - 2010.06.03 11:33:40.
