data_PCOD9046721
_publ_section_title
;
Structure prediction by ZEFSAII (Michael W. Deem and Ramdas Pophale) SiO2 
 PCOD9046721
Probable space group: P -1
;
_chemical_formula_sum "Si O2"
_cell_formula_units_Z 16
_cell_length_a 8.598379
_cell_length_b 15.278787
_cell_length_c 9.846250
_cell_angle_alpha 137.181666
_cell_angle_beta 65.018645
_cell_angle_gamma 104.818868
_cell_volume 793.860616
_symmetry_space_group_name_H-M "P -1"
_symmetry_group_IT_number 2
_symmetry_cell_setting 'triclinic'
loop_
_space_group_symop_operation_xyz
x,y,z
-x,-y,-z
loop_
_atom_site_type_symbol
_atom_site_label
_atom_site_fract_x
_atom_site_fract_y
_atom_site_fract_z
Si Si1 0.989608 0.858119 0.970358
Si Si2 0.849120 0.030894 0.699971
Si Si3 0.577514 0.620614 0.039714
Si Si4 0.630717 0.787170 0.471328
Si Si5 0.757469 0.221091 0.729779
Si Si6 0.946064 0.568053 0.735102
Si Si7 0.747384 0.093121 0.298074
Si Si8 0.065156 0.394818 0.744708
O O1 0.100592 0.850061 0.781468
O O2 0.980397 0.718512 0.881946
O O3 0.083290 0.942477 0.144465
O O4 0.805942 0.938899 0.097476
O O5 0.764016 0.158217 0.803780
O O6 0.730977 0.913761 0.599792
O O7 0.000000 0.000000 0.500000
O O8 0.636631 0.722909 0.245788
O O9 0.414776 0.685214 0.095353
O O10 0.500000 0.500000 0.000000
O O11 0.742903 0.569836 0.837291
O O12 0.430424 0.840751 0.625046
O O13 0.742705 0.675478 0.388398
O O14 0.737176 0.127155 0.500749
O O15 0.928123 0.288524 0.699788
O O16 0.000000 0.500000 0.500000
O O17 0.040392 0.478090 0.712689
O O18 0.000000 0.500000 0.000000
#
# Coordination Sequence:
#
# PCOD9046721 Si02
#       8
#     2   2   2   2   2   2   2   2
#     4  11  24  45  65  93 135 168 218 267 338 378
#     4  12  22  39  65  98 127 162 208 276 323 381
#     4  11  23  42  67  96 130 173 222 266 315 396
#     4  11  24  40  70  97 129 166 229 259 332 385
#     4  11  22  39  66  92 130 163 219 265 330 375
#     4  12  26  42  69  97 131 175 223 267 325 388
#     4  10  24  43  67  90 129 174 210 273 327 393
#     4  12  21  41  65  94 129 177 210 267 321 393
#
# _framework density 20.154671
#
# number of rings (size 3 to 8) (size 9 to 14) (size 15 to 20)
#    0.000    0.750    5.000    2.250    3.500    2.500 
#    2.250    0.625    0.000    0.000    0.000    0.000 
#    0.000    0.000    0.000    0.000    0.000    0.000 
#
# Total GULP energy -89222.079033 kJ/mol
# GULP energy per Si atom -5576.379940 kJ/mol
# Density = 2.010880 g / cm^3
# Si number density = 20.154671 Si / 1000 Ang^3
#
#
#
# Elastic Constant Matrix: (Units=GPa)
#
#
# Indices 1 2 3 4 5 6 
#
# 1 106.9700 35.3393 49.5211 10.2732 -38.1026 -25.3124
# 2 35.3393 100.8851 33.3443 9.8788 -10.8114 -27.6423
# 3 49.5211 33.3443 89.7510 -2.3150 -19.9525 -0.0794
# 4 10.2732 9.8788 -2.3150 37.8461 -4.7215 -3.3016
# 5 -38.1026 -10.8114 -19.9525 -4.7215 44.2082 13.1456
# 6 -25.3124 -27.6423 -0.0794 -3.3016 13.1456 46.4384
#
#
#
# Elastic Compliance Matrix: (Units=1/GPa)
#
#
# Indices 1 2 3 4 5 6 
#
# 1 0.018761 -0.000679 -0.007954 -0.003564 0.010037 0.006714
# 2 -0.000679 0.014475 -0.005655 -0.003499 -0.002562 0.008713
# 3 -0.007954 -0.005655 0.018400 0.004417 0.002975 -0.008199
# 4 -0.003564 -0.003499 0.004417 0.028587 0.001866 -0.002514
# 5 0.010037 -0.002562 0.002975 0.001866 0.033819 -0.005490
# 6 0.006714 0.008713 -0.008199 -0.002514 -0.005490 0.031741
#
#
# Mechanical properties :
#
#
# Convention : Reuss Voigt Hill
#
# Bulk Modulus (GPa) = 43.36617 59.33505 51.35061
# Shear Modulus (GPa) = 27.46561 37.65865 32.56213
#
# Velocity S-wave (km/s) = 3.69554 4.32728 4.02383
# Velocity P-wave (km/s) = 6.30656 7.38044 6.86453
#
# Compressibility (1/GPa) = 0.02305945
#
# Stress axis : x y z
#
# Youngs Moduli (GPa) = 53.30147 69.08682 54.34808
#
# Poissons Ratio (x) = 0.04688 0.43230
# Poissons Ratio (y) = 0.03617 0.30735
# Poissons Ratio (z) = 0.42397 0.39070
#
# Static dielectric constant tensor:
#      x y z
#    x 1.676760 0.129630 0.042320 
#    y 0.129630 1.544310 0.042620 
#    z 0.042320 0.042620 1.730870 
# 
# From -- ./inp_files/209196.got.cif
#   From: 2010.05.17/outbox.cif.g08.bks.cpg/sg2_105_cif.got.tgz:209196.got - 2010.06.03 11:33:40.
