data_PCOD9046859
_publ_section_title
;
Structure prediction by ZEFSAII (Michael W. Deem and Ramdas Pophale) SiO2 
 PCOD9046859
Probable space group: P -1
;
_chemical_formula_sum "Si O2"
_cell_formula_units_Z 12
_cell_length_a 8.535770
_cell_length_b 9.065199
_cell_length_c 11.311839
_cell_angle_alpha 128.042049
_cell_angle_beta 67.022472
_cell_angle_gamma 136.621507
_cell_volume 470.766071
_symmetry_space_group_name_H-M "P -1"
_symmetry_group_IT_number 2
_symmetry_cell_setting 'triclinic'
loop_
_space_group_symop_operation_xyz
x,y,z
-x,-y,-z
loop_
_atom_site_type_symbol
_atom_site_label
_atom_site_fract_x
_atom_site_fract_y
_atom_site_fract_z
Si Si1 0.947149 0.149065 0.523215
Si Si2 0.646924 0.845990 0.108995
Si Si3 0.408244 0.144640 0.128013
Si Si4 0.931404 0.643705 0.646309
Si Si5 0.440770 0.359952 0.725605
Si Si6 0.168620 0.716680 0.156428
O O1 0.940852 0.314652 0.699736
O O2 0.110837 0.278933 0.425976
O O3 0.698043 0.914534 0.426148
O O4 0.000000 0.000000 0.500000
O O5 0.639226 0.684158 0.135585
O O6 0.397099 0.761544 0.134278
O O7 0.713328 0.871467 0.964133
O O8 0.849418 0.126320 0.234133
O O9 0.577046 0.449931 0.241053
O O10 0.252254 0.975182 0.200878
O O11 0.500000 0.000000 0.000000
O O12 0.701166 0.484361 0.707582
O O13 0.000000 0.500000 0.500000
O O14 0.000000 0.500000 0.000000
#
# Coordination Sequence:
#
# PCOD9046859 Si02
#       6
#     2   2   2   2   2   2
#     4  11  26  43  69 102 137 178 234 284 344 408
#     4  10  24  44  68 102 137 179 234 279 344 414
#     4  10  24  43  68  98 138 185 226 283 350 403
#     4  11  24  42  73  98 137 182 227 286 347 403
#     4  11  24  46  70 101 138 180 233 293 340 406
#     4  11  25  44  70 102 141 184 229 282 347 415
#
# _framework density 25.490368
#
# number of rings (size 3 to 8) (size 9 to 14) (size 15 to 20)
#    0.000    1.333    0.000    3.500    9.333    7.333 
#    0.000    0.000    0.000    0.000    0.000    0.000 
#    0.000    0.000    0.000    0.000    0.000    0.000 
#
# Total GULP energy -66975.051185 kJ/mol
# GULP energy per Si atom -5581.254265 kJ/mol
# Density = 2.543235 g / cm^3
# Si number density = 25.490368 Si / 1000 Ang^3
#
#
#
# Elastic Constant Matrix: (Units=GPa)
#
#
# Indices 1 2 3 4 5 6 
#
# 1 78.4266 8.8258 3.2826 3.4227 -0.7591 -3.7006
# 2 8.8258 94.1985 5.4477 -0.8587 15.6280 -24.2247
# 3 3.2826 5.4477 111.3801 -7.6314 10.0205 16.5798
# 4 3.4227 -0.8587 -7.6314 26.0512 -10.6847 7.5597
# 5 -0.7591 15.6280 10.0205 -10.6847 40.6647 4.4474
# 6 -3.7006 -24.2247 16.5798 7.5597 4.4474 49.8821
#
#
#
# Elastic Compliance Matrix: (Units=1/GPa)
#
#
# Indices 1 2 3 4 5 6 
#
# 1 0.013031 -0.000944 -0.000653 -0.002211 0.000071 0.001054
# 2 -0.000944 0.014312 -0.001713 -0.005606 -0.007550 0.008973
# 3 -0.000653 -0.001713 0.010122 0.004342 -0.000173 -0.004887
# 4 -0.002211 -0.005606 0.004342 0.050044 0.015648 -0.013309
# 5 0.000071 -0.007550 -0.000173 0.015648 0.032620 -0.008884
# 6 0.001054 0.008973 -0.004887 -0.013309 -0.008884 0.028916
#
#
# Mechanical properties :
#
#
# Convention : Reuss Voigt Hill
#
# Bulk Modulus (GPa) = 32.41836 35.45747 33.93791
# Shear Modulus (GPa) = 30.13017 41.08289 35.60653
#
# Velocity S-wave (km/s) = 3.44178 4.01896 3.74152
# Velocity P-wave (km/s) = 5.34228 5.95620 5.65758
#
# Compressibility (1/GPa) = 0.03084672
#
# Stress axis : x y z
#
# Youngs Moduli (GPa) = 76.73863 69.86937 98.79701
#
# Poissons Ratio (x) = 0.06596 0.06448
# Poissons Ratio (y) = 0.07244 0.16921
# Poissons Ratio (z) = 0.05008 0.11967
#
# Static dielectric constant tensor:
#      x y z
#    x 1.662720 0.321400 0.211540 
#    y 0.321400 1.713910 -0.126300 
#    z 0.211540 -0.126300 2.112790 
# 
# From -- ./inp_files/60253.got.cif
#   From: 2010.05.17/outbox.cif.g08.bks.cpg/sg2_31_cif.got.tgz:60253.got - 2010.06.03 11:33:40.
