data_PCOD9046612
_publ_section_title
;
Structure prediction by ZEFSAII (Michael W. Deem and Ramdas Pophale) SiO2 
 PCOD9046612
Probable space group: P -1
;
_chemical_formula_sum "Si O2"
_cell_formula_units_Z 16
_cell_length_a 21.969577
_cell_length_b 8.857495
_cell_length_c 7.871807
_cell_angle_alpha 127.228325
_cell_angle_beta 32.904299
_cell_angle_gamma 116.407624
_cell_volume 655.468726
_symmetry_space_group_name_H-M "P -1"
_symmetry_group_IT_number 2
_symmetry_cell_setting 'triclinic'
loop_
_space_group_symop_operation_xyz
x,y,z
-x,-y,-z
loop_
_atom_site_type_symbol
_atom_site_label
_atom_site_fract_x
_atom_site_fract_y
_atom_site_fract_z
Si Si1 0.687575 0.865358 0.683100
Si Si2 0.129214 0.397190 0.774420
Si Si3 0.625089 0.967945 0.263319
Si Si4 0.013853 0.320442 0.469653
Si Si5 0.732572 0.237988 0.635959
Si Si6 0.760645 0.622672 0.862404
Si Si7 0.540883 0.315867 0.893107
Si Si8 0.974898 0.081629 0.808167
O O1 0.787595 0.688166 0.326766
O O2 0.699304 0.048028 0.669045
O O3 0.568617 0.786731 0.880262
O O4 0.699024 0.931478 0.897552
O O5 0.197502 0.428179 0.463972
O O6 0.047489 0.242215 0.812483
O O7 0.061027 0.594622 0.135913
O O8 0.630736 0.164095 0.477422
O O9 0.500000 0.000000 0.500000
O O10 0.653138 0.786991 0.199714
O O11 0.142564 0.281120 0.208234
O O12 0.000000 0.500000 0.500000
O O13 0.988054 0.121409 0.318166
O O14 0.758728 0.416313 0.811791
O O15 0.616927 0.348083 0.896157
O O16 0.844493 0.160854 0.211813
O O17 0.500000 0.500000 0.000000
O O18 0.000000 0.000000 0.500000
#
# Coordination Sequence:
#
# PCOD9046612 Si02
#       8
#     2   2   2   2   2   2   2   2
#     4  10  24  43  65  99 136 174 219 289 341 392
#     4  11  23  46  66  94 142 177 235 276 331 414
#     4   9  20  42  67  90 122 171 226 270 329 411
#     4  12  25  40  63  99 136 178 226 282 342 399
#     4  12  24  41  69 100 138 174 221 292 348 386
#     4  11  22  43  65  95 134 179 224 281 335 410
#     4  11  23  45  71  96 128 178 230 273 338 416
#     4  12  25  42  72 100 133 190 232 273 340 415
#
# _framework density 24.410015000000001
#
# number of rings (size 3 to 8) (size 9 to 14) (size 15 to 20)
#    0.000    1.000    2.500    5.250    3.500    1.000 
#    0.000    8.125    0.000    0.000    0.000    0.000 
#    0.000    0.000    0.000    0.000    0.000    0.000 
#
# Total GULP energy -89417.447437 kJ/mol
# GULP energy per Si atom -5588.590465 kJ/mol
# Density = 2.435446 g / cm^3
# Si number density = 24.410015 Si / 1000 Ang^3
#
#
#
# Elastic Constant Matrix: (Units=GPa)
#
#
# Indices 1 2 3 4 5 6 
#
# 1 29.8769 9.3259 24.5584 -1.2095 -20.1249 -2.3535
# 2 9.3259 162.2097 50.7717 16.1414 -15.3408 -1.1865
# 3 24.5584 50.7717 96.9327 23.1459 -22.4629 3.0418
# 4 -1.2095 16.1414 23.1459 49.5875 -0.1951 -1.4664
# 5 -20.1249 -15.3408 -22.4629 -0.1951 41.6977 8.8404
# 6 -2.3535 -1.1865 3.0418 -1.4664 8.8404 38.6826
#
#
#
# Elastic Compliance Matrix: (Units=1/GPa)
#
#
# Indices 1 2 3 4 5 6 
#
# 1 0.058086 0.001904 -0.012088 0.006518 0.022319 -0.000311
# 2 0.001904 0.007485 -0.003940 -0.000536 0.001485 0.000296
# 3 -0.012088 -0.003940 0.018062 -0.007528 0.003105 -0.003272
# 4 0.006518 -0.000536 -0.007528 0.024074 -0.001465 0.002219
# 5 0.022319 0.001485 0.003105 -0.001465 0.038603 -0.007718
# 6 -0.000311 0.000296 -0.003272 0.002219 -0.007718 0.027947
#
#
# Mechanical properties :
#
#
# Convention : Reuss Voigt Hill
#
# Bulk Modulus (GPa) = 18.05530 50.92568 34.49049
# Shear Modulus (GPa) = 22.62791 39.61778 31.12284
#
# Velocity S-wave (km/s) = 3.04796 4.03303 3.57459
# Velocity P-wave (km/s) = 4.44966 6.52649 5.58545
#
# Compressibility (1/GPa) = 0.05538540
#
# Stress axis : x y z
#
# Youngs Moduli (GPa) = 17.21578 133.60941 55.36373
#
# Poissons Ratio (x) = -0.25440 0.66925
# Poissons Ratio (y) = -0.03278 0.21812
# Poissons Ratio (z) = 0.20811 0.52638
#
# Static dielectric constant tensor:
#      x y z
#    x 2.140170 0.013110 0.038830 
#    y 0.013110 2.043840 -0.024820 
#    z 0.038830 -0.024820 2.045020 
# 
# From -- ./inp_files/352357.got.cif
#   From: 2010.05.17/outbox.cif.g08.bks.cpg/sg2_177_cif.got.tgz:352357.got - 2010.06.03 11:33:40.
