data_PCOD9046137
_publ_section_title
;
Structure prediction by ZEFSAII (Michael W. Deem and Ramdas Pophale) SiO2 
 PCOD9046137
Probable space group: P -1
;
_chemical_formula_sum "Si O2"
_cell_formula_units_Z 16
_cell_length_a 8.452371
_cell_length_b 12.821963
_cell_length_c 9.623515
_cell_angle_alpha 120.846443
_cell_angle_beta 103.954362
_cell_angle_gamma 59.726204
_cell_volume 773.101763
_symmetry_space_group_name_H-M "P -1"
_symmetry_group_IT_number 2
_symmetry_cell_setting 'triclinic'
loop_
_space_group_symop_operation_xyz
x,y,z
-x,-y,-z
loop_
_atom_site_type_symbol
_atom_site_label
_atom_site_fract_x
_atom_site_fract_y
_atom_site_fract_z
Si Si1 0.949458 0.502340 0.830917
Si Si2 0.098043 0.746654 0.455203
Si Si3 0.241681 0.032286 0.039564
Si Si4 0.374247 0.626289 0.653646
Si Si5 0.333937 0.706649 0.212677
Si Si6 0.408831 0.227641 0.127978
Si Si7 0.293819 0.520114 0.847956
Si Si8 0.048399 0.994318 0.233925
O O1 0.092519 0.534932 0.796258
O O2 0.978547 0.352979 0.689590
O O3 0.743646 0.625185 0.857427
O O4 0.000000 0.500000 0.000000
O O5 0.178744 0.688717 0.583367
O O6 0.257450 0.723822 0.363708
O O7 0.984712 0.906367 0.573720
O O8 0.297619 0.153236 0.117519
O O9 0.112166 0.051953 0.155559
O O10 0.128050 0.021856 0.872669
O O11 0.432495 0.893882 0.010577
O O12 0.500000 0.500000 0.500000
O O13 0.460699 0.729768 0.725823
O O14 0.357413 0.585966 0.780340
O O15 0.553776 0.637584 0.214640
O O16 0.213456 0.848067 0.207107
O O17 0.295628 0.596541 0.042494
#
# Coordination Sequence:
#
# PCOD9046137 Si02
#       8
#     2   2   2   2   2   2   2   2
#     4  12  26  43  69 102 138 172 227 284 339 405
#     4  12  25  44  68 102 137 177 224 282 342 398
#     4  10  24  42  68 101 132 181 224 280 331 407
#     4  12  23  44  70 101 137 174 225 286 334 398
#     4  11  23  44  68  95 136 183 222 277 334 409
#     4  11  23  43  68  99 135 175 226 275 337 398
#     4  11  25  42  72 100 131 184 228 269 346 401
#     4  11  24  43  68  97 138 178 232 271 342 399
#
# _framework density 20.695851000000001
#
# number of rings (size 3 to 8) (size 9 to 14) (size 15 to 20)
#    0.000    0.750    5.000    1.875    7.000    1.500 
#    0.000    0.625    0.000    0.000    0.000    0.000 
#    0.000    0.000    0.000    0.000    0.000    0.000 
#
# Total GULP energy -89231.753695 kJ/mol
# GULP energy per Si atom -5576.984606 kJ/mol
# Density = 2.064875 g / cm^3
# Si number density = 20.695851 Si / 1000 Ang^3
#
#
#
# Elastic Constant Matrix: (Units=GPa)
#
#
# Indices 1 2 3 4 5 6 
#
# 1 82.0395 18.8941 40.4987 6.6671 5.6293 9.8452
# 2 18.8941 81.2358 45.5210 13.4464 -5.0648 -13.1410
# 3 40.4987 45.5210 108.9690 18.2850 0.7346 6.1242
# 4 6.6671 13.4464 18.2850 34.8729 -2.5463 1.4182
# 5 5.6293 -5.0648 0.7346 -2.5463 32.1028 6.9564
# 6 9.8452 -13.1410 6.1242 1.4182 6.9564 33.9431
#
#
#
# Elastic Compliance Matrix: (Units=1/GPa)
#
#
# Indices 1 2 3 4 5 6 
#
# 1 0.015578 -0.001670 -0.004901 0.000246 -0.002024 -0.003876
# 2 -0.001670 0.018812 -0.007170 -0.003450 0.001210 0.008957
# 3 -0.004901 -0.007170 0.014873 -0.003947 -0.000090 -0.003854
# 4 0.000246 -0.003450 -0.003947 0.032325 0.002627 -0.002584
# 5 -0.002024 0.001210 -0.000090 0.002627 0.033171 -0.005836
# 6 -0.003876 0.008957 -0.003854 -0.002584 -0.005836 0.036053
#
#
# Mechanical properties :
#
#
# Convention : Reuss Voigt Hill
#
# Bulk Modulus (GPa) = 45.91670 53.56354 49.74012
# Shear Modulus (GPa) = 26.94618 31.33912 29.14265
#
# Velocity S-wave (km/s) = 3.61225 3.89558 3.75659
# Velocity P-wave (km/s) = 6.29543 6.79497 6.54996
#
# Compressibility (1/GPa) = 0.02177857
#
# Stress axis : x y z
#
# Youngs Moduli (GPa) = 64.19487 53.15812 67.23434
#
# Poissons Ratio (x) = 0.08880 0.32954
# Poissons Ratio (y) = 0.10723 0.48209
# Poissons Ratio (z) = 0.31465 0.38116
#
# Static dielectric constant tensor:
#      x y z
#    x 1.754560 -0.015970 0.005620 
#    y -0.015970 1.727470 0.035890 
#    z 0.005620 0.035890 1.717700 
# 
# From -- ./inp_files/190170.got.cif
#   From: 2010.05.17/outbox.cif.g08.bks.cpg/sg2_96_cif.got.tgz:190170.got - 2010.06.03 11:33:40.
