data_PCOD9046477
_publ_section_title
;
Structure prediction by ZEFSAII (Michael W. Deem and Ramdas Pophale) SiO2 
 PCOD9046477
Probable space group: P -1
;
_chemical_formula_sum "Si O2"
_cell_formula_units_Z 16
_cell_length_a 11.758302
_cell_length_b 19.114991
_cell_length_c 8.022387
_cell_angle_alpha 49.258055
_cell_angle_beta 50.415224
_cell_angle_gamma 30.613173
_cell_volume 682.231273
_symmetry_space_group_name_H-M "P -1"
_symmetry_group_IT_number 2
_symmetry_cell_setting 'triclinic'
loop_
_space_group_symop_operation_xyz
x,y,z
-x,-y,-z
loop_
_atom_site_type_symbol
_atom_site_label
_atom_site_fract_x
_atom_site_fract_y
_atom_site_fract_z
Si Si1 0.512268 0.096192 0.767133
Si Si2 0.508849 0.334952 0.006574
Si Si3 0.815446 0.643851 0.547762
Si Si4 0.000244 0.890174 0.644947
Si Si5 0.706161 0.395856 0.337700
Si Si6 0.028426 0.131090 0.912550
Si Si7 0.119268 0.258593 0.386727
Si Si8 0.518470 0.180676 0.981360
O O1 0.301003 0.217744 0.658761
O O2 0.504973 0.172521 0.808783
O O3 0.762248 0.984573 0.625210
O O4 0.500000 0.000000 0.000000
O O5 0.399000 0.318393 0.267127
O O6 0.453543 0.309390 0.922651
O O7 0.381996 0.493124 0.894333
O O8 0.776287 0.222120 0.952364
O O9 0.934572 0.627322 0.625834
O O10 0.000000 0.500000 0.500000
O O11 0.214393 0.742647 0.581872
O O12 0.984225 0.848696 0.906152
O O13 0.000000 0.000000 0.500000
O O14 0.500000 0.500000 0.500000
O O15 0.932502 0.331109 0.307817
O O16 0.105869 0.177783 0.648797
O O17 0.223753 0.961081 0.980839
O O18 0.360702 0.173902 0.215318
#
# Coordination Sequence:
#
# PCOD9046477 Si02
#       8
#     2   2   2   2   2   2   2   2
#     4  11  24  46  72 104 140 191 243 297 354 432
#     4  11  26  45  68 107 146 190 237 302 368 436
#     4  11  27  44  72 107 147 192 244 301 364 433
#     4  11  27  46  74 101 140 190 244 296 361 434
#     4  12  28  47  73 106 146 193 238 302 374 433
#     4  11  23  45  71 104 141 188 241 300 359 433
#     4  11  25  43  69 105 142 187 239 301 359 432
#     4  10  24  42  74 102 145 183 242 296 368 425
#
# _framework density 23.452456000000002
#
# number of rings (size 3 to 8) (size 9 to 14) (size 15 to 20)
#    0.000    1.000    1.250    3.750   10.500    6.500 
#    0.000    0.000    0.000    0.000    0.000    0.000 
#    0.000    0.000    0.000    0.000    0.000    0.000 
#
# Total GULP energy -89480.962441 kJ/mol
# GULP energy per Si atom -5592.560153 kJ/mol
# Density = 2.339908 g / cm^3
# Si number density = 23.452456 Si / 1000 Ang^3
#
#
#
# Elastic Constant Matrix: (Units=GPa)
#
#
# Indices 1 2 3 4 5 6 
#
# 1 87.3627 37.4515 3.9409 -2.0120 -10.2585 -13.5066
# 2 37.4515 138.9951 24.8584 3.2597 -12.5791 7.1095
# 3 3.9409 24.8584 75.2121 3.5565 -13.0038 -6.1245
# 4 -2.0120 3.2597 3.5565 27.6382 3.7020 5.4854
# 5 -10.2585 -12.5791 -13.0038 3.7020 30.1189 -0.2898
# 6 -13.5066 7.1095 -6.1245 5.4854 -0.2898 32.6161
#
#
#
# Elastic Compliance Matrix: (Units=1/GPa)
#
#
# Indices 1 2 3 4 5 6 
#
# 1 0.014903 -0.004370 0.002071 -0.000768 0.004313 0.007680
# 2 -0.004370 0.009229 -0.002972 -0.000312 0.001080 -0.004318
# 3 0.002071 -0.002972 0.015932 -0.003483 0.006821 0.005143
# 4 -0.000768 -0.000312 -0.003483 0.039010 -0.006763 -0.007525
# 5 0.004313 0.001080 0.006821 -0.006763 0.038939 0.004315
# 6 0.007680 -0.004318 0.005143 -0.007525 0.004315 0.037051
#
#
# Mechanical properties :
#
#
# Convention : Reuss Voigt Hill
#
# Bulk Modulus (GPa) = 33.87222 48.23015 41.05118
# Shear Modulus (GPa) = 28.49851 33.76259 31.13055
#
# Velocity S-wave (km/s) = 3.48970 3.79835 3.64729
# Velocity P-wave (km/s) = 5.54181 6.31239 5.93961
#
# Compressibility (1/GPa) = 0.02952272
#
# Stress axis : x y z
#
# Youngs Moduli (GPa) = 67.10127 108.34932 62.76615
#
# Poissons Ratio (x) = 0.47353 -0.12999
# Poissons Ratio (y) = 0.29326 0.18651
# Poissons Ratio (z) = -0.13897 0.32196
#
# Static dielectric constant tensor:
#      x y z
#    x 1.883160 0.029060 0.013360 
#    y 0.029060 1.871420 0.014490 
#    z 0.013360 0.014490 1.945280 
# 
# From -- ./inp_files/278968.got.cif
#   From: 2010.05.17/outbox.cif.g08.bks.cpg/sg2_140_cif.got.tgz:278968.got - 2010.06.03 11:33:40.
