data_PCOD9046818
_publ_section_title
;
Structure prediction by ZEFSAII (Michael W. Deem and Ramdas Pophale) SiO2 
 PCOD9046818
Probable space group: P -1
;
_chemical_formula_sum "Si O2"
_cell_formula_units_Z 16
_cell_length_a 8.332252
_cell_length_b 7.248629
_cell_length_c 11.826421
_cell_angle_alpha 66.521758
_cell_angle_beta 88.346660
_cell_angle_gamma 59.770393
_cell_volume 552.609444
_symmetry_space_group_name_H-M "P -1"
_symmetry_group_IT_number 2
_symmetry_cell_setting 'triclinic'
loop_
_space_group_symop_operation_xyz
x,y,z
-x,-y,-z
loop_
_atom_site_type_symbol
_atom_site_label
_atom_site_fract_x
_atom_site_fract_y
_atom_site_fract_z
Si Si1 0.232980 0.387510 0.830411
Si Si2 0.543628 0.165530 0.726288
Si Si3 0.214781 0.752873 0.175541
Si Si4 0.787989 0.031398 0.180821
Si Si5 0.664603 0.546821 0.528367
Si Si6 0.627336 0.630000 0.917352
Si Si7 0.068314 0.147453 0.533654
Si Si8 0.194209 0.188340 0.297623
O O1 0.358844 0.412410 0.726680
O O2 0.259426 0.147134 0.836646
O O3 0.012411 0.596347 0.783463
O O4 0.303014 0.365980 0.961094
O O5 0.658384 0.131977 0.855713
O O6 0.432545 0.199985 0.597167
O O7 0.755210 0.068767 0.681783
O O8 0.303592 0.531052 0.319893
O O9 0.240000 0.608603 0.095892
O O10 0.993642 0.948451 0.149184
O O11 0.821289 0.990376 0.323474
O O12 0.592618 0.282715 0.108106
O O13 0.500000 0.500000 0.500000
O O14 0.879170 0.389831 0.515795
O O15 0.645510 0.830621 0.792655
O O16 0.191681 0.193487 0.430310
O O17 0.000000 0.000000 0.500000
#
# Coordination Sequence:
#
# PCOD9046818 Si02
#       8
#     2   2   2   2   2   2   2   2
#     4  12  26  48  68 100 142 184 243 286 334 412
#     4  11  24  43  70 103 139 184 229 293 350 404
#     4  10  24  43  68 104 139 178 232 292 348 404
#     4  11  25  44  71 100 140 182 229 287 350 412
#     4   9  19  39  63  94 142 170 213 280 346 404
#     4  12  27  44  74  97 138 192 238 283 338 414
#     4  11  24  42  71 108 142 175 224 292 354 417
#     4  12  25  43  73 101 137 185 233 282 352 411
#
# _framework density 28.953538999999999
#
# number of rings (size 3 to 8) (size 9 to 14) (size 15 to 20)
#    0.000    1.000    3.750    3.000    5.250    3.500 
#    0.000    1.250    0.000    0.000    0.000    0.000 
#    0.000    0.000    0.000    0.000    0.000    0.000 
#
# Total GULP energy -89221.693065 kJ/mol
# GULP energy per Si atom -5576.355817 kJ/mol
# Density = 2.888764 g / cm^3
# Si number density = 28.953539 Si / 1000 Ang^3
#
#
#
# Elastic Constant Matrix: (Units=GPa)
#
#
# Indices 1 2 3 4 5 6 
#
# 1 97.1335 33.4968 65.0753 10.4431 4.6833 -8.0632
# 2 33.4968 143.5600 80.9773 1.6714 11.3926 -33.0096
# 3 65.0753 80.9773 276.0495 17.8586 28.5557 -29.9389
# 4 10.4431 1.6714 17.8586 52.1121 -8.1462 -0.4148
# 5 4.6833 11.3926 28.5557 -8.1462 51.5596 4.8687
# 6 -8.0632 -33.0096 -29.9389 -0.4148 4.8687 65.1138
#
#
#
# Elastic Compliance Matrix: (Units=1/GPa)
#
#
# Indices 1 2 3 4 5 6 
#
# 1 0.012644 -0.001670 -0.002479 -0.001574 0.000388 -0.000460
# 2 -0.001670 0.009355 -0.001855 0.000519 -0.001163 0.003773
# 3 -0.002479 -0.001855 0.005285 -0.001664 -0.002685 0.001373
# 4 -0.001574 0.000519 -0.001664 0.020725 0.004308 -0.000887
# 5 0.000388 -0.001163 -0.002685 0.004308 0.022105 -0.003401
# 6 -0.000460 0.003773 0.001373 -0.000887 -0.003401 0.018094
#
#
# Mechanical properties :
#
#
# Convention : Reuss Voigt Hill
#
# Bulk Modulus (GPa) = 65.45686 97.31575 81.38630
# Shear Modulus (GPa) = 47.47946 56.23670 51.85808
#
# Velocity S-wave (km/s) = 4.05390 4.41194 4.23671
# Velocity P-wave (km/s) = 6.67598 7.72254 7.21825
#
# Compressibility (1/GPa) = 0.01527724
#
# Stress axis : x y z
#
# Youngs Moduli (GPa) = 79.08761 106.88945 189.20576
#
# Poissons Ratio (x) = 0.17852 0.46904
# Poissons Ratio (y) = 0.13209 0.35091
# Poissons Ratio (z) = 0.19606 0.19824
#
# Static dielectric constant tensor:
#      x y z
#    x 2.846530 0.466370 -0.220040 
#    y 0.466370 2.598520 -0.174810 
#    z -0.220040 -0.174810 2.445430 
# 
# From -- ./inp_files/381989.got.cif
#   From: 2010.05.17/outbox.cif.g08.bks.cpg/sg2_191_cif.got.tgz:381989.got - 2010.06.03 11:33:40.
