data_PCOD9046064
_publ_section_title
;
Structure prediction by ZEFSAII (Michael W. Deem and Ramdas Pophale) SiO2 
 PCOD9046064
Probable space group: P -1
;
_chemical_formula_sum "Si O2"
_cell_formula_units_Z 16
_cell_length_a 18.572080
_cell_length_b 9.254223
_cell_length_c 11.959192
_cell_angle_alpha 130.317829
_cell_angle_beta 44.669654
_cell_angle_gamma 91.576869
_cell_volume 650.496734
_symmetry_space_group_name_H-M "P -1"
_symmetry_group_IT_number 2
_symmetry_cell_setting 'triclinic'
loop_
_space_group_symop_operation_xyz
x,y,z
-x,-y,-z
loop_
_atom_site_type_symbol
_atom_site_label
_atom_site_fract_x
_atom_site_fract_y
_atom_site_fract_z
Si Si1 0.523478 0.676074 0.524700
Si Si2 0.042589 0.816621 0.678016
Si Si3 0.112853 0.974314 0.286830
Si Si4 0.144991 0.355874 0.517572
Si Si5 0.829459 0.742934 0.219426
Si Si6 0.452021 0.855658 0.464340
Si Si7 0.265956 0.431544 0.597898
Si Si8 0.671600 0.321042 0.782708
O O1 0.500000 0.500000 0.500000
O O2 0.392448 0.895056 0.675655
O O3 0.554284 0.762541 0.641482
O O4 0.711843 0.399107 0.121164
O O5 0.085342 0.576579 0.590332
O O6 0.214766 0.691652 0.414367
O O7 0.993127 0.834048 0.614950
O O8 0.872049 0.194879 0.093904
O O9 0.167305 0.103035 0.332702
O O10 0.000000 0.000000 0.500000
O O11 0.287640 0.260838 0.382882
O O12 0.990216 0.574429 0.887400
O O13 0.824403 0.553577 0.194993
O O14 0.686416 0.947291 0.382450
O O15 0.787600 0.960923 0.469742
O O16 0.500000 0.000000 0.500000
O O17 0.608527 0.497877 0.058944
O O18 0.500000 0.500000 0.000000
#
# Coordination Sequence:
#
# PCOD9046064 Si02
#       8
#     2   2   2   2   2   2   2   2
#     4  11  26  46  70 101 144 184 230 298 360 418
#     4  11  24  43  69 104 142 176 237 293 354 416
#     4  11  26  46  73 106 140 189 243 288 350 430
#     4  12  25  42  74 102 142 180 232 303 357 409
#     4  11  24  42  69 100 135 189 237 283 353 424
#     4  11  24  43  69  94 135 183 236 283 349 425
#     4  11  24  43  69 103 138 183 236 287 348 430
#     4  10  24  42  66  99 137 181 234 288 346 426
#
# _framework density 24.596588000000001
#
# number of rings (size 3 to 8) (size 9 to 14) (size 15 to 20)
#    0.000    1.000    2.500    3.375    8.750    2.000 
#    0.000    0.625    0.000    0.000    0.000    0.000 
#    0.000    0.000    0.000    0.000    0.000    0.000 
#
# Total GULP energy -89395.107277 kJ/mol
# GULP energy per Si atom -5587.194205 kJ/mol
# Density = 2.454061 g / cm^3
# Si number density = 24.596588 Si / 1000 Ang^3
#
#
#
# Elastic Constant Matrix: (Units=GPa)
#
#
# Indices 1 2 3 4 5 6 
#
# 1 205.9023 63.2011 32.9937 7.3742 24.9656 7.9941
# 2 63.2011 138.1876 -5.8372 2.7136 8.6224 -10.6397
# 3 32.9937 -5.8372 48.8544 2.0825 9.8127 5.0779
# 4 7.3742 2.7136 2.0825 23.6627 6.6805 4.0899
# 5 24.9656 8.6224 9.8127 6.6805 32.9018 8.7091
# 6 7.9941 -10.6397 5.0779 4.0899 8.7091 49.3420
#
#
#
# Elastic Compliance Matrix: (Units=1/GPa)
#
#
# Indices 1 2 3 4 5 6 
#
# 1 0.006947 -0.003245 -0.004412 -0.000473 -0.002787 -0.000840
# 2 -0.003245 0.009152 0.003349 -0.000328 -0.001516 0.002449
# 3 -0.004412 0.003349 0.024855 0.000239 -0.004919 -0.000272
# 4 -0.000473 -0.000328 0.000239 0.045134 -0.008178 -0.002317
# 5 -0.002787 -0.001516 -0.004919 -0.008178 0.037436 -0.005299
# 6 -0.000840 0.002449 -0.000272 -0.002317 -0.005299 0.022086
#
#
# Mechanical properties :
#
#
# Convention : Reuss Voigt Hill
#
# Bulk Modulus (GPa) = 30.92395 63.73997 47.33196
# Shear Modulus (GPa) = 30.30190 41.35373 35.82781
#
# Velocity S-wave (km/s) = 3.51373 4.10479 3.82071
# Velocity P-wave (km/s) = 5.39087 6.95961 6.22485
#
# Compressibility (1/GPa) = 0.03233740
#
# Stress axis : x y z
#
# Youngs Moduli (GPa) = 143.94109 109.26651 40.23310
#
# Poissons Ratio (x) = 0.35460 0.17752
# Poissons Ratio (y) = 0.46713 -0.13475
# Poissons Ratio (z) = 0.63512 -0.36595
#
# Static dielectric constant tensor:
#      x y z
#    x 2.575740 -0.293860 -0.025140 
#    y -0.293860 2.046140 0.052980 
#    z -0.025140 0.052980 2.023050 
# 
# From -- ./inp_files/462432.got.cif
#   From: 2010.05.17/outbox.cif.g08.bks.cpg/sg2_232_cif.got.tgz:462432.got - 2010.06.03 11:33:40.
