data_PCOD9046784
_publ_section_title
;
Structure prediction by ZEFSAII (Michael W. Deem and Ramdas Pophale) SiO2 
 PCOD9046784
Probable space group: P -1
;
_chemical_formula_sum "Si O2"
_cell_formula_units_Z 16
_cell_length_a 8.311238
_cell_length_b 15.924479
_cell_length_c 8.867704
_cell_angle_alpha 61.921794
_cell_angle_beta 120.132836
_cell_angle_gamma 74.905432
_cell_volume 679.888651
_symmetry_space_group_name_H-M "P -1"
_symmetry_group_IT_number 2
_symmetry_cell_setting 'triclinic'
loop_
_space_group_symop_operation_xyz
x,y,z
-x,-y,-z
loop_
_atom_site_type_symbol
_atom_site_label
_atom_site_fract_x
_atom_site_fract_y
_atom_site_fract_z
Si Si1 0.362340 0.828518 0.938610
Si Si2 0.865411 0.293191 0.094274
Si Si3 0.449415 0.082380 0.551786
Si Si4 0.788530 0.312169 0.393495
Si Si5 0.475252 0.258624 0.238996
Si Si6 0.103629 0.381483 0.550131
Si Si7 0.861905 0.971089 0.074334
Si Si8 0.067596 0.532015 0.156057
O O1 0.356726 0.827833 0.752406
O O2 0.268727 0.753612 0.998153
O O3 0.647874 0.750032 0.170091
O O4 0.217157 0.948014 0.877624
O O5 0.156406 0.176492 0.351085
O O6 0.785361 0.330537 0.197056
O O7 0.815549 0.405342 0.881575
O O8 0.510570 0.168990 0.458040
O O9 0.625117 0.007734 0.840932
O O10 0.500000 0.000000 0.500000
O O11 0.532492 0.343069 0.263461
O O12 0.882723 0.380209 0.440949
O O13 0.970541 0.171760 0.667888
O O14 0.190587 0.353628 0.983141
O O15 0.000000 0.500000 0.500000
O O16 0.185469 0.410220 0.413408
O O17 0.000000 0.000000 0.000000
O O18 0.000000 0.500000 0.000000
#
# Coordination Sequence:
#
# PCOD9046784 Si02
#       8
#     2   2   2   2   2   2   2   2
#     4  11  26  45  71 103 142 179 237 285 346 419
#     4  10  24  43  68 101 132 186 225 281 349 409
#     4  11  24  42  67  98 140 181 225 278 345 411
#     4  11  25  44  71 100 140 181 235 280 350 418
#     4  10  24  45  67 102 139 182 229 282 346 423
#     4  12  26  44  70 105 137 180 236 295 347 402
#     4  12  26  44  71 107 141 182 229 291 346 414
#     4  11  23  45  70  97 139 181 235 286 348 410
#
# _framework density 23.533265
#
# number of rings (size 3 to 8) (size 9 to 14) (size 15 to 20)
#    0.000    1.000    3.750    1.500    5.250    5.000 
#    0.000    0.000    0.000    0.000    0.000    0.000 
#    0.000    0.000    0.000    0.000    0.000    0.000 
#
# Total GULP energy -89327.013096 kJ/mol
# GULP energy per Si atom -5582.938319 kJ/mol
# Density = 2.347970 g / cm^3
# Si number density = 23.533265 Si / 1000 Ang^3
#
#
#
# Elastic Constant Matrix: (Units=GPa)
#
#
# Indices 1 2 3 4 5 6 
#
# 1 84.6614 23.1081 1.1907 -0.9687 -4.8919 20.7883
# 2 23.1081 102.0275 -4.0063 4.7046 -6.0028 12.1241
# 3 1.1907 -4.0063 63.3633 5.3841 -11.6588 4.6125
# 4 -0.9687 4.7046 5.3841 24.6605 9.2242 2.4573
# 5 -4.8919 -6.0028 -11.6588 9.2242 22.9489 -5.1120
# 6 20.7883 12.1241 4.6125 2.4573 -5.1120 38.8863
#
#
#
# Elastic Compliance Matrix: (Units=1/GPa)
#
#
# Indices 1 2 3 4 5 6 
#
# 1 0.014210 -0.002466 -0.000032 0.001664 0.000160 -0.006908
# 2 -0.002466 0.011107 0.002125 -0.004358 0.004881 -0.001480
# 3 -0.000032 0.002125 0.019432 -0.009966 0.014329 -0.000437
# 4 0.001664 -0.004358 -0.009966 0.055141 -0.029277 -0.005682
# 5 0.000160 0.004881 0.014329 -0.029277 0.065528 0.007157
# 6 -0.006908 -0.001480 -0.000437 -0.005682 0.007157 0.031222
#
#
# Mechanical properties :
#
#
# Convention : Reuss Voigt Hill
#
# Bulk Modulus (GPa) = 22.72593 32.29302 27.50948
# Shear Modulus (GPa) = 23.57889 32.61644 28.09767
#
# Velocity S-wave (km/s) = 3.16878 3.72690 3.45911
# Velocity P-wave (km/s) = 4.80272 5.68083 5.26013
#
# Compressibility (1/GPa) = 0.04400260
#
# Stress axis : x y z
#
# Youngs Moduli (GPa) = 70.37383 90.03145 51.46109
#
# Poissons Ratio (x) = 0.22202 0.00165
# Poissons Ratio (y) = 0.17355 -0.10935
# Poissons Ratio (z) = 0.00226 -0.19130
#
# Static dielectric constant tensor:
#      x y z
#    x 1.274070 -0.096080 0.083090 
#    y -0.096080 1.866900 -0.033440 
#    z 0.083090 -0.033440 1.807760 
# 
# From -- ./inp_files/206045.got.cif
#   From: 2010.05.17/outbox.cif.g08.bks.cpg/sg2_104_cif.got.tgz:206045.got - 2010.06.03 11:33:40.
