data_PCOD9046327
_publ_section_title
;
Structure prediction by ZEFSAII (Michael W. Deem and Ramdas Pophale) SiO2 
 PCOD9046327
Probable space group: P -1
;
_chemical_formula_sum "Si O2"
_cell_formula_units_Z 12
_cell_length_a 7.019242
_cell_length_b 16.288044
_cell_length_c 4.779824
_cell_angle_alpha 112.546689
_cell_angle_beta 76.945691
_cell_angle_gamma 120.914727
_cell_volume 432.717338
_symmetry_space_group_name_H-M "P -1"
_symmetry_group_IT_number 2
_symmetry_cell_setting 'triclinic'
loop_
_space_group_symop_operation_xyz
x,y,z
-x,-y,-z
loop_
_atom_site_type_symbol
_atom_site_label
_atom_site_fract_x
_atom_site_fract_y
_atom_site_fract_z
Si Si1 0.109591 0.796294 0.677276
Si Si2 0.808497 0.004527 0.885228
Si Si3 0.553104 0.879468 0.291723
Si Si4 0.444042 0.652557 0.940948
Si Si5 0.970789 0.413308 0.607168
Si Si6 0.686812 0.639475 0.344953
O O1 0.319783 0.850191 0.476246
O O2 0.206611 0.607402 0.114441
O O3 0.884980 0.749702 0.506879
O O4 0.119700 0.877658 0.998207
O O5 0.596951 0.943617 0.080356
O O6 0.742039 0.945187 0.540318
O O7 0.000000 0.000000 0.000000
O O8 0.543816 0.773474 0.086160
O O9 0.609700 0.627418 0.038707
O O10 0.478556 0.625557 0.581091
O O11 0.111297 0.695650 0.663527
O O12 0.000000 0.500000 0.500000
O O13 0.201139 0.428665 0.690801
#
# Coordination Sequence:
#
# PCOD9046327 Si02
#       6
#     2   2   2   2   2   2
#     4   9  22  42  60  97 129 169 220 272 318 395
#     4  12  23  38  62  93 128 172 221 259 325 393
#     4  11  23  38  63  91 132 174 214 263 329 386
#     4  11  22  44  68 100 135 176 218 274 327 397
#     4   9  23  46  70 100 134 174 223 277 334 391
#     4  10  24  42  70  95 138 171 223 270 334 384
#
# _framework density 27.731731
#
# number of rings (size 3 to 8) (size 9 to 14) (size 15 to 20)
#    1.000    0.667    0.000    4.500    0.000    5.333 
#    0.000    1.667    0.000    0.000    0.000    0.000 
#    0.000    0.000    0.000    0.000    0.000    0.000 
#
# Total GULP energy -67375.926078 kJ/mol
# GULP energy per Si atom -5614.660506 kJ/mol
# Density = 2.766861 g / cm^3
# Si number density = 27.731731 Si / 1000 Ang^3
#
#
#
# Elastic Constant Matrix: (Units=GPa)
#
#
# Indices 1 2 3 4 5 6 
#
# 1 125.8601 33.5954 30.0821 -1.0829 1.1130 13.2330
# 2 33.5954 161.7229 57.0428 10.9717 -8.8434 -11.5345
# 3 30.0821 57.0428 124.2433 6.6765 1.3691 -9.0487
# 4 -1.0829 10.9717 6.6765 47.4199 -6.3858 -9.4633
# 5 1.1130 -8.8434 1.3691 -6.3858 52.1247 -3.0541
# 6 13.2330 -11.5345 -9.0487 -9.4633 -3.0541 56.8984
#
#
#
# Elastic Compliance Matrix: (Units=1/GPa)
#
#
# Indices 1 2 3 4 5 6 
#
# 1 0.009042 -0.001514 -0.001693 0.000188 -0.000539 -0.002677
# 2 -0.001514 0.007827 -0.003092 -0.000949 0.001405 0.001365
# 3 -0.001693 -0.003092 0.010007 -0.000590 -0.000752 0.001220
# 4 0.000188 -0.000949 -0.000590 0.022485 0.002814 0.003561
# 5 -0.000539 0.001405 -0.000752 0.002814 0.019906 0.001827
# 6 -0.002677 0.001365 0.001220 0.003561 0.001827 0.019359
#
#
# Mechanical properties :
#
#
# Convention : Reuss Voigt Hill
#
# Bulk Modulus (GPa) = 70.04148 72.58523 71.31335
# Shear Modulus (GPa) = 47.17690 50.69567 48.93629
#
# Velocity S-wave (km/s) = 4.12902 4.28024 4.20531
# Velocity P-wave (km/s) = 6.93133 7.11745 7.02501
#
# Compressibility (1/GPa) = 0.01427725
#
# Stress axis : x y z
#
# Youngs Moduli (GPa) = 110.59428 127.76003 99.92847
#
# Poissons Ratio (x) = 0.19347 0.16919
# Poissons Ratio (y) = 0.16748 0.30899
# Poissons Ratio (z) = 0.18725 0.39504
#
# Static dielectric constant tensor:
#      x y z
#    x 2.195030 0.048330 -0.034070 
#    y 0.048330 2.157460 0.076780 
#    z -0.034070 0.076780 2.116700 
# 
# From -- ./inp_files/49229.got.cif
#   From: 2010.05.17/outbox.cif.g08.bks.cpg/sg2_25_cif.got.tgz:49229.got - 2010.06.03 11:33:40.
