data_PCOD9046077
_publ_section_title
;
Structure prediction by ZEFSAII (Michael W. Deem and Ramdas Pophale) SiO2 
 PCOD9046077
Probable space group: P -1
;
_chemical_formula_sum "Si O2"
_cell_formula_units_Z 14
_cell_length_a 8.121156
_cell_length_b 8.626332
_cell_length_c 13.757802
_cell_angle_alpha 113.149865
_cell_angle_beta 120.201348
_cell_angle_gamma 40.870113
_cell_volume 544.924690
_symmetry_space_group_name_H-M "P -1"
_symmetry_group_IT_number 2
_symmetry_cell_setting 'triclinic'
loop_
_space_group_symop_operation_xyz
x,y,z
-x,-y,-z
loop_
_atom_site_type_symbol
_atom_site_label
_atom_site_fract_x
_atom_site_fract_y
_atom_site_fract_z
Si Si1 0.733779 0.157382 0.361009
Si Si2 0.975392 0.848084 0.176909
Si Si3 0.819603 0.612349 0.814903
Si Si4 0.120920 0.186701 0.515096
Si Si5 0.006441 0.621090 0.670006
Si Si6 0.230346 0.990697 0.032737
Si Si7 0.511077 0.406478 0.871710
O O1 0.462697 0.306514 0.257709
O O2 0.819400 0.292049 0.450277
O O3 0.958705 0.951530 0.300464
O O4 0.734164 0.034204 0.424726
O O5 0.967554 0.656338 0.153285
O O6 0.241156 0.709256 0.155160
O O7 0.737093 0.051969 0.083194
O O8 0.838791 0.770885 0.920219
O O9 0.856432 0.654280 0.727799
O O10 0.175735 0.173053 0.413062
O O11 0.126306 0.373811 0.600783
O O12 0.243160 0.589123 0.775145
O O13 0.457988 0.805410 0.132460
O O14 0.000000 0.000000 0.000000
O O15 0.500000 0.500000 0.000000
#
# Coordination Sequence:
#
# PCOD9046077 Si02
#       7
#     2   2   2   2   2   2   2
#     4  11  25  47  68 104 137 185 239 282 358 403
#     4  11  25  46  70 103 144 184 231 290 349 418
#     4  12  25  44  73 100 144 181 234 292 346 422
#     4  10  24  46  67 100 145 183 237 291 335 422
#     4  11  23  45  70 104 139 185 237 285 353 403
#     4  10  24  42  67 102 136 182 226 284 349 414
#     4  11  25  46  75 105 140 184 234 289 351 423
#
# _framework density 25.69162
#
# number of rings (size 3 to 8) (size 9 to 14) (size 15 to 20)
#    0.000    1.143    1.429    3.857    8.000    1.714 
#   10.286    0.000    0.000    0.000    0.000    0.000 
#    0.000    0.000    0.000    0.000    0.000    0.000 
#
# Total GULP energy -78202.861818 kJ/mol
# GULP energy per Si atom -5585.918701 kJ/mol
# Density = 2.563315 g / cm^3
# Si number density = 25.691620 Si / 1000 Ang^3
#
#
#
# Elastic Constant Matrix: (Units=GPa)
#
#
# Indices 1 2 3 4 5 6 
#
# 1 92.9692 9.8510 30.8827 -16.4405 -16.1702 9.2275
# 2 9.8510 47.3802 29.0610 -10.9340 -3.8831 35.8797
# 3 30.8827 29.0610 148.9231 -23.7353 -20.7501 14.9811
# 4 -16.4405 -10.9340 -23.7353 37.1586 15.8901 -2.1893
# 5 -16.1702 -3.8831 -20.7501 15.8901 54.2339 -1.6834
# 6 9.2275 35.8797 14.9811 -2.1893 -1.6834 46.8776
#
#
#
# Elastic Compliance Matrix: (Units=1/GPa)
#
#
# Indices 1 2 3 4 5 6 
#
# 1 0.012478 0.001884 -0.001745 0.003951 0.001934 -0.003086
# 2 0.001884 0.061217 -0.006061 0.013501 -0.002719 -0.044756
# 3 -0.001745 -0.006061 0.008636 0.002361 0.001733 0.002395
# 4 0.003951 0.013501 0.002361 0.036996 -0.008115 -0.010429
# 5 0.001934 -0.002719 0.001733 -0.008115 0.021909 0.001555
# 6 -0.003086 -0.044756 0.002395 -0.010429 0.001555 0.054998
#
#
# Mechanical properties :
#
#
# Convention : Reuss Voigt Hill
#
# Bulk Modulus (GPa) = 14.18749 47.65135 30.91942
# Shear Modulus (GPa) = 21.59108 42.28586 31.93847
#
# Velocity S-wave (km/s) = 2.90210 4.06137 3.52965
# Velocity P-wave (km/s) = 4.09436 6.37030 5.35465
#
# Compressibility (1/GPa) = 0.07048462
#
# Stress axis : x y z
#
# Youngs Moduli (GPa) = 80.14182 16.33533 115.78902
#
# Poissons Ratio (x) = -0.03077 0.20211
# Poissons Ratio (y) = -0.15096 0.70185
# Poissons Ratio (z) = 0.13989 0.09902
#
# Static dielectric constant tensor:
#      x y z
#    x 2.113770 -0.067610 0.135930 
#    y -0.067610 2.121280 0.004750 
#    z 0.135930 0.004750 2.210760 
# 
# From -- ./inp_files/299774.got.cif
#   From: 2010.05.17/outbox.cif.g08.bks.cpg/sg2_150_cif.got.tgz:299774.got - 2010.06.03 11:33:40.
