data_PCOD9046870
_publ_section_title
;
Structure prediction by ZEFSAII (Michael W. Deem and Ramdas Pophale) SiO2 
 PCOD9046870
Probable space group: P -1
;
_chemical_formula_sum "Si O2"
_cell_formula_units_Z 16
_cell_length_a 11.498435
_cell_length_b 5.407625
_cell_length_c 22.774447
_cell_angle_alpha 114.653592
_cell_angle_beta 148.979870
_cell_angle_gamma 58.918132
_cell_volume 623.970123
_symmetry_space_group_name_H-M "P -1"
_symmetry_group_IT_number 2
_symmetry_cell_setting 'triclinic'
loop_
_space_group_symop_operation_xyz
x,y,z
-x,-y,-z
loop_
_atom_site_type_symbol
_atom_site_label
_atom_site_fract_x
_atom_site_fract_y
_atom_site_fract_z
Si Si1 0.598251 0.511276 0.464885
Si Si2 0.953783 0.927378 0.407503
Si Si3 0.683757 0.246863 0.016543
Si Si4 0.609606 0.288383 0.722101
Si Si5 0.510506 0.373045 0.191600
Si Si6 0.789524 0.684246 0.675594
Si Si7 0.252351 0.452985 0.783075
Si Si8 0.910131 0.602298 0.067209
O O1 0.596886 0.574727 0.401766
O O2 0.668828 0.713772 0.561711
O O3 0.328633 0.526464 0.364787
O O4 0.785424 0.182666 0.522921
O O5 0.720341 0.164086 0.302721
O O6 0.886665 0.640526 0.338560
O O7 0.000000 0.000000 0.500000
O O8 0.853283 0.380911 0.065820
O O9 0.801526 0.944935 0.070619
O O10 0.500000 0.500000 0.000000
O O11 0.492547 0.199628 0.881928
O O12 0.532926 0.326133 0.760517
O O13 0.808123 0.449953 0.821646
O O14 0.723536 0.967315 0.714272
O O15 0.642388 0.325934 0.180382
O O16 0.240369 0.403306 0.057572
O O17 0.067666 0.556268 0.766497
#
# Coordination Sequence:
#
# PCOD9046870 Si02
#       8
#     2   2   2   2   2   2   2   2
#     4  10  24  43  68  99 138 183 233 299 355 432
#     4  11  22  43  68  97 136 180 234 291 355 430
#     4  11  23  45  72 109 144 195 245 294 365 435
#     4  12  25  42  72 101 140 184 242 289 369 431
#     4  11  25  46  68 105 138 185 239 295 368 428
#     4  10  24  45  67 101 137 186 232 295 366 421
#     4  10  24  43  70  98 141 181 232 302 355 427
#     4  11  26  46  71 108 149 192 239 306 365 434
#
# _framework density 25.642254000000001
#
# number of rings (size 3 to 8) (size 9 to 14) (size 15 to 20)
#    0.000    1.250    2.500    1.875    5.250    6.500 
#    0.000    1.875    0.000    0.000    0.000    0.000 
#    0.000    0.000    0.000    0.000    0.000    0.000 
#
# Total GULP energy -89198.438946 kJ/mol
# GULP energy per Si atom -5574.902434 kJ/mol
# Density = 2.558389 g / cm^3
# Si number density = 25.642254 Si / 1000 Ang^3
#
#
#
# Elastic Constant Matrix: (Units=GPa)
#
#
# Indices 1 2 3 4 5 6 
#
# 1 83.5589 15.6021 30.2235 2.0288 2.9854 -18.0331
# 2 15.6021 66.9878 25.2012 -3.5768 -7.1926 -9.7189
# 3 30.2235 25.2012 120.5635 -9.2010 -12.8678 2.4561
# 4 2.0288 -3.5768 -9.2010 31.8312 2.7952 -5.7091
# 5 2.9854 -7.1926 -12.8678 2.7952 52.5529 7.7879
# 6 -18.0331 -9.7189 2.4561 -5.7091 7.7879 28.4078
#
#
#
# Elastic Compliance Matrix: (Units=1/GPa)
#
#
# Indices 1 2 3 4 5 6 
#
# 1 0.016430 -0.000834 -0.004600 -0.000049 -0.003890 0.011599
# 2 -0.000834 0.017417 -0.003329 0.002062 0.000623 0.005961
# 3 -0.004600 -0.003329 0.010726 0.001757 0.003153 -0.005498
# 4 -0.000049 0.002062 0.001757 0.033779 -0.002257 0.007930
# 5 -0.003890 0.000623 0.003153 -0.002257 0.021544 -0.008889
# 6 0.011599 0.005961 -0.005498 0.007930 -0.008889 0.049110
#
#
# Mechanical properties :
#
#
# Convention : Reuss Voigt Hill
#
# Bulk Modulus (GPa) = 36.97179 45.90709 41.43944
# Shear Modulus (GPa) = 28.48247 35.89729 32.18988
#
# Velocity S-wave (km/s) = 3.33643 3.74562 3.54693
# Velocity P-wave (km/s) = 5.41220 6.05376 5.74195
#
# Compressibility (1/GPa) = 0.02704765
#
# Stress axis : x y z
#
# Youngs Moduli (GPa) = 60.86263 57.41669 93.23183
#
# Poissons Ratio (x) = 0.04787 0.42885
# Poissons Ratio (y) = 0.05075 0.31038
# Poissons Ratio (z) = 0.27995 0.19115
#
# Static dielectric constant tensor:
#      x y z
#    x 2.077890 -0.013000 0.023130 
#    y -0.013000 2.057170 0.027600 
#    z 0.023130 0.027600 2.139600 
# 
# From -- ./inp_files/126841.got.cif
#   From: 2010.05.17/outbox.cif.g08.bks.cpg/sg2_64_cif.got.tgz:126841.got - 2010.06.03 11:33:40.
