data_PCOD9046264
_publ_section_title
;
Structure prediction by ZEFSAII (Michael W. Deem and Ramdas Pophale) SiO2 
 PCOD9046264
Probable space group: P -1
;
_chemical_formula_sum "Si O2"
_cell_formula_units_Z 14
_cell_length_a 6.783685
_cell_length_b 16.640286
_cell_length_c 7.909195
_cell_angle_alpha 122.229456
_cell_angle_beta 62.999384
_cell_angle_gamma 74.036204
_cell_volume 489.532591
_symmetry_space_group_name_H-M "P -1"
_symmetry_group_IT_number 2
_symmetry_cell_setting 'triclinic'
loop_
_space_group_symop_operation_xyz
x,y,z
-x,-y,-z
loop_
_atom_site_type_symbol
_atom_site_label
_atom_site_fract_x
_atom_site_fract_y
_atom_site_fract_z
Si Si1 0.765180 0.870702 0.606714
Si Si2 0.637620 0.702408 0.873332
Si Si3 0.777913 0.420219 0.929786
Si Si4 0.288733 0.866511 0.645239
Si Si5 0.061961 0.067712 0.698705
Si Si6 0.079538 0.508793 0.739816
Si Si7 0.043792 0.195523 0.180668
O O1 0.560648 0.844060 0.594342
O O2 0.759586 0.897612 0.837524
O O3 0.093958 0.723849 0.286618
O O4 0.759221 0.953386 0.561384
O O5 0.752306 0.645718 0.955908
O O6 0.874728 0.718320 0.754910
O O7 0.724227 0.582991 0.599069
O O8 0.298771 0.828861 0.083854
O O9 0.006208 0.433219 0.782213
O O10 0.500000 0.500000 0.000000
O O11 0.750123 0.464086 0.182043
O O12 0.272961 0.761722 0.591609
O O13 0.214241 0.926482 0.554082
O O14 0.000000 0.000000 0.000000
O O15 0.107857 0.133063 0.901463
#
# Coordination Sequence:
#
# PCOD9046264 Si02
#       7
#     2   2   2   2   2   2   2
#     4  12  25  45  71 105 139 185 238 290 357 416
#     4  11  23  45  68 106 139 190 233 287 356 416
#     4  11  24  42  68 104 138 185 235 288 355 415
#     4  10  25  46  72 104 141 184 236 294 354 419
#     4  11  26  44  71 105 143 182 237 292 352 427
#     4  10  24  42  69  98 145 179 236 293 339 428
#     4  11  24  43  73  98 142 188 233 290 347 419
#
# _framework density 28.598713
#
# number of rings (size 3 to 8) (size 9 to 14) (size 15 to 20)
#    0.000    1.143    1.429    3.857    2.000    9.143 
#    0.000    3.571    0.000    0.000    0.000    0.000 
#    0.000    0.000    0.000    0.000    0.000    0.000 
#
# Total GULP energy -78425.564526 kJ/mol
# GULP energy per Si atom -5601.826038 kJ/mol
# Density = 2.853362 g / cm^3
# Si number density = 28.598713 Si / 1000 Ang^3
#
#
#
# Elastic Constant Matrix: (Units=GPa)
#
#
# Indices 1 2 3 4 5 6 
#
# 1 225.4722 48.9063 61.1970 -6.8469 15.7423 -32.6547
# 2 48.9063 157.2260 30.6477 -8.0622 -2.6305 -4.1460
# 3 61.1970 30.6477 55.8278 3.2070 4.0624 -26.1695
# 4 -6.8469 -8.0622 3.2070 60.0122 -12.2995 -3.2860
# 5 15.7423 -2.6305 4.0624 -12.2995 55.6978 -12.0904
# 6 -32.6547 -4.1460 -26.1695 -3.2860 -12.0904 63.6445
#
#
#
# Elastic Compliance Matrix: (Units=1/GPa)
#
#
# Indices 1 2 3 4 5 6 
#
# 1 0.006528 -0.000729 -0.006506 0.000787 -0.001133 0.000452
# 2 -0.000729 0.007413 -0.004022 0.001226 0.000833 -0.001323
# 3 -0.006506 -0.004022 0.031780 -0.002276 0.000895 0.009520
# 4 0.000787 0.001226 -0.002276 0.017981 0.004251 0.001284
# 5 -0.001133 0.000833 0.000895 0.004251 0.020026 0.003865
# 6 0.000452 -0.001323 0.009520 0.001284 0.003865 0.020573
#
#
# Mechanical properties :
#
#
# Convention : Reuss Voigt Hill
#
# Bulk Modulus (GPa) = 43.09082 80.00312 61.54697
# Shear Modulus (GPa) = 37.16120 55.72259 46.44189
#
# Velocity S-wave (km/s) = 3.60863 4.41889 4.03416
# Velocity P-wave (km/s) = 5.69764 7.35327 6.57775
#
# Compressibility (1/GPa) = 0.02320680
#
# Stress axis : x y z
#
# Youngs Moduli (GPa) = 153.19637 134.90101 31.46637
#
# Poissons Ratio (x) = 0.09833 0.20473
# Poissons Ratio (y) = 0.11166 0.12655
# Poissons Ratio (z) = 0.99672 0.54253
#
# Static dielectric constant tensor:
#      x y z
#    x 2.174380 -0.033100 -0.054320 
#    y -0.033100 2.251170 -0.050350 
#    z -0.054320 -0.050350 2.368130 
# 
# From -- ./inp_files/139336.got.cif
#   From: 2010.05.17/outbox.cif.g08.bks.cpg/sg2_70_cif.got.tgz:139336.got - 2010.06.03 11:33:40.
