data_PCOD9046277
_publ_section_title
;
Structure prediction by ZEFSAII (Michael W. Deem and Ramdas Pophale) SiO2 
 PCOD9046277
Probable space group: P -1
;
_chemical_formula_sum "Si O2"
_cell_formula_units_Z 14
_cell_length_a 16.988845
_cell_length_b 5.500246
_cell_length_c 12.148754
_cell_angle_alpha 124.314273
_cell_angle_beta 34.616487
_cell_angle_gamma 126.418801
_cell_volume 511.885003
_symmetry_space_group_name_H-M "P -1"
_symmetry_group_IT_number 2
_symmetry_cell_setting 'triclinic'
loop_
_space_group_symop_operation_xyz
x,y,z
-x,-y,-z
loop_
_atom_site_type_symbol
_atom_site_label
_atom_site_fract_x
_atom_site_fract_y
_atom_site_fract_z
Si Si1 0.182682 0.838493 0.005122
Si Si2 0.559301 0.703134 0.380134
Si Si3 0.073265 0.857917 0.672280
Si Si4 0.282151 0.257762 0.376916
Si Si5 0.408665 0.484292 0.931416
Si Si6 0.143957 0.718687 0.268326
Si Si7 0.815465 0.219858 0.256458
O O1 0.172655 0.695397 0.099684
O O2 0.174586 0.663563 0.852231
O O3 0.041538 0.961871 0.185477
O O4 0.328493 0.121118 0.924128
O O5 0.500000 0.500000 0.500000
O O6 0.539158 0.469305 0.243599
O O7 0.500000 0.000000 0.500000
O O8 0.724632 0.872046 0.254173
O O9 0.066804 0.811508 0.798948
O O10 0.009042 0.527825 0.607001
O O11 0.228934 0.035288 0.488739
O O12 0.434365 0.351653 0.158135
O O13 0.260579 0.572831 0.529460
O O14 0.165286 0.060910 0.373989
O O15 0.280332 0.629666 0.144405
#
# Coordination Sequence:
#
# PCOD9046277 Si02
#       7
#     2   2   2   2   2   2   2
#     4  10  25  46  68 100 140 181 240 298 373 436
#     4  11  23  42  71 108 152 187 242 306 377 438
#     4  11  25  45  68  99 139 191 241 297 364 438
#     4  12  25  44  71 105 138 185 246 296 364 442
#     4  10  24  42  70 101 141 189 236 300 363 438
#     4  11  26  46  69  98 146 192 233 303 363 439
#     4  11  25  41  73 104 139 185 241 302 366 433
#
# _framework density 27.349893999999999
#
# number of rings (size 3 to 8) (size 9 to 14) (size 15 to 20)
#    0.000    1.143    1.429    3.000    4.000   10.857 
#    0.000    0.000    0.000    0.000    0.000    0.000 
#    0.000    0.000    0.000    0.000    0.000    0.000 
#
# Total GULP energy -78136.373532 kJ/mol
# GULP energy per Si atom -5581.169538 kJ/mol
# Density = 2.728764 g / cm^3
# Si number density = 27.349894 Si / 1000 Ang^3
#
#
#
# Elastic Constant Matrix: (Units=GPa)
#
#
# Indices 1 2 3 4 5 6 
#
# 1 70.0293 21.4443 6.6615 9.1393 0.3691 11.1626
# 2 21.4443 89.8361 25.3599 -11.2172 -14.1685 24.2124
# 3 6.6615 25.3599 77.8030 6.4986 4.0371 -3.7167
# 4 9.1393 -11.2172 6.4986 51.8916 1.2508 -8.1685
# 5 0.3691 -14.1685 4.0371 1.2508 41.1890 -3.0881
# 6 11.1626 24.2124 -3.7167 -8.1685 -3.0881 50.2491
#
#
#
# Elastic Compliance Matrix: (Units=1/GPa)
#
#
# Indices 1 2 3 4 5 6 
#
# 1 0.016458 -0.004125 0.000253 -0.004165 -0.001647 -0.002428
# 2 -0.004125 0.017121 -0.006191 0.003993 0.005904 -0.006779
# 3 0.000253 -0.006191 0.015409 -0.002694 -0.003304 0.003426
# 4 -0.004165 0.003993 -0.002694 0.021551 0.001199 0.002379
# 5 -0.001647 0.005904 -0.003304 0.001199 0.026544 -0.000897
# 6 -0.002428 -0.006779 0.003426 0.002379 -0.000897 0.024292
#
#
# Mechanical properties :
#
#
# Convention : Reuss Voigt Hill
#
# Bulk Modulus (GPa) = 34.64887 38.28888 36.46887
# Shear Modulus (GPa) = 33.08598 40.94612 37.01605
#
# Velocity S-wave (km/s) = 3.48189 3.87346 3.68288
# Velocity P-wave (km/s) = 5.37224 5.83395 5.60785
#
# Compressibility (1/GPa) = 0.02886097
#
# Stress axis : x y z
#
# Youngs Moduli (GPa) = 60.76029 58.40936 64.89571
#
# Poissons Ratio (x) = 0.24096 -0.01641
# Poissons Ratio (y) = 0.25066 0.40177
# Poissons Ratio (z) = -0.01536 0.36161
#
# Static dielectric constant tensor:
#      x y z
#    x 2.451390 -0.189010 0.061780 
#    y -0.189010 2.260750 -0.177720 
#    z 0.061780 -0.177720 2.359090 
# 
# From -- ./inp_files/459591.got.cif
#   From: 2010.05.17/outbox.cif.g08.bks.cpg/sg2_230_cif.got.tgz:459591.got - 2010.06.03 11:33:40.
