data_PCOD9046904
_publ_section_title
;
Structure prediction by ZEFSAII (Michael W. Deem and Ramdas Pophale) SiO2 
 PCOD9046904
Probable space group: P -1
;
_chemical_formula_sum "Si O2"
_cell_formula_units_Z 16
_cell_length_a 10.302263
_cell_length_b 9.152431
_cell_length_c 15.846869
_cell_angle_alpha 60.151573
_cell_angle_beta 116.701513
_cell_angle_gamma 66.829578
_cell_volume 700.164872
_symmetry_space_group_name_H-M "P -1"
_symmetry_group_IT_number 2
_symmetry_cell_setting 'triclinic'
loop_
_space_group_symop_operation_xyz
x,y,z
-x,-y,-z
loop_
_atom_site_type_symbol
_atom_site_label
_atom_site_fract_x
_atom_site_fract_y
_atom_site_fract_z
Si Si1 0.050114 0.589333 0.563049
Si Si2 0.711170 0.199016 0.230052
Si Si3 0.971482 0.758559 0.673134
Si Si4 0.995826 0.542450 0.084154
Si Si5 0.749225 0.205576 0.047079
Si Si6 0.563883 0.749701 0.612693
Si Si7 0.288418 0.677533 0.320538
Si Si8 0.606279 0.168350 0.843486
O O1 0.326459 0.386765 0.694017
O O2 0.000000 0.500000 0.500000
O O3 0.010600 0.599373 0.649476
O O4 0.871535 0.909081 0.401670
O O5 0.439582 0.467085 0.106021
O O6 0.841721 0.259062 0.266548
O O7 0.701581 0.172263 0.134900
O O8 0.997636 0.626396 0.804268
O O9 0.699351 0.084065 0.495683
O O10 0.237371 0.425622 0.207099
O O11 0.000000 0.500000 0.000000
O O12 0.764630 0.865051 0.947545
O O13 0.685961 0.146546 0.966732
O O14 0.032702 0.977374 0.192312
O O15 0.700427 0.528727 0.640984
O O16 0.500000 0.000000 0.500000
O O17 0.500000 0.500000 0.500000
O O18 0.338892 0.730339 0.233854
#
# Coordination Sequence:
#
# PCOD9046904 Si02
#       8
#     2   2   2   2   2   2   2   2
#     4  12  29  48  75 108 148 198 249 304 371 444
#     4  11  26  49  77 105 148 190 255 296 368 457
#     4  11  25  48  74 102 147 201 236 307 370 434
#     4  11  28  45  71 108 152 188 248 305 372 439
#     4  11  25  46  75 107 143 193 243 306 371 427
#     4  10  24  43  69 102 140 188 237 298 362 433
#     4  12  26  45  76 104 147 193 243 302 370 435
#     4  12  27  46  72 111 148 187 255 306 366 439
#
# _framework density 22.851759000000001
#
# number of rings (size 3 to 8) (size 9 to 14) (size 15 to 20)
#    0.000    0.750    2.500    3.000   10.500    3.500 
#    0.000    0.000    0.000    0.000    0.000    0.000 
#    0.000    0.000    0.000    0.000    0.000    0.000 
#
# Total GULP energy -89544.264985 kJ/mol
# GULP energy per Si atom -5596.516562 kJ/mol
# Density = 2.279975 g / cm^3
# Si number density = 22.851759 Si / 1000 Ang^3
#
#
#
# Elastic Constant Matrix: (Units=GPa)
#
#
# Indices 1 2 3 4 5 6 
#
# 1 72.8337 45.9133 45.9856 -9.9707 3.7687 -9.5183
# 2 45.9133 172.1635 86.3490 13.6352 -0.8982 -22.4616
# 3 45.9856 86.3490 173.2379 -15.7072 25.8773 -10.7583
# 4 -9.9707 13.6352 -15.7072 57.8202 -12.4553 9.8940
# 5 3.7687 -0.8982 25.8773 -12.4553 38.5100 -5.7156
# 6 -9.5183 -22.4616 -10.7583 9.8940 -5.7156 30.2185
#
#
#
# Elastic Compliance Matrix: (Units=1/GPa)
#
#
# Indices 1 2 3 4 5 6 
#
# 1 0.018342 -0.003485 -0.002958 0.003247 0.001359 0.001328
# 2 -0.003485 0.010488 -0.004790 -0.004902 0.003290 0.007220
# 3 -0.002958 -0.004790 0.009901 0.002497 -0.006104 -0.002939
# 4 0.003247 -0.004902 0.002497 0.021900 0.003757 -0.008192
# 5 0.001359 0.003290 -0.006104 0.003757 0.032049 0.005532
# 6 0.001328 0.007220 -0.002939 -0.008192 0.005532 0.041559
#
#
# Mechanical properties :
#
#
# Convention : Reuss Voigt Hill
#
# Bulk Modulus (GPa) = 61.48242 86.08123 73.78182
# Shear Modulus (GPa) = 30.84029 41.30891 36.07460
#
# Velocity S-wave (km/s) = 3.67765 4.25631 3.97751
# Velocity P-wave (km/s) = 6.70796 7.86804 7.31105
#
# Compressibility (1/GPa) = 0.01626481
#
# Stress axis : x y z
#
# Youngs Moduli (GPa) = 54.51987 95.35133 101.00209
#
# Poissons Ratio (x) = 0.33227 0.29877
# Poissons Ratio (y) = 0.18998 0.48380
# Poissons Ratio (z) = 0.16127 0.45674
#
# Static dielectric constant tensor:
#      x y z
#    x 1.896090 -0.001130 0.002640 
#    y -0.001130 1.826860 -0.011780 
#    z 0.002640 -0.011780 1.806950 
# 
# From -- ./inp_files/419131.got.cif
#   From: 2010.05.17/outbox.cif.g08.bks.cpg/sg2_210_cif.got.tgz:419131.got - 2010.06.03 11:33:40.
