data_PCOD9046878
_publ_section_title
;
Structure prediction by ZEFSAII (Michael W. Deem and Ramdas Pophale) SiO2 
 PCOD9046878
Probable space group: P -1
;
_chemical_formula_sum "Si O2"
_cell_formula_units_Z 15
_cell_length_a 9.666207
_cell_length_b 12.001405
_cell_length_c 12.597752
_cell_angle_alpha 108.568907
_cell_angle_beta 95.855692
_cell_angle_gamma 143.374035
_cell_volume 640.295378
_symmetry_space_group_name_H-M "P -1"
_symmetry_group_IT_number 2
_symmetry_cell_setting 'triclinic'
loop_
_space_group_symop_operation_xyz
x,y,z
-x,-y,-z
loop_
_atom_site_type_symbol
_atom_site_label
_atom_site_fract_x
_atom_site_fract_y
_atom_site_fract_z
Si Si1 0.394151 0.616180 0.691739
Si Si2 0.201407 0.848278 0.899783
Si Si3 0.744380 0.590821 0.951538
Si Si4 0.765358 0.258225 0.332433
Si Si5 0.323940 0.955264 0.549091
Si Si6 0.352918 0.248856 0.622299
Si Si7 0.500000 0.500000 0.500000
Si Si8 0.620538 0.753026 0.985796
O O1 0.446998 0.794824 0.735750
O O2 0.511678 0.634339 0.605404
O O3 0.035090 0.323291 0.579243
O O4 0.519454 0.674637 0.832671
O O5 0.083525 0.686937 0.741004
O O6 0.985068 0.697327 0.937257
O O7 0.250076 0.019740 0.918390
O O8 0.500000 0.000000 0.000000
O O9 0.455911 0.370199 0.783145
O O10 0.649288 0.467847 0.019289
O O11 0.823570 0.788559 0.029980
O O12 0.618943 0.046576 0.326959
O O13 0.000000 0.500000 0.500000
O O14 0.500000 0.000000 0.500000
O O15 0.412730 0.155040 0.597826
O O16 0.506600 0.436719 0.597864
O O17 0.000000 0.000000 0.500000
#
# Coordination Sequence:
#
# PCOD9046878 Si02
#       8
#     2   2   2   2   2   2   1   2
#     4  11  23  45  69 107 144 192 244 303 367 427
#     4  12  26  46  73 107 143 196 244 291 371 436
#     4  11  27  45  74 105 146 194 242 308 354 437
#     4  10  24  43  69 100 147 184 241 302 358 428
#     4  11  24  40  67 106 144 188 239 298 364 434
#     4  12  25  46  70 109 141 190 243 298 373 427
#     4  12  24  42  74 104 148 182 234 308 362 426
#     4  11  24  50  70 101 149 190 250 297 359 440
#
# _framework density 23.426689
#
# number of rings (size 3 to 8) (size 9 to 14) (size 15 to 20)
#    0.000    0.800    4.000    2.000    7.467    2.667 
#    7.200    0.000    0.000    0.000    0.000    0.000 
#    0.000    0.000    0.000    0.000    0.000    0.000 
#
# Total GULP energy -83676.910486 kJ/mol
# GULP energy per Si atom -5578.460699 kJ/mol
# Density = 2.337337 g / cm^3
# Si number density = 23.426689 Si / 1000 Ang^3
#
#
#
# Elastic Constant Matrix: (Units=GPa)
#
#
# Indices 1 2 3 4 5 6 
#
# 1 123.5033 34.8094 18.9737 -3.3897 -33.1251 -1.2474
# 2 34.8094 76.4470 25.2016 -24.9769 3.1295 -1.4107
# 3 18.9737 25.2016 94.3747 -13.5866 -26.9817 19.0920
# 4 -3.3897 -24.9769 -13.5866 43.3745 3.8947 -7.6503
# 5 -33.1251 3.1295 -26.9817 3.8947 44.2952 -6.7091
# 6 -1.2474 -1.4107 19.0920 -7.6503 -6.7091 44.3218
#
#
#
# Elastic Compliance Matrix: (Units=1/GPa)
#
#
# Indices 1 2 3 4 5 6 
#
# 1 0.013541 -0.009019 0.002688 -0.004424 0.012807 0.000111
# 2 -0.009019 0.024561 -0.007577 0.012990 -0.013637 0.003970
# 3 0.002688 -0.007577 0.016442 -0.001058 0.011799 -0.005645
# 4 -0.004424 0.012990 -0.001058 0.031377 -0.006853 0.005123
# 5 0.012807 -0.013637 0.011799 -0.006853 0.040883 -0.000151
# 6 0.000111 0.003970 -0.005645 0.005123 -0.000151 0.025985
#
#
# Mechanical properties :
#
#
# Convention : Reuss Voigt Hill
#
# Bulk Modulus (GPa) = 37.41497 50.25494 43.83495
# Shear Modulus (GPa) = 26.38317 40.75434 33.56875
#
# Velocity S-wave (km/s) = 3.35953 4.17544 3.78951
# Velocity P-wave (km/s) = 5.57265 6.68912 6.15624
#
# Compressibility (1/GPa) = 0.02672727
#
# Stress axis : x y z
#
# Youngs Moduli (GPa) = 73.85155 40.71443 60.82003
#
# Poissons Ratio (x) = 0.36722 -0.16350
# Poissons Ratio (y) = 0.66610 0.46085
# Poissons Ratio (z) = -0.19854 0.30850
#
# Static dielectric constant tensor:
#      x y z
#    x 1.958520 0.011270 0.081900 
#    y 0.011270 1.931610 0.093890 
#    z 0.081900 0.093890 1.956250 
# 
# From -- ./inp_files/390740.got.cif
#   From: 2010.05.17/outbox.cif.g08.bks.cpg/sg2_196_cif.got.tgz:390740.got - 2010.06.03 11:33:40.
