data_PCOD9046334
_publ_section_title
;
Structure prediction by ZEFSAII (Michael W. Deem and Ramdas Pophale) SiO2 
 PCOD9046334
Probable space group: P -1
;
_chemical_formula_sum "Si O2"
_cell_formula_units_Z 11
_cell_length_a 12.020438
_cell_length_b 11.878395
_cell_length_c 16.563702
_cell_angle_alpha 31.606245
_cell_angle_beta 22.857934
_cell_angle_gamma 44.640986
_cell_volume 449.203968
_symmetry_space_group_name_H-M "P -1"
_symmetry_group_IT_number 2
_symmetry_cell_setting 'triclinic'
loop_
_space_group_symop_operation_xyz
x,y,z
-x,-y,-z
loop_
_atom_site_type_symbol
_atom_site_label
_atom_site_fract_x
_atom_site_fract_y
_atom_site_fract_z
Si Si1 0.621231 0.228579 0.225408
Si Si2 0.281088 0.245215 0.773424
Si Si3 0.222824 0.410106 0.960843
Si Si4 0.538127 0.173627 0.795550
Si Si5 0.644708 0.962742 0.638801
Si Si6 0.000000 0.000000 0.500000
O O1 0.658137 0.428940 0.141439
O O2 0.500000 0.000000 0.500000
O O3 0.413079 0.184504 0.312137
O O4 0.961422 0.251910 0.955628
O O5 0.500000 0.500000 0.500000
O O6 0.258948 0.110274 0.956031
O O7 0.435862 0.117997 0.687024
O O8 0.498306 0.390643 0.735499
O O9 0.000000 0.500000 0.000000
O O10 0.000322 0.151716 0.298026
O O11 0.834092 0.179949 0.544381
O O12 0.500000 0.000000 0.000000
O O13 0.653433 0.841658 0.790484
#
# Coordination Sequence:
#
# PCOD9046334 Si02
#       6
#     2   2   2   2   2   1
#     4  12  24  39  70 106 138 184 247 296 351 424
#     4  11  22  41  70 103 140 189 238 298 354 417
#     4  12  21  42  69 103 138 182 236 293 354 413
#     4  11  22  41  74 101 141 194 233 287 366 432
#     4  11  22  42  66  97 140 183 234 286 353 425
#     4  10  24  42  70  96 144 196 226 282 376 428
#
# _framework density 24.487763000000001
#
# number of rings (size 3 to 8) (size 9 to 14) (size 15 to 20)
#    0.000    0.727    7.273    0.545    0.000    0.000 
#    0.000    1.818    0.000    0.000    0.000    0.000 
#    0.000    0.000    0.000    0.000    0.000    0.000 
#
# Total GULP energy -61273.410791 kJ/mol
# GULP energy per Si atom -5570.310072 kJ/mol
# Density = 2.443203 g / cm^3
# Si number density = 24.487763 Si / 1000 Ang^3
#
#
#
# Elastic Constant Matrix: (Units=GPa)
#
#
# Indices 1 2 3 4 5 6 
#
# 1 143.5970 55.5049 22.5913 -18.5113 -30.6927 28.4112
# 2 55.5049 191.8879 49.3386 29.6711 -18.0474 34.1467
# 3 22.5913 49.3386 83.4904 6.5246 -5.0655 21.3974
# 4 -18.5113 29.6711 6.5246 49.0265 9.4028 1.3852
# 5 -30.6927 -18.0474 -5.0655 9.4028 41.9409 -13.3280
# 6 28.4112 34.1467 21.3974 1.3852 -13.3280 56.6628
#
#
#
# Elastic Compliance Matrix: (Units=1/GPa)
#
#
# Indices 1 2 3 4 5 6 
#
# 1 0.010098 -0.002660 -0.000678 0.004739 0.004372 -0.002291
# 2 -0.002660 0.008188 -0.003071 -0.005871 0.001937 -0.001842
# 3 -0.000678 -0.003071 0.014854 -0.000042 -0.001189 -0.003698
# 4 0.004739 -0.005871 -0.000042 0.026781 -0.005297 -0.000723
# 5 0.004372 0.001937 -0.001189 -0.005297 0.030301 0.004347
# 6 -0.002291 -0.001842 -0.003698 -0.000723 0.004347 0.022343
#
#
# Mechanical properties :
#
#
# Convention : Reuss Voigt Hill
#
# Bulk Modulus (GPa) = 49.20733 74.87165 62.03949
# Shear Modulus (GPa) = 37.83345 48.96208 43.39777
#
# Velocity S-wave (km/s) = 3.93491 4.47637 4.21434
# Velocity P-wave (km/s) = 6.38615 7.57355 7.00506
#
# Compressibility (1/GPa) = 0.02032218
#
# Stress axis : x y z
#
# Youngs Moduli (GPa) = 99.03225 122.12880 67.32089
#
# Poissons Ratio (x) = 0.32490 0.04565
# Poissons Ratio (y) = 0.26346 0.20671
# Poissons Ratio (z) = 0.06715 0.37500
#
# Static dielectric constant tensor:
#      x y z
#    x -0.069300 0.501980 -0.561290 
#    y 0.501980 1.899850 0.105720 
#    z -0.561290 0.105720 1.784390 
# 
# From -- ./inp_files/231826.got.cif
#   From: 2010.05.17/outbox.cif.g08.bks.cpg/sg2_116_cif.got.tgz:231826.got - 2010.06.03 11:33:40.
