data_PCOD9046513
_publ_section_title
;
Structure prediction by ZEFSAII (Michael W. Deem and Ramdas Pophale) SiO2 
 PCOD9046513
Probable space group: P -1
;
_chemical_formula_sum "Si O2"
_cell_formula_units_Z 11
_cell_length_a 9.913085
_cell_length_b 13.094963
_cell_length_c 10.109487
_cell_angle_alpha 143.676403
_cell_angle_beta 43.255956
_cell_angle_gamma 145.280907
_cell_volume 434.171266
_symmetry_space_group_name_H-M "P -1"
_symmetry_group_IT_number 2
_symmetry_cell_setting 'triclinic'
loop_
_space_group_symop_operation_xyz
x,y,z
-x,-y,-z
loop_
_atom_site_type_symbol
_atom_site_label
_atom_site_fract_x
_atom_site_fract_y
_atom_site_fract_z
Si Si1 0.720984 0.220320 0.781831
Si Si2 0.384169 0.749605 0.825775
Si Si3 0.928283 0.528039 0.724995
Si Si4 0.141464 0.170565 0.463256
Si Si5 0.099847 0.094743 0.885788
Si Si6 0.500000 0.000000 0.500000
O O1 0.742097 0.302482 0.697806
O O2 0.976790 0.256670 0.659708
O O3 0.477908 0.996018 0.684798
O O4 0.676838 0.309792 0.036713
O O5 0.149510 0.637759 0.784531
O O6 0.573045 0.703638 0.587546
O O7 0.500000 0.000000 0.000000
O O8 0.000000 0.500000 0.500000
O O9 0.825950 0.668673 0.934908
O O10 0.000000 0.000000 0.500000
O O11 0.102156 0.048104 0.227949
O O12 0.303805 0.058582 0.678708
O O13 0.000000 0.000000 0.000000
#
# Coordination Sequence:
#
# PCOD9046513 Si02
#       6
#     2   2   2   2   2   1
#     4  11  25  44  70 108 145 184 239 299 353 423
#     4  12  24  45  75 101 139 196 237 285 362 423
#     4  12  27  45  71 111 151 182 240 305 356 422
#     4  11  22  41  72 103 133 189 243 286 344 433
#     4  11  23  44  69 101 140 186 238 289 352 429
#     4  10  24  42  76  98 138 190 240 278 366 416
#
# _framework density 25.335622999999998
#
# number of rings (size 3 to 8) (size 9 to 14) (size 15 to 20)
#    0.000    0.727    3.636    3.818    2.545    1.455 
#    0.000    3.636    0.000    0.000    0.000    0.000 
#    0.000    0.000    0.000    0.000    0.000    0.000 
#
# Total GULP energy -61330.619174 kJ/mol
# GULP energy per Si atom -5575.510834 kJ/mol
# Density = 2.527796 g / cm^3
# Si number density = 25.335623 Si / 1000 Ang^3
#
#
#
# Elastic Constant Matrix: (Units=GPa)
#
#
# Indices 1 2 3 4 5 6 
#
# 1 153.1970 40.1667 55.5822 -7.0378 -3.8316 1.3479
# 2 40.1667 90.9314 35.5061 0.9340 -3.6408 -28.6098
# 3 55.5822 35.5061 91.5103 -14.5617 -10.4740 -4.7668
# 4 -7.0378 0.9340 -14.5617 47.4032 -12.5894 4.0908
# 5 -3.8316 -3.6408 -10.4740 -12.5894 81.9546 -2.4255
# 6 1.3479 -28.6098 -4.7668 4.0908 -2.4255 53.6423
#
#
#
# Elastic Compliance Matrix: (Units=1/GPa)
#
#
# Indices 1 2 3 4 5 6 
#
# 1 0.008910 -0.002920 -0.004410 0.000130 -0.000322 -0.002197
# 2 -0.002920 0.017035 -0.004888 -0.003100 -0.000216 0.008951
# 3 -0.004410 -0.004888 0.016560 0.005298 0.002468 -0.001317
# 4 0.000130 -0.003100 0.005298 0.024156 0.004172 -0.002840
# 5 -0.000322 -0.000216 0.002468 0.004172 0.013145 0.000388
# 6 -0.002197 0.008951 -0.001317 -0.002840 0.000388 0.023588
#
#
# Mechanical properties :
#
#
# Convention : Reuss Voigt Hill
#
# Bulk Modulus (GPa) = 55.34021 66.46097 60.90059
# Shear Modulus (GPa) = 37.35433 50.22558 43.78995
#
# Velocity S-wave (km/s) = 3.84393 4.45726 4.16191
# Velocity P-wave (km/s) = 6.44913 7.26489 6.86913
#
# Compressibility (1/GPa) = 0.01807004
#
# Stress axis : x y z
#
# Youngs Moduli (GPa) = 112.23079 58.70207 60.38781
#
# Poissons Ratio (x) = 0.17138 0.26630
# Poissons Ratio (y) = 0.32766 0.29519
# Poissons Ratio (z) = 0.49491 0.28695
#
# Static dielectric constant tensor:
#      x y z
#    x 2.464830 0.924640 0.491410 
#    y 0.924640 3.864490 0.872230 
#    z 0.491410 0.872230 2.447710 
# 
# From -- ./inp_files/148656.got.cif
#   From: 2010.05.17/outbox.cif.g08.bks.cpg/sg2_75_cif.got.tgz:148656.got - 2010.06.03 11:33:40.
