data_PCOD9046785
_publ_section_title
;
Structure prediction by ZEFSAII (Michael W. Deem and Ramdas Pophale) SiO2 
 PCOD9046785
Probable space group: P -1
;
_chemical_formula_sum "Si O2"
_cell_formula_units_Z 12
_cell_length_a 10.178426
_cell_length_b 7.314600
_cell_length_c 8.852243
_cell_angle_alpha 53.671998
_cell_angle_beta 88.679925
_cell_angle_gamma 99.868785
_cell_volume 516.624217
_symmetry_space_group_name_H-M "P -1"
_symmetry_group_IT_number 2
_symmetry_cell_setting 'triclinic'
loop_
_space_group_symop_operation_xyz
x,y,z
-x,-y,-z
loop_
_atom_site_type_symbol
_atom_site_label
_atom_site_fract_x
_atom_site_fract_y
_atom_site_fract_z
Si Si1 0.826994 0.000410 0.408640
Si Si2 0.014310 0.509132 0.816948
Si Si3 0.862776 0.581844 0.417013
Si Si4 0.314430 0.206345 0.181581
Si Si5 0.622928 0.245367 0.114450
Si Si6 0.256756 0.784669 0.182304
O O1 0.865923 0.829846 0.366895
O O2 0.761590 0.861153 0.625677
O O3 0.948842 0.213573 0.350685
O O4 0.716613 0.118628 0.272556
O O5 0.129856 0.423882 0.760800
O O6 0.876295 0.346340 0.840443
O O7 0.000000 0.500000 0.000000
O O8 0.741072 0.393880 0.590708
O O9 0.000000 0.500000 0.500000
O O10 0.468428 0.179320 0.203226
O O11 0.247553 0.024587 0.143351
O O12 0.324538 0.475383 0.013134
O O13 0.631484 0.185943 0.964978
#
# Coordination Sequence:
#
# PCOD9046785 Si02
#       6
#     2   2   2   2   2   2
#     4  12  24  46  72 102 144 180 232 289 346 421
#     4  11  24  44  67 104 137 181 231 286 353 415
#     4  10  24  43  68 101 137 185 226 278 357 413
#     4  11  25  46  73  97 147 182 233 291 339 412
#     4  11  25  46  70 105 135 191 235 280 348 409
#     4  11  22  45  69 101 141 183 229 286 352 410
#
# _framework density 23.227715
#
# number of rings (size 3 to 8) (size 9 to 14) (size 15 to 20)
#    0.000    1.000    5.000    1.000    0.000    7.333 
#    0.000    0.833    0.000    0.000    0.000    0.000 
#    0.000    0.000    0.000    0.000    0.000    0.000 
#
# Total GULP energy -67127.108236 kJ/mol
# GULP energy per Si atom -5593.925686 kJ/mol
# Density = 2.317485 g / cm^3
# Si number density = 23.227715 Si / 1000 Ang^3
#
#
#
# Elastic Constant Matrix: (Units=GPa)
#
#
# Indices 1 2 3 4 5 6 
#
# 1 94.9961 50.2288 54.4338 4.4856 0.7501 -10.5664
# 2 50.2288 225.2637 60.9183 10.3667 -8.7725 -12.6819
# 3 54.4338 60.9183 83.6257 9.7254 -20.5668 7.4826
# 4 4.4856 10.3667 9.7254 48.0301 -11.4517 -6.2024
# 5 0.7501 -8.7725 -20.5668 -11.4517 36.2774 -3.0614
# 6 -10.5664 -12.6819 7.4826 -6.2024 -3.0614 33.4892
#
#
#
# Elastic Compliance Matrix: (Units=1/GPa)
#
#
# Indices 1 2 3 4 5 6 
#
# 1 0.021565 0.000042 -0.017291 0.000564 -0.009221 0.009945
# 2 0.000042 0.005887 -0.004858 -0.000141 -0.001106 0.003201
# 3 -0.017291 -0.004858 0.032001 -0.001815 0.015625 -0.013353
# 4 0.000564 -0.000141 -0.001815 0.023500 0.006808 0.005505
# 5 -0.009221 -0.001106 0.015625 0.006808 0.038323 -0.002055
# 6 0.009945 0.003201 -0.013353 0.005505 -0.002055 0.038025
#
#
# Mechanical properties :
#
#
# Convention : Reuss Voigt Hill
#
# Bulk Modulus (GPa) = 65.62074 81.67193 73.64634
# Shear Modulus (GPa) = 23.97001 39.44632 31.70817
#
# Velocity S-wave (km/s) = 3.21589 4.12545 3.69873
# Velocity P-wave (km/s) = 6.48858 7.61119 7.07219
#
# Compressibility (1/GPa) = 0.01523908
#
# Stress axis : x y z
#
# Youngs Moduli (GPa) = 46.37224 169.85864 31.24903
#
# Poissons Ratio (x) = -0.00721 0.54033
# Poissons Ratio (y) = -0.00197 0.15182
# Poissons Ratio (z) = 0.80183 0.82522
#
# Static dielectric constant tensor:
#      x y z
#    x 1.927080 0.010670 0.025330 
#    y 0.010670 1.870360 0.036310 
#    z 0.025330 0.036310 1.949810 
# 
# From -- ./inp_files/46886.got.cif
#   From: 2010.05.17/outbox.cif.g08.bks.cpg/sg2_24_cif.got.tgz:46886.got - 2010.06.03 11:33:40.
