data_PCOD9046791
_publ_section_title
;
Structure prediction by ZEFSAII (Michael W. Deem and Ramdas Pophale) SiO2 
 PCOD9046791
Probable space group: P -1
;
_chemical_formula_sum "Si O2"
_cell_formula_units_Z 10
_cell_length_a 9.234118
_cell_length_b 12.580726
_cell_length_c 8.674453
_cell_angle_alpha 34.661011
_cell_angle_beta 47.919537
_cell_angle_gamma 51.390555
_cell_volume 418.999599
_symmetry_space_group_name_H-M "P -1"
_symmetry_group_IT_number 2
_symmetry_cell_setting 'triclinic'
loop_
_space_group_symop_operation_xyz
x,y,z
-x,-y,-z
loop_
_atom_site_type_symbol
_atom_site_label
_atom_site_fract_x
_atom_site_fract_y
_atom_site_fract_z
Si Si1 0.836743 0.927315 0.810700
Si Si2 0.440620 0.936878 0.880503
Si Si3 0.483899 0.511377 0.314515
Si Si4 0.099791 0.551643 0.025331
Si Si5 0.353337 0.349287 0.332178
O O1 0.642477 0.917123 0.859173
O O2 0.000000 0.000000 0.500000
O O3 0.960006 0.721374 0.003600
O O4 0.746612 0.033384 0.903124
O O5 0.426935 0.124621 0.562366
O O6 0.454225 0.734651 0.029470
O O7 0.500000 0.500000 0.500000
O O8 0.323308 0.417962 0.449409
O O9 0.694470 0.395300 0.246669
O O10 0.173177 0.390152 0.291796
O O11 0.000000 0.500000 0.000000
O O12 0.500000 0.500000 0.000000
#
# Coordination Sequence:
#
# PCOD9046791 Si02
#       5
#     2   2   2   2   2
#     4  11  22  42  68 101 138 176 233 288 343 416
#     4  11  23  43  71 100 137 185 229 285 349 410
#     4  11  22  44  73  98 134 183 231 281 350 415
#     4  11  23  43  64  97 135 178 223 288 345 399
#     4  10  24  43  68 101 140 180 232 285 342 417
#
# _framework density 23.86637
#
# number of rings (size 3 to 8) (size 9 to 14) (size 15 to 20)
#    0.000    1.200    2.000    6.000    0.000    4.000 
#    3.600    1.000    0.000    0.000    0.000    0.000 
#    0.000    0.000    0.000    0.000    0.000    0.000 
#
# Total GULP energy -55806.556059 kJ/mol
# GULP energy per Si atom -5580.655606 kJ/mol
# Density = 2.381205 g / cm^3
# Si number density = 23.866370 Si / 1000 Ang^3
#
#
#
# Elastic Constant Matrix: (Units=GPa)
#
#
# Indices 1 2 3 4 5 6 
#
# 1 120.0045 38.4120 17.2817 -8.8469 28.0279 2.4240
# 2 38.4120 160.6572 60.1215 -5.6376 -5.2925 -23.3406
# 3 17.2817 60.1215 135.9911 -3.6037 6.1653 -16.2298
# 4 -8.8469 -5.6376 -3.6037 61.4475 -14.2323 -1.2963
# 5 28.0279 -5.2925 6.1653 -14.2323 39.9723 -7.1597
# 6 2.4240 -23.3406 -16.2298 -1.2963 -7.1597 42.2059
#
#
#
# Elastic Compliance Matrix: (Units=1/GPa)
#
#
# Indices 1 2 3 4 5 6 
#
# 1 0.011953 -0.003932 0.000104 -0.001074 -0.010119 -0.004570
# 2 -0.003932 0.009401 -0.003261 0.001609 0.006016 0.005241
# 3 0.000104 -0.003261 0.009019 -0.000119 -0.001693 0.001368
# 4 -0.001074 0.001609 -0.000119 0.018162 0.007955 0.002813
# 5 -0.010119 0.006016 -0.001693 0.007955 0.037778 0.009910
# 6 -0.004570 0.005241 0.001368 0.002813 0.009910 0.029148
#
#
# Mechanical properties :
#
#
# Convention : Reuss Voigt Hill
#
# Bulk Modulus (GPa) = 61.74744 72.03146 66.88945
# Shear Modulus (GPa) = 37.02717 48.78100 42.90409
#
# Velocity S-wave (km/s) = 3.94310 4.52588 4.24450
# Velocity P-wave (km/s) = 6.83074 7.58671 7.21863
#
# Compressibility (1/GPa) = 0.01619500
#
# Stress axis : x y z
#
# Youngs Moduli (GPa) = 83.66064 106.37217 110.87961
#
# Poissons Ratio (x) = 0.41824 -0.01155
# Poissons Ratio (y) = 0.32894 0.36160
# Poissons Ratio (z) = -0.00871 0.34690
#
# Static dielectric constant tensor:
#      x y z
#    x 2.068610 0.162680 0.205100 
#    y 0.162680 2.070540 0.225300 
#    z 0.205100 0.225300 2.315880 
# 
# From -- ./inp_files/148435.got.cif
#   From: 2010.05.17/outbox.cif.g08.bks.cpg/sg2_75_cif.got.tgz:148435.got - 2010.06.03 11:33:40.
