data_PCOD9046739
_publ_section_title
;
Structure prediction by ZEFSAII (Michael W. Deem and Ramdas Pophale) SiO2 
 PCOD9046739
Probable space group: P -1
;
_chemical_formula_sum "Si O2"
_cell_formula_units_Z 16
_cell_length_a 11.531657
_cell_length_b 9.092068
_cell_length_c 10.214843
_cell_angle_alpha 72.639092
_cell_angle_beta 125.308032
_cell_angle_gamma 119.311026
_cell_volume 761.917811
_symmetry_space_group_name_H-M "P -1"
_symmetry_group_IT_number 2
_symmetry_cell_setting 'triclinic'
loop_
_space_group_symop_operation_xyz
x,y,z
-x,-y,-z
loop_
_atom_site_type_symbol
_atom_site_label
_atom_site_fract_x
_atom_site_fract_y
_atom_site_fract_z
Si Si1 0.841265 0.414387 0.058445
Si Si2 0.979097 0.164320 0.329007
Si Si3 0.309949 0.262681 0.412567
Si Si4 0.188142 0.084597 0.105952
Si Si5 0.128531 0.740449 0.223695
Si Si6 0.634322 0.358021 0.687593
Si Si7 0.044532 0.189941 0.654773
Si Si8 0.684219 0.587241 0.086634
O O1 0.742296 0.454270 0.095940
O O2 0.915154 0.285493 0.182738
O O3 0.985240 0.599660 0.087497
O O4 0.275720 0.652370 0.120570
O O5 0.164631 0.225884 0.421367
O O6 0.951758 0.169987 0.464457
O O7 0.922078 0.979325 0.276720
O O8 0.247312 0.155234 0.269688
O O9 0.454904 0.239077 0.578007
O O10 0.360834 0.455719 0.352662
O O11 0.217366 0.915426 0.157409
O O12 0.261044 0.243008 0.013942
O O13 0.000000 0.000000 0.000000
O O14 0.255751 0.663494 0.348700
O O15 0.053855 0.780890 0.296170
O O16 0.213148 0.344453 0.734049
O O17 0.500000 0.500000 0.000000
#
# Coordination Sequence:
#
# PCOD9046739 Si02
#       8
#     2   2   2   2   2   2   2   2
#     4  11  23  42  68 100 126 182 230 273 330 408
#     4  11  23  43  69  94 132 177 231 277 328 414
#     4  11  23  41  65  95 138 177 213 284 346 385
#     4  12  21  42  71  99 131 176 230 273 336 398
#     4  11  22  39  69  98 131 170 236 274 324 407
#     4  11  24  38  63 103 132 168 223 283 337 394
#     4  10  24  43  67  96 129 184 221 276 341 401
#     4  11  25  43  67  99 143 175 218 281 346 399
#
# _framework density 20.999639999999999
#
# number of rings (size 3 to 8) (size 9 to 14) (size 15 to 20)
#    0.000    1.000    6.250    0.375    5.250    2.500 
#    2.250    1.875    0.000    0.000    0.000    0.000 
#    0.000    0.000    0.000    0.000    0.000    0.000 
#
# Total GULP energy -89258.857615 kJ/mol
# GULP energy per Si atom -5578.678601 kJ/mol
# Density = 2.095184 g / cm^3
# Si number density = 20.999640 Si / 1000 Ang^3
#
#
#
# Elastic Constant Matrix: (Units=GPa)
#
#
# Indices 1 2 3 4 5 6 
#
# 1 84.9920 44.0261 66.0798 17.1221 23.0730 -11.6069
# 2 44.0261 110.9764 62.5321 11.4226 2.7632 -17.6531
# 3 66.0798 62.5321 127.0317 12.0613 11.9078 -14.8257
# 4 17.1221 11.4226 12.0613 31.7102 0.9188 -2.4431
# 5 23.0730 2.7632 11.9078 0.9188 40.6381 5.7219
# 6 -11.6069 -17.6531 -14.8257 -2.4431 5.7219 35.0332
#
#
#
# Elastic Compliance Matrix: (Units=1/GPa)
#
#
# Indices 1 2 3 4 5 6 
#
# 1 0.026950 -0.003148 -0.009901 -0.008932 -0.012631 0.004592
# 2 -0.003148 0.013512 -0.004670 -0.001180 0.001783 0.003416
# 3 -0.009901 -0.004670 0.015145 0.001277 0.001383 0.000639
# 4 -0.008932 -0.001180 0.001277 0.036088 0.004126 -0.001170
# 5 -0.012631 0.001783 0.001383 0.004126 0.032240 -0.007679
# 6 0.004592 0.003416 0.000639 -0.001170 -0.007679 0.033230
#
#
# Mechanical properties :
#
#
# Convention : Reuss Voigt Hill
#
# Bulk Modulus (GPa) = 49.58358 74.25289 61.91823
# Shear Modulus (GPa) = 25.08445 31.50045 28.29245
#
# Velocity S-wave (km/s) = 3.45993 3.87725 3.67452
# Velocity P-wave (km/s) = 6.29479 7.44849 6.89581
#
# Compressibility (1/GPa) = 0.02016797
#
# Stress axis : x y z
#
# Youngs Moduli (GPa) = 37.10569 74.01028 66.02777
#
# Poissons Ratio (x) = 0.23299 0.65376
# Poissons Ratio (y) = 0.11681 0.30836
# Poissons Ratio (z) = 0.36739 0.34564
#
# Static dielectric constant tensor:
#      x y z
#    x 1.810970 0.006540 -0.033250 
#    y 0.006540 1.806820 -0.022760 
#    z -0.033250 -0.022760 1.801930 
# 
# From -- ./inp_files/414783.got.cif
#   From: 2010.05.17/outbox.cif.g08.bks.cpg/sg2_208_cif.got.tgz:414783.got - 2010.06.03 11:33:40.
