data_PCOD9046287
_publ_section_title
;
Structure prediction by ZEFSAII (Michael W. Deem and Ramdas Pophale) SiO2 
 PCOD9046287
Probable space group: P -1
;
_chemical_formula_sum "Si O2"
_cell_formula_units_Z 13
_cell_length_a 4.968583
_cell_length_b 21.518073
_cell_length_c 13.530264
_cell_angle_alpha 158.360186
_cell_angle_beta 106.008297
_cell_angle_gamma 73.880560
_cell_volume 511.842673
_symmetry_space_group_name_H-M "P -1"
_symmetry_group_IT_number 2
_symmetry_cell_setting 'triclinic'
loop_
_space_group_symop_operation_xyz
x,y,z
-x,-y,-z
loop_
_atom_site_type_symbol
_atom_site_label
_atom_site_fract_x
_atom_site_fract_y
_atom_site_fract_z
Si Si1 0.653615 0.674633 0.277999
Si Si2 0.080648 0.188872 0.909006
Si Si3 0.500000 0.000000 0.000000
Si Si4 0.268063 0.706503 0.460328
Si Si5 0.899268 0.709089 0.720960
Si Si6 0.604355 0.497861 0.647050
Si Si7 0.638589 0.125964 0.625475
O O1 0.501381 0.761544 0.486646
O O2 0.581131 0.773223 0.316514
O O3 0.981911 0.664234 0.316458
O O4 0.500000 0.500000 0.000000
O O5 0.834046 0.236454 0.876134
O O6 0.172745 0.995716 0.607909
O O7 0.010254 0.208330 0.045318
O O8 0.324412 0.313138 0.091919
O O9 0.757060 0.128569 0.230896
O O10 0.303263 0.157046 0.161081
O O11 0.370523 0.546490 0.299793
O O12 0.695935 0.557361 0.499868
O O13 0.155284 0.625521 0.561575
O O14 0.500000 0.000000 0.500000
#
# Coordination Sequence:
#
# PCOD9046287 Si02
#       7
#     2   2   1   2   2   2   2
#     4  12  27  47  75 103 143 188 243 292 354 422
#     4  11  26  46  68 100 148 181 241 292 353 430
#     4  10  24  42  70 102 142 176 236 286 358 424
#     4  11  25  45  73 104 141 186 236 296 357 418
#     4  11  25  43  72 106 139 189 230 296 360 420
#     4  11  25  44  73 105 139 186 237 290 360 427
#     4  11  29  44  72 104 139 197 236 292 359 413
#
# _framework density 25.398430000000001
#
# number of rings (size 3 to 8) (size 9 to 14) (size 15 to 20)
#    0.000    0.923    0.000    5.077   12.923    5.538 
#    0.000    0.000    0.000    0.000    0.000    0.000 
#    0.000    0.000    0.000    0.000    0.000    0.000 
#
# Total GULP energy -72656.223214 kJ/mol
# GULP energy per Si atom -5588.940247 kJ/mol
# Density = 2.534062 g / cm^3
# Si number density = 25.398430 Si / 1000 Ang^3
#
#
#
# Elastic Constant Matrix: (Units=GPa)
#
#
# Indices 1 2 3 4 5 6 
#
# 1 101.4376 21.4137 26.4370 -21.4411 1.6305 -2.7774
# 2 21.4137 155.5149 37.4682 -9.9678 -1.0630 -17.3796
# 3 26.4370 37.4682 87.1880 -10.3166 7.8412 -8.4832
# 4 -21.4411 -9.9678 -10.3166 42.2879 -0.6220 10.2900
# 5 1.6305 -1.0630 7.8412 -0.6220 42.5689 0.5925
# 6 -2.7774 -17.3796 -8.4832 10.2900 0.5925 39.6878
#
#
#
# Elastic Compliance Matrix: (Units=1/GPa)
#
#
# Indices 1 2 3 4 5 6 
#
# 1 0.011871 -0.000784 -0.002770 0.005536 0.000138 -0.001542
# 2 -0.000784 0.007511 -0.002791 0.000067 0.000696 0.002610
# 3 -0.002770 -0.002791 0.013986 0.000982 -0.002544 0.001357
# 4 0.005536 0.000067 0.000982 0.028348 0.000117 -0.006725
# 5 0.000138 0.000696 -0.002544 0.000117 0.023982 -0.000617
# 6 -0.001542 0.002610 0.001357 -0.006725 -0.000617 0.028274
#
#
# Mechanical properties :
#
#
# Convention : Reuss Voigt Hill
#
# Bulk Modulus (GPa) = 48.35909 57.19759 52.77834
# Shear Modulus (GPa) = 37.43745 42.16369 39.80057
#
# Velocity S-wave (km/s) = 3.84344 4.07884 3.96289
# Velocity P-wave (km/s) = 6.22717 6.68966 6.46255
#
# Compressibility (1/GPa) = 0.02067864
#
# Stress axis : x y z
#
# Youngs Moduli (GPa) = 84.23617 133.13151 71.50067
#
# Poissons Ratio (x) = 0.10434 0.19807
# Poissons Ratio (y) = 0.06602 0.19956
# Poissons Ratio (z) = 0.23336 0.37157
#
# Static dielectric constant tensor:
#      x y z
#    x 2.041690 0.071340 -0.114610 
#    y 0.071340 2.033950 -0.091640 
#    z -0.114610 -0.091640 2.129790 
# 
# From -- ./inp_files/485871.got.cif
#   From: 2010.05.17/outbox.cif.g08.bks.cpg/sg2_243_cif.got.tgz:485871.got - 2010.06.03 11:33:40.
