data_PCOD9046088
_publ_section_title
;
Structure prediction by ZEFSAII (Michael W. Deem and Ramdas Pophale) SiO2 
 PCOD9046088
Probable space group: P -1
;
_chemical_formula_sum "Si O2"
_cell_formula_units_Z 16
_cell_length_a 9.638507
_cell_length_b 15.132647
_cell_length_c 10.539697
_cell_angle_alpha 34.335644
_cell_angle_beta 134.512370
_cell_angle_gamma 125.011817
_cell_volume 618.268043
_symmetry_space_group_name_H-M "P -1"
_symmetry_group_IT_number 2
_symmetry_cell_setting 'triclinic'
loop_
_space_group_symop_operation_xyz
x,y,z
-x,-y,-z
loop_
_atom_site_type_symbol
_atom_site_label
_atom_site_fract_x
_atom_site_fract_y
_atom_site_fract_z
Si Si1 0.285809 0.064516 0.945760
Si Si2 0.331567 0.127540 0.616632
Si Si3 0.811173 0.653752 0.264247
Si Si4 0.177526 0.804850 0.367736
Si Si5 0.850900 0.338049 0.230323
Si Si6 0.388463 0.610185 0.402111
Si Si7 0.999674 0.686499 0.928398
Si Si8 0.478540 0.330644 0.128361
O O1 0.238301 0.075385 0.753399
O O2 0.263524 0.223050 0.823166
O O3 0.163260 0.941140 0.095924
O O4 0.511722 0.005028 0.164281
O O5 0.457429 0.277338 0.566180
O O6 0.174796 0.184903 0.343220
O O7 0.043239 0.664938 0.398486
O O8 0.713703 0.496009 0.432767
O O9 0.731167 0.705797 0.014198
O O10 0.107449 0.798895 0.477441
O O11 0.407080 0.777693 0.570767
O O12 0.617874 0.335092 0.088116
O O13 0.939040 0.317511 0.175209
O O14 0.920128 0.510778 0.115906
O O15 0.500000 0.500000 0.500000
O O16 0.203245 0.703380 0.112235
O O17 0.500000 0.500000 0.000000
#
# Coordination Sequence:
#
# PCOD9046088 Si02
#       8
#     2   2   2   2   2   2   2   2
#     4  11  26  48  67 101 147 193 228 282 351 423
#     4  11  26  45  71 101 145 182 233 296 340 408
#     4  12  23  45  73 101 139 185 233 284 353 420
#     4  10  24  44  67  98 142 187 229 280 349 425
#     4   9  20  37  64 101 137 169 224 288 342 401
#     4  12  22  39  75 105 130 177 243 290 339 405
#     4  11  20  40  68 105 135 178 229 292 346 398
#     4  10  24  42  67 104 136 175 230 293 349 405
#
# _framework density 25.878743
#
# number of rings (size 3 to 8) (size 9 to 14) (size 15 to 20)
#    0.750    0.500    2.500    4.125    3.500    1.000 
#    2.250    5.000    0.000    0.000    0.000    0.000 
#    0.000    0.000    0.000    0.000    0.000    0.000 
#
# Total GULP energy -89397.850864 kJ/mol
# GULP energy per Si atom -5587.365679 kJ/mol
# Density = 2.581984 g / cm^3
# Si number density = 25.878743 Si / 1000 Ang^3
#
#
#
# Elastic Constant Matrix: (Units=GPa)
#
#
# Indices 1 2 3 4 5 6 
#
# 1 144.5864 21.5270 51.2790 -5.5032 -27.8625 3.5716
# 2 21.5270 38.2061 22.5052 11.5610 2.9327 -5.2688
# 3 51.2790 22.5052 158.9256 27.6408 -5.8315 -6.2020
# 4 -5.5032 11.5610 27.6408 46.5184 2.4055 8.7822
# 5 -27.8625 2.9327 -5.8315 2.4055 50.7150 -16.7744
# 6 3.5716 -5.2688 -6.2020 8.7822 -16.7744 35.1186
#
#
#
# Elastic Compliance Matrix: (Units=1/GPa)
#
#
# Indices 1 2 3 4 5 6 
#
# 1 0.009974 -0.005686 -0.003040 0.004370 0.004863 -0.001174
# 2 -0.005686 0.034073 -0.001160 -0.009574 -0.002574 0.006650
# 3 -0.003040 -0.001160 0.008635 -0.005914 0.000841 0.003541
# 4 0.004370 -0.009574 -0.005914 0.030337 -0.003137 -0.012010
# 5 0.004863 -0.002574 0.000841 -0.003137 0.027080 0.012987
# 6 -0.001174 0.006650 0.003541 -0.012010 0.012987 0.039424
#
#
# Mechanical properties :
#
#
# Convention : Reuss Voigt Hill
#
# Bulk Modulus (GPa) = 30.38750 59.14894 44.76822
# Shear Modulus (GPa) = 27.73697 42.89753 35.31725
#
# Velocity S-wave (km/s) = 3.27740 4.07582 3.69822
# Velocity P-wave (km/s) = 5.10779 6.71235 5.96427
#
# Compressibility (1/GPa) = 0.03290827
#
# Stress axis : x y z
#
# Youngs Moduli (GPa) = 100.26469 29.34901 115.80490
#
# Poissons Ratio (x) = 0.16689 0.35208
# Poissons Ratio (y) = 0.57013 0.13435
# Poissons Ratio (z) = 0.30483 0.03405
#
# Static dielectric constant tensor:
#      x y z
#    x 2.048460 0.003970 0.050620 
#    y 0.003970 1.997600 0.002480 
#    z 0.050620 0.002480 2.202370 
# 
# From -- ./inp_files/534865.got.cif
#   From: 2010.05.17/outbox.cif.g08.bks.cpg/sg2_268_cif.got.tgz:534865.got - 2010.06.03 11:33:40.
