data_PCOD9046803
_publ_section_title
;
Structure prediction by ZEFSAII (Michael W. Deem and Ramdas Pophale) SiO2 
 PCOD9046803
Probable space group: P -1
;
_chemical_formula_sum "Si O2"
_cell_formula_units_Z 14
_cell_length_a 12.091777
_cell_length_b 8.398434
_cell_length_c 6.481712
_cell_angle_alpha 72.517997
_cell_angle_beta 104.372477
_cell_angle_gamma 90.799297
_cell_volume 606.868235
_symmetry_space_group_name_H-M "P -1"
_symmetry_group_IT_number 2
_symmetry_cell_setting 'triclinic'
loop_
_space_group_symop_operation_xyz
x,y,z
-x,-y,-z
loop_
_atom_site_type_symbol
_atom_site_label
_atom_site_fract_x
_atom_site_fract_y
_atom_site_fract_z
Si Si1 0.092729 0.593163 0.882642
Si Si2 0.669887 0.613347 0.934651
Si Si3 0.578897 0.876566 0.443174
Si Si4 0.999549 0.162243 0.584090
Si Si5 0.737792 0.874842 0.160075
Si Si6 0.421428 0.634194 0.285665
Si Si7 0.805556 0.179867 0.829108
O O1 0.041456 0.669387 0.620571
O O2 0.200939 0.463524 0.969081
O O3 0.131797 0.750432 0.969794
O O4 0.000000 0.500000 0.000000
O O5 0.639449 0.737042 0.679241
O O6 0.600483 0.449530 0.913789
O O7 0.666305 0.725685 0.093773
O O8 0.676574 0.943539 0.314612
O O9 0.489713 0.797982 0.276293
O O10 0.500000 0.000000 0.500000
O O11 0.903117 0.143922 0.720324
O O12 0.129138 0.178158 0.713848
O O13 0.000000 0.000000 0.500000
O O14 0.745644 0.015004 0.934025
O O15 0.500000 0.500000 0.500000
O O16 0.297466 0.679489 0.316905
#
# Coordination Sequence:
#
# PCOD9046803 Si02
#       7
#     2   2   2   2   2   2   2
#     4  11  24  43  69 103 143 185 236 294 359 422
#     4  10  24  43  68 102 143 182 237 298 352 430
#     4  11  25  45  73 105 142 188 242 298 356 430
#     4  12  27  44  72 104 144 193 235 298 358 426
#     4  12  26  43  72 105 141 190 240 295 361 423
#     4   9  22  45  69  99 141 186 232 298 354 417
#     4  11  25  44  71 103 143 186 242 292 357 430
#
# _framework density 23.069255999999999
#
# number of rings (size 3 to 8) (size 9 to 14) (size 15 to 20)
#    0.000    1.143    1.429    3.000    6.000    8.571 
#    0.000    7.143    0.000    0.000    0.000    0.000 
#    0.000    0.000    0.000    0.000    0.000    0.000 
#
# Total GULP energy -78218.413395 kJ/mol
# GULP energy per Si atom -5587.029528 kJ/mol
# Density = 2.301675 g / cm^3
# Si number density = 23.069256 Si / 1000 Ang^3
#
#
#
# Elastic Constant Matrix: (Units=GPa)
#
#
# Indices 1 2 3 4 5 6 
#
# 1 152.9030 64.3470 68.4329 8.5197 -2.1234 -32.8921
# 2 64.3470 114.5745 43.2817 22.6763 -0.8630 -12.7055
# 3 68.4329 43.2817 85.5017 -4.7339 7.5022 -26.6931
# 4 8.5197 22.6763 -4.7339 46.3919 -7.2712 9.9821
# 5 -2.1234 -0.8630 7.5022 -7.2712 49.8198 10.4047
# 6 -32.8921 -12.7055 -26.6931 9.9821 10.4047 45.7318
#
#
#
# Elastic Compliance Matrix: (Units=1/GPa)
#
#
# Indices 1 2 3 4 5 6 
#
# 1 0.011961 -0.003280 -0.006764 -0.002128 0.000296 0.004141
# 2 -0.003280 0.013618 -0.004525 -0.006616 -0.000247 0.000284
# 3 -0.006764 -0.004525 0.022247 0.003439 -0.004716 0.007186
# 4 -0.002128 -0.006616 0.003439 0.028222 0.005215 -0.008708
# 5 0.000296 -0.000247 -0.004716 0.005215 0.023448 -0.009081
# 6 0.004141 0.000284 0.007186 -0.008708 -0.009081 0.033085
#
#
# Mechanical properties :
#
#
# Convention : Reuss Voigt Hill
#
# Bulk Modulus (GPa) = 53.50544 78.34471 65.92508
# Shear Modulus (GPa) = 29.77100 40.18322 34.97711
#
# Velocity S-wave (km/s) = 3.59626 4.17808 3.89804
# Velocity P-wave (km/s) = 6.36301 7.57030 6.99276
#
# Compressibility (1/GPa) = 0.01868969
#
# Stress axis : x y z
#
# Youngs Moduli (GPa) = 83.60429 73.43185 44.94908
#
# Poissons Ratio (x) = 0.24083 0.30405
# Poissons Ratio (y) = 0.27420 0.20337
# Poissons Ratio (z) = 0.56552 0.33224
#
# Static dielectric constant tensor:
#      x y z
#    x 1.857990 0.053570 -0.022540 
#    y 0.053570 1.980200 -0.046800 
#    z -0.022540 -0.046800 1.889190 
# 
# From -- ./inp_files/60470.got.cif
#   From: 2010.05.17/outbox.cif.g08.bks.cpg/sg2_31_cif.got.tgz:60470.got - 2010.06.03 11:33:40.
