data_PCOD9046695
_publ_section_title
;
Structure prediction by ZEFSAII (Michael W. Deem and Ramdas Pophale) SiO2 
 PCOD9046695
Probable space group: P -1
;
_chemical_formula_sum "Si O2"
_cell_formula_units_Z 13
_cell_length_a 14.686054
_cell_length_b 14.910555
_cell_length_c 6.640619
_cell_angle_alpha 127.546417
_cell_angle_beta 113.708423
_cell_angle_gamma 28.686779
_cell_volume 518.798253
_symmetry_space_group_name_H-M "P -1"
_symmetry_group_IT_number 2
_symmetry_cell_setting 'triclinic'
loop_
_space_group_symop_operation_xyz
x,y,z
-x,-y,-z
loop_
_atom_site_type_symbol
_atom_site_label
_atom_site_fract_x
_atom_site_fract_y
_atom_site_fract_z
Si Si1 0.556375 0.761871 0.130353
Si Si2 0.737043 0.829757 0.271540
Si Si3 0.874439 0.591774 0.710076
Si Si4 0.000000 0.000000 0.500000
Si Si5 0.758571 0.071541 0.113606
Si Si6 0.290569 0.699363 0.969243
Si Si7 0.197219 0.554900 0.733401
O O1 0.650727 0.788854 0.187228
O O2 0.723230 0.522781 0.070994
O O3 0.395015 0.951239 0.422510
O O4 0.439644 0.811018 0.920026
O O5 0.961345 0.617695 0.273102
O O6 0.761250 0.803783 0.016700
O O7 0.736304 0.627172 0.559806
O O8 0.000000 0.500000 0.500000
O O9 0.824027 0.079521 0.376256
O O10 0.896068 0.106505 0.776313
O O11 0.721208 0.198004 0.074130
O O12 0.955113 0.801154 0.865530
O O13 0.273071 0.587806 0.725385
O O14 0.500000 0.500000 0.000000
#
# Coordination Sequence:
#
# PCOD9046695 Si02
#       7
#     2   2   2   1   2   2   2
#     4  11  22  45  70 103 139 180 239 280 356 425
#     4  10  24  43  67 101 140 180 226 296 341 416
#     4  11  22  44  67  98 139 182 229 287 350 415
#     4  10  24  44  68 102 138 186 230 294 354 406
#     4  11  24  48  69 103 145 180 234 294 346 426
#     4  11  24  47  71 101 144 183 235 298 352 423
#     4  11  22  42  69  99 138 184 226 288 350 416
#
# _framework density 25.057908000000001
#
# number of rings (size 3 to 8) (size 9 to 14) (size 15 to 20)
#    0.000    1.231    4.615    1.846    0.000    2.462 
#   16.615    0.000    0.000    0.000    0.000    0.000 
#    0.000    0.000    0.000    0.000    0.000    0.000 
#
# Total GULP energy -72485.714131 kJ/mol
# GULP energy per Si atom -5575.824164 kJ/mol
# Density = 2.500088 g / cm^3
# Si number density = 25.057908 Si / 1000 Ang^3
#
#
#
# Elastic Constant Matrix: (Units=GPa)
#
#
# Indices 1 2 3 4 5 6 
#
# 1 78.8115 11.4501 19.5323 -6.6230 15.9510 -3.8974
# 2 11.4501 117.4969 5.2810 -19.4169 14.9657 -12.4004
# 3 19.5323 5.2810 125.3369 -19.6585 4.3846 -6.2509
# 4 -6.6230 -19.4169 -19.6585 24.0436 -21.6681 10.6373
# 5 15.9510 14.9657 4.3846 -21.6681 38.9908 -11.1574
# 6 -3.8974 -12.4004 -6.2509 10.6373 -11.1574 43.5656
#
#
#
# Elastic Compliance Matrix: (Units=1/GPa)
#
#
# Indices 1 2 3 4 5 6 
#
# 1 0.015041 -0.001501 -0.003333 -0.008988 -0.010190 0.000025
# 2 -0.001501 0.010191 0.001555 0.011570 0.003242 0.000995
# 3 -0.003333 0.001555 0.010879 0.017759 0.009344 -0.000238
# 4 -0.008988 0.011570 0.017759 0.124512 0.063855 -0.009011
# 5 -0.010190 0.003242 0.009344 0.063855 0.063592 0.002047
# 6 0.000025 0.000995 -0.000238 -0.009011 0.002047 0.025930
#
#
# Mechanical properties :
#
#
# Convention : Reuss Voigt Hill
#
# Bulk Modulus (GPa) = 33.83540 43.79692 38.81616
# Shear Modulus (GPa) = 18.75799 40.34544 29.55172
#
# Velocity S-wave (km/s) = 2.73900 4.01694 3.43787
# Velocity P-wave (km/s) = 4.85129 6.24745 5.59311
#
# Compressibility (1/GPa) = 0.02955485
#
# Stress axis : x y z
#
# Youngs Moduli (GPa) = 66.48550 98.12328 91.91985
#
# Poissons Ratio (x) = 0.14726 0.30635
# Poissons Ratio (y) = 0.09978 -0.14297
# Poissons Ratio (z) = 0.22158 -0.15261
#
# Static dielectric constant tensor:
#      x y z
#    x 2.023380 -0.038370 0.037100 
#    y -0.038370 1.994170 0.001190 
#    z 0.037100 0.001190 1.999200 
# 
# From -- ./inp_files/97384.got.cif
#   From: 2010.05.17/outbox.cif.g08.bks.cpg/sg2_49_cif.got.tgz:97384.got - 2010.06.03 11:33:40.
