data_PCOD9046519
_publ_section_title
;
Structure prediction by ZEFSAII (Michael W. Deem and Ramdas Pophale) SiO2 
 PCOD9046519
Probable space group: P -1
;
_chemical_formula_sum "Si O2"
_cell_formula_units_Z 12
_cell_length_a 5.025428
_cell_length_b 13.944791
_cell_length_c 11.014011
_cell_angle_alpha 138.862758
_cell_angle_beta 105.555735
_cell_angle_gamma 69.869049
_cell_volume 476.699553
_symmetry_space_group_name_H-M "P -1"
_symmetry_group_IT_number 2
_symmetry_cell_setting 'triclinic'
loop_
_space_group_symop_operation_xyz
x,y,z
-x,-y,-z
loop_
_atom_site_type_symbol
_atom_site_label
_atom_site_fract_x
_atom_site_fract_y
_atom_site_fract_z
Si Si1 0.619372 0.223028 0.220889
Si Si2 0.496853 0.605070 0.985609
Si Si3 0.968023 0.060024 0.307547
Si Si4 0.419329 0.076312 0.694038
Si Si5 0.011623 0.331437 0.178023
Si Si6 0.216578 0.603859 0.397356
O O1 0.777823 0.079814 0.180516
O O2 0.843651 0.274266 0.210465
O O3 0.555692 0.348467 0.439833
O O4 0.330572 0.232967 0.123952
O O5 0.175412 0.672726 0.968084
O O6 0.645061 0.498549 0.793665
O O7 0.500000 0.500000 0.000000
O O8 0.637680 0.745321 0.156990
O O9 0.963182 0.233098 0.506803
O O10 0.822358 0.985520 0.325507
O O11 0.289394 0.977440 0.245031
O O12 0.500000 0.000000 0.500000
O O13 0.959714 0.497273 0.649811
#
# Coordination Sequence:
#
# PCOD9046519 Si02
#       6
#     2   2   2   2   2   2
#     4  10  24  42  80 110 148 189 242 296 376 431
#     4  12  30  47  76 111 148 193 251 311 359 427
#     4  10  26  46  76 107 142 195 241 295 367 442
#     4  12  27  52  72 102 151 201 245 293 371 441
#     4  12  23  45  73 117 146 187 244 313 354 435
#     4  10  25  43  80 108 150 183 255 293 367 423
#
# _framework density 25.173088
#
# number of rings (size 3 to 8) (size 9 to 14) (size 15 to 20)
#    1.000    0.000    1.667    3.500    9.333    0.667 
#    0.000    5.000    0.000    0.000    0.000    0.000 
#    0.000    0.000    0.000    0.000    0.000    0.000 
#
# Total GULP energy -67201.276754 kJ/mol
# GULP energy per Si atom -5600.106396 kJ/mol
# Density = 2.511579 g / cm^3
# Si number density = 25.173088 Si / 1000 Ang^3
#
#
#
# Elastic Constant Matrix: (Units=GPa)
#
#
# Indices 1 2 3 4 5 6 
#
# 1 119.6512 49.6885 29.7278 2.0570 -24.9798 18.8508
# 2 49.6885 131.3233 56.5582 5.4913 -0.3806 37.0853
# 3 29.7278 56.5582 96.4048 10.0158 -7.7716 16.3491
# 4 2.0570 5.4913 10.0158 55.4982 6.0858 7.0691
# 5 -24.9798 -0.3806 -7.7716 6.0858 41.2527 0.1548
# 6 18.8508 37.0853 16.3491 7.0691 0.1548 51.0592
#
#
#
# Elastic Compliance Matrix: (Units=1/GPa)
#
#
# Indices 1 2 3 4 5 6 
#
# 1 0.011768 -0.003789 -0.000546 -0.000565 0.007077 -0.001361
# 2 -0.003789 0.013429 -0.005986 0.001107 -0.003437 -0.006581
# 3 -0.000546 -0.005986 0.014472 -0.002323 0.002682 0.000229
# 4 -0.000565 0.001107 -0.002323 0.019057 -0.003572 -0.002479
# 5 0.007077 -0.003437 0.002682 -0.003572 0.029529 -0.000570
# 6 -0.001361 -0.006581 0.000229 -0.002479 -0.000570 0.025139
#
#
# Mechanical properties :
#
#
# Convention : Reuss Voigt Hill
#
# Bulk Modulus (GPa) = 52.55710 68.81427 60.68568
# Shear Modulus (GPa) = 35.61831 43.65568 39.63700
#
# Velocity S-wave (km/s) = 3.76564 4.16892 3.97240
# Velocity P-wave (km/s) = 6.31113 7.11118 6.72307
#
# Compressibility (1/GPa) = 0.01902692
#
# Stress axis : x y z
#
# Youngs Moduli (GPa) = 84.97315 74.46798 69.10026
#
# Poissons Ratio (x) = 0.28217 0.03772
# Poissons Ratio (y) = 0.32198 0.41362
# Poissons Ratio (z) = 0.04639 0.44575
#
# Static dielectric constant tensor:
#      x y z
#    x 1.975560 -0.023640 0.061630 
#    y -0.023640 2.006940 0.021050 
#    z 0.061630 0.021050 2.037710 
# 
# From -- ./inp_files/42697.got.cif
#   From: 2010.05.17/outbox.cif.g08.bks.cpg/sg2_22_cif.got.tgz:42697.got - 2010.06.03 11:33:40.
