data_PCOD9046575
_publ_section_title
;
Structure prediction by ZEFSAII (Michael W. Deem and Ramdas Pophale) SiO2 
 PCOD9046575
Probable space group: P -1
;
_chemical_formula_sum "Si O2"
_cell_formula_units_Z 16
_cell_length_a 7.438826
_cell_length_b 24.967010
_cell_length_c 5.028356
_cell_angle_alpha 94.862520
_cell_angle_beta 69.971486
_cell_angle_gamma 134.133972
_cell_volume 613.149122
_symmetry_space_group_name_H-M "P -1"
_symmetry_group_IT_number 2
_symmetry_cell_setting 'triclinic'
loop_
_space_group_symop_operation_xyz
x,y,z
-x,-y,-z
loop_
_atom_site_type_symbol
_atom_site_label
_atom_site_fract_x
_atom_site_fract_y
_atom_site_fract_z
Si Si1 0.482281 0.566753 0.269753
Si Si2 0.931195 0.788021 0.615565
Si Si3 0.946358 0.596397 0.339840
Si Si4 0.711868 0.242333 0.542973
Si Si5 0.654050 0.080248 0.136941
Si Si6 0.607942 0.380116 0.161358
Si Si7 0.092090 0.934621 0.392619
Si Si8 0.551892 0.853982 0.889467
O O1 0.766191 0.598837 0.242472
O O2 0.258504 0.475792 0.391197
O O3 0.484642 0.591582 0.985210
O O4 0.398158 0.597298 0.530472
O O5 0.065470 0.757166 0.469106
O O6 0.106296 0.841927 0.799509
O O7 0.976444 0.850348 0.446694
O O8 0.615994 0.711878 0.781378
O O9 0.159774 0.674408 0.432074
O O10 0.107823 0.586084 0.072891
O O11 0.628976 0.212937 0.270782
O O12 0.458581 0.179943 0.843156
O O13 0.559342 0.108377 0.994927
O O14 0.374895 0.012185 0.410110
O O15 0.781122 0.049951 0.957059
O O16 0.845880 0.918300 0.630769
#
# Coordination Sequence:
#
# PCOD9046575 Si02
#       8
#     2   2   2   2   2   2   2   2
#     4  11  28  48  73 109 144 186 237 294 351 426
#     4  11  24  44  68  97 140 177 232 286 345 412
#     4  11  26  48  74 106 147 188 235 292 358 417
#     4  11  25  45  68 101 138 182 225 290 343 410
#     4  10  24  43  65 100 136 178 226 289 341 413
#     4  12  27  46  77 104 145 187 240 290 354 424
#     4  11  23  43  70  96 134 183 228 281 353 407
#     4  11  25  44  69 100 137 178 233 279 344 412
#
# _framework density 26.094792999999999
#
# number of rings (size 3 to 8) (size 9 to 14) (size 15 to 20)
#    0.000    1.000    2.500    2.250    8.750    5.000 
#    0.000    1.875    0.000    0.000    0.000    0.000 
#    0.000    0.000    0.000    0.000    0.000    0.000 
#
# Total GULP energy -89510.796319 kJ/mol
# GULP energy per Si atom -5594.424770 kJ/mol
# Density = 2.603540 g / cm^3
# Si number density = 26.094793 Si / 1000 Ang^3
#
#
#
# Elastic Constant Matrix: (Units=GPa)
#
#
# Indices 1 2 3 4 5 6 
#
# 1 50.9955 1.9449 12.8486 0.5957 -7.5438 -7.3125
# 2 1.9449 131.1683 21.4471 -9.6200 7.1004 -1.3866
# 3 12.8486 21.4471 79.1434 -3.8290 -3.4016 2.1072
# 4 0.5957 -9.6200 -3.8290 40.3753 -2.8444 -9.6783
# 5 -7.5438 7.1004 -3.4016 -2.8444 38.7771 -6.1864
# 6 -7.3125 -1.3866 2.1072 -9.6783 -6.1864 26.4994
#
#
#
# Elastic Compliance Matrix: (Units=1/GPa)
#
#
# Indices 1 2 3 4 5 6 
#
# 1 0.022517 0.000177 -0.003605 0.001781 0.005510 0.008446
# 2 0.000177 0.008212 -0.002249 0.001892 -0.001363 0.001030
# 3 -0.003605 -0.002249 0.013930 0.000427 0.000659 -0.001911
# 4 0.001781 0.001892 0.000427 0.028355 0.004008 0.011848
# 5 0.005510 -0.001363 0.000659 0.004008 0.028998 0.009630
# 6 0.008446 0.001030 -0.001911 0.011848 0.009630 0.046849
#
#
# Mechanical properties :
#
#
# Convention : Reuss Voigt Hill
#
# Bulk Modulus (GPa) = 30.02555 37.08761 33.55658
# Shear Modulus (GPa) = 29.18587 36.13481 32.66034
#
# Velocity S-wave (km/s) = 3.34796 3.72526 3.54164
# Velocity P-wave (km/s) = 5.14553 5.72249 5.44166
#
# Compressibility (1/GPa) = 0.03330496
#
# Stress axis : x y z
#
# Youngs Moduli (GPa) = 44.41172 121.76887 71.78837
#
# Poissons Ratio (x) = -0.02159 0.25883
# Poissons Ratio (y) = -0.00787 0.16143
# Poissons Ratio (z) = 0.16012 0.27383
#
# Static dielectric constant tensor:
#      x y z
#    x 2.080230 -0.001260 -0.000620 
#    y -0.001260 2.045240 -0.003820 
#    z -0.000620 -0.003820 2.117240 
# 
# From -- ./inp_files/56464.got.cif
#   From: 2010.05.17/outbox.cif.g08.bks.cpg/sg2_29_cif.got.tgz:56464.got - 2010.06.03 11:33:40.
