data_PCOD9046809
_publ_section_title
;
Structure prediction by ZEFSAII (Michael W. Deem and Ramdas Pophale) SiO2 
 PCOD9046809
Probable space group: P -1
;
_chemical_formula_sum "Si O2"
_cell_formula_units_Z 10
_cell_length_a 14.789219
_cell_length_b 8.904140
_cell_length_c 13.772451
_cell_angle_alpha 126.032003
_cell_angle_beta 160.630602
_cell_angle_gamma 45.547797
_cell_volume 408.781080
_symmetry_space_group_name_H-M "P -1"
_symmetry_group_IT_number 2
_symmetry_cell_setting 'triclinic'
loop_
_space_group_symop_operation_xyz
x,y,z
-x,-y,-z
loop_
_atom_site_type_symbol
_atom_site_label
_atom_site_fract_x
_atom_site_fract_y
_atom_site_fract_z
Si Si1 0.367319 0.008486 0.761989
Si Si2 0.327620 0.762249 0.939933
Si Si3 0.210898 0.508387 0.036713
Si Si4 0.608764 0.628668 0.588378
Si Si5 0.043525 0.098732 0.184027
O O1 0.988400 0.105898 0.400427
O O2 0.589750 0.752052 0.862872
O O3 0.434894 0.161687 0.822177
O O4 0.500000 0.000000 0.000000
O O5 0.198413 0.842026 0.948897
O O6 0.500000 0.500000 0.000000
O O7 0.481049 0.570750 0.339898
O O8 0.961841 0.571598 0.897479
O O9 0.983633 0.674154 0.784395
O O10 0.500000 0.500000 0.500000
O O11 0.387984 0.888029 0.486253
O O12 0.000000 0.000000 0.000000
#
# Coordination Sequence:
#
# PCOD9046809 Si02
#       5
#     2   2   2   2   2
#     4  12  26  46  72 102 139 187 238 292 351 417
#     4  12  27  48  73 104 140 186 237 290 352 422
#     4  11  23  40  63  95 133 176 224 282 341 404
#     4  11  22  39  63  94 132 177 224 280 339 404
#     4  10  24  43  68 103 142 184 231 286 348 417
#
# _framework density 24.462973000000002
#
# number of rings (size 3 to 8) (size 9 to 14) (size 15 to 20)
#    0.000    0.800    0.000    7.200    0.000   11.200 
#    0.000    0.000    0.000    0.000    0.000    0.000 
#    0.000    0.000    0.000    0.000    0.000    0.000 
#
# Total GULP energy -55834.365098 kJ/mol
# GULP energy per Si atom -5583.436510 kJ/mol
# Density = 2.440729 g / cm^3
# Si number density = 24.462973 Si / 1000 Ang^3
#
#
#
# Elastic Constant Matrix: (Units=GPa)
#
#
# Indices 1 2 3 4 5 6 
#
# 1 83.8855 -2.8179 2.4005 4.5136 -8.7187 -4.9856
# 2 -2.8179 149.6807 22.7913 -33.2501 2.7247 14.0206
# 3 2.4005 22.7913 103.6744 1.8837 13.9088 -3.0356
# 4 4.5136 -33.2501 1.8837 48.6097 6.3690 2.3251
# 5 -8.7187 2.7247 13.9088 6.3690 34.0385 -1.6488
# 6 -4.9856 14.0206 -3.0356 2.3251 -1.6488 46.9018
#
#
#
# Elastic Compliance Matrix: (Units=1/GPa)
#
#
# Indices 1 2 3 4 5 6 
#
# 1 0.012542 -0.000320 -0.000668 -0.001953 0.003955 0.001621
# 2 -0.000320 0.008704 -0.001935 0.006383 -0.001334 -0.003125
# 3 -0.000668 -0.001935 0.010692 -0.001191 -0.004108 0.001114
# 4 -0.001953 0.006383 -0.001191 0.026073 -0.005582 -0.003681
# 5 0.003955 -0.001334 -0.004108 -0.005582 0.033318 0.002001
# 6 0.001621 -0.003125 0.001114 -0.003681 0.002001 0.022752
#
#
# Mechanical properties :
#
#
# Convention : Reuss Voigt Hill
#
# Bulk Modulus (GPa) = 38.32396 42.44315 40.38355
# Shear Modulus (GPa) = 38.87295 46.90111 42.88703
#
# Velocity S-wave (km/s) = 3.99062 4.38337 4.19159
# Velocity P-wave (km/s) = 6.07729 6.55791 6.32217
#
# Compressibility (1/GPa) = 0.02609333
#
# Stress axis : x y z
#
# Youngs Moduli (GPa) = 79.73269 114.88600 93.53003
#
# Poissons Ratio (x) = 0.03676 0.06245
# Poissons Ratio (y) = 0.02552 0.18094
# Poissons Ratio (z) = 0.05324 0.22226
#
# Static dielectric constant tensor:
#      x y z
#    x -3.016980 3.853950 -1.296100 
#    y 3.853950 -0.942180 0.756440 
#    z -1.296100 0.756440 1.861800 
# 
# From -- ./inp_files/20636.got.cif
#   From: 2010.05.17/outbox.cif.g08.bks.cpg/sg2_11_cif.got.tgz:20636.got - 2010.06.03 11:33:40.
