data_PCOD9046590
_publ_section_title
;
Structure prediction by ZEFSAII (Michael W. Deem and Ramdas Pophale) SiO2 
 PCOD9046590
Probable space group: P -1
;
_chemical_formula_sum "Si O2"
_cell_formula_units_Z 14
_cell_length_a 9.219352
_cell_length_b 21.117703
_cell_length_c 6.808260
_cell_angle_alpha 61.760453
_cell_angle_beta 125.696436
_cell_angle_gamma 140.572201
_cell_volume 683.025784
_symmetry_space_group_name_H-M "P -1"
_symmetry_group_IT_number 2
_symmetry_cell_setting 'triclinic'
loop_
_space_group_symop_operation_xyz
x,y,z
-x,-y,-z
loop_
_atom_site_type_symbol
_atom_site_label
_atom_site_fract_x
_atom_site_fract_y
_atom_site_fract_z
Si Si1 0.446167 0.367339 0.137326
Si Si2 0.138307 0.597179 0.834280
Si Si3 0.565896 0.091405 0.531840
Si Si4 0.349938 0.474324 0.616079
Si Si5 0.033526 0.161472 0.947874
Si Si6 0.557146 0.812302 0.995735
Si Si7 0.245668 0.035353 0.737710
O O1 0.679048 0.391179 0.191091
O O2 0.524390 0.423325 0.322673
O O3 0.374179 0.413091 0.869209
O O4 0.214526 0.248580 0.121905
O O5 0.313989 0.695182 0.965635
O O6 0.930553 0.584668 0.575468
O O7 0.000000 0.500000 0.000000
O O8 0.485340 0.136389 0.271682
O O9 0.419382 0.054869 0.674183
O O10 0.858580 0.170404 0.690982
O O11 0.500000 0.000000 0.500000
O O12 0.500000 0.500000 0.500000
O O13 0.209161 0.169345 0.920665
O O14 0.850219 0.053809 0.063250
O O15 0.614570 0.865599 0.168937
O O16 0.000000 0.000000 0.500000
#
# Coordination Sequence:
#
# PCOD9046590 Si02
#       7
#     2   2   2   2   2   2   2
#     4  10  24  43  65  93 130 169 207 266 319 372
#     4  11  23  44  67  94 128 171 212 260 322 376
#     4  12  24  43  67  92 130 172 210 260 316 374
#     4  11  22  43  65  93 128 164 217 264 312 375
#     4  11  23  44  65  95 130 167 212 259 320 378
#     4  11  25  45  65  94 132 166 213 267 311 377
#     4  12  24  43  66  95 129 168 208 261 317 378
#
# _framework density 20.497029999999999
#
# number of rings (size 3 to 8) (size 9 to 14) (size 15 to 20)
#    0.000    0.857    4.286    3.000    0.000    2.286 
#    5.143    0.000    0.000    0.000    0.000    0.000 
#    0.000    0.000    0.000    0.000    0.000    0.000 
#
# Total GULP energy -78347.639422 kJ/mol
# GULP energy per Si atom -5596.259959 kJ/mol
# Density = 2.045038 g / cm^3
# Si number density = 20.497030 Si / 1000 Ang^3
#
#
#
# Elastic Constant Matrix: (Units=GPa)
#
#
# Indices 1 2 3 4 5 6 
#
# 1 139.8913 65.2677 60.0891 42.9261 3.9240 -2.6340
# 2 65.2677 132.3594 31.3485 33.8549 -24.9016 -10.6092
# 3 60.0891 31.3485 87.6408 32.4414 3.5211 6.5325
# 4 42.9261 33.8549 32.4414 35.2727 -6.3171 -3.2552
# 5 3.9240 -24.9016 3.5211 -6.3171 48.8890 16.5719
# 6 -2.6340 -10.6092 6.5325 -3.2552 16.5719 26.3891
#
#
#
# Elastic Compliance Matrix: (Units=1/GPa)
#
#
# Indices 1 2 3 4 5 6 
#
# 1 0.014323 -0.004201 -0.004743 -0.009694 -0.005215 0.002994
# 2 -0.004201 0.012098 0.000535 -0.005972 0.005688 0.000003
# 3 -0.004743 0.000535 0.020155 -0.013959 -0.000305 -0.006778
# 4 -0.009694 -0.005972 -0.013959 0.060019 0.005028 0.004333
# 5 -0.005215 0.005688 -0.000305 0.005028 0.029992 -0.016372
# 6 0.002994 0.000003 -0.006778 0.004333 -0.016372 0.050689
#
#
# Mechanical properties :
#
#
# Convention : Reuss Voigt Hill
#
# Bulk Modulus (GPa) = 33.60411 74.81134 54.20772
# Shear Modulus (GPa) = 23.36299 35.65588 29.50944
#
# Velocity S-wave (km/s) = 3.37979 4.17533 3.79845
# Velocity P-wave (km/s) = 5.62680 7.73449 6.76326
#
# Compressibility (1/GPa) = 0.02975827
#
# Stress axis : x y z
#
# Youngs Moduli (GPa) = 69.81714 82.65781 49.61482
#
# Poissons Ratio (x) = 0.34726 0.23531
# Poissons Ratio (y) = 0.29332 -0.02654
# Poissons Ratio (z) = 0.33113 -0.04421
#
# Static dielectric constant tensor:
#      x y z
#    x 1.694640 -0.017020 0.026500 
#    y -0.017020 1.730690 -0.002140 
#    z 0.026500 -0.002140 1.742850 
# 
# From -- ./inp_files/39589.got.cif
#   From: 2010.05.17/outbox.cif.g08.bks.cpg/sg2_20_cif.got.tgz:39589.got - 2010.06.03 11:33:40.
