data_PCOD9046574
_publ_section_title
;
Structure prediction by ZEFSAII (Michael W. Deem and Ramdas Pophale) SiO2 
 PCOD9046574
Probable space group: P -1
;
_chemical_formula_sum "Si O2"
_cell_formula_units_Z 12
_cell_length_a 8.447188
_cell_length_b 10.741425
_cell_length_c 9.632518
_cell_angle_alpha 99.930684
_cell_angle_beta 70.786125
_cell_angle_gamma 146.330721
_cell_volume 448.885346
_symmetry_space_group_name_H-M "P -1"
_symmetry_group_IT_number 2
_symmetry_cell_setting 'triclinic'
loop_
_space_group_symop_operation_xyz
x,y,z
-x,-y,-z
loop_
_atom_site_type_symbol
_atom_site_label
_atom_site_fract_x
_atom_site_fract_y
_atom_site_fract_z
Si Si1 0.826658 0.498211 0.630716
Si Si2 0.080612 0.166652 0.245975
Si Si3 0.761039 0.535088 0.146652
Si Si4 0.263032 0.258450 0.607045
Si Si5 0.343312 0.794194 0.870575
Si Si6 0.438207 0.114833 0.868329
O O1 0.000000 0.500000 0.500000
O O2 0.028910 0.273295 0.346351
O O3 0.474603 0.126792 0.025625
O O4 0.514644 0.323344 0.607202
O O5 0.437481 0.376488 0.147257
O O6 0.870314 0.029174 0.142594
O O7 0.013524 0.020029 0.357581
O O8 0.861791 0.714471 0.245707
O O9 0.700654 0.368158 0.218622
O O10 0.028755 0.659455 0.991172
O O11 0.500000 0.500000 0.500000
O O12 0.710239 0.371524 0.785768
O O13 0.488123 0.000004 0.784427
#
# Coordination Sequence:
#
# PCOD9046574 Si02
#       6
#     2   2   2   2   2   2
#     4  10  24  43  67  98 134 173 226 277 333 397
#     4  10  24  45  64 100 131 176 220 276 340 390
#     4  10  24  43  65 100 134 173 229 271 337 387
#     4  10  24  43  67  98 134 173 226 277 333 397
#     4  10  24  43  66 100 137 180 220 278 324 404
#     4  10  24  43  65 100 134 173 229 271 337 387
#
# _framework density 26.732883999999999
#
# number of rings (size 3 to 8) (size 9 to 14) (size 15 to 20)
#    0.000    2.000    0.000    0.000   11.667    8.000 
#    3.000    0.000    0.000    0.000    0.000    0.000 
#    0.000    0.000    0.000    0.000    0.000    0.000 
#
# Total GULP energy -66940.886690 kJ/mol
# GULP energy per Si atom -5578.407224 kJ/mol
# Density = 2.667204 g / cm^3
# Si number density = 26.732884 Si / 1000 Ang^3
#
#
#
# Elastic Constant Matrix: (Units=GPa)
#
#
# Indices 1 2 3 4 5 6 
#
# 1 86.2869 -4.0144 48.4956 -28.5126 -18.0614 -11.0247
# 2 -4.0144 133.7726 39.5138 -22.5300 -18.2925 -64.1058
# 3 48.4956 39.5138 104.5928 -8.4529 -27.3135 -8.0545
# 4 -28.5126 -22.5300 -8.4529 32.3961 -25.8833 -15.7361
# 5 -18.0614 -18.2925 -27.3135 -25.8833 38.5426 0.2445
# 6 -11.0247 -64.1058 -8.0545 -15.7361 0.2445 62.4416
#
#
#
# Elastic Compliance Matrix: (Units=1/GPa)
#
#
# Indices 1 2 3 4 5 6 
#
# 1 0.007245 -0.005510 -0.005830 -0.011971 -0.011339 -0.008102
# 2 -0.005510 0.003501 -0.003387 -0.014245 -0.012878 -0.001355
# 3 -0.005830 -0.003387 0.016631 0.004811 0.010685 -0.001190
# 4 -0.011971 -0.014245 0.004811 -0.009343 -0.015119 -0.018413
# 5 -0.011339 -0.012878 0.010685 -0.015119 0.012051 -0.017702
# 6 -0.008102 -0.001355 -0.001190 -0.018413 -0.017702 0.008469
#
#
# Mechanical properties :
#
#
# Convention : Reuss Voigt Hill
#
# Bulk Modulus (GPa) = -481.70554 54.73805 -213.48375
# Shear Modulus (GPa) = 74.27704 42.71989 58.49847
#
# Velocity S-wave (km/s) = 5.27686 4.00187 4.68296
# Velocity P-wave (km/s) = 11.97733 6.47099 7.12680
#
# Compressibility (1/GPa) = -0.00207596
#
# Stress axis : x y z
#
# Youngs Moduli (GPa) = 138.01847 285.63631 60.12870
#
# Poissons Ratio (x) = 1.57374 0.35058
# Poissons Ratio (y) = 0.76043 0.20363
# Poissons Ratio (z) = 0.80472 0.96732
#
# Static dielectric constant tensor:
#      x y z
#    x 2.106810 0.006120 0.090600 
#    y 0.006120 2.383510 -0.041280 
#    z 0.090600 -0.041280 2.109720 
# 
# From -- ./inp_files/493346.got.cif
#   From: 2010.05.17/outbox.cif.g08.bks.cpg/sg2_247_cif.got.tgz:493346.got - 2010.06.03 11:33:40.
