data_PCOD9046172
_publ_section_title
;
Structure prediction by ZEFSAII (Michael W. Deem and Ramdas Pophale) SiO2 
 PCOD9046172
Probable space group: P -1
;
_chemical_formula_sum "Si O2"
_cell_formula_units_Z 15
_cell_length_a 10.892973
_cell_length_b 12.061396
_cell_length_c 11.938199
_cell_angle_alpha 97.600398
_cell_angle_beta 49.110840
_cell_angle_gamma 55.954830
_cell_volume 594.453174
_symmetry_space_group_name_H-M "P -1"
_symmetry_group_IT_number 2
_symmetry_cell_setting 'triclinic'
loop_
_space_group_symop_operation_xyz
x,y,z
-x,-y,-z
loop_
_atom_site_type_symbol
_atom_site_label
_atom_site_fract_x
_atom_site_fract_y
_atom_site_fract_z
Si Si1 0.860873 0.229200 0.981279
Si Si2 0.501302 0.786566 0.426236
Si Si3 0.866058 0.849173 0.694100
Si Si4 0.500000 0.000000 0.500000
Si Si5 0.608279 0.297830 0.724479
Si Si6 0.420624 0.380216 0.421764
Si Si7 0.247411 0.238363 0.443319
Si Si8 0.493499 0.728419 0.969276
O O1 0.705981 0.231194 0.989763
O O2 0.685976 0.448496 0.098211
O O3 0.747795 0.249320 0.172020
O O4 0.228130 0.023396 0.692131
O O5 0.727091 0.757441 0.274895
O O6 0.372064 0.810067 0.394699
O O7 0.593073 0.636920 0.440108
O O8 0.681502 0.881971 0.720668
O O9 0.090290 0.799000 0.480394
O O10 0.117164 0.630297 0.591110
O O11 0.636281 0.068823 0.927463
O O12 0.675291 0.873191 0.504397
O O13 0.565605 0.280229 0.871494
O O14 0.414639 0.260537 0.353169
O O15 0.869382 0.491737 0.691266
#
# Coordination Sequence:
#
# PCOD9046172 Si02
#       8
#     2   2   2   1   2   2   2   2
#     4  11  23  40  67  99 124 171 216 263 320 375
#     4  11  23  45  66  93 137 164 214 264 316 389
#     4  11  23  39  66  96 128 171 214 264 316 374
#     4  10  24  42  68  90 126 176 192 266 332 364
#     4  11  23  39  65 100 127 163 215 268 321 371
#     4  10  24  45  62  94 134 177 208 262 318 374
#     4  11  23  45  64  92 138 163 216 265 315 387
#     4  12  23  38  67  99 125 166 217 266 318 377
#
# _framework density 25.233274000000002
#
# number of rings (size 3 to 8) (size 9 to 14) (size 15 to 20)
#    0.000    1.067    4.000    3.200    1.867    2.667 
#    2.400   13.333    0.000    0.000    0.000    0.000 
#    0.000    0.000    0.000    0.000    0.000    0.000 
#
# Total GULP energy -83847.664985 kJ/mol
# GULP energy per Si atom -5589.844332 kJ/mol
# Density = 2.517584 g / cm^3
# Si number density = 25.233274 Si / 1000 Ang^3
#
#
#
# Elastic Constant Matrix: (Units=GPa)
#
#
# Indices 1 2 3 4 5 6 
#
# 1 78.7457 16.0809 33.5265 -14.9872 -2.9258 14.6334
# 2 16.0809 135.2522 21.2495 -5.9941 4.7240 8.5640
# 3 33.5265 21.2495 51.9307 5.3315 -8.0123 10.9968
# 4 -14.9872 -5.9941 5.3315 43.2759 5.5130 1.5095
# 5 -2.9258 4.7240 -8.0123 5.5130 25.4443 6.2780
# 6 14.6334 8.5640 10.9968 1.5095 6.2780 34.9624
#
#
#
# Elastic Compliance Matrix: (Units=1/GPa)
#
#
# Indices 1 2 3 4 5 6 
#
# 1 0.021372 0.000588 -0.014655 0.009864 -0.003341 -0.004306
# 2 0.000588 0.008260 -0.004417 0.002321 -0.003263 -0.000394
# 3 -0.014655 -0.004417 0.035150 -0.011618 0.014173 -0.005883
# 4 0.009864 0.002321 -0.011618 0.029469 -0.009175 -0.000668
# 5 -0.003341 -0.003263 0.014173 -0.009175 0.048587 -0.010588
# 6 -0.004306 -0.000394 -0.005883 -0.000668 -0.010588 0.034282
#
#
# Mechanical properties :
#
#
# Convention : Reuss Voigt Hill
#
# Bulk Modulus (GPa) = 35.95419 45.29359 40.62389
# Shear Modulus (GPa) = 22.38563 33.74128 28.06346
#
# Velocity S-wave (km/s) = 2.98173 3.66071 3.33853
# Velocity P-wave (km/s) = 5.11214 5.98804 5.56734
#
# Compressibility (1/GPa) = 0.02781317
#
# Stress axis : x y z
#
# Youngs Moduli (GPa) = 46.79081 121.07254 28.44927
#
# Poissons Ratio (x) = -0.07117 0.41691
# Poissons Ratio (y) = -0.02751 0.12567
# Poissons Ratio (z) = 0.68570 0.53483
#
# Static dielectric constant tensor:
#      x y z
#    x 2.354020 0.491880 -0.360950 
#    y 0.491880 2.509560 -0.400870 
#    z -0.360950 -0.400870 2.352800 
# 
# From -- ./inp_files/422975.got.cif
#   From: 2010.05.17/outbox.cif.g08.bks.cpg/sg2_212_cif.got.tgz:422975.got - 2010.06.03 11:33:40.
