data_PCOD9046637
_publ_section_title
;
Structure prediction by ZEFSAII (Michael W. Deem and Ramdas Pophale) SiO2 
 PCOD9046637
Probable space group: P -1
;
_chemical_formula_sum "Si O2"
_cell_formula_units_Z 14
_cell_length_a 9.962442
_cell_length_b 8.752177
_cell_length_c 8.804486
_cell_angle_alpha 90.306487
_cell_angle_beta 121.505712
_cell_angle_gamma 89.288586
_cell_volume 654.472331
_symmetry_space_group_name_H-M "P -1"
_symmetry_group_IT_number 2
_symmetry_cell_setting 'triclinic'
loop_
_space_group_symop_operation_xyz
x,y,z
-x,-y,-z
loop_
_atom_site_type_symbol
_atom_site_label
_atom_site_fract_x
_atom_site_fract_y
_atom_site_fract_z
Si Si1 0.291893 0.315082 0.632026
Si Si2 0.402888 0.149381 0.998654
Si Si3 0.098366 0.652218 0.054701
Si Si4 0.933160 0.915546 0.107742
Si Si5 0.963218 0.197910 0.311129
Si Si6 0.325447 0.683376 0.665700
Si Si7 0.574702 0.340384 0.600391
O O1 0.323840 0.235579 0.810462
O O2 0.125998 0.265569 0.465806
O O3 0.301357 0.499636 0.653958
O O4 0.432926 0.260996 0.603260
O O5 0.254996 0.100522 0.013665
O O6 0.521574 0.264044 0.150817
O O7 0.500000 0.000000 0.000000
O O8 0.281411 0.630841 0.200944
O O9 0.020156 0.754391 0.142643
O O10 0.000000 0.500000 0.000000
O O11 0.079648 0.725830 0.877238
O O12 0.971212 0.017863 0.276768
O O13 0.000000 0.000000 0.000000
O O14 0.824983 0.237733 0.346094
O O15 0.356527 0.734616 0.511355
O O16 0.500000 0.500000 0.500000
#
# Coordination Sequence:
#
# PCOD9046637 Si02
#       7
#     2   2   2   2   2   2   2
#     4  11  26  43  72 103 141 180 235 286 342 409
#     4  12  26  46  70 102 140 185 228 290 349 407
#     4  11  24  42  75  99 136 181 231 284 344 405
#     4  10  26  44  69  98 140 181 234 274 351 411
#     4  11  24  47  68 100 142 182 229 284 345 412
#     4  11  24  44  71 102 141 176 235 285 344 409
#     4  10  24  43  66 106 136 174 226 285 343 401
#
# _framework density 21.391276999999999
#
# number of rings (size 3 to 8) (size 9 to 14) (size 15 to 20)
#    0.000    1.143    1.429    3.429   14.000    1.714 
#    0.000    1.429    0.000    0.000    0.000    0.000 
#    0.000    0.000    0.000    0.000    0.000    0.000 
#
# Total GULP energy -78301.498763 kJ/mol
# GULP energy per Si atom -5592.964197 kJ/mol
# Density = 2.134259 g / cm^3
# Si number density = 21.391277 Si / 1000 Ang^3
#
#
#
# Elastic Constant Matrix: (Units=GPa)
#
#
# Indices 1 2 3 4 5 6 
#
# 1 202.3241 42.8859 73.4501 19.4552 16.9258 -9.3720
# 2 42.8859 97.3797 37.3705 32.8617 8.5900 -9.0404
# 3 73.4501 37.3705 169.9804 16.6993 33.4925 2.7491
# 4 19.4552 32.8617 16.6993 33.2517 3.2194 -0.7188
# 5 16.9258 8.5900 33.4925 3.2194 51.5143 7.0300
# 6 -9.3720 -9.0404 2.7491 -0.7188 7.0300 28.4675
#
#
#
# Elastic Compliance Matrix: (Units=1/GPa)
#
#
# Indices 1 2 3 4 5 6 
#
# 1 0.006279 -0.001265 -0.002231 -0.001202 -0.000599 0.001998
# 2 -0.001265 0.017125 -0.001583 -0.015168 -0.001156 0.005077
# 3 -0.002231 -0.001583 0.008096 -0.000824 -0.004074 -0.001034
# 4 -0.001202 -0.015168 -0.000824 0.045975 0.001168 -0.004261
# 5 -0.000599 -0.001156 -0.004074 0.001168 0.023178 -0.005865
# 6 0.001998 0.005077 -0.001034 -0.004261 -0.005865 0.038839
#
#
# Mechanical properties :
#
#
# Convention : Reuss Voigt Hill
#
# Bulk Modulus (GPa) = 46.85596 86.34414 66.60005
# Shear Modulus (GPa) = 31.89510 43.71188 37.80349
#
# Velocity S-wave (km/s) = 3.86558 4.52535 4.20841
# Velocity P-wave (km/s) = 6.47112 8.23146 7.40379
#
# Compressibility (1/GPa) = 0.02134200
#
# Stress axis : x y z
#
# Youngs Moduli (GPa) = 159.26106 58.39249 123.52541
#
# Poissons Ratio (x) = 0.07387 0.27562
# Poissons Ratio (y) = 0.20147 0.19549
# Poissons Ratio (z) = 0.35536 0.09241
#
# Static dielectric constant tensor:
#      x y z
#    x 1.777470 -0.009430 -0.033160 
#    y -0.009430 1.761770 -0.009450 
#    z -0.033160 -0.009450 1.756630 
# 
# From -- ./inp_files/156687.got.cif
#   From: 2010.05.17/outbox.cif.g08.bks.cpg/sg2_79_cif.got.tgz:156687.got - 2010.06.03 11:33:40.
