data_PCOD9046511
_publ_section_title
;
Structure prediction by ZEFSAII (Michael W. Deem and Ramdas Pophale) SiO2 
 PCOD9046511
Probable space group: P -1
;
_chemical_formula_sum "Si O2"
_cell_formula_units_Z 11
_cell_length_a 5.200015
_cell_length_b 11.630700
_cell_length_c 9.244271
_cell_angle_alpha 62.521754
_cell_angle_beta 66.245375
_cell_angle_gamma 69.834727
_cell_volume 445.222271
_symmetry_space_group_name_H-M "P -1"
_symmetry_group_IT_number 2
_symmetry_cell_setting 'triclinic'
loop_
_space_group_symop_operation_xyz
x,y,z
-x,-y,-z
loop_
_atom_site_type_symbol
_atom_site_label
_atom_site_fract_x
_atom_site_fract_y
_atom_site_fract_z
Si Si1 0.857456 0.794466 0.003802
Si Si2 0.727731 0.961780 0.662064
Si Si3 0.504109 0.468976 0.347686
Si Si4 0.766124 0.249456 0.787718
Si Si5 0.000000 0.500000 0.000000
Si Si6 0.712619 0.798726 0.497813
O O1 0.545130 0.783213 0.141478
O O2 0.067879 0.817029 0.071311
O O3 0.805155 0.913627 0.832747
O O4 0.972326 0.655587 0.976306
O O5 0.667920 0.838695 0.651892
O O6 0.465838 0.081177 0.624124
O O7 0.000000 0.000000 0.500000
O O8 0.500000 0.500000 0.500000
O O9 0.284282 0.593523 0.258538
O O10 0.399303 0.334086 0.426416
O O11 0.800954 0.468444 0.199902
O O12 0.961771 0.221092 0.618714
#
# Coordination Sequence:
#
# PCOD9046511 Si02
#       6
#     2   2   2   2   1   2
#     4  11  27  46  74 110 150 197 252 313 386 446
#     4  11  28  47  73 106 149 208 251 303 383 454
#     4  11  25  48  81 116 150 199 254 320 387 452
#     4  11  27  47  75 115 145 194 253 321 385 444
#     4  10  24  42  76 108 156 188 248 316 376 452
#     4  11  26  47  76 106 150 198 255 310 373 466
#
# _framework density 24.706759000000002
#
# number of rings (size 3 to 8) (size 9 to 14) (size 15 to 20)
#    0.000    1.091    0.000    3.818   17.818    2.909 
#    0.000    0.000    0.000    0.000    0.000    0.000 
#    0.000    0.000    0.000    0.000    0.000    0.000 
#
# Total GULP energy -61460.698536 kJ/mol
# GULP energy per Si atom -5587.336231 kJ/mol
# Density = 2.465053 g / cm^3
# Si number density = 24.706759 Si / 1000 Ang^3
#
#
#
# Elastic Constant Matrix: (Units=GPa)
#
#
# Indices 1 2 3 4 5 6 
#
# 1 60.8039 22.1945 18.4313 17.0383 13.0259 -2.3866
# 2 22.1945 84.9936 26.0812 11.0225 -4.4132 9.9346
# 3 18.4313 26.0812 132.4130 19.0460 -3.8746 -8.9544
# 4 17.0383 11.0225 19.0460 40.0692 -11.2418 -5.3228
# 5 13.0259 -4.4132 -3.8746 -11.2418 51.4021 -2.0246
# 6 -2.3866 9.9346 -8.9544 -5.3228 -2.0246 28.4754
#
#
#
# Elastic Compliance Matrix: (Units=1/GPa)
#
#
# Indices 1 2 3 4 5 6 
#
# 1 0.023379 -0.005004 -0.000966 -0.010428 -0.008675 0.000836
# 2 -0.005004 0.014815 -0.002441 -0.001121 0.001858 -0.006433
# 3 -0.000966 -0.002441 0.008756 -0.002605 0.000246 0.003055
# 4 -0.010428 -0.001121 -0.002605 0.034564 0.010141 0.005880
# 5 -0.008675 0.001858 0.000246 0.010141 0.024140 0.002314
# 6 0.000836 -0.006433 0.003055 0.005880 0.002314 0.039657
#
#
# Mechanical properties :
#
#
# Convention : Reuss Voigt Hill
#
# Bulk Modulus (GPa) = 33.19212 45.73605 39.46409
# Shear Modulus (GPa) = 29.04015 38.08957 33.56486
#
# Velocity S-wave (km/s) = 3.43212 3.93066 3.68982
# Velocity P-wave (km/s) = 5.40088 6.25715 5.84472
#
# Compressibility (1/GPa) = 0.03012763
#
# Stress axis : x y z
#
# Youngs Moduli (GPa) = 42.77319 67.49838 114.20952
#
# Poissons Ratio (x) = 0.33778 0.11032
# Poissons Ratio (y) = 0.21405 0.27879
# Poissons Ratio (z) = 0.04132 0.16477
#
# Static dielectric constant tensor:
#      x y z
#    x 1.967110 0.007480 0.030030 
#    y 0.007480 1.986090 -0.013130 
#    z 0.030030 -0.013130 1.911500 
# 
# From -- ./inp_files/21879.got.cif
#   From: 2010.05.17/outbox.cif.g08.bks.cpg/sg2_11_cif.got.tgz:21879.got - 2010.06.03 11:33:40.
