data_PCOD9046804
_publ_section_title
;
Structure prediction by ZEFSAII (Michael W. Deem and Ramdas Pophale) SiO2 
 PCOD9046804
Probable space group: P -1
;
_chemical_formula_sum "Si O2"
_cell_formula_units_Z 14
_cell_length_a 12.411062
_cell_length_b 5.826732
_cell_length_c 11.800783
_cell_angle_alpha 80.236785
_cell_angle_beta 47.449456
_cell_angle_gamma 71.597084
_cell_volume 595.343819
_symmetry_space_group_name_H-M "P -1"
_symmetry_group_IT_number 2
_symmetry_cell_setting 'triclinic'
loop_
_space_group_symop_operation_xyz
x,y,z
-x,-y,-z
loop_
_atom_site_type_symbol
_atom_site_label
_atom_site_fract_x
_atom_site_fract_y
_atom_site_fract_z
Si Si1 0.148458 0.833060 0.842610
Si Si2 0.176419 0.170177 0.589031
Si Si3 0.689469 0.670960 0.708461
Si Si4 0.323709 0.102264 0.081053
Si Si5 0.357266 0.383073 0.627273
Si Si6 0.896127 0.193037 0.643666
Si Si7 0.392397 0.968583 0.805720
O O1 0.209019 0.550420 0.786723
O O2 0.276577 0.855481 0.835621
O O3 0.162891 0.963838 0.702296
O O4 0.000000 0.000000 0.000000
O O5 0.266916 0.115994 0.410348
O O6 0.276383 0.316469 0.576580
O O7 0.006519 0.271643 0.649846
O O8 0.723777 0.679144 0.815761
O O9 0.798103 0.414346 0.619145
O O10 0.514480 0.740313 0.794999
O O11 0.221529 0.924536 0.198837
O O12 0.500000 0.000000 0.000000
O O13 0.320328 0.141350 0.947291
O O14 0.500000 0.500000 0.500000
O O15 0.431057 0.139626 0.667215
O O16 0.000000 0.000000 0.500000
#
# Coordination Sequence:
#
# PCOD9046804 Si02
#       7
#     2   2   2   2   2   2   2
#     4  11  25  45  70 106 143 187 237 304 366 426
#     4  11  25  42  71 106 141 184 245 295 357 434
#     4  11  24  44  71 105 144 187 242 292 361 435
#     4  10  24  43  68 102 143 185 236 289 358 429
#     4  11  25  46  77 104 143 193 240 305 362 429
#     4  12  26  44  70 104 145 191 236 298 361 421
#     4  10  24  45  71 106 142 187 242 293 362 440
#
# _framework density 23.515822
#
# number of rings (size 3 to 8) (size 9 to 14) (size 15 to 20)
#    0.000    1.143    1.429    3.000    2.000   14.857 
#    0.000    0.000    0.000    0.000    0.000    0.000 
#    0.000    0.000    0.000    0.000    0.000    0.000 
#
# Total GULP energy -77970.597711 kJ/mol
# GULP energy per Si atom -5569.328408 kJ/mol
# Density = 2.346230 g / cm^3
# Si number density = 23.515822 Si / 1000 Ang^3
#
#
#
# Elastic Constant Matrix: (Units=GPa)
#
#
# Indices 1 2 3 4 5 6 
#
# 1 154.4772 54.3556 36.2067 -8.3771 3.8570 -14.3383
# 2 54.3556 70.9656 14.1799 25.8314 -0.0464 -18.0459
# 3 36.2067 14.1799 79.5407 7.6302 6.4319 -4.2111
# 4 -8.3771 25.8314 7.6302 31.0340 4.8806 -5.2349
# 5 3.8570 -0.0464 6.4319 4.8806 44.2475 -7.2523
# 6 -14.3383 -18.0459 -4.2111 -5.2349 -7.2523 33.8392
#
#
#
# Elastic Compliance Matrix: (Units=1/GPa)
#
#
# Indices 1 2 3 4 5 6 
#
# 1 0.015705 -0.019307 -0.005634 0.021930 -0.003259 -0.001649
# 2 -0.019307 0.047553 0.004646 -0.045095 0.008082 0.012513
# 3 -0.005634 0.004646 0.015245 -0.008955 -0.000657 0.000461
# 4 0.021930 -0.045095 -0.008955 0.078497 -0.010288 -0.005933
# 5 -0.003259 0.008082 -0.000657 -0.010288 0.025215 0.006660
# 6 -0.001649 0.012513 0.000461 -0.005933 0.006660 0.036093
#
#
# Mechanical properties :
#
#
# Convention : Reuss Voigt Hill
#
# Bulk Modulus (GPa) = 26.37671 57.16308 41.76989
# Shear Modulus (GPa) = 18.41377 35.17357 26.79367
#
# Velocity S-wave (km/s) = 2.80132 3.87168 3.37915
# Velocity P-wave (km/s) = 4.65877 6.65940 5.74681
#
# Compressibility (1/GPa) = 0.03791224
#
# Stress axis : x y z
#
# Youngs Moduli (GPa) = 63.67326 21.02918 65.59410
#
# Poissons Ratio (x) = 0.40601 0.36958
# Poissons Ratio (y) = 1.22935 -0.30475
# Poissons Ratio (z) = 0.35876 -0.09770
#
# Static dielectric constant tensor:
#      x y z
#    x 1.868600 -0.087670 0.160300 
#    y -0.087670 1.128520 1.326970 
#    z 0.160300 1.326970 0.325310 
# 
# From -- ./inp_files/127239.got.cif
#   From: 2010.05.17/outbox.cif.g08.bks.cpg/sg2_64_cif.got.tgz:127239.got - 2010.06.03 11:33:40.
