data_PCOD9046425
_publ_section_title
;
Structure prediction by ZEFSAII (Michael W. Deem and Ramdas Pophale) SiO2 
 PCOD9046425
Probable space group: P -1
;
_chemical_formula_sum "Si O2"
_cell_formula_units_Z 14
_cell_length_a 12.281961
_cell_length_b 23.104744
_cell_length_c 5.065090
_cell_angle_alpha 72.140793
_cell_angle_beta 93.371836
_cell_angle_gamma 150.245271
_cell_volume 609.992266
_symmetry_space_group_name_H-M "P -1"
_symmetry_group_IT_number 2
_symmetry_cell_setting 'triclinic'
loop_
_space_group_symop_operation_xyz
x,y,z
-x,-y,-z
loop_
_atom_site_type_symbol
_atom_site_label
_atom_site_fract_x
_atom_site_fract_y
_atom_site_fract_z
Si Si1 0.634040 0.419158 0.787964
Si Si2 0.746675 0.766891 0.628898
Si Si3 0.068366 0.723997 0.246800
Si Si4 0.365770 0.186762 0.826473
Si Si5 0.716405 0.655073 0.370877
Si Si6 0.257075 0.053877 0.500591
Si Si7 0.383753 0.877514 0.582950
O O1 0.611826 0.345826 0.725024
O O2 0.399662 0.345424 0.793108
O O3 0.868234 0.575738 0.533659
O O4 0.535771 0.358423 0.154573
O O5 0.793289 0.839705 0.298990
O O6 0.750591 0.700506 0.603607
O O7 0.976883 0.893078 0.675140
O O8 0.288144 0.831452 0.335023
O O9 0.953012 0.734414 0.218240
O O10 0.159248 0.754804 0.923936
O O11 0.356899 0.130000 0.684605
O O12 0.282236 0.117682 0.189612
O O13 0.500000 0.500000 0.500000
O O14 0.422252 0.078999 0.413343
O O15 0.500000 0.000000 0.500000
#
# Coordination Sequence:
#
# PCOD9046425 Si02
#       7
#     2   2   2   2   2   2   2
#     4  10  24  42  72 106 137 174 223 287 349 401
#     4  11  23  40  72 104 140 175 224 284 350 401
#     4  11  26  46  71  97 140 179 229 279 336 398
#     4  11  24  44  68 107 136 176 224 288 343 401
#     4   9  22  38  66 103 137 172 220 279 346 397
#     4  12  26  43  71  99 139 182 231 274 340 402
#     4  12  28  49  70  97 135 185 230 275 327 410
#
# _framework density 22.951108999999999
#
# number of rings (size 3 to 8) (size 9 to 14) (size 15 to 20)
#    0.000    1.143    1.429    3.000   14.000    1.143 
#    0.000    4.286    0.000    0.000    0.000    0.000 
#    0.000    0.000    0.000    0.000    0.000    0.000 
#
# Total GULP energy -78079.929566 kJ/mol
# GULP energy per Si atom -5577.137826 kJ/mol
# Density = 2.289887 g / cm^3
# Si number density = 22.951109 Si / 1000 Ang^3
#
#
#
# Elastic Constant Matrix: (Units=GPa)
#
#
# Indices 1 2 3 4 5 6 
#
# 1 82.9465 25.8832 13.9932 -15.6453 -19.7784 -22.0547
# 2 25.8832 59.7538 12.9132 -5.4782 3.4138 -26.1181
# 3 13.9932 12.9132 86.5038 -3.4937 -2.1277 -13.5835
# 4 -15.6453 -5.4782 -3.4937 36.6927 -10.8209 1.8666
# 5 -19.7784 3.4138 -2.1277 -10.8209 27.8226 4.1498
# 6 -22.0547 -26.1181 -13.5835 1.8666 4.1498 48.0644
#
#
#
# Elastic Compliance Matrix: (Units=1/GPa)
#
#
# Indices 1 2 3 4 5 6 
#
# 1 0.024808 -0.008916 -0.000869 0.016187 0.024428 0.003555
# 2 -0.008916 0.025997 -0.001211 -0.004422 -0.012979 0.010986
# 3 -0.000869 -0.001211 0.012285 0.000602 0.000352 0.002361
# 4 0.016187 -0.004422 0.000602 0.041807 0.028186 0.001138
# 5 0.024428 -0.012979 0.000352 0.028186 0.066271 -0.002560
# 6 0.003555 0.010986 0.002361 0.001138 -0.002560 0.029250
#
#
# Mechanical properties :
#
#
# Convention : Reuss Voigt Hill
#
# Bulk Modulus (GPa) = 24.33227 37.19815 30.76521
# Shear Modulus (GPa) = 21.17652 34.27692 27.72672
#
# Velocity S-wave (km/s) = 3.04086 3.86874 3.47951
# Velocity P-wave (km/s) = 4.79102 6.01656 5.43842
#
# Compressibility (1/GPa) = 0.04109769
#
# Stress axis : x y z
#
# Youngs Moduli (GPa) = 40.30931 38.46606 81.39773
#
# Poissons Ratio (x) = 0.34296 0.07075
# Poissons Ratio (y) = 0.35939 0.09860
# Poissons Ratio (z) = 0.03504 0.04659
#
# Static dielectric constant tensor:
#      x y z
#    x 1.856490 0.004640 0.070860 
#    y 0.004640 1.991080 0.285570 
#    z 0.070860 0.285570 2.415450 
# 
# From -- ./inp_files/84312.got.cif
#   From: 2010.05.17/outbox.cif.g08.bks.cpg/sg2_43_cif.got.tgz:84312.got - 2010.06.03 11:33:40.
