data_PCOD9046249
_publ_section_title
;
Structure prediction by ZEFSAII (Michael W. Deem and Ramdas Pophale) SiO2 
 PCOD9046249
Probable space group: P -1
;
_chemical_formula_sum "Si O2"
_cell_formula_units_Z 16
_cell_length_a 14.982625
_cell_length_b 8.321031
_cell_length_c 15.201910
_cell_angle_alpha 133.500673
_cell_angle_beta 141.203117
_cell_angle_gamma 73.356851
_cell_volume 719.235073
_symmetry_space_group_name_H-M "P -1"
_symmetry_group_IT_number 2
_symmetry_cell_setting 'triclinic'
loop_
_space_group_symop_operation_xyz
x,y,z
-x,-y,-z
loop_
_atom_site_type_symbol
_atom_site_label
_atom_site_fract_x
_atom_site_fract_y
_atom_site_fract_z
Si Si1 0.708289 0.374445 0.481649
Si Si2 0.829754 0.870006 0.648434
Si Si3 0.230596 0.352781 0.987314
Si Si4 0.951667 0.581728 0.291840
Si Si5 0.004376 0.765466 0.585176
Si Si6 0.467920 0.100343 0.602448
Si Si7 0.810282 0.666000 0.851293
Si Si8 0.637402 0.986646 0.848022
O O1 0.720489 0.618724 0.532775
O O2 0.763965 0.469390 0.661172
O O3 0.856849 0.348924 0.544950
O O4 0.513240 0.122672 0.236486
O O5 0.725654 0.989211 0.577972
O O6 0.888922 0.783308 0.576262
O O7 0.994581 0.086302 0.911618
O O8 0.108778 0.364950 0.826406
O O9 0.181916 0.051925 0.839444
O O10 0.419111 0.578974 0.188311
O O11 0.204121 0.424981 0.092700
O O12 0.946361 0.742520 0.431111
O O13 0.815639 0.272771 0.097822
O O14 0.000000 0.500000 0.500000
O O15 0.544852 0.011723 0.702331
O O16 0.500000 0.000000 0.500000
O O17 0.686485 0.773420 0.792401
#
# Coordination Sequence:
#
# PCOD9046249 Si02
#       8
#     2   2   2   2   2   2   2   2
#     4  12  23  39  70  98 135 182 229 271 357 402
#     4  11  24  41  70 101 133 185 231 275 352 407
#     4  10  24  42  69  96 138 179 225 282 353 394
#     4  11  24  44  65  99 136 180 225 291 333 403
#     4  11  22  47  69  95 136 183 236 291 328 402
#     4  11  24  43  66 105 146 173 223 290 345 418
#     4  11  22  41  66  99 139 175 230 282 336 427
#     4  11  24  42  64 100 136 178 227 281 344 408
#
# _framework density 22.245854000000001
#
# number of rings (size 3 to 8) (size 9 to 14) (size 15 to 20)
#    0.000    1.000    2.500    4.125    7.000    0.500 
#    2.250    2.500    0.000    0.000    0.000    0.000 
#    0.000    0.000    0.000    0.000    0.000    0.000 
#
# Total GULP energy -89430.345478 kJ/mol
# GULP energy per Si atom -5589.396592 kJ/mol
# Density = 2.219522 g / cm^3
# Si number density = 22.245854 Si / 1000 Ang^3
#
#
#
# Elastic Constant Matrix: (Units=GPa)
#
#
# Indices 1 2 3 4 5 6 
#
# 1 79.0296 14.8671 44.5492 1.0544 -2.5499 1.5122
# 2 14.8671 83.7379 34.7461 -5.7751 6.9022 10.9110
# 3 44.5492 34.7461 69.9455 2.1896 17.2238 -3.1548
# 4 1.0544 -5.7751 2.1896 43.0956 4.5199 3.8642
# 5 -2.5499 6.9022 17.2238 4.5199 47.4294 -6.2565
# 6 1.5122 10.9110 -3.1548 3.8642 -6.2565 40.4630
#
#
#
# Elastic Compliance Matrix: (Units=1/GPa)
#
#
# Indices 1 2 3 4 5 6 
#
# 1 0.022111 0.002971 -0.017320 0.000202 0.006769 -0.001950
# 2 0.002971 0.016776 -0.010719 0.003171 0.000559 -0.005687
# 3 -0.017320 -0.010719 0.033576 -0.002011 -0.010754 0.004685
# 4 0.000202 0.003171 -0.002011 0.024327 -0.002531 -0.003734
# 5 0.006769 0.000559 -0.010754 -0.002531 0.025910 0.003006
# 6 -0.001950 -0.005687 0.004685 -0.003734 0.003006 0.027507
#
#
# Mechanical properties :
#
#
# Convention : Reuss Voigt Hill
#
# Bulk Modulus (GPa) = 44.79034 46.78195 45.78614
# Shear Modulus (GPa) = 24.06341 35.43431 29.74886
#
# Velocity S-wave (km/s) = 3.29249 3.99538 3.66085
# Velocity P-wave (km/s) = 5.88489 6.50840 6.20448
#
# Compressibility (1/GPa) = 0.02232624
#
# Stress axis : x y z
#
# Youngs Moduli (GPa) = 45.22667 59.60856 29.78358
#
# Poissons Ratio (x) = -0.17711 0.51585
# Poissons Ratio (y) = -0.13438 0.31926
# Poissons Ratio (z) = 0.78332 0.63897
#
# Static dielectric constant tensor:
#      x y z
#    x 1.804430 0.161660 0.000920 
#    y 0.161660 2.443900 -0.063000 
#    z 0.000920 -0.063000 1.873680 
# 
# From -- ./inp_files/529382.got.cif
#   From: 2010.05.17/outbox.cif.g08.bks.cpg/sg2_265_cif.got.tgz:529382.got - 2010.06.03 11:33:40.
