data_PCOD9046630
_publ_section_title
;
Structure prediction by ZEFSAII (Michael W. Deem and Ramdas Pophale) SiO2 
 PCOD9046630
Probable space group: P -1
;
_chemical_formula_sum "Si O2"
_cell_formula_units_Z 16
_cell_length_a 9.564567
_cell_length_b 15.142188
_cell_length_c 8.886380
_cell_angle_alpha 140.007489
_cell_angle_beta 101.164237
_cell_angle_gamma 93.406926
_cell_volume 766.165980
_symmetry_space_group_name_H-M "P -1"
_symmetry_group_IT_number 2
_symmetry_cell_setting 'triclinic'
loop_
_space_group_symop_operation_xyz
x,y,z
-x,-y,-z
loop_
_atom_site_type_symbol
_atom_site_label
_atom_site_fract_x
_atom_site_fract_y
_atom_site_fract_z
Si Si1 0.467063 0.709844 0.987668
Si Si2 0.113363 0.122535 0.079960
Si Si3 0.797761 0.562150 0.343354
Si Si4 0.899975 0.986788 0.608472
Si Si5 0.402792 0.051359 0.923650
Si Si6 0.297783 0.861136 0.364294
Si Si7 0.997105 0.421450 0.055472
Si Si8 0.752049 0.658244 0.135578
O O1 0.325696 0.561793 0.750611
O O2 0.512614 0.802477 0.964474
O O3 0.412125 0.806644 0.222234
O O4 0.604347 0.670897 0.041888
O O5 0.166702 0.281047 0.370482
O O6 0.256445 0.075723 0.000373
O O7 0.004957 0.109253 0.897686
O O8 0.000000 0.000000 0.000000
O O9 0.731159 0.562876 0.159442
O O10 0.949470 0.519011 0.296355
O O11 0.747669 0.018003 0.579774
O O12 0.853838 0.818647 0.425529
O O13 0.000000 0.000000 0.500000
O O14 0.352335 0.925786 0.622650
O O15 0.500000 0.000000 0.000000
O O16 0.141726 0.728229 0.171746
O O17 0.154280 0.391078 0.039307
O O18 0.000000 0.500000 0.000000
#
# Coordination Sequence:
#
# PCOD9046630 Si02
#       8
#     2   2   2   2   2   2   2   2
#     4  11  25  45  70  99 141 187 231 273 345 425
#     4  12  26  45  72  99 141 177 231 287 349 404
#     4  10  24  43  66 104 140 180 227 283 355 405
#     4  12  21  40  73 102 129 178 235 289 329 401
#     4  12  28  45  67 104 144 181 223 288 352 404
#     4  11  23  43  71 100 133 178 241 276 338 408
#     4   9  20  39  65 100 134 174 230 282 333 399
#     4  11  19  39  73 102 135 180 235 284 332 410
#
# _framework density 20.883203999999999
#
# number of rings (size 3 to 8) (size 9 to 14) (size 15 to 20)
#    0.000    1.000    5.000    0.750    5.250    0.500 
#    0.000    3.750    0.000    0.000    0.000    0.000 
#    0.000    0.000    0.000    0.000    0.000    0.000 
#
# Total GULP energy -89367.928682 kJ/mol
# GULP energy per Si atom -5585.495543 kJ/mol
# Density = 2.083567 g / cm^3
# Si number density = 20.883204 Si / 1000 Ang^3
#
#
#
# Elastic Constant Matrix: (Units=GPa)
#
#
# Indices 1 2 3 4 5 6 
#
# 1 178.4680 54.8012 60.6441 -2.1771 -23.6101 -3.1482
# 2 54.8012 98.3648 36.3584 -0.5925 -4.2469 12.9921
# 3 60.6441 36.3584 112.4872 -3.9669 -16.1480 0.7815
# 4 -2.1771 -0.5925 -3.9669 32.4389 -4.5459 11.4740
# 5 -23.6101 -4.2469 -16.1480 -4.5459 21.6544 4.2286
# 6 -3.1482 12.9921 0.7815 11.4740 4.2286 46.6357
#
#
#
# Elastic Compliance Matrix: (Units=1/GPa)
#
#
# Indices 1 2 3 4 5 6 
#
# 1 0.008446 -0.003632 -0.002386 0.000873 0.006745 0.000796
# 2 -0.003632 0.013625 -0.002737 0.000734 -0.002403 -0.003958
# 3 -0.002386 -0.002737 0.012095 0.002472 0.006557 -0.000804
# 4 0.000873 0.000734 0.002472 0.036634 0.012650 -0.010347
# 5 0.006745 -0.002403 0.006557 0.012650 0.062118 -0.007730
# 6 0.000796 -0.003958 -0.000804 -0.010347 -0.007730 0.025859
#
#
# Mechanical properties :
#
#
# Convention : Reuss Voigt Hill
#
# Bulk Modulus (GPa) = 60.04047 76.99191 68.51619
# Shear Modulus (GPa) = 27.49651 35.98023 31.73837
#
# Velocity S-wave (km/s) = 3.63255 4.15532 3.90270
# Velocity P-wave (km/s) = 6.81226 7.74404 7.29304
#
# Compressibility (1/GPa) = 0.01665543
#
# Stress axis : x y z
#
# Youngs Moduli (GPa) = 118.39294 73.39406 82.67854
#
# Poissons Ratio (x) = 0.26660 0.19727
# Poissons Ratio (y) = 0.43005 0.22631
# Poissons Ratio (z) = 0.28249 0.20089
#
# Static dielectric constant tensor:
#      x y z
#    x 1.766530 0.183540 -0.072790 
#    y 0.183540 4.026810 -0.661500 
#    z -0.072790 -0.661500 2.001270 
# 
# From -- ./inp_files/209481.got.cif
#   From: 2010.05.17/outbox.cif.g08.bks.cpg/sg2_105_cif.got.tgz:209481.got - 2010.06.03 11:33:40.
