data_PCOD9046122
_publ_section_title
;
Structure prediction by ZEFSAII (Michael W. Deem and Ramdas Pophale) SiO2 
 PCOD9046122
Probable space group: P -1
;
_chemical_formula_sum "Si O2"
_cell_formula_units_Z 14
_cell_length_a 8.394547
_cell_length_b 11.981947
_cell_length_c 15.083075
_cell_angle_alpha 149.119151
_cell_angle_beta 48.939494
_cell_angle_gamma 125.759143
_cell_volume 586.285790
_symmetry_space_group_name_H-M "P -1"
_symmetry_group_IT_number 2
_symmetry_cell_setting 'triclinic'
loop_
_space_group_symop_operation_xyz
x,y,z
-x,-y,-z
loop_
_atom_site_type_symbol
_atom_site_label
_atom_site_fract_x
_atom_site_fract_y
_atom_site_fract_z
Si Si1 0.300443 0.286387 0.855727
Si Si2 0.824330 0.101488 0.910095
Si Si3 0.515566 0.355470 0.483951
Si Si4 0.268246 0.764312 0.265932
Si Si5 0.754292 0.971566 0.046631
Si Si6 0.127132 0.110891 0.421274
Si Si7 0.507314 0.446003 0.192372
O O1 0.491250 0.167311 0.751190
O O2 0.393785 0.368698 0.782806
O O3 0.075492 0.157710 0.851071
O O4 0.263614 0.509273 0.074370
O O5 0.787262 0.906390 0.720634
O O6 0.696616 0.302093 0.058997
O O7 0.742997 0.039102 0.993866
O O8 0.500000 0.500000 0.500000
O O9 0.270543 0.281771 0.541576
O O10 0.598646 0.462802 0.617891
O O11 0.635368 0.143717 0.266419
O O12 0.112483 0.826884 0.443897
O O13 0.170121 0.883746 0.298844
O O14 0.649948 0.725902 0.920614
O O15 0.000000 0.000000 0.000000
#
# Coordination Sequence:
#
# PCOD9046122 Si02
#       7
#     2   2   2   2   2   2   2
#     4  11  25  42  71 106 140 181 236 296 351 413
#     4  12  24  43  73 102 143 186 233 287 355 417
#     4  12  25  44  76 100 137 189 240 285 344 426
#     4  10  24  42  67  99 147 178 229 290 358 410
#     4  12  29  48  72 104 146 186 234 297 354 416
#     4  11  24  43  70 101 141 186 234 283 355 422
#     4  12  25  48  74 104 143 186 242 289 352 424
#
# _framework density 23.879138000000001
#
# number of rings (size 3 to 8) (size 9 to 14) (size 15 to 20)
#    0.000    0.571    4.286    2.571   10.000    2.286 
#    0.000    0.000    0.000    0.000    0.000    0.000 
#    0.000    0.000    0.000    0.000    0.000    0.000 
#
# Total GULP energy -78393.517532 kJ/mol
# GULP energy per Si atom -5599.536967 kJ/mol
# Density = 2.382479 g / cm^3
# Si number density = 23.879138 Si / 1000 Ang^3
#
#
#
# Elastic Constant Matrix: (Units=GPa)
#
#
# Indices 1 2 3 4 5 6 
#
# 1 90.5425 10.4360 40.2667 -6.7661 -10.8506 19.2267
# 2 10.4360 96.6747 31.7779 -14.2376 0.7489 -10.1753
# 3 40.2667 31.7779 129.2467 -26.2544 14.4356 -4.8553
# 4 -6.7661 -14.2376 -26.2544 30.0357 -0.7051 11.0559
# 5 -10.8506 0.7489 14.4356 -0.7051 39.5723 -9.4617
# 6 19.2267 -10.1753 -4.8553 11.0559 -9.4617 51.4785
#
#
#
# Elastic Compliance Matrix: (Units=1/GPa)
#
#
# Indices 1 2 3 4 5 6 
#
# 1 0.015227 -0.000431 -0.005211 0.000832 0.004768 -0.005566
# 2 -0.000431 0.011723 -0.002199 0.002888 0.000950 0.001825
# 3 -0.005211 -0.002199 0.012248 0.008429 -0.005753 -0.000201
# 4 0.000832 0.002888 0.008429 0.045630 -0.004371 -0.009548
# 5 0.004768 0.000950 -0.005753 -0.004371 0.029595 0.004243
# 6 -0.005566 0.001825 -0.000201 -0.009548 0.004243 0.024677
#
#
# Mechanical properties :
#
#
# Convention : Reuss Voigt Hill
#
# Bulk Modulus (GPa) = 42.52156 53.49169 48.00663
# Shear Modulus (GPa) = 30.74620 39.81617 35.28119
#
# Velocity S-wave (km/s) = 3.59217 4.08782 3.84798
# Velocity P-wave (km/s) = 5.92035 6.68805 6.31588
#
# Compressibility (1/GPa) = 0.02351748
#
# Stress axis : x y z
#
# Youngs Moduli (GPa) = 65.67233 85.29905 81.64297
#
# Poissons Ratio (x) = 0.03679 0.42541
# Poissons Ratio (y) = 0.02832 0.17952
# Poissons Ratio (z) = 0.34219 0.18756
#
# Static dielectric constant tensor:
#      x y z
#    x 1.925990 -0.001640 0.025120 
#    y -0.001640 1.935220 0.004370 
#    z 0.025120 0.004370 1.931310 
# 
# From -- ./inp_files/296856.got.cif
#   From: 2010.05.17/outbox.cif.g08.bks.cpg/sg2_149_cif.got.tgz:296856.got - 2010.06.03 11:33:40.
