data_PCOD9046747
_publ_section_title
;
Structure prediction by ZEFSAII (Michael W. Deem and Ramdas Pophale) SiO2 
 PCOD9046747
Probable space group: P -1
;
_chemical_formula_sum "Si O2"
_cell_formula_units_Z 12
_cell_length_a 9.838806
_cell_length_b 10.685449
_cell_length_c 8.404263
_cell_angle_alpha 56.595192
_cell_angle_beta 48.169003
_cell_angle_gamma 69.265633
_cell_volume 549.470753
_symmetry_space_group_name_H-M "P -1"
_symmetry_group_IT_number 2
_symmetry_cell_setting 'triclinic'
loop_
_space_group_symop_operation_xyz
x,y,z
-x,-y,-z
loop_
_atom_site_type_symbol
_atom_site_label
_atom_site_fract_x
_atom_site_fract_y
_atom_site_fract_z
Si Si1 0.589281 0.455670 0.626234
Si Si2 0.363199 0.965448 0.485015
Si Si3 0.012917 0.116688 0.552263
Si Si4 0.385435 0.844690 0.032391
Si Si5 0.003106 0.456599 0.215030
Si Si6 0.660654 0.337461 0.130680
O O1 0.500000 0.500000 0.500000
O O2 0.550974 0.279489 0.806568
O O3 0.805195 0.482241 0.426314
O O4 0.499912 0.556277 0.761444
O O5 0.313662 0.790345 0.664099
O O6 0.500000 0.000000 0.500000
O O7 0.182480 0.063848 0.563034
O O8 0.474425 0.018380 0.204937
O O9 0.819563 0.110542 0.797721
O O10 0.044412 0.283043 0.340116
O O11 0.000000 0.000000 0.500000
O O12 0.377647 0.748624 0.942170
O O13 0.000000 0.500000 0.000000
O O14 0.158135 0.561797 0.096644
#
# Coordination Sequence:
#
# PCOD9046747 Si02
#       6
#     2   2   2   2   2   2
#     4  11  23  40  67  97 130 170 220 274 333 389
#     4  10  24  43  67  97 136 177 222 270 336 398
#     4  11  25  43  68  98 136 176 226 274 337 399
#     4  10  25  45  67  96 134 177 224 273 336 397
#     4  11  23  41  68  99 133 173 220 279 333 392
#     4  11  23  42  68  97 133 171 225 271 335 392
#
# _framework density 21.839196000000001
#
# number of rings (size 3 to 8) (size 9 to 14) (size 15 to 20)
#    0.000    1.333    1.667    2.500    2.333   12.667 
#    0.000    0.000    0.000    0.000    0.000    0.000 
#    0.000    0.000    0.000    0.000    0.000    0.000 
#
# Total GULP energy -67148.629849 kJ/mol
# GULP energy per Si atom -5595.719154 kJ/mol
# Density = 2.178949 g / cm^3
# Si number density = 21.839196 Si / 1000 Ang^3
#
#
#
# Elastic Constant Matrix: (Units=GPa)
#
#
# Indices 1 2 3 4 5 6 
#
# 1 69.2618 48.0729 19.6126 -6.4245 -0.9120 -18.8848
# 2 48.0729 145.8279 70.5295 0.8079 -14.2728 -28.2052
# 3 19.6126 70.5295 142.8280 -23.1007 -15.0412 -21.6562
# 4 -6.4245 0.8079 -23.1007 49.5889 6.3000 4.3937
# 5 -0.9120 -14.2728 -15.0412 6.3000 32.5627 -2.7241
# 6 -18.8848 -28.2052 -21.6562 4.3937 -2.7241 46.2827
#
#
#
# Elastic Compliance Matrix: (Units=1/GPa)
#
#
# Indices 1 2 3 4 5 6 
#
# 1 0.020174 -0.006765 0.001570 0.003311 -0.001946 0.004415
# 2 -0.006765 0.012566 -0.005051 -0.004233 0.004070 0.003176
# 3 0.001570 -0.005051 0.010592 0.004775 0.001981 0.002182
# 4 0.003311 -0.004233 0.004775 0.023558 -0.004238 -0.001480
# 5 -0.001946 0.004070 0.001981 -0.004238 0.034597 0.005052
# 6 0.004415 0.003176 0.002182 -0.001480 0.005052 0.026802
#
#
# Mechanical properties :
#
#
# Convention : Reuss Voigt Hill
#
# Bulk Modulus (GPa) = 43.78026 70.48306 57.13166
# Shear Modulus (GPa) = 31.97068 40.33370 36.15219
#
# Velocity S-wave (km/s) = 3.83026 4.30216 4.07305
# Velocity P-wave (km/s) = 6.29693 7.55128 6.95245
#
# Compressibility (1/GPa) = 0.02284135
#
# Stress axis : x y z
#
# Youngs Moduli (GPa) = 49.56899 79.57766 94.41367
#
# Poissons Ratio (x) = 0.53833 -0.14827
# Poissons Ratio (y) = 0.33533 0.47687
# Poissons Ratio (z) = -0.07784 0.40193
#
# Static dielectric constant tensor:
#      x y z
#    x 1.826140 0.002670 0.031230 
#    y 0.002670 1.770730 -0.020510 
#    z 0.031230 -0.020510 1.836670 
# 
# From -- ./inp_files/173707.got.cif
#   From: 2010.05.17/outbox.cif.g08.bks.cpg/sg2_87_cif.got.tgz:173707.got - 2010.06.03 11:33:40.
