data_PCOD9046272
_publ_section_title
;
Structure prediction by ZEFSAII (Michael W. Deem and Ramdas Pophale) SiO2 
 PCOD9046272
Probable space group: P -1
;
_chemical_formula_sum "Si O2"
_cell_formula_units_Z 16
_cell_length_a 8.690233
_cell_length_b 15.220389
_cell_length_c 8.629021
_cell_angle_alpha 139.126858
_cell_angle_beta 69.354787
_cell_angle_gamma 97.246530
_cell_volume 680.283478
_symmetry_space_group_name_H-M "P -1"
_symmetry_group_IT_number 2
_symmetry_cell_setting 'triclinic'
loop_
_space_group_symop_operation_xyz
x,y,z
-x,-y,-z
loop_
_atom_site_type_symbol
_atom_site_label
_atom_site_fract_x
_atom_site_fract_y
_atom_site_fract_z
Si Si1 0.255778 0.724316 0.230560
Si Si2 0.193838 0.444703 0.804627
Si Si3 0.538169 0.814165 0.054944
Si Si4 0.303988 0.907294 0.022037
Si Si5 0.866367 0.813188 0.373685
Si Si6 0.714718 0.055319 0.278496
Si Si7 0.978573 0.830320 0.008585
Si Si8 0.859123 0.609789 0.604727
O O1 0.371073 0.794397 0.171689
O O2 0.306009 0.785850 0.455960
O O3 0.057319 0.775992 0.325682
O O4 0.291193 0.559609 0.978036
O O5 0.237374 0.295483 0.671052
O O6 0.182939 0.435749 0.610530
O O7 0.000000 0.500000 0.000000
O O8 0.485620 0.829437 0.913849
O O9 0.602046 0.953762 0.253510
O O10 0.683919 0.676491 0.842456
O O11 0.174429 0.808033 0.942078
O O12 0.229576 0.036443 0.333248
O O13 0.302171 0.956073 0.912804
O O14 0.891820 0.804774 0.167592
O O15 0.898382 0.984531 0.187654
O O16 0.942052 0.741922 0.757699
O O17 0.000000 0.500000 0.500000
#
# Coordination Sequence:
#
# PCOD9046272 Si02
#       8
#     2   2   2   2   2   2   2   2
#     4  11  22  42  66 101 139 188 226 277 339 410
#     4  10  24  42  70 100 138 183 228 279 337 409
#     4  11  25  44  69 100 139 177 229 285 350 402
#     4  12  23  41  71 103 138 180 229 287 343 399
#     4  11  21  41  69 103 144 180 228 276 342 404
#     4  11  24  40  68 104 143 177 230 287 334 401
#     4  11  22  40  71 103 131 183 232 277 338 405
#     4  11  25  47  70 100 131 178 231 285 342 411
#
# _framework density 23.519604999999999
#
# number of rings (size 3 to 8) (size 9 to 14) (size 15 to 20)
#    0.000    1.000    2.500    5.250    3.500    1.500 
#    0.000    1.250    0.000   15.000    0.000    0.000 
#    0.000    0.000    0.000    0.000    0.000    0.000 
#
# Total GULP energy -89337.642058 kJ/mol
# GULP energy per Si atom -5583.602629 kJ/mol
# Density = 2.346607 g / cm^3
# Si number density = 23.519605 Si / 1000 Ang^3
#
#
#
# Elastic Constant Matrix: (Units=GPa)
#
#
# Indices 1 2 3 4 5 6 
#
# 1 93.9456 24.8068 30.0950 6.8060 10.3704 3.3214
# 2 24.8068 88.4648 28.4162 -0.0261 3.3748 9.9053
# 3 30.0950 28.4162 90.0039 10.4662 17.2474 16.7311
# 4 6.8060 -0.0261 10.4662 30.6847 3.6880 5.6381
# 5 10.3704 3.3748 17.2474 3.6880 28.5980 13.8940
# 6 3.3214 9.9053 16.7311 5.6381 13.8940 35.7868
#
#
#
# Elastic Compliance Matrix: (Units=1/GPa)
#
#
# Indices 1 2 3 4 5 6 
#
# 1 0.012770 -0.002784 -0.002986 -0.001878 -0.003549 0.002655
# 2 -0.002784 0.013467 -0.003502 0.002081 0.002851 -0.003267
# 3 -0.002986 -0.003502 0.015287 -0.003284 -0.005774 -0.003142
# 4 -0.001878 0.002081 -0.003284 0.034929 0.000042 -0.004386
# 5 -0.003549 0.002851 -0.005774 0.000042 0.047216 -0.016098
# 6 0.002655 -0.003267 -0.003142 -0.004386 -0.016098 0.037011
#
#
# Mechanical properties :
#
#
# Convention : Reuss Voigt Hill
#
# Bulk Modulus (GPa) = 43.51667 48.78337 46.15002
# Shear Modulus (GPa) = 26.75452 31.62031 29.18742
#
# Velocity S-wave (km/s) = 3.37640 3.67062 3.52658
# Velocity P-wave (km/s) = 5.80884 6.22504 6.02054
#
# Compressibility (1/GPa) = 0.02297970
#
# Stress axis : x y z
#
# Youngs Moduli (GPa) = 78.30756 74.25458 65.41490
#
# Poissons Ratio (x) = 0.20674 0.19533
# Poissons Ratio (y) = 0.21803 0.22908
# Poissons Ratio (z) = 0.23383 0.26004
#
# Static dielectric constant tensor:
#      x y z
#    x 1.909240 0.005000 -0.035520 
#    y 0.005000 1.940780 0.028420 
#    z -0.035520 0.028420 1.992050 
# 
# From -- ./inp_files/209198.got.cif
#   From: 2010.05.17/outbox.cif.g08.bks.cpg/sg2_105_cif.got.tgz:209198.got - 2010.06.03 11:33:40.
