data_PCOD9046807
_publ_section_title
;
Structure prediction by ZEFSAII (Michael W. Deem and Ramdas Pophale) SiO2 
 PCOD9046807
Probable space group: P -1
;
_chemical_formula_sum "Si O2"
_cell_formula_units_Z 16
_cell_length_a 15.636520
_cell_length_b 9.335732
_cell_length_c 8.558963
_cell_angle_alpha 69.597911
_cell_angle_beta 99.448613
_cell_angle_gamma 46.111844
_cell_volume 674.662504
_symmetry_space_group_name_H-M "P -1"
_symmetry_group_IT_number 2
_symmetry_cell_setting 'triclinic'
loop_
_space_group_symop_operation_xyz
x,y,z
-x,-y,-z
loop_
_atom_site_type_symbol
_atom_site_label
_atom_site_fract_x
_atom_site_fract_y
_atom_site_fract_z
Si Si1 0.872396 0.309183 0.825334
Si Si2 0.438375 0.414465 0.009895
Si Si3 0.308149 0.890956 0.223335
Si Si4 0.335027 0.087393 0.925492
Si Si5 0.879244 0.590435 0.534757
Si Si6 0.795726 0.471104 0.094865
Si Si7 0.934767 0.721413 0.775017
Si Si8 0.561054 0.615942 0.621278
O O1 0.929256 0.360062 0.711342
O O2 0.710850 0.481485 0.656925
O O3 0.830087 0.434782 0.935449
O O4 0.000000 0.000000 0.000000
O O5 0.470037 0.302997 0.237044
O O6 0.520382 0.211598 0.970049
O O7 0.500000 0.500000 0.000000
O O8 0.263871 0.616007 0.861230
O O9 0.422748 0.828531 0.383425
O O10 0.395263 0.625477 0.278260
O O11 0.180579 0.019525 0.252944
O O12 0.243553 0.089749 0.992862
O O13 0.258786 0.241522 0.682988
O O14 0.331074 0.236795 0.983195
O O15 0.848693 0.750058 0.606414
O O16 0.000000 0.500000 0.500000
O O17 0.947228 0.334443 0.251559
O O18 0.000000 0.500000 0.000000
#
# Coordination Sequence:
#
# PCOD9046807 Si02
#       8
#     2   2   2   2   2   2   2   2
#     4  11  25  45  73 101 145 193 246 306 361 449
#     4  11  24  44  68 103 146 189 240 304 370 424
#     4  11  22  43  72  99 141 195 234 303 351 446
#     4  12  24  44  72 102 148 187 239 307 367 425
#     4  12  25  42  69 106 143 185 243 297 373 426
#     4  11  24  42  71 103 136 193 243 286 366 444
#     4  12  21  43  70 102 142 186 244 290 363 437
#     4  10  24  43  68 103 137 193 251 280 377 434
#
# _framework density 23.71556
#
# number of rings (size 3 to 8) (size 9 to 14) (size 15 to 20)
#    0.000    0.750    5.000    1.875    1.750    2.000 
#    0.000    3.750    0.000    0.000    0.000    0.000 
#    0.000    0.000    0.000    0.000    0.000    0.000 
#
# Total GULP energy -89294.382000 kJ/mol
# GULP energy per Si atom -5580.898875 kJ/mol
# Density = 2.366158 g / cm^3
# Si number density = 23.715560 Si / 1000 Ang^3
#
#
#
# Elastic Constant Matrix: (Units=GPa)
#
#
# Indices 1 2 3 4 5 6 
#
# 1 171.8897 29.4680 29.8768 -9.1016 -5.4166 -11.7412
# 2 29.4680 121.2352 25.2083 20.0897 -5.3719 -10.6639
# 3 29.8768 25.2083 62.2141 7.8675 -5.6404 6.4162
# 4 -9.1016 20.0897 7.8675 25.7896 -1.2944 2.8498
# 5 -5.4166 -5.3719 -5.6404 -1.2944 34.5379 3.9405
# 6 -11.7412 -10.6639 6.4162 2.8498 3.9405 32.1842
#
#
#
# Elastic Compliance Matrix: (Units=1/GPa)
#
#
# Indices 1 2 3 4 5 6 
#
# 1 0.007113 -0.001512 -0.003606 0.004534 0.000189 0.002388
# 2 -0.001512 0.011116 -0.003126 -0.008730 0.000139 0.004511
# 3 -0.003606 -0.003126 0.020532 -0.004247 0.002875 -0.006420
# 4 0.004534 -0.008730 -0.004247 0.049062 0.001053 -0.004865
# 5 0.000189 0.000139 0.002875 0.001053 0.029996 -0.004224
# 6 0.002388 0.004511 -0.006420 -0.004865 -0.004224 0.035665
#
#
# Mechanical properties :
#
#
# Convention : Reuss Voigt Hill
#
# Bulk Modulus (GPa) = 44.89908 58.27166 51.58537
# Shear Modulus (GPa) = 28.18578 36.55472 32.37025
#
# Velocity S-wave (km/s) = 3.45119 3.93030 3.69851
# Velocity P-wave (km/s) = 5.90376 6.72464 6.32753
#
# Compressibility (1/GPa) = 0.02227217
#
# Stress axis : x y z
#
# Youngs Moduli (GPa) = 140.59347 89.96371 48.70549
#
# Poissons Ratio (x) = 0.13602 0.17561
# Poissons Ratio (y) = 0.21257 0.15227
# Poissons Ratio (z) = 0.50691 0.28126
#
# Static dielectric constant tensor:
#      x y z
#    x 2.005170 0.011320 0.089430 
#    y 0.011320 1.910380 0.007810 
#    z 0.089430 0.007810 1.941560 
# 
# From -- ./inp_files/297909.got.cif
#   From: 2010.05.17/outbox.cif.g08.bks.cpg/sg2_149_cif.got.tgz:297909.got - 2010.06.03 11:33:40.
