data_PCOD9046641
_publ_section_title
;
Structure prediction by ZEFSAII (Michael W. Deem and Ramdas Pophale) SiO2 
 PCOD9046641
Probable space group: P -1
;
_chemical_formula_sum "Si O2"
_cell_formula_units_Z 14
_cell_length_a 11.553435
_cell_length_b 8.935837
_cell_length_c 7.914170
_cell_angle_alpha 65.062105
_cell_angle_beta 49.180229
_cell_angle_gamma 56.393745
_cell_volume 512.651205
_symmetry_space_group_name_H-M "P -1"
_symmetry_group_IT_number 2
_symmetry_cell_setting 'triclinic'
loop_
_space_group_symop_operation_xyz
x,y,z
-x,-y,-z
loop_
_atom_site_type_symbol
_atom_site_label
_atom_site_fract_x
_atom_site_fract_y
_atom_site_fract_z
Si Si1 0.052417 0.302269 0.478809
Si Si2 0.117627 0.129021 0.831376
Si Si3 0.307819 0.715168 0.934821
Si Si4 0.612428 0.712840 0.450314
Si Si5 0.388934 0.982838 0.265403
Si Si6 0.170010 0.818073 0.391343
Si Si7 0.860884 0.420359 0.120241
O O1 0.025896 0.182217 0.713243
O O2 0.242193 0.183436 0.310495
O O3 0.000000 0.500000 0.500000
O O4 0.922551 0.317421 0.446540
O O5 0.241132 0.231411 0.651304
O O6 0.214751 0.918429 0.853559
O O7 0.995141 0.211529 0.067394
O O8 0.499394 0.668592 0.716925
O O9 0.237267 0.582580 0.966353
O O10 0.278075 0.749138 0.147904
O O11 0.699619 0.541856 0.325331
O O12 0.500947 0.892008 0.362749
O O13 0.298218 0.847840 0.379848
O O14 0.500000 0.000000 0.000000
O O15 0.000000 0.000000 0.500000
O O16 0.000000 0.500000 0.000000
#
# Coordination Sequence:
#
# PCOD9046641 Si02
#       7
#     2   2   2   2   2   2   2
#     4  11  25  48  70 101 142 190 243 287 357 434
#     4  11  23  44  75 106 138 191 241 290 355 428
#     4  12  22  45  77 104 144 183 246 300 353 422
#     4  11  25  45  69 112 146 181 244 300 363 415
#     4  11  25  46  71 101 150 188 233 300 359 428
#     4  10  25  47  69 106 141 195 236 286 364 434
#     4  10  24  43  66 106 147 183 228 298 359 421
#
# _framework density 27.309014000000001
#
# number of rings (size 3 to 8) (size 9 to 14) (size 15 to 20)
#    0.000    1.143    2.857    2.143    4.000    0.000 
#   15.429    1.429    0.000    0.000    0.000    0.000 
#    0.000    0.000    0.000    0.000    0.000    0.000 
#
# Total GULP energy -78094.214203 kJ/mol
# GULP energy per Si atom -5578.158157 kJ/mol
# Density = 2.724686 g / cm^3
# Si number density = 27.309014 Si / 1000 Ang^3
#
#
#
# Elastic Constant Matrix: (Units=GPa)
#
#
# Indices 1 2 3 4 5 6 
#
# 1 108.5032 34.7682 21.5768 -0.0867 -21.2129 26.0654
# 2 34.7682 156.8541 59.0440 30.5267 -2.6050 13.7814
# 3 21.5768 59.0440 186.4322 43.8263 -4.7735 -4.7346
# 4 -0.0867 30.5267 43.8263 56.6200 -4.4842 6.1315
# 5 -21.2129 -2.6050 -4.7735 -4.4842 35.9988 -3.3373
# 6 26.0654 13.7814 -4.7346 6.1315 -3.3373 51.3435
#
#
#
# Elastic Compliance Matrix: (Units=1/GPa)
#
#
# Indices 1 2 3 4 5 6 
#
# 1 0.013235 -0.002393 -0.001646 0.003836 0.007309 -0.006211
# 2 -0.002393 0.008188 -0.001628 -0.003186 -0.001509 -0.000850
# 3 -0.001646 -0.001628 0.007321 -0.005106 -0.000519 0.002524
# 4 0.003836 -0.003186 -0.005106 0.024105 0.003968 -0.004184
# 5 0.007309 -0.001509 -0.000519 0.003968 0.032242 -0.001732
# 6 -0.006211 -0.000850 0.002524 -0.004184 -0.001732 0.023478
#
#
# Mechanical properties :
#
#
# Convention : Reuss Voigt Hill
#
# Bulk Modulus (GPa) = 57.43908 75.84084 66.63996
# Shear Modulus (GPa) = 39.77527 51.21917 45.49722
#
# Velocity S-wave (km/s) = 3.82054 4.33545 4.08611
# Velocity P-wave (km/s) = 6.36716 7.27277 6.83498
#
# Compressibility (1/GPa) = 0.01740975
#
# Stress axis : x y z
#
# Youngs Moduli (GPa) = 75.55821 122.12623 136.59307
#
# Poissons Ratio (x) = 0.29231 0.22486
# Poissons Ratio (y) = 0.18085 0.22231
# Poissons Ratio (z) = 0.12438 0.19876
#
# Static dielectric constant tensor:
#      x y z
#    x 2.191930 0.008110 0.074630 
#    y 0.008110 2.095820 -0.027930 
#    z 0.074630 -0.027930 2.475150 
# 
# From -- ./inp_files/242824.got.cif
#   From: 2010.05.17/outbox.cif.g08.bks.cpg/sg2_122_cif.got.tgz:242824.got - 2010.06.03 11:33:40.
