data_PCOD9046750
_publ_section_title
;
Structure prediction by ZEFSAII (Michael W. Deem and Ramdas Pophale) SiO2 
 PCOD9046750
Probable space group: P -1
;
_chemical_formula_sum "Si O2"
_cell_formula_units_Z 16
_cell_length_a 8.768935
_cell_length_b 14.126319
_cell_length_c 18.866134
_cell_angle_alpha 19.401017
_cell_angle_beta 89.936523
_cell_angle_gamma 80.788414
_cell_volume 681.545636
_symmetry_space_group_name_H-M "P -1"
_symmetry_group_IT_number 2
_symmetry_cell_setting 'triclinic'
loop_
_space_group_symop_operation_xyz
x,y,z
-x,-y,-z
loop_
_atom_site_type_symbol
_atom_site_label
_atom_site_fract_x
_atom_site_fract_y
_atom_site_fract_z
Si Si1 0.608714 0.251755 0.947763
Si Si2 0.100156 0.173138 0.413500
Si Si3 0.290248 0.799814 0.394874
Si Si4 0.675769 0.233828 0.806745
Si Si5 0.813076 0.784161 0.774386
Si Si6 0.814677 0.545730 0.486152
Si Si7 0.742212 0.700989 0.069320
Si Si8 0.563787 0.946622 0.457316
O O1 0.684210 0.091834 0.984232
O O2 0.646320 0.554576 0.728947
O O3 0.401743 0.417551 0.845590
O O4 0.691606 0.933800 0.221791
O O5 0.161388 0.261577 0.277942
O O6 0.272152 0.984822 0.594197
O O7 0.000000 0.000000 0.500000
O O8 0.944283 0.463244 0.250054
O O9 0.491474 0.556853 0.577435
O O10 0.234653 0.615860 0.466277
O O11 0.199802 0.913947 0.390816
O O12 0.263335 0.129601 0.124946
O O13 0.808476 0.347926 0.695024
O O14 0.672399 0.981366 0.929577
O O15 0.609811 0.855638 0.729868
O O16 0.000000 0.500000 0.000000
O O17 0.000000 0.500000 0.500000
O O18 0.500000 0.000000 0.500000
#
# Coordination Sequence:
#
# PCOD9046750 Si02
#       8
#     2   2   2   2   2   2   2   2
#     4  12  23  41  72  95 135 186 230 285 353 417
#     4  11  25  44  67  98 139 183 235 289 356 422
#     4  11  21  44  66  97 141 179 236 287 344 421
#     4  11  23  43  68 100 137 178 236 284 345 426
#     4  11  22  43  72 100 133 184 233 291 350 414
#     4  11  26  42  64 104 143 182 226 290 355 415
#     4  11  21  40  70  96 135 186 228 279 359 411
#     4  10  24  43  67  97 139 180 233 290 351 418
#
# _framework density 23.476050999999998
#
# number of rings (size 3 to 8) (size 9 to 14) (size 15 to 20)
#    0.000    1.000    5.000    2.625    3.500    0.500 
#    2.250    0.625    2.750    0.000    0.000    0.000 
#    0.000    0.000    0.000    0.000    0.000    0.000 
#
# Total GULP energy -89093.477194 kJ/mol
# GULP energy per Si atom -5568.342325 kJ/mol
# Density = 2.342262 g / cm^3
# Si number density = 23.476051 Si / 1000 Ang^3
#
#
#
# Elastic Constant Matrix: (Units=GPa)
#
#
# Indices 1 2 3 4 5 6 
#
# 1 133.4039 5.9049 38.2168 -2.1668 20.3888 0.2717
# 2 5.9049 62.7308 8.8924 -9.3580 9.4930 -8.2769
# 3 38.2168 8.8924 59.4068 -6.1572 20.8160 1.6197
# 4 -2.1668 -9.3580 -6.1572 34.4803 -11.5697 6.4794
# 5 20.3888 9.4930 20.8160 -11.5697 37.6465 -0.1076
# 6 0.2717 -8.2769 1.6197 6.4794 -0.1076 30.7691
#
#
#
# Elastic Compliance Matrix: (Units=1/GPa)
#
#
# Indices 1 2 3 4 5 6 
#
# 1 0.009380 0.000132 -0.005297 -0.001277 -0.002575 0.000491
# 2 0.000132 0.017537 -0.001570 0.002770 -0.002762 0.004206
# 3 -0.005297 -0.001570 0.024037 0.000563 -0.009859 -0.001794
# 4 -0.001277 0.002770 0.000563 0.034431 0.010245 -0.006488
# 5 -0.002575 -0.002762 -0.009859 0.010245 0.037248 -0.002229
# 6 0.000491 0.004206 -0.001794 -0.006488 -0.002229 0.035080
#
#
# Mechanical properties :
#
#
# Convention : Reuss Voigt Hill
#
# Bulk Modulus (GPa) = 26.67739 40.17442 33.42590
# Shear Modulus (GPa) = 27.22164 34.08099 30.65132
#
# Velocity S-wave (km/s) = 3.40891 3.81430 3.61729
# Velocity P-wave (km/s) = 5.18484 6.04554 5.63166
#
# Compressibility (1/GPa) = 0.03748493
#
# Stress axis : x y z
#
# Youngs Moduli (GPa) = 106.61543 57.02072 41.60192
#
# Poissons Ratio (x) = -0.00753 0.22037
# Poissons Ratio (y) = -0.01408 0.06530
# Poissons Ratio (z) = 0.56475 0.08950
#
# Static dielectric constant tensor:
#      x y z
#    x 1.992410 -0.006020 -0.058230 
#    y -0.006020 1.258880 0.172580 
#    z -0.058230 0.172580 1.926700 
# 
# From -- ./inp_files/590408.got.cif
#   From: 2010.05.17/outbox.cif.g08.bks.cpg/sg2_296_cif.got.tgz:590408.got - 2010.06.03 11:33:40.
