data_PCOD9046168
_publ_section_title
;
Structure prediction by ZEFSAII (Michael W. Deem and Ramdas Pophale) SiO2 
 PCOD9046168
Probable space group: P -1
;
_chemical_formula_sum "Si O2"
_cell_formula_units_Z 16
_cell_length_a 22.913412
_cell_length_b 14.723589
_cell_length_c 5.307138
_cell_angle_alpha 97.552252
_cell_angle_beta 74.474528
_cell_angle_gamma 158.038641
_cell_volume 610.322706
_symmetry_space_group_name_H-M "P -1"
_symmetry_group_IT_number 2
_symmetry_cell_setting 'triclinic'
loop_
_space_group_symop_operation_xyz
x,y,z
-x,-y,-z
loop_
_atom_site_type_symbol
_atom_site_label
_atom_site_fract_x
_atom_site_fract_y
_atom_site_fract_z
Si Si1 0.157698 0.899557 0.271268
Si Si2 0.683616 0.036856 0.136822
Si Si3 0.364809 0.491097 0.252709
Si Si4 0.511680 0.618110 0.635562
Si Si5 0.159287 0.394430 0.985458
Si Si6 0.461780 0.027323 0.355136
Si Si7 0.973972 0.081426 0.596359
Si Si8 0.844406 0.418252 0.778678
O O1 0.235552 0.949995 0.971585
O O2 0.130318 0.968717 0.287774
O O3 0.982648 0.611530 0.471407
O O4 0.297381 0.087224 0.399902
O O5 0.808760 0.274930 0.911209
O O6 0.652780 0.052550 0.425855
O O7 0.490235 0.754048 0.147076
O O8 0.427724 0.557067 0.486286
O O9 0.163411 0.192889 0.381539
O O10 0.415722 0.495291 0.966621
O O11 0.500000 0.500000 0.500000
O O12 0.071272 0.216239 0.796949
O O13 0.359723 0.676867 0.817383
O O14 0.095047 0.268935 0.283600
O O15 0.106580 0.427445 0.042801
O O16 0.339185 0.813979 0.206314
O O17 0.500000 0.000000 0.500000
#
# Coordination Sequence:
#
# PCOD9046168 Si02
#       8
#     2   2   2   2   2   2   2   2
#     4  10  24  42  68 108 148 180 233 281 357 417
#     4  11  27  42  69 103 146 186 225 295 350 434
#     4  11  25  44  67 105 144 189 231 277 358 416
#     4  11  22  40  67 100 146 192 227 274 333 432
#     4  11  25  45  76 103 132 183 248 298 341 407
#     4  12  25  48  72  99 136 189 248 291 353 414
#     4  11  24  45  74 106 139 184 234 291 346 423
#     4  11  25  45  69 104 139 185 232 297 354 420
#
# _framework density 26.215638999999999
#
# number of rings (size 3 to 8) (size 9 to 14) (size 15 to 20)
#    0.000    1.000    2.500    3.375    8.750    0.500 
#    0.000    1.250    0.000    0.000    0.000    0.000 
#    0.000    0.000    0.000    0.000    0.000    0.000 
#
# Total GULP energy -89626.688884 kJ/mol
# GULP energy per Si atom -5601.668055 kJ/mol
# Density = 2.615597 g / cm^3
# Si number density = 26.215639 Si / 1000 Ang^3
#
#
#
# Elastic Constant Matrix: (Units=GPa)
#
#
# Indices 1 2 3 4 5 6 
#
# 1 86.7122 12.4675 31.4846 4.0865 -5.1057 -11.6554
# 2 12.4675 139.2342 29.5118 -18.0264 -11.3909 -3.5292
# 3 31.4846 29.5118 118.7357 -2.2847 -25.5803 -0.8926
# 4 4.0865 -18.0264 -2.2847 58.1937 -6.1739 0.5532
# 5 -5.1057 -11.3909 -25.5803 -6.1739 30.9689 3.0587
# 6 -11.6554 -3.5292 -0.8926 0.5532 3.0587 47.2305
#
#
#
# Elastic Compliance Matrix: (Units=1/GPa)
#
#
# Indices 1 2 3 4 5 6 
#
# 1 0.013413 -0.000657 -0.003782 -0.001515 -0.001784 0.003323
# 2 -0.000657 0.008062 -0.001274 0.002738 0.002328 0.000233
# 3 -0.003782 -0.001274 0.011685 0.001293 0.008957 -0.001403
# 4 -0.001515 0.002738 0.001293 0.018795 0.005645 -0.000731
# 5 -0.001784 0.002328 0.008957 0.005645 0.041659 -0.002861
# 6 0.003323 0.000233 -0.001403 -0.000731 -0.002861 0.022178
#
#
# Mechanical properties :
#
#
# Convention : Reuss Voigt Hill
#
# Bulk Modulus (GPa) = 46.00943 54.62333 50.31638
# Shear Modulus (GPa) = 37.18526 45.35983 41.27255
#
# Velocity S-wave (km/s) = 3.77030 4.16415 3.97211
# Velocity P-wave (km/s) = 6.04500 6.63337 6.34601
#
# Compressibility (1/GPa) = 0.02173467
#
# Stress axis : x y z
#
# Youngs Moduli (GPa) = 74.55430 124.04181 85.57705
#
# Poissons Ratio (x) = 0.08154 0.32364
# Poissons Ratio (y) = 0.04901 0.10898
# Poissons Ratio (z) = 0.28196 0.15797
#
# Static dielectric constant tensor:
#      x y z
#    x 2.124090 0.024450 -0.032820 
#    y 0.024450 2.025070 -0.031810 
#    z -0.032820 -0.031810 2.052270 
# 
# From -- ./inp_files/119463.got.cif
#   From: 2010.05.17/outbox.cif.g08.bks.cpg/sg2_60_cif.got.tgz:119463.got - 2010.06.03 11:33:40.
