data_PCOD9046906
_publ_section_title
;
Structure prediction by ZEFSAII (Michael W. Deem and Ramdas Pophale) SiO2 
 PCOD9046906
Probable space group: P -1
;
_chemical_formula_sum "Si O2"
_cell_formula_units_Z 16
_cell_length_a 4.902496
_cell_length_b 13.300824
_cell_length_c 9.743548
_cell_angle_alpha 70.661053
_cell_angle_beta 105.183737
_cell_angle_gamma 97.799418
_cell_volume 577.735657
_symmetry_space_group_name_H-M "P -1"
_symmetry_group_IT_number 2
_symmetry_cell_setting 'triclinic'
loop_
_space_group_symop_operation_xyz
x,y,z
-x,-y,-z
loop_
_atom_site_type_symbol
_atom_site_label
_atom_site_fract_x
_atom_site_fract_y
_atom_site_fract_z
Si Si1 0.323293 0.911553 0.103825
Si Si2 0.322976 0.628340 0.699340
Si Si3 0.612998 0.687278 0.208007
Si Si4 0.740736 0.586932 0.540253
Si Si5 0.606369 0.974752 0.375397
Si Si6 0.976004 0.829690 0.645448
Si Si7 0.921130 0.780244 0.943901
Si Si8 0.731679 0.417716 0.988821
O O1 0.456820 0.794888 0.171693
O O2 0.357082 0.946656 0.249229
O O3 0.033257 0.884082 0.996950
O O4 0.500000 0.000000 0.000000
O O5 0.577583 0.641966 0.619479
O O6 0.419804 0.585117 0.880305
O O7 0.051007 0.554453 0.642440
O O8 0.159852 0.736158 0.654254
O O9 0.785680 0.659815 0.377350
O O10 0.770900 0.711498 0.074698
O O11 0.416159 0.584291 0.178946
O O12 0.500000 0.500000 0.500000
O O13 0.805242 0.877466 0.475637
O O14 0.500000 0.000000 0.500000
O O15 0.806192 0.076102 0.311502
O O16 0.784091 0.806160 0.768072
O O17 0.155254 0.702824 0.952347
O O18 0.000000 0.500000 0.000000
#
# Coordination Sequence:
#
# PCOD9046906 Si02
#       8
#     2   2   2   2   2   2   2   2
#     4  11  24  45  66 102 139 191 236 305 364 439
#     4  11  27  46  75 105 147 191 241 308 367 445
#     4  11  27  44  73 104 144 190 245 308 372 448
#     4  12  28  49  76 109 150 195 247 309 384 451
#     4  11  25  41  71  98 140 187 250 296 364 437
#     4  10  24  44  65 105 137 192 243 304 363 435
#     4  10  24  43  69 102 142 186 246 296 371 433
#     4  10  24  45  73 103 140 189 245 300 367 443
#
# _framework density 27.694326
#
# number of rings (size 3 to 8) (size 9 to 14) (size 15 to 20)
#    0.000    1.250    1.250    1.875   14.000    3.000 
#    0.000    0.000    0.000    0.000    0.000    0.000 
#    0.000    0.000    0.000    0.000    0.000    0.000 
#
# Total GULP energy -89610.566192 kJ/mol
# GULP energy per Si atom -5600.660387 kJ/mol
# Density = 2.763129 g / cm^3
# Si number density = 27.694326 Si / 1000 Ang^3
#
#
#
# Elastic Constant Matrix: (Units=GPa)
#
#
# Indices 1 2 3 4 5 6 
#
# 1 95.9497 -2.2327 54.5534 9.5273 -8.5162 1.6161
# 2 -2.2327 109.7730 54.3407 26.7549 3.4332 9.3293
# 3 54.5534 54.3407 204.6517 26.6841 -0.7723 -0.3840
# 4 9.5273 26.7549 26.6841 53.3850 3.9278 1.9613
# 5 -8.5162 3.4332 -0.7723 3.9278 51.9419 4.6666
# 6 1.6161 9.3293 -0.3840 1.9613 4.6666 45.9227
#
#
#
# Elastic Compliance Matrix: (Units=1/GPa)
#
#
# Indices 1 2 3 4 5 6 
#
# 1 0.013142 0.002718 -0.003980 -0.001833 0.002161 -0.001189
# 2 0.002718 0.012199 -0.003334 -0.004856 0.000174 -0.002412
# 3 -0.003980 -0.003334 0.006979 -0.001118 -0.000330 0.000957
# 4 -0.001833 -0.004856 -0.001118 0.022167 -0.001696 0.000267
# 5 0.002161 0.000174 -0.000330 -0.001696 0.019904 -0.002064
# 6 -0.001189 -0.002412 0.000957 0.000267 -0.002064 0.022514
#
#
# Mechanical properties :
#
#
# Convention : Reuss Voigt Hill
#
# Bulk Modulus (GPa) = 43.23945 69.29968 56.26957
# Shear Modulus (GPa) = 43.93439 50.49745 47.21592
#
# Velocity S-wave (km/s) = 3.98729 4.27474 4.13352
# Velocity P-wave (km/s) = 6.07001 7.03150 6.56837
#
# Compressibility (1/GPa) = 0.02312703
#
# Stress axis : x y z
#
# Youngs Moduli (GPa) = 76.09111 81.97606 143.28855
#
# Poissons Ratio (x) = -0.22280 0.57028
# Poissons Ratio (y) = -0.20680 0.47776
# Poissons Ratio (z) = 0.30284 0.27333
#
# Static dielectric constant tensor:
#      x y z
#    x 2.223180 0.020680 0.060210 
#    y 0.020680 2.300380 -0.034990 
#    z 0.060210 -0.034990 2.157820 
# 
# From -- ./inp_files/37226.got.cif
#   From: 2010.05.17/outbox.cif.g08.bks.cpg/sg2_19_cif.got.tgz:37226.got - 2010.06.03 11:33:40.
