data_PCOD9046315
_publ_section_title
;
Structure prediction by ZEFSAII (Michael W. Deem and Ramdas Pophale) SiO2 
 PCOD9046315
Probable space group: P -1
;
_chemical_formula_sum "Si O2"
_cell_formula_units_Z 14
_cell_length_a 8.785127
_cell_length_b 18.082654
_cell_length_c 12.337372
_cell_angle_alpha 149.819579
_cell_angle_beta 38.078772
_cell_angle_gamma 136.522302
_cell_volume 601.183963
_symmetry_space_group_name_H-M "P -1"
_symmetry_group_IT_number 2
_symmetry_cell_setting 'triclinic'
loop_
_space_group_symop_operation_xyz
x,y,z
-x,-y,-z
loop_
_atom_site_type_symbol
_atom_site_label
_atom_site_fract_x
_atom_site_fract_y
_atom_site_fract_z
Si Si1 0.134623 0.621138 0.847470
Si Si2 0.276903 0.602797 0.974162
Si Si3 0.742678 0.957176 0.868888
Si Si4 0.031708 0.722537 0.447771
Si Si5 0.116513 0.097663 0.660481
Si Si6 0.723227 0.416242 0.518916
Si Si7 0.671271 0.131714 0.339728
O O1 0.310997 0.653797 0.895197
O O2 0.257618 0.642257 0.688248
O O3 0.025214 0.446969 0.695014
O O4 0.931945 0.732506 0.113193
O O5 0.505477 0.519442 0.774321
O O6 0.232927 0.725391 0.242169
O O7 0.000000 0.500000 0.000000
O O8 0.789391 0.786550 0.621316
O O9 0.974984 0.041660 0.778268
O O10 0.500000 0.000000 0.000000
O O11 0.730328 0.012032 0.067931
O O12 0.133507 0.824264 0.619297
O O13 0.404498 0.085522 0.484495
O O14 0.000000 0.000000 0.500000
O O15 0.659109 0.279939 0.463537
O O16 0.000000 0.500000 0.500000
#
# Coordination Sequence:
#
# PCOD9046315 Si02
#       7
#     2   2   2   2   2   2   2
#     4  11  24  46  77 110 151 195 257 315 374 454
#     4  10  24  42  70 107 150 192 250 312 375 446
#     4  12  27  48  75 107 153 200 256 312 382 459
#     4  11  26  48  73 112 148 197 258 314 384 449
#     4  12  26  47  77 114 147 203 252 310 384 459
#     4  12  25  45  75 118 153 197 253 322 389 452
#     4  12  26  47  78 107 161 197 253 314 388 457
#
# _framework density 23.287382000000001
#
# number of rings (size 3 to 8) (size 9 to 14) (size 15 to 20)
#    0.000    0.571    4.286    3.429    6.000    2.857 
#    2.571    0.000    0.000    0.000    0.000    0.000 
#    0.000    0.000    0.000    0.000    0.000    0.000 
#
# Total GULP energy -78388.525795 kJ/mol
# GULP energy per Si atom -5599.180414 kJ/mol
# Density = 2.323438 g / cm^3
# Si number density = 23.287382 Si / 1000 Ang^3
#
#
#
# Elastic Constant Matrix: (Units=GPa)
#
#
# Indices 1 2 3 4 5 6 
#
# 1 112.2799 23.3159 67.5683 -18.8609 -2.3303 -3.7287
# 2 23.3159 89.9858 35.3695 -19.2322 -12.4628 7.9139
# 3 67.5683 35.3695 192.0357 -12.2983 -14.6618 1.6777
# 4 -18.8609 -19.2322 -12.2983 40.4806 -3.5162 2.3670
# 5 -2.3303 -12.4628 -14.6618 -3.5162 38.0018 -3.1060
# 6 -3.7287 7.9139 1.6777 2.3670 -3.1060 25.4514
#
#
#
# Elastic Compliance Matrix: (Units=1/GPa)
#
#
# Indices 1 2 3 4 5 6 
#
# 1 0.012169 -0.001055 -0.003905 0.003817 -0.000595 0.001941
# 2 -0.001055 0.014366 -0.001488 0.006524 0.004300 -0.004606
# 3 -0.003905 -0.001488 0.006991 -0.000217 0.001924 -0.000315
# 4 0.003817 0.006524 -0.000217 0.030145 0.004779 -0.003676
# 5 -0.000595 0.004300 0.001924 0.004779 0.028999 0.001543
# 6 0.001941 -0.004606 -0.000315 -0.003676 0.001543 0.041558
#
#
# Mechanical properties :
#
#
# Convention : Reuss Voigt Hill
#
# Bulk Modulus (GPa) = 48.47646 71.86761 60.17203
# Shear Modulus (GPa) = 32.46706 38.65661 35.56184
#
# Velocity S-wave (km/s) = 3.73794 4.07871 3.91203
# Velocity P-wave (km/s) = 6.28422 7.28761 6.80444
#
# Compressibility (1/GPa) = 0.02062857
#
# Stress axis : x y z
#
# Youngs Moduli (GPa) = 82.17739 69.60751 143.03539
#
# Poissons Ratio (x) = 0.07346 0.55858
# Poissons Ratio (y) = 0.08673 0.21288
# Poissons Ratio (z) = 0.32092 0.10360
#
# Static dielectric constant tensor:
#      x y z
#    x 1.879850 -0.016460 0.022260 
#    y -0.016460 2.031230 -0.008680 
#    z 0.022260 -0.008680 1.882900 
# 
# From -- ./inp_files/403456.got.cif
#   From: 2010.05.17/outbox.cif.g08.bks.cpg/sg2_202_cif.got.tgz:403456.got - 2010.06.03 11:33:40.
