data_PCOD9046602
_publ_section_title
;
Structure prediction by ZEFSAII (Michael W. Deem and Ramdas Pophale) SiO2 
 PCOD9046602
Probable space group: P -1
;
_chemical_formula_sum "Si O2"
_cell_formula_units_Z 13
_cell_length_a 22.751047
_cell_length_b 6.873994
_cell_length_c 7.181808
_cell_angle_alpha 125.936164
_cell_angle_beta 43.481494
_cell_angle_gamma 139.669635
_cell_volume 498.761479
_symmetry_space_group_name_H-M "P -1"
_symmetry_group_IT_number 2
_symmetry_cell_setting 'triclinic'
loop_
_space_group_symop_operation_xyz
x,y,z
-x,-y,-z
loop_
_atom_site_type_symbol
_atom_site_label
_atom_site_fract_x
_atom_site_fract_y
_atom_site_fract_z
Si Si1 0.764440 0.364810 0.485709
Si Si2 0.053586 0.558875 0.709967
Si Si3 0.421091 0.593780 0.949261
Si Si4 0.907625 0.056810 0.482923
Si Si5 0.594451 0.327881 0.391142
Si Si6 0.500000 0.500000 0.000000
Si Si7 0.713155 0.079077 0.049550
O O1 0.822714 0.295571 0.460183
O O2 0.725333 0.142684 0.277518
O O3 0.856777 0.709563 0.405021
O O4 0.672182 0.380831 0.778665
O O5 0.044343 0.781477 0.732796
O O6 0.994558 0.253719 0.553919
O O7 0.000000 0.500000 0.000000
O O8 0.431174 0.601911 0.711072
O O9 0.392622 0.275008 0.928087
O O10 0.515191 0.782688 0.985763
O O11 0.813204 0.091473 0.762702
O O12 0.694533 0.312857 0.143277
O O13 0.500000 0.000000 0.500000
O O14 0.597203 0.530164 0.658935
#
# Coordination Sequence:
#
# PCOD9046602 Si02
#       7
#     2   2   2   2   2   1   2
#     4  11  23  44  68  95 130 177 210 265 329 374
#     4  11  22  43  67  97 131 172 213 267 320 379
#     4  11  26  45  67  97 132 169 221 271 320 395
#     4  10  24  43  65  96 133 166 222 263 314 391
#     4  12  26  44  67  97 132 171 216 271 326 387
#     4  12  24  44  66  96 124 172 218 264 330 380
#     4  11  23  45  64  97 132 170 218 265 328 382
#
# _framework density 26.064564000000001
#
# number of rings (size 3 to 8) (size 9 to 14) (size 15 to 20)
#    0.000    0.923    4.615    1.846    0.000    3.692 
#    2.769    0.000    0.000    0.000    0.000    0.000 
#    0.000    0.000    0.000    0.000    0.000    0.000 
#
# Total GULP energy -72645.244933 kJ/mol
# GULP energy per Si atom -5588.095764 kJ/mol
# Density = 2.600524 g / cm^3
# Si number density = 26.064564 Si / 1000 Ang^3
#
#
#
# Elastic Constant Matrix: (Units=GPa)
#
#
# Indices 1 2 3 4 5 6 
#
# 1 166.2586 18.0115 62.9703 4.0534 21.4724 -22.7243
# 2 18.0115 85.7725 29.7562 7.0324 31.7623 3.2425
# 3 62.9703 29.7562 156.6794 2.4944 29.9073 -26.8804
# 4 4.0534 7.0324 2.4944 33.5335 -11.6840 7.6959
# 5 21.4724 31.7623 29.9073 -11.6840 68.1725 -2.3185
# 6 -22.7243 3.2425 -26.8804 7.6959 -2.3185 41.1266
#
#
#
# Elastic Compliance Matrix: (Units=1/GPa)
#
#
# Indices 1 2 3 4 5 6 
#
# 1 0.007509 -0.000217 -0.002123 -0.001950 -0.001563 0.003055
# 2 -0.000217 0.015528 -0.001691 -0.005246 -0.007387 -0.001885
# 3 -0.002123 -0.001691 0.008973 -0.002154 -0.002676 0.005077
# 4 -0.001950 -0.005246 -0.002154 0.036729 0.010013 -0.008380
# 5 -0.001563 -0.007387 -0.002676 0.010013 0.021401 -0.002698
# 6 0.003055 -0.001885 0.005077 -0.008380 -0.002698 0.030887
#
#
# Mechanical properties :
#
#
# Convention : Reuss Voigt Hill
#
# Bulk Modulus (GPa) = 41.75887 70.02073 55.88980
# Shear Modulus (GPa) = 36.47665 48.43134 42.45399
#
# Velocity S-wave (km/s) = 3.74501 4.31528 4.04022
# Velocity P-wave (km/s) = 5.89544 7.19385 6.57677
#
# Compressibility (1/GPa) = 0.02394701
#
# Stress axis : x y z
#
# Youngs Moduli (GPa) = 133.16553 64.39913 111.44249
#
# Poissons Ratio (x) = 0.01399 0.23662
# Poissons Ratio (y) = 0.02892 0.18850
# Poissons Ratio (z) = 0.28275 0.10893
#
# Static dielectric constant tensor:
#      x y z
#    x 2.189160 0.033430 0.045090 
#    y 0.033430 2.180570 -0.015880 
#    z 0.045090 -0.015880 2.049630 
# 
# From -- ./inp_files/6106.got.cif
#   From: 2010.05.17/outbox.cif.g08.bks.cpg/sg2_4_cif.got.tgz:6106.got - 2010.06.03 11:33:40.
