data_PCOD9046142
_publ_section_title
;
Structure prediction by ZEFSAII (Michael W. Deem and Ramdas Pophale) SiO2 
 PCOD9046142
Probable space group: P -1
;
_chemical_formula_sum "Si O2"
_cell_formula_units_Z 15
_cell_length_a 5.195391
_cell_length_b 19.602881
_cell_length_c 7.441421
_cell_angle_alpha 79.192755
_cell_angle_beta 75.059992
_cell_angle_gamma 52.245512
_cell_volume 578.510926
_symmetry_space_group_name_H-M "P -1"
_symmetry_group_IT_number 2
_symmetry_cell_setting 'triclinic'
loop_
_space_group_symop_operation_xyz
x,y,z
-x,-y,-z
loop_
_atom_site_type_symbol
_atom_site_label
_atom_site_fract_x
_atom_site_fract_y
_atom_site_fract_z
Si Si1 0.560063 0.541559 0.728872
Si Si2 0.290450 0.443300 0.720328
Si Si3 0.936624 0.264120 0.175567
Si Si4 0.363570 0.105421 0.596620
Si Si5 0.324910 0.873834 0.946820
Si Si6 0.500000 0.000000 0.000000
Si Si7 0.926996 0.118910 0.364178
Si Si8 0.226172 0.750791 0.194854
O O1 0.470024 0.474681 0.787988
O O2 0.639076 0.547366 0.503939
O O3 0.254642 0.637054 0.790864
O O4 0.898534 0.504944 0.789912
O O5 0.454415 0.343277 0.769751
O O6 0.788129 0.218818 0.322151
O O7 0.329873 0.202717 0.172856
O O8 0.889755 0.255835 0.977307
O O9 0.688717 0.096339 0.486231
O O10 0.080029 0.207664 0.636745
O O11 0.220322 0.082117 0.469952
O O12 0.410704 0.057191 0.796156
O O13 0.012307 0.909485 0.846687
O O14 0.375771 0.944136 0.955275
O O15 0.296523 0.822381 0.135515
#
# Coordination Sequence:
#
# PCOD9046142 Si02
#       8
#     2   2   2   2   2   1   2   2
#     4  10  24  42  68 101 148 184 241 295 356 415
#     4  10  24  43  67 106 138 192 236 298 351 433
#     4  11  24  48  73 107 148 193 240 301 358 439
#     4  12  26  48  76 110 139 201 231 318 349 447
#     4  11  26  51  72 112 142 203 232 316 355 447
#     4  12  28  50  78 106 160 174 256 296 380 418
#     4  11  26  47  77 105 144 192 256 278 378 424
#     4  11  26  44  75 106 150 187 250 285 384 422
#
# _framework density 25.928642
#
# number of rings (size 3 to 8) (size 9 to 14) (size 15 to 20)
#    0.000    1.067    2.667    1.600    5.600    6.400 
#    0.000    0.000    0.000    0.000    0.000    0.000 
#    0.000    0.000    0.000    0.000    0.000    0.000 
#
# Total GULP energy -83970.638600 kJ/mol
# GULP energy per Si atom -5598.042573 kJ/mol
# Density = 2.586963 g / cm^3
# Si number density = 25.928642 Si / 1000 Ang^3
#
#
#
# Elastic Constant Matrix: (Units=GPa)
#
#
# Indices 1 2 3 4 5 6 
#
# 1 154.2484 21.5965 31.2737 -12.4995 10.5692 0.3930
# 2 21.5965 132.5863 5.4409 -8.6839 -0.8292 -15.2227
# 3 31.2737 5.4409 121.1120 -5.8992 7.0972 3.1942
# 4 -12.4995 -8.6839 -5.8992 44.6989 2.2585 0.4869
# 5 10.5692 -0.8292 7.0972 2.2585 43.3503 -1.9702
# 6 0.3930 -15.2227 3.1942 0.4869 -1.9702 39.9548
#
#
#
# Elastic Compliance Matrix: (Units=1/GPa)
#
#
# Indices 1 2 3 4 5 6 
#
# 1 0.007209 -0.001059 -0.001625 0.001682 -0.001620 -0.000445
# 2 -0.001059 0.008164 -0.000148 0.001210 0.000518 0.003144
# 3 -0.001625 -0.000148 0.008807 0.000745 -0.001124 -0.000809
# 4 0.001682 0.001210 0.000745 0.023263 -0.001720 0.000017
# 5 -0.001620 0.000518 -0.001124 -0.001720 0.023814 0.001499
# 6 -0.000445 0.003144 -0.000809 0.000017 0.001499 0.026369
#
#
# Mechanical properties :
#
#
# Convention : Reuss Voigt Hill
#
# Bulk Modulus (GPa) = 54.00573 58.28541 56.14557
# Shear Modulus (GPa) = 45.67819 48.90985 47.29402
#
# Velocity S-wave (km/s) = 4.20180 4.34790 4.27547
# Velocity P-wave (km/s) = 6.66438 6.90895 6.78777
#
# Compressibility (1/GPa) = 0.01851655
#
# Stress axis : x y z
#
# Youngs Moduli (GPa) = 138.71027 122.48634 113.55066
#
# Poissons Ratio (x) = 0.12966 0.18457
# Poissons Ratio (y) = 0.14684 0.01678
# Poissons Ratio (z) = 0.22546 0.01810
#
# Static dielectric constant tensor:
#      x y z
#    x 1.895980 0.058690 0.120860 
#    y 0.058690 1.870060 -0.072510 
#    z 0.120860 -0.072510 1.933570 
# 
# From -- ./inp_files/137468.got.cif
#   From: 2010.05.17/outbox.cif.g08.bks.cpg/sg2_69_cif.got.tgz:137468.got - 2010.06.03 11:33:40.
