data_PCOD9046822
_publ_section_title
;
Structure prediction by ZEFSAII (Michael W. Deem and Ramdas Pophale) SiO2 
 PCOD9046822
Probable space group: P -1
;
_chemical_formula_sum "Si O2"
_cell_formula_units_Z 14
_cell_length_a 11.792902
_cell_length_b 5.499571
_cell_length_c 11.421602
_cell_angle_alpha 108.016150
_cell_angle_beta 59.343188
_cell_angle_gamma 110.598109
_cell_volume 588.678005
_symmetry_space_group_name_H-M "P -1"
_symmetry_group_IT_number 2
_symmetry_cell_setting 'triclinic'
loop_
_space_group_symop_operation_xyz
x,y,z
-x,-y,-z
loop_
_atom_site_type_symbol
_atom_site_label
_atom_site_fract_x
_atom_site_fract_y
_atom_site_fract_z
Si Si1 0.948702 0.101589 0.919431
Si Si2 0.055777 0.282561 0.563578
Si Si3 0.858758 0.598316 0.715983
Si Si4 0.780336 0.611453 0.291299
Si Si5 0.433684 0.333591 0.118019
Si Si6 0.360573 0.894062 0.912218
Si Si7 0.388433 0.991515 0.660582
O O1 0.074950 0.331130 0.843738
O O2 0.920052 0.865864 0.799533
O O3 0.802969 0.173221 0.025406
O O4 0.000000 0.000000 0.000000
O O5 0.112822 0.439340 0.441689
O O6 0.175489 0.278801 0.587509
O O7 0.934983 0.391098 0.701118
O O8 0.000000 0.000000 0.500000
O O9 0.699928 0.562197 0.781802
O O10 0.698576 0.311281 0.316114
O O11 0.697663 0.802941 0.303865
O O12 0.548367 0.318802 0.150612
O O13 0.500000 0.500000 0.000000
O O14 0.377175 0.042104 0.050127
O O15 0.427176 0.058265 0.786914
O O16 0.500000 0.000000 0.500000
#
# Coordination Sequence:
#
# PCOD9046822 Si02
#       7
#     2   2   2   2   2   2   2
#     4  11  22  46  74 111 152 192 253 316 388 459
#     4  11  24  43  70 105 147 187 254 308 381 447
#     4  10  24  43  68 105 145 197 246 315 372 456
#     4  12  27  48  74 110 148 203 249 323 389 450
#     4  10  24  43  70 102 144 199 252 306 381 447
#     4  10  25  45  69 107 148 198 253 315 376 459
#     4  12  29  50  75 107 153 202 261 310 389 465
#
# _framework density 23.782101000000001
#
# number of rings (size 3 to 8) (size 9 to 14) (size 15 to 20)
#    0.000    1.143    2.857    1.286    8.000    2.857 
#    0.000    0.000    0.000    0.000    0.000    0.000 
#    0.000    0.000    0.000    0.000    0.000    0.000 
#
# Total GULP energy -77975.425165 kJ/mol
# GULP energy per Si atom -5569.673226 kJ/mol
# Density = 2.372797 g / cm^3
# Si number density = 23.782101 Si / 1000 Ang^3
#
#
#
# Elastic Constant Matrix: (Units=GPa)
#
#
# Indices 1 2 3 4 5 6 
#
# 1 193.1464 62.0364 65.9535 -6.9032 -15.4898 -36.0444
# 2 62.0364 114.8766 29.4029 -0.1683 -17.9063 -10.3068
# 3 65.9535 29.4029 135.3675 -19.4338 -30.3989 -7.7586
# 4 -6.9032 -0.1683 -19.4338 39.7943 3.0538 8.4856
# 5 -15.4898 -17.9063 -30.3989 3.0538 62.0497 -2.1911
# 6 -36.0444 -10.3068 -7.7586 8.4856 -2.1911 38.1768
#
#
#
# Elastic Compliance Matrix: (Units=1/GPa)
#
#
# Indices 1 2 3 4 5 6 
#
# 1 0.008556 -0.003163 -0.003340 -0.001625 -0.000089 0.006902
# 2 -0.003163 0.010886 -0.000457 -0.000934 0.002181 0.000193
# 3 -0.003340 -0.000457 0.010552 0.004688 0.003904 -0.001950
# 4 -0.001625 -0.000934 0.004688 0.028673 -0.000044 -0.007209
# 5 -0.000089 0.002181 0.003904 -0.000044 0.018722 0.002382
# 6 0.006902 0.000193 -0.001950 -0.007209 0.002382 0.034105
#
#
# Mechanical properties :
#
#
# Convention : Reuss Voigt Hill
#
# Bulk Modulus (GPa) = 62.20701 84.24178 73.22439
# Shear Modulus (GPa) = 38.23447 47.07070 42.65258
#
# Velocity S-wave (km/s) = 4.01396 4.45370 4.23954
# Velocity P-wave (km/s) = 6.90626 7.87061 7.40415
#
# Compressibility (1/GPa) = 0.01607536
#
# Stress axis : x y z
#
# Youngs Moduli (GPa) = 116.87031 91.86243 94.77212
#
# Poissons Ratio (x) = 0.29056 0.31650
# Poissons Ratio (y) = 0.36966 0.04329
# Poissons Ratio (z) = 0.39029 0.04196
#
# Static dielectric constant tensor:
#      x y z
#    x 1.949440 0.092250 0.134850 
#    y 0.092250 2.043330 -0.030380 
#    z 0.134850 -0.030380 2.101370 
# 
# From -- ./inp_files/410981.got.cif
#   From: 2010.05.17/outbox.cif.g08.bks.cpg/sg2_206_cif.got.tgz:410981.got - 2010.06.03 11:33:40.
