data_PCOD9046874
_publ_section_title
;
Structure prediction by ZEFSAII (Michael W. Deem and Ramdas Pophale) SiO2 
 PCOD9046874
Probable space group: P -1
;
_chemical_formula_sum "Si O2"
_cell_formula_units_Z 16
_cell_length_a 12.723004
_cell_length_b 15.671836
_cell_length_c 16.191613
_cell_angle_alpha 35.201662
_cell_angle_beta 24.735799
_cell_angle_gamma 33.719620
_cell_volume 723.008572
_symmetry_space_group_name_H-M "P -1"
_symmetry_group_IT_number 2
_symmetry_cell_setting 'triclinic'
loop_
_space_group_symop_operation_xyz
x,y,z
-x,-y,-z
loop_
_atom_site_type_symbol
_atom_site_label
_atom_site_fract_x
_atom_site_fract_y
_atom_site_fract_z
Si Si1 0.663942 0.946596 0.685991
Si Si2 0.402824 0.688057 0.026932
Si Si3 0.327334 0.072457 0.985574
Si Si4 0.056239 0.298012 0.527564
Si Si5 0.584287 0.340990 0.147125
Si Si6 0.191276 0.423222 0.846250
Si Si7 0.826189 0.340506 0.475476
Si Si8 0.213571 0.953277 0.642854
O O1 0.525344 0.819428 0.861310
O O2 0.980866 0.835536 0.554227
O O3 0.636177 0.068518 0.534650
O O4 0.527587 0.036942 0.793502
O O5 0.307721 0.714112 0.978681
O O6 0.170962 0.692243 0.252299
O O7 0.615852 0.504943 0.019862
O O8 0.105991 0.996040 0.185744
O O9 0.164901 0.259037 0.968450
O O10 0.500000 0.000000 0.000000
O O11 0.930485 0.354433 0.482257
O O12 0.261068 0.382059 0.339558
O O13 0.241529 0.109835 0.537519
O O14 0.698455 0.199441 0.241934
O O15 0.509028 0.372909 0.681771
O O16 0.139431 0.540982 0.712185
O O17 0.000000 0.500000 0.000000
#
# Coordination Sequence:
#
# PCOD9046874 Si02
#       8
#     2   2   2   2   2   2   2   2
#     4  11  24  45  70  97 142 179 224 281 341 404
#     4  11  24  41  69  97 134 185 220 281 334 406
#     4  12  26  44  70 100 133 185 229 273 346 407
#     4  11  22  42  67  94 134 179 222 275 342 396
#     4  11  25  42  66 102 134 175 233 276 336 402
#     4  11  26  43  69 101 136 176 229 286 338 402
#     4  10  24  43  69 100 134 178 223 286 338 399
#     4  11  25  42  67 101 137 174 225 286 333 405
#
# _framework density 22.129753000000001
#
# number of rings (size 3 to 8) (size 9 to 14) (size 15 to 20)
#    0.000    1.000    3.750    3.000    3.500    6.500 
#    0.000    0.000    0.000    0.000    0.000    0.000 
#    0.000    0.000    0.000    0.000    0.000    0.000 
#
# Total GULP energy -89506.586500 kJ/mol
# GULP energy per Si atom -5594.161656 kJ/mol
# Density = 2.207938 g / cm^3
# Si number density = 22.129753 Si / 1000 Ang^3
#
#
#
# Elastic Constant Matrix: (Units=GPa)
#
#
# Indices 1 2 3 4 5 6 
#
# 1 106.4712 49.9000 55.2041 4.4328 28.0541 -7.0361
# 2 49.9000 87.5519 34.7735 -1.4872 31.2530 12.1324
# 3 55.2041 34.7735 131.9741 19.7462 34.3334 5.5281
# 4 4.4328 -1.4872 19.7462 47.7220 3.0491 15.3755
# 5 28.0541 31.2530 34.3334 3.0491 54.5113 3.4535
# 6 -7.0361 12.1324 5.5281 15.3755 3.4535 30.9633
#
#
#
# Elastic Compliance Matrix: (Units=1/GPa)
#
#
# Indices 1 2 3 4 5 6 
#
# 1 0.016921 -0.008848 -0.004339 -0.003119 -0.001348 0.009786
# 2 -0.008848 0.020839 -0.000444 0.006065 -0.006670 -0.012364
# 3 -0.004339 -0.000444 0.011233 -0.003844 -0.004345 -0.000424
# 4 -0.003119 0.006065 -0.003844 0.028329 0.000008 -0.016467
# 5 -0.001348 -0.006670 -0.004345 0.000008 0.025585 0.000225
# 6 0.009786 -0.012364 -0.000424 -0.016467 0.000225 0.047592
#
#
# Mechanical properties :
#
#
# Convention : Reuss Voigt Hill
#
# Bulk Modulus (GPa) = 46.02077 67.30582 56.66329
# Shear Modulus (GPa) = 27.02658 39.04729 33.03694
#
# Velocity S-wave (km/s) = 3.49847 4.20512 3.86796
# Velocity P-wave (km/s) = 6.09591 7.35238 6.75343
#
# Compressibility (1/GPa) = 0.02172932
#
# Stress axis : x y z
#
# Youngs Moduli (GPa) = 59.09963 47.98807 89.02706
#
# Poissons Ratio (x) = 0.42462 0.38629
# Poissons Ratio (y) = 0.52294 0.03950
# Poissons Ratio (z) = 0.25643 0.02129
#
# Static dielectric constant tensor:
#      x y z
#    x 1.821310 -0.002560 -0.020730 
#    y -0.002560 1.805890 -0.006140 
#    z -0.020730 -0.006140 1.813830 
# 
# From -- ./inp_files/520706.got.cif
#   From: 2010.05.17/outbox.cif.g08.bks.cpg/sg2_261_cif.got.tgz:520706.got - 2010.06.03 11:33:40.
