data_PCOD9046096
_publ_section_title
;
Structure prediction by ZEFSAII (Michael W. Deem and Ramdas Pophale) SiO2 
 PCOD9046096
Probable space group: P -1
;
_chemical_formula_sum "Si O2"
_cell_formula_units_Z 14
_cell_length_a 8.625194
_cell_length_b 10.513672
_cell_length_c 24.869145
_cell_angle_alpha 32.640446
_cell_angle_beta 148.244297
_cell_angle_gamma 138.222435
_cell_volume 636.656896
_symmetry_space_group_name_H-M "P -1"
_symmetry_group_IT_number 2
_symmetry_cell_setting 'triclinic'
loop_
_space_group_symop_operation_xyz
x,y,z
-x,-y,-z
loop_
_atom_site_type_symbol
_atom_site_label
_atom_site_fract_x
_atom_site_fract_y
_atom_site_fract_z
Si Si1 0.216128 0.039557 0.436714
Si Si2 0.337413 0.347836 0.852484
Si Si3 0.587543 0.874275 0.308275
Si Si4 0.453496 0.884898 0.671501
Si Si5 0.737426 0.704790 0.972610
Si Si6 0.898198 0.428941 0.784021
Si Si7 0.039644 0.849732 0.899052
O O1 0.109685 0.296354 0.303837
O O2 0.500000 0.000000 0.500000
O O3 0.306573 0.015589 0.533922
O O4 0.930005 0.858134 0.403603
O O5 0.319824 0.608951 0.729909
O O6 0.185681 0.373071 0.855801
O O7 0.153657 0.121300 0.851413
O O8 0.671423 0.281726 0.978274
O O9 0.376854 0.643702 0.310908
O O10 0.578434 0.975508 0.330916
O O11 0.440029 0.065171 0.160003
O O12 0.805520 0.866128 0.776460
O O13 0.044534 0.704931 0.096103
O O14 0.500000 0.500000 0.000000
O O15 0.852019 0.717200 0.940057
#
# Coordination Sequence:
#
# PCOD9046096 Si02
#       7
#     2   2   2   2   2   2   2
#     4  12  29  47  65  97 133 183 234 279 336 399
#     4  11  22  41  71 102 138 171 223 281 338 398
#     4  11  24  44  68 100 130 178 232 268 349 399
#     4  11  23  45  69  96 136 181 226 277 329 406
#     4  11  21  42  73 103 142 176 214 284 345 402
#     4  12  24  44  70 100 137 181 219 281 343 403
#     4  10  24  42  67 112 132 173 228 273 345 404
#
# _framework density 21.989865999999999
#
# number of rings (size 3 to 8) (size 9 to 14) (size 15 to 20)
#    0.000    0.857    5.714    2.143    2.000    3.429 
#    2.571    0.000    0.000    0.000    0.000    0.000 
#    0.000    0.000    0.000    0.000    0.000    0.000 
#
# Total GULP energy -78130.519128 kJ/mol
# GULP energy per Si atom -5580.751366 kJ/mol
# Density = 2.193982 g / cm^3
# Si number density = 21.989866 Si / 1000 Ang^3
#
#
#
# Elastic Constant Matrix: (Units=GPa)
#
#
# Indices 1 2 3 4 5 6 
#
# 1 36.4270 29.0570 14.9102 22.9373 15.1532 2.0341
# 2 29.0570 106.7637 10.7149 17.8195 -0.5114 0.1669
# 3 14.9102 10.7149 81.3051 28.7938 -13.4803 -8.0753
# 4 22.9373 17.8195 28.7938 36.1864 2.0166 10.4051
# 5 15.1532 -0.5114 -13.4803 2.0166 33.2506 8.7611
# 6 2.0341 0.1669 -8.0753 10.4051 8.7611 23.6728
#
#
#
# Elastic Compliance Matrix: (Units=1/GPa)
#
#
# Indices 1 2 3 4 5 6 
#
# 1 0.101651 -0.017038 0.002874 -0.067286 -0.052214 0.041265
# 2 -0.017038 0.013319 0.001284 0.003618 0.009101 -0.003150
# 3 0.002874 0.001284 0.023647 -0.026612 0.005286 0.017551
# 4 -0.067286 0.003618 -0.026612 0.105457 0.029500 -0.060592
# 5 -0.052214 0.009101 0.005286 0.029500 0.062206 -0.029763
# 6 0.041265 -0.003150 0.017551 -0.060592 -0.029763 0.082354
#
#
# Mechanical properties :
#
#
# Convention : Reuss Voigt Hill
#
# Bulk Modulus (GPa) = 8.86071 37.09554 22.97813
# Shear Modulus (GPa) = 11.06162 29.94286 20.50224
#
# Velocity S-wave (km/s) = 2.24527 3.69408 3.05675
# Velocity P-wave (km/s) = 3.28022 5.92461 4.78857
#
# Compressibility (1/GPa) = 0.11285781
#
# Stress axis : x y z
#
# Youngs Moduli (GPa) = 9.83756 75.07818 42.28860
#
# Poissons Ratio (x) = 1.27920 -0.12155
# Poissons Ratio (y) = 0.16762 -0.05430
# Poissons Ratio (z) = -0.02828 -0.09640
#
# Static dielectric constant tensor:
#      x y z
#    x 1.989430 -0.014770 -0.093830 
#    y -0.014770 1.883460 0.036540 
#    z -0.093830 0.036540 1.833560 
# 
# From -- ./inp_files/476335.got.cif
#   From: 2010.05.17/outbox.cif.g08.bks.cpg/sg2_239_cif.got.tgz:476335.got - 2010.06.03 11:33:40.
