data_PCOD9046860
_publ_section_title
;
Structure prediction by ZEFSAII (Michael W. Deem and Ramdas Pophale) SiO2 
 PCOD9046860
Probable space group: P -1
;
_chemical_formula_sum "Si O2"
_cell_formula_units_Z 10
_cell_length_a 11.088417
_cell_length_b 8.044310
_cell_length_c 11.754444
_cell_angle_alpha 65.004598
_cell_angle_beta 155.861207
_cell_angle_gamma 113.135258
_cell_volume 388.540723
_symmetry_space_group_name_H-M "P -1"
_symmetry_group_IT_number 2
_symmetry_cell_setting 'triclinic'
loop_
_space_group_symop_operation_xyz
x,y,z
-x,-y,-z
loop_
_atom_site_type_symbol
_atom_site_label
_atom_site_fract_x
_atom_site_fract_y
_atom_site_fract_z
Si Si1 0.196144 0.092876 0.737657
Si Si2 0.817874 0.546645 0.507698
Si Si3 0.178115 0.958708 0.347096
Si Si4 0.279588 0.283849 0.061277
Si Si5 0.782740 0.628182 0.708172
O O1 0.202061 0.307614 0.651628
O O2 0.071999 0.052844 0.767171
O O3 0.000000 0.000000 0.500000
O O4 0.500000 0.000000 0.000000
O O5 0.505682 0.432409 0.273780
O O6 0.860496 0.649047 0.635934
O O7 0.108837 0.421679 0.787253
O O8 0.470272 0.873298 0.679974
O O9 0.243280 0.172018 0.316041
O O10 0.027176 0.839020 0.149886
O O11 0.500000 0.500000 0.500000
O O12 0.000000 0.500000 0.000000
#
# Coordination Sequence:
#
# PCOD9046860 Si02
#       5
#     2   2   2   2   2
#     4  12  24  39  72 103 138 171 219 282 324 405
#     4  11  24  45  67 102 135 176 226 268 341 392
#     4  11  24  45  67 102 135 176 226 268 341 392
#     4  10  24  43  68  98 142 176 214 277 332 412
#     4  12  26  45  72  97 130 178 234 282 322 392
#
# _framework density 25.737328999999999
#
# number of rings (size 3 to 8) (size 9 to 14) (size 15 to 20)
#    0.000    0.800    2.000    4.800    2.800    4.800 
#    0.000   20.000    0.000    0.000    0.000    0.000 
#    0.000    0.000    0.000    0.000    0.000    0.000 
#
# Total GULP energy -55743.968326 kJ/mol
# GULP energy per Si atom -5574.396833 kJ/mol
# Density = 2.567875 g / cm^3
# Si number density = 25.737329 Si / 1000 Ang^3
#
#
#
# Elastic Constant Matrix: (Units=GPa)
#
#
# Indices 1 2 3 4 5 6 
#
# 1 71.4227 10.4156 26.2062 2.7283 -9.5697 6.5286
# 2 10.4156 195.7020 80.9163 -6.2208 -2.5292 6.1702
# 3 26.2062 80.9163 267.8970 -3.3220 23.7340 -3.9327
# 4 2.7283 -6.2208 -3.3220 58.9306 -14.5628 -4.4743
# 5 -9.5697 -2.5292 23.7340 -14.5628 38.6952 3.8399
# 6 6.5286 6.1702 -3.9327 -4.4743 3.8399 35.2284
#
#
#
# Elastic Compliance Matrix: (Units=1/GPa)
#
#
# Indices 1 2 3 4 5 6 
#
# 1 0.015884 0.000270 -0.002201 0.000310 0.005792 -0.003829
# 2 0.000270 0.006053 -0.002062 0.000950 0.002230 -0.001463
# 3 -0.002201 -0.002062 0.004955 -0.000737 -0.004163 0.001682
# 4 0.000310 0.000950 -0.000737 0.018991 0.007612 0.001276
# 5 0.005792 0.002230 -0.004163 0.007612 0.033295 -0.004591
# 6 -0.003829 -0.001463 0.001682 0.001276 -0.004591 0.030202
#
#
# Mechanical properties :
#
#
# Convention : Reuss Voigt Hill
#
# Bulk Modulus (GPa) = 52.89231 85.56643 69.22937
# Shear Modulus (GPa) = 40.43087 54.40308 47.41698
#
# Velocity S-wave (km/s) = 3.96776 4.60258 4.29691
# Velocity P-wave (km/s) = 6.44874 7.84622 7.18155
#
# Compressibility (1/GPa) = 0.01890634
#
# Stress axis : x y z
#
# Youngs Moduli (GPa) = 62.95838 165.20354 201.80720
#
# Poissons Ratio (x) = -0.04461 0.44414
# Poissons Ratio (y) = -0.01700 0.41612
# Poissons Ratio (z) = 0.13856 0.34064
#
# Static dielectric constant tensor:
#      x y z
#    x 2.331590 -0.056020 -0.066450 
#    y -0.056020 2.081550 0.024070 
#    z -0.066450 0.024070 1.907590 
# 
# From -- ./inp_files/1105.got.cif
#   From: 2010.05.17/outbox.cif.g08.bks.cpg/sg2_1_cif.got.tgz:1105.got - 2010.06.03 11:33:40.
