data_PCOD9046938
_publ_section_title
;
Structure prediction by ZEFSAII (Michael W. Deem and Ramdas Pophale) SiO2 
 PCOD9046938
Probable space group: P -1
;
_chemical_formula_sum "Si O2"
_cell_formula_units_Z 10
_cell_length_a 14.021982
_cell_length_b 9.380355
_cell_length_c 4.957548
_cell_angle_alpha 67.183622
_cell_angle_beta 88.095027
_cell_angle_gamma 44.436743
_cell_volume 389.664540
_symmetry_space_group_name_H-M "P -1"
_symmetry_group_IT_number 2
_symmetry_cell_setting 'triclinic'
loop_
_space_group_symop_operation_xyz
x,y,z
-x,-y,-z
loop_
_atom_site_type_symbol
_atom_site_label
_atom_site_fract_x
_atom_site_fract_y
_atom_site_fract_z
Si Si1 0.607896 0.760324 0.340393
Si Si2 0.063046 0.286440 0.832334
Si Si3 0.643592 0.163718 0.673666
Si Si4 0.793668 0.501735 0.997763
Si Si5 0.236969 0.819564 0.874808
O O1 0.739083 0.563841 0.263099
O O2 0.504945 0.742330 0.433222
O O3 0.500000 0.000000 0.000000
O O4 0.774298 0.880232 0.944688
O O5 0.321055 0.271971 0.362691
O O6 0.950478 0.382645 0.008008
O O7 0.096863 0.090690 0.795394
O O8 0.709369 0.182696 0.413342
O O9 0.638537 0.277910 0.853738
O O10 0.000000 0.500000 0.500000
O O11 0.793944 0.322826 0.030339
#
# Coordination Sequence:
#
# PCOD9046938 Si02
#       5
#     2   2   2   2   2
#     4  12  27  44  68 100 137 173 223 272 333 393
#     4  10  25  44  70  98 134 176 221 271 329 394
#     4  10  24  43  69  94 139 170 224 267 330 390
#     4  12  26  43  73  97 135 175 220 277 328 388
#     4  10  24  43  70 100 133 169 229 267 331 389
#
# _framework density 25.6631
#
# number of rings (size 3 to 8) (size 9 to 14) (size 15 to 20)
#    1.200    0.000    0.000    4.800    5.600    6.400 
#    0.000    0.000    0.000    0.000    0.000    0.000 
#    0.000    0.000    0.000    0.000    0.000    0.000 
#
# Total GULP energy -56052.812100 kJ/mol
# GULP energy per Si atom -5605.281210 kJ/mol
# Density = 2.560469 g / cm^3
# Si number density = 25.663100 Si / 1000 Ang^3
#
#
#
# Elastic Constant Matrix: (Units=GPa)
#
#
# Indices 1 2 3 4 5 6 
#
# 1 123.2641 15.6131 20.7016 4.5801 -13.7128 -17.9724
# 2 15.6131 78.7472 24.1965 -7.1272 -7.5121 -9.0123
# 3 20.7016 24.1965 112.9508 13.9547 1.8565 -11.2187
# 4 4.5801 -7.1272 13.9547 44.2491 0.0145 1.5276
# 5 -13.7128 -7.5121 1.8565 0.0145 41.1331 10.2099
# 6 -17.9724 -9.0123 -11.2187 1.5276 10.2099 37.3423
#
#
#
# Elastic Compliance Matrix: (Units=1/GPa)
#
#
# Indices 1 2 3 4 5 6 
#
# 1 0.009167 -0.000991 -0.001063 -0.000888 0.002100 0.003315
# 2 -0.000991 0.014567 -0.003266 0.003432 0.002146 0.001330
# 3 -0.001063 -0.003266 0.010510 -0.003819 -0.002064 0.002578
# 4 -0.000888 0.003432 -0.003819 0.024518 0.000996 -0.002022
# 5 0.002100 0.002146 -0.002064 0.000996 0.027121 -0.006547
# 6 0.003315 0.001330 0.002578 -0.002022 -0.006547 0.031343
#
#
# Mechanical properties :
#
#
# Convention : Reuss Voigt Hill
#
# Bulk Modulus (GPa) = 42.36944 48.44270 45.40607
# Shear Modulus (GPa) = 36.83678 41.50831 39.17254
#
# Velocity S-wave (km/s) = 3.79278 4.02609 3.91117
# Velocity P-wave (km/s) = 5.97712 6.36631 6.17478
#
# Compressibility (1/GPa) = 0.02360192
#
# Stress axis : x y z
#
# Youngs Moduli (GPa) = 109.08870 68.65061 95.15047
#
# Poissons Ratio (x) = 0.06806 0.10116
# Poissons Ratio (y) = 0.10815 0.31076
# Poissons Ratio (z) = 0.11598 0.22421
#
# Static dielectric constant tensor:
#      x y z
#    x 1.963540 -0.002740 0.065590 
#    y -0.002740 2.087090 -0.095760 
#    z 0.065590 -0.095760 1.985440 
# 
# From -- ./inp_files/17533.got.cif
#   From: 2010.05.17/outbox.cif.g08.bks.cpg/sg2_9_cif.got.tgz:17533.got - 2010.06.03 11:33:40.
