data_PCOD9046535
_publ_section_title
;
Structure prediction by ZEFSAII (Michael W. Deem and Ramdas Pophale) SiO2 
 PCOD9046535
Probable space group: P -1
;
_chemical_formula_sum "Si O2"
_cell_formula_units_Z 16
_cell_length_a 5.114416
_cell_length_b 26.874437
_cell_length_c 10.435055
_cell_angle_alpha 149.640986
_cell_angle_beta 59.102151
_cell_angle_gamma 111.232640
_cell_volume 611.098910
_symmetry_space_group_name_H-M "P -1"
_symmetry_group_IT_number 2
_symmetry_cell_setting 'triclinic'
loop_
_space_group_symop_operation_xyz
x,y,z
-x,-y,-z
loop_
_atom_site_type_symbol
_atom_site_label
_atom_site_fract_x
_atom_site_fract_y
_atom_site_fract_z
Si Si1 0.179900 0.105149 0.038415
Si Si2 0.261557 0.413928 0.547605
Si Si3 0.074233 0.379905 0.026191
Si Si4 0.714271 0.986874 0.789741
Si Si5 0.877510 0.186293 0.560724
Si Si6 0.630718 0.258058 0.252185
Si Si7 0.658309 0.391474 0.772035
Si Si8 0.194495 0.270832 0.009442
O O1 0.361770 0.194516 0.157396
O O2 0.977190 0.134588 0.284517
O O3 0.465159 0.014791 0.802122
O O4 0.945396 0.066924 0.915264
O O5 0.566816 0.370059 0.452630
O O6 0.269770 0.336179 0.256452
O O7 0.012887 0.401233 0.693530
O O8 0.150551 0.520906 0.747778
O O9 0.437403 0.384785 0.931989
O O10 0.999939 0.290095 0.759075
O O11 0.041956 0.345527 0.101823
O O12 0.935556 0.880706 0.522212
O O13 0.500000 0.000000 0.000000
O O14 0.515473 0.209710 0.737170
O O15 0.648603 0.291334 0.468575
O O16 0.947700 0.209266 0.993845
O O17 0.500000 0.500000 0.000000
#
# Coordination Sequence:
#
# PCOD9046535 Si02
#       8
#     2   2   2   2   2   2   2   2
#     4  11  25  45  78 104 144 186 235 298 369 422
#     4  10  24  43  62  97 143 188 228 285 356 428
#     4  11  23  40  68 100 135 181 242 290 353 412
#     4  10  24  45  73 111 141 178 235 306 365 422
#     4  11  24  40  70 103 134 176 238 296 352 427
#     4  11  24  44  67  97 143 189 233 287 359 435
#     4   9  21  39  64  98 133 176 234 296 345 416
#     4  11  26  41  65  96 145 184 233 287 354 424
#
# _framework density 26.182341999999998
#
# number of rings (size 3 to 8) (size 9 to 14) (size 15 to 20)
#    0.000    1.500    1.250    2.625   10.500    7.000 
#    0.000    1.250    0.000    0.000    0.000    0.000 
#    0.000    0.000    0.000    0.000    0.000    0.000 
#
# Total GULP energy -89492.981239 kJ/mol
# GULP energy per Si atom -5593.311327 kJ/mol
# Density = 2.612275 g / cm^3
# Si number density = 26.182342 Si / 1000 Ang^3
#
#
#
# Elastic Constant Matrix: (Units=GPa)
#
#
# Indices 1 2 3 4 5 6 
#
# 1 77.6239 25.7572 23.6887 -3.4811 -9.3616 17.7967
# 2 25.7572 131.1379 53.6999 -7.6771 -19.0516 24.0925
# 3 23.6887 53.6999 100.0610 15.8413 -23.5637 18.1759
# 4 -3.4811 -7.6771 15.8413 46.2746 2.9510 -15.8325
# 5 -9.3616 -19.0516 -23.5637 2.9510 47.2415 -1.4507
# 6 17.7967 24.0925 18.1759 -15.8325 -1.4507 39.2577
#
#
#
# Elastic Compliance Matrix: (Units=1/GPa)
#
#
# Indices 1 2 3 4 5 6 
#
# 1 0.015185 -0.001127 -0.001464 -0.000599 0.001687 -0.005694
# 2 -0.001127 0.010765 -0.005085 0.002428 0.001347 -0.002712
# 3 -0.001464 -0.005085 0.017894 -0.010413 0.006976 -0.008442
# 4 -0.000599 0.002428 -0.010413 0.031394 -0.005802 0.016049
# 5 0.001687 0.001347 0.006976 -0.005802 0.025696 -0.006211
# 6 -0.005694 -0.002712 -0.008442 0.016049 -0.006211 0.039870
#
#
# Mechanical properties :
#
#
# Convention : Reuss Voigt Hill
#
# Bulk Modulus (GPa) = 35.09614 57.23492 46.16553
# Shear Modulus (GPa) = 30.18317 40.26656 35.22486
#
# Velocity S-wave (km/s) = 3.39898 3.92590 3.67190
# Velocity P-wave (km/s) = 5.37008 6.51597 5.97057
#
# Compressibility (1/GPa) = 0.02849316
#
# Stress axis : x y z
#
# Youngs Moduli (GPa) = 65.85296 92.89002 55.88353
#
# Poissons Ratio (x) = 0.10470 0.08179
# Poissons Ratio (y) = 0.07423 0.28418
# Poissons Ratio (z) = 0.09638 0.47237
#
# Static dielectric constant tensor:
#      x y z
#    x 2.118060 -0.014350 -0.005690 
#    y -0.014350 2.050550 0.039380 
#    z -0.005690 0.039380 2.106840 
# 
# From -- ./inp_files/371443.got.cif
#   From: 2010.05.17/outbox.cif.g08.bks.cpg/sg2_186_cif.got.tgz:371443.got - 2010.06.03 11:33:40.
