data_PCOD9046592
_publ_section_title
;
Structure prediction by ZEFSAII (Michael W. Deem and Ramdas Pophale) SiO2 
 PCOD9046592
Probable space group: P -1
;
_chemical_formula_sum "Si O2"
_cell_formula_units_Z 16
_cell_length_a 27.895253
_cell_length_b 18.508080
_cell_length_c 5.159481
_cell_angle_alpha 105.653966
_cell_angle_beta 112.756889
_cell_angle_gamma 18.462779
_cell_volume 733.672585
_symmetry_space_group_name_H-M "P -1"
_symmetry_group_IT_number 2
_symmetry_cell_setting 'triclinic'
loop_
_space_group_symop_operation_xyz
x,y,z
-x,-y,-z
loop_
_atom_site_type_symbol
_atom_site_label
_atom_site_fract_x
_atom_site_fract_y
_atom_site_fract_z
Si Si1 0.646509 0.470685 0.332749
Si Si2 0.115842 0.069250 0.255597
Si Si3 0.648899 0.982965 0.278649
Si Si4 0.692248 0.562461 0.293728
Si Si5 0.033960 0.026312 0.263366
Si Si6 0.163712 0.326530 0.131712
Si Si7 0.914001 0.393980 0.652008
Si Si8 0.569966 0.260537 0.359890
O O1 0.647995 0.559686 0.410827
O O2 0.554061 0.571685 0.495170
O O3 0.832236 0.181874 0.442377
O O4 0.539889 0.589637 0.982413
O O5 0.111921 0.986468 0.220682
O O6 0.993756 0.273246 0.416852
O O7 0.298557 0.853248 0.463246
O O8 0.046228 0.183277 0.936892
O O9 0.669722 0.044394 0.367061
O O10 0.698739 0.887108 0.574410
O O11 0.460267 0.225090 0.021662
O O12 0.767894 0.781622 0.118066
O O13 0.750949 0.564130 0.504838
O O14 0.858810 0.298183 0.261353
O O15 0.000000 0.000000 0.000000
O O16 0.123053 0.468998 0.234663
O O17 0.000000 0.500000 0.000000
#
# Coordination Sequence:
#
# PCOD9046592 Si02
#       8
#     2   2   2   2   2   2   2   2
#     4  11  23  40  66  93 126 169 212 264 312 371
#     4  11  24  42  66  93 129 171 209 262 318 371
#     4  11  23  40  65  92 125 167 206 257 314 371
#     4  10  24  43  65  94 130 169 211 257 317 377
#     4  11  23  42  68  94 128 169 215 260 312 377
#     4  12  24  41  66  94 125 163 211 259 311 377
#     4  11  24  42  65  94 129 168 211 260 316 376
#     4  11  23  42  64  94 131 166 213 261 317 374
#
# _framework density 21.808094000000001
#
# number of rings (size 3 to 8) (size 9 to 14) (size 15 to 20)
#    0.000    1.000    0.000    7.500    0.000    9.000 
#    0.000    0.000    0.000    0.000    0.000    0.000 
#    0.000    0.000    0.000    0.000    0.000    0.000 
#
# Total GULP energy -89621.107426 kJ/mol
# GULP energy per Si atom -5601.319214 kJ/mol
# Density = 2.175846 g / cm^3
# Si number density = 21.808094 Si / 1000 Ang^3
#
#
#
# Elastic Constant Matrix: (Units=GPa)
#
#
# Indices 1 2 3 4 5 6 
#
# 1 150.2176 31.8199 58.1278 -19.7066 26.5663 -1.8480
# 2 31.8199 57.9122 0.0990 3.7229 18.9964 3.2332
# 3 58.1278 0.0990 84.5609 -12.1478 -4.0064 -8.2741
# 4 -19.7066 3.7229 -12.1478 43.0080 1.7009 -0.3140
# 5 26.5663 18.9964 -4.0064 1.7009 50.6397 7.7800
# 6 -1.8480 3.2332 -8.2741 -0.3140 7.7800 48.5500
#
#
#
# Elastic Compliance Matrix: (Units=1/GPa)
#
#
# Indices 1 2 3 4 5 6 
#
# 1 0.012440 -0.005344 -0.008183 0.004065 -0.005354 0.000319
# 2 -0.005344 0.022105 0.002887 -0.003348 -0.005088 -0.000390
# 3 -0.008183 0.002887 0.017967 0.000918 0.004313 0.001873
# 4 0.004065 -0.003348 0.000918 0.025743 -0.001821 0.000993
# 5 -0.005354 -0.005088 0.004313 -0.001821 0.025360 -0.003206
# 6 0.000319 -0.000390 0.001873 0.000993 -0.003206 0.021475
#
#
# Mechanical properties :
#
#
# Convention : Reuss Voigt Hill
#
# Bulk Modulus (GPa) = 32.01846 52.53158 42.27502
# Shear Modulus (GPa) = 31.89191 41.94915 36.92053
#
# Velocity S-wave (km/s) = 3.82827 4.39060 4.11904
# Velocity P-wave (km/s) = 5.85275 7.06000 6.48453
#
# Compressibility (1/GPa) = 0.03123198
#
# Stress axis : x y z
#
# Youngs Moduli (GPa) = 80.38722 45.23925 55.65662
#
# Poissons Ratio (x) = 0.24175 0.45546
# Poissons Ratio (y) = 0.42958 -0.16070
# Poissons Ratio (z) = 0.65784 -0.13062
#
# Static dielectric constant tensor:
#      x y z
#    x 1.793140 -0.010210 0.001140 
#    y -0.010210 1.801250 0.002810 
#    z 0.001140 0.002810 1.760170 
# 
# From -- ./inp_files/127444.got.cif
#   From: 2010.05.17/outbox.cif.g08.bks.cpg/sg2_64_cif.got.tgz:127444.got - 2010.06.03 11:33:40.
