data_PCOD9046686
_publ_section_title
;
Structure prediction by ZEFSAII (Michael W. Deem and Ramdas Pophale) SiO2 
 PCOD9046686
Probable space group: P -1
;
_chemical_formula_sum "Si O2"
_cell_formula_units_Z 16
_cell_length_a 19.561046
_cell_length_b 5.994712
_cell_length_c 8.447362
_cell_angle_alpha 97.489776
_cell_angle_beta 116.246249
_cell_angle_gamma 51.979641
_cell_volume 685.615326
_symmetry_space_group_name_H-M "P -1"
_symmetry_group_IT_number 2
_symmetry_cell_setting 'triclinic'
loop_
_space_group_symop_operation_xyz
x,y,z
-x,-y,-z
loop_
_atom_site_type_symbol
_atom_site_label
_atom_site_fract_x
_atom_site_fract_y
_atom_site_fract_z
Si Si1 0.468287 0.346892 0.349485
Si Si2 0.688200 0.590546 0.983299
Si Si3 0.203904 0.686724 0.601715
Si Si4 0.518268 0.206702 0.937445
Si Si5 0.382190 0.281256 0.550926
Si Si6 0.957666 0.225249 0.751120
Si Si7 0.909241 0.718405 0.313277
Si Si8 0.876846 0.397912 0.017834
O O1 0.500000 0.500000 0.500000
O O2 0.412395 0.278212 0.404340
O O3 0.572582 0.043071 0.383917
O O4 0.387523 0.477097 0.139125
O O5 0.733859 0.490814 0.196571
O O6 0.781227 0.419110 0.944141
O O7 0.624452 0.939788 0.951114
O O8 0.271534 0.527787 0.504258
O O9 0.109011 0.716298 0.462183
O O10 0.166215 0.004294 0.631468
O O11 0.442850 0.335672 0.728110
O O12 0.500000 0.500000 0.000000
O O13 0.500000 0.000000 0.000000
O O14 0.041852 0.229022 0.772962
O O15 0.895676 0.429347 0.857129
O O16 0.019006 0.898447 0.846942
O O17 0.858471 0.616511 0.154214
O O18 0.000000 0.500000 0.500000
#
# Coordination Sequence:
#
# PCOD9046686 Si02
#       8
#     2   2   2   2   2   2   2   2
#     4  10  24  48  69  97 143 186 237 304 374 444
#     4  11  24  44  72 105 138 186 246 301 370 443
#     4  12  23  44  71 104 144 179 246 298 366 433
#     4  11  25  44  72 105 145 187 242 311 372 439
#     4  10  24  43  67 100 137 188 239 295 371 445
#     4  11  24  46  68  97 146 184 233 301 360 439
#     4  12  24  44  70 103 141 190 237 299 368 430
#     4  11  24  45  70  99 142 188 237 292 362 441
#
# _framework density 23.336703
#
# number of rings (size 3 to 8) (size 9 to 14) (size 15 to 20)
#    0.000    1.000    3.750    2.250    5.250    0.000 
#    9.000    0.000    0.000    0.000    0.000    0.000 
#    0.000    0.000    0.000    0.000    0.000    0.000 
#
# Total GULP energy -89157.077773 kJ/mol
# GULP energy per Si atom -5572.317361 kJ/mol
# Density = 2.328359 g / cm^3
# Si number density = 23.336703 Si / 1000 Ang^3
#
#
#
# Elastic Constant Matrix: (Units=GPa)
#
#
# Indices 1 2 3 4 5 6 
#
# 1 9.6562 27.1114 19.3234 0.0277 4.7493 -23.3256
# 2 27.1114 122.9757 26.9657 24.7561 20.6163 -14.5635
# 3 19.3234 26.9657 114.1783 13.5778 22.0171 15.9492
# 4 0.0277 24.7561 13.5778 35.2580 -1.8544 2.9003
# 5 4.7493 20.6163 22.0171 -1.8544 42.5493 2.3852
# 6 -23.3256 -14.5635 15.9492 2.9003 2.3852 34.0806
#
#
#
# Elastic Compliance Matrix: (Units=1/GPa)
#
#
# Indices 1 2 3 4 5 6 
#
# 1 -0.063323 0.006412 0.017260 -0.007298 -0.002604 -0.047874
# 2 0.006412 0.011407 -0.003444 -0.007958 -0.005476 0.011935
# 3 0.017260 -0.003444 0.006476 -0.000936 -0.004080 0.007676
# 4 -0.007298 -0.007958 -0.000936 0.035649 0.007353 -0.011506
# 5 -0.002604 -0.005476 -0.004080 0.007353 0.029152 -0.004879
# 6 -0.047874 0.011935 0.007676 -0.011506 -0.004879 -0.000595
#
#
# Mechanical properties :
#
#
# Convention : Reuss Voigt Hill
#
# Bulk Modulus (GPa) = -200.62116 43.73456 -78.44330
# Shear Modulus (GPa) = -214.12926 33.93822 -90.09552
#
# Velocity S-wave (km/s) = -9.58935 3.81765 -6.22018
# Velocity P-wave (km/s) = 14.44861 6.18174 9.23440
#
# Compressibility (1/GPa) = -0.00498452
#
# Stress axis : x y z
#
# Youngs Moduli (GPa) = -15.79212 87.66718 154.40593
#
# Poissons Ratio (x) = -0.56210 -2.66499
# Poissons Ratio (y) = 0.10126 0.53176
# Poissons Ratio (z) = 0.27257 0.30192
#
# Static dielectric constant tensor:
#      x y z
#    x 2.067980 0.013140 -0.049350 
#    y 0.013140 1.933770 -0.005450 
#    z -0.049350 -0.005450 1.951890 
# 
# From -- ./inp_files/340493.got.cif
#   From: 2010.05.17/outbox.cif.g08.bks.cpg/sg2_171_cif.got.tgz:340493.got - 2010.06.03 11:33:40.
