data_PCOD9046953
_publ_section_title
;
Structure prediction by ZEFSAII (Michael W. Deem and Ramdas Pophale) SiO2 
 PCOD9046953
Probable space group: P -1
;
_chemical_formula_sum "Si O2"
_cell_formula_units_Z 16
_cell_length_a 7.714563
_cell_length_b 8.097154
_cell_length_c 15.674012
_cell_angle_alpha 61.315735
_cell_angle_beta 68.273384
_cell_angle_gamma 54.562315
_cell_volume 694.010175
_symmetry_space_group_name_H-M "P -1"
_symmetry_group_IT_number 2
_symmetry_cell_setting 'triclinic'
loop_
_space_group_symop_operation_xyz
x,y,z
-x,-y,-z
loop_
_atom_site_type_symbol
_atom_site_label
_atom_site_fract_x
_atom_site_fract_y
_atom_site_fract_z
Si Si1 0.962424 0.319004 0.389007
Si Si2 0.753704 0.056223 0.435574
Si Si3 0.034089 0.937117 0.117230
Si Si4 0.240965 0.493715 0.200402
Si Si5 0.842424 0.426009 0.007441
Si Si6 0.574486 0.040589 0.222494
Si Si7 0.452680 0.857574 0.980381
Si Si8 0.354226 0.234526 0.578357
O O1 0.796922 0.518779 0.429125
O O2 0.118276 0.125567 0.470936
O O3 0.090278 0.411530 0.290106
O O4 0.853619 0.214476 0.374751
O O5 0.754867 0.912330 0.391176
O O6 0.512461 0.200579 0.480229
O O7 0.208048 0.718668 0.189264
O O8 0.201870 0.926177 0.013496
O O9 0.926862 0.191959 0.090703
O O10 0.824199 0.914539 0.182883
O O11 0.474402 0.282939 0.218141
O O12 0.160576 0.567517 0.097819
O O13 0.599758 0.602709 0.031425
O O14 0.000000 0.500000 0.000000
O O15 0.470182 0.096583 0.134638
O O16 0.519968 0.891803 0.328106
O O17 0.500000 0.000000 0.000000
#
# Coordination Sequence:
#
# PCOD9046953 Si02
#       8
#     2   2   2   2   2   2   2   2
#     4  11  22  43  69  96 131 173 218 271 330 392
#     4  10  24  43  69  98 132 171 219 272 334 395
#     4  12  23  41  65  87 123 177 211 258 329 378
#     4  11  23  40  63  92 128 166 219 267 317 390
#     4  11  23  38  62  89 128 167 212 266 318 379
#     4  11  23  40  64  93 128 173 217 268 323 391
#     4  11  23  40  62  94 130 171 221 269 323 385
#     4  11  22  43  70  97 132 174 217 268 337 395
#
# _framework density 23.054414999999999
#
# number of rings (size 3 to 8) (size 9 to 14) (size 15 to 20)
#    0.000    1.000    3.750    3.750    0.000    3.000 
#    0.000    1.250    0.000    0.000    0.000    0.000 
#    0.000    0.000    0.000    0.000    0.000    0.000 
#
# Total GULP energy -89100.268076 kJ/mol
# GULP energy per Si atom -5568.766755 kJ/mol
# Density = 2.300194 g / cm^3
# Si number density = 23.054415 Si / 1000 Ang^3
#
#
#
# Elastic Constant Matrix: (Units=GPa)
#
#
# Indices 1 2 3 4 5 6 
#
# 1 47.6932 22.2560 2.0893 -1.1000 -4.2844 4.7773
# 2 22.2560 151.4887 19.3737 -14.7709 -11.0662 -17.9677
# 3 2.0893 19.3737 64.9354 -10.5944 -19.9764 3.5839
# 4 -1.1000 -14.7709 -10.5944 20.0915 0.4580 -6.9739
# 5 -4.2844 -11.0662 -19.9764 0.4580 17.0134 -2.9880
# 6 4.7773 -17.9677 3.5839 -6.9739 -2.9880 39.5384
#
#
#
# Elastic Compliance Matrix: (Units=1/GPa)
#
#
# Indices 1 2 3 4 5 6 
#
# 1 0.023723 -0.004268 0.001659 -0.002843 0.004321 -0.005131
# 2 -0.004268 0.009337 0.000451 0.009085 0.006480 0.006810
# 3 0.001659 0.000451 0.027858 0.015289 0.033485 0.002707
# 4 -0.002843 0.009085 0.015289 0.069785 0.024293 0.017231
# 5 0.004321 0.006480 0.033485 0.024293 0.104779 0.011591
# 6 -0.005131 0.006810 0.002707 0.017231 0.011591 0.032676
#
#
# Mechanical properties :
#
#
# Convention : Reuss Voigt Hill
#
# Bulk Modulus (GPa) = 17.66691 39.06169 28.36430
# Shear Modulus (GPa) = 17.16201 30.02187 23.59194
#
# Velocity S-wave (km/s) = 2.73135 3.61254 3.20240
# Velocity P-wave (km/s) = 4.19843 5.86350 5.09939
#
# Compressibility (1/GPa) = 0.05660301
#
# Stress axis : x y z
#
# Youngs Moduli (GPa) = 42.15375 107.09687 35.89620
#
# Poissons Ratio (x) = 0.45704 -0.05953
# Poissons Ratio (y) = 0.17989 -0.01620
# Poissons Ratio (z) = -0.06991 -0.04835
#
# Static dielectric constant tensor:
#      x y z
#    x 2.148320 -0.141310 0.053160 
#    y -0.141310 2.101750 0.040050 
#    z 0.053160 0.040050 1.886460 
# 
# From -- ./inp_files/556831.got.cif
#   From: 2010.05.17/outbox.cif.g08.bks.cpg/sg2_279_cif.got.tgz:556831.got - 2010.06.03 11:33:40.
