data_PCOD9046940
_publ_section_title
;
Structure prediction by ZEFSAII (Michael W. Deem and Ramdas Pophale) SiO2 
 PCOD9046940
Probable space group: P -1
;
_chemical_formula_sum "Si O2"
_cell_formula_units_Z 16
_cell_length_a 16.516108
_cell_length_b 9.987436
_cell_length_c 8.310169
_cell_angle_alpha 108.752734
_cell_angle_beta 67.312622
_cell_angle_gamma 147.651421
_cell_volume 676.688195
_symmetry_space_group_name_H-M "P -1"
_symmetry_group_IT_number 2
_symmetry_cell_setting 'triclinic'
loop_
_space_group_symop_operation_xyz
x,y,z
-x,-y,-z
loop_
_atom_site_type_symbol
_atom_site_label
_atom_site_fract_x
_atom_site_fract_y
_atom_site_fract_z
Si Si1 0.487438 0.031401 0.759631
Si Si2 0.183091 0.947376 0.647305
Si Si3 0.071604 0.252945 0.047602
Si Si4 0.542053 0.584940 0.186245
Si Si5 0.037575 0.236506 0.711423
Si Si6 0.237495 0.701805 0.542173
Si Si7 0.244197 0.256626 0.452620
Si Si8 0.566654 0.300157 0.102311
O O1 0.659997 0.257486 0.640218
O O2 0.358219 0.883869 0.667776
O O3 0.465041 0.846576 0.783358
O O4 0.469909 0.117411 0.952252
O O5 0.291662 0.128781 0.788735
O O6 0.245350 0.129555 0.528263
O O7 0.195759 0.799446 0.543355
O O8 0.010954 0.769963 0.757407
O O9 0.035947 0.278748 0.913614
O O10 0.255141 0.480403 0.003040
O O11 0.000000 0.000000 0.000000
O O12 0.409821 0.502195 0.340475
O O13 0.536280 0.422087 0.208229
O O14 0.500000 0.500000 0.000000
O O15 0.088094 0.425606 0.623386
O O16 0.170744 0.293849 0.611177
O O17 0.877073 0.951043 0.672886
#
# Coordination Sequence:
#
# PCOD9046940 Si02
#       8
#     2   2   2   2   2   2   2   2
#     4  10  24  43  69  95 133 175 222 267 338 391
#     4  12  26  43  68 100 133 175 220 275 333 387
#     4  12  23  45  69  96 135 177 221 271 333 393
#     4  12  25  41  70 100 134 170 226 279 325 387
#     4  11  25  45  68  98 135 178 221 268 333 398
#     4  11  25  44  68  98 134 171 220 277 328 394
#     4  11  26  43  68  99 133 176 225 271 327 397
#     4  11  23  44  68  97 131 179 220 273 327 398
#
# _framework density 23.644566999999999
#
# number of rings (size 3 to 8) (size 9 to 14) (size 15 to 20)
#    0.000    0.750    3.750    2.625    7.000    1.000 
#    4.500    0.000    0.000    0.000    0.000    0.000 
#    0.000    0.000    0.000    0.000    0.000    0.000 
#
# Total GULP energy -89675.494086 kJ/mol
# GULP energy per Si atom -5604.718380 kJ/mol
# Density = 2.359075 g / cm^3
# Si number density = 23.644567 Si / 1000 Ang^3
#
#
#
# Elastic Constant Matrix: (Units=GPa)
#
#
# Indices 1 2 3 4 5 6 
#
# 1 68.3759 1.2711 16.2153 -2.0077 -7.2295 -12.7797
# 2 1.2711 48.3515 -6.3857 -9.1658 -0.8379 1.7731
# 3 16.2153 -6.3857 63.2461 -10.9080 1.8594 7.3297
# 4 -2.0077 -9.1658 -10.9080 34.5762 3.7641 -2.6755
# 5 -7.2295 -0.8379 1.8594 3.7641 31.1995 -1.2841
# 6 -12.7797 1.7731 7.3297 -2.6755 -1.2841 51.3378
#
#
#
# Elastic Compliance Matrix: (Units=1/GPa)
#
#
# Indices 1 2 3 4 5 6 
#
# 1 0.017416 -0.001546 -0.005585 -0.001266 0.004695 0.005238
# 2 -0.001546 0.022669 0.004119 0.007211 -0.000923 -0.001403
# 3 -0.005585 0.004119 0.019422 0.006947 -0.003345 -0.004027
# 4 -0.001266 0.007211 0.006947 0.033452 -0.004547 0.000073
# 5 0.004695 -0.000923 -0.003345 -0.004547 0.033957 0.002291
# 6 0.005238 -0.001403 -0.004027 0.000073 0.002291 0.021467
#
#
# Mechanical properties :
#
#
# Convention : Reuss Voigt Hill
#
# Bulk Modulus (GPa) = 18.69773 22.46387 20.58080
# Shear Modulus (GPa) = 29.02987 34.68087 31.85537
#
# Velocity S-wave (km/s) = 3.50774 3.83398 3.67449
# Velocity P-wave (km/s) = 4.93261 5.39634 5.16968
#
# Compressibility (1/GPa) = 0.05348243
#
# Stress axis : x y z
#
# Youngs Moduli (GPa) = 57.41696 44.11346 51.48749
#
# Poissons Ratio (x) = 0.06821 0.28755
# Poissons Ratio (y) = 0.08878 -0.21206
# Poissons Ratio (z) = 0.32067 -0.18168
#
# Static dielectric constant tensor:
#      x y z
#    x 1.884760 0.000700 0.034020 
#    y 0.000700 1.872360 0.020290 
#    z 0.034020 0.020290 1.854740 
# 
# From -- ./inp_files/206244.got.cif
#   From: 2010.05.17/outbox.cif.g08.bks.cpg/sg2_104_cif.got.tgz:206244.got - 2010.06.03 11:33:40.
