data_PCOD9046205
_publ_section_title
;
Structure prediction by ZEFSAII (Michael W. Deem and Ramdas Pophale) SiO2 
 PCOD9046205
Probable space group: P -1
;
_chemical_formula_sum "Si O2"
_cell_formula_units_Z 14
_cell_length_a 18.584654
_cell_length_b 4.993206
_cell_length_c 12.047264
_cell_angle_alpha 80.354943
_cell_angle_beta 28.300734
_cell_angle_gamma 81.178618
_cell_volume 522.486745
_symmetry_space_group_name_H-M "P -1"
_symmetry_group_IT_number 2
_symmetry_cell_setting 'triclinic'
loop_
_space_group_symop_operation_xyz
x,y,z
-x,-y,-z
loop_
_atom_site_type_symbol
_atom_site_label
_atom_site_fract_x
_atom_site_fract_y
_atom_site_fract_z
Si Si1 0.848365 0.731968 0.656628
Si Si2 0.365387 0.005167 0.913309
Si Si3 0.363005 0.224058 0.680288
Si Si4 0.793399 0.245456 0.190046
Si Si5 0.325493 0.552754 0.269357
Si Si6 0.293548 0.001026 0.464477
Si Si7 0.115692 0.646260 0.171890
O O1 0.769461 0.496448 0.709239
O O2 0.911116 0.613298 0.695761
O O3 0.982003 0.841306 0.390165
O O4 0.715240 0.928851 0.866327
O O5 0.341910 0.246153 0.839116
O O6 0.543441 0.975490 0.695414
O O7 0.275693 0.769819 0.987301
O O8 0.345948 0.528243 0.634714
O O9 0.500000 0.000000 0.500000
O O10 0.235778 0.048863 0.804677
O O11 0.818969 0.157317 0.288321
O O12 0.894897 0.375610 0.945028
O O13 0.313595 0.822529 0.339374
O O14 0.264804 0.309140 0.447152
O O15 0.500000 0.500000 0.000000
#
# Coordination Sequence:
#
# PCOD9046205 Si02
#       7
#     2   2   2   2   2   2   2
#     4  11  23  44  67  94 134 172 236 268 336 392
#     4  11  22  37  66  98 133 165 217 280 335 396
#     4  11  21  34  62  98 135 171 208 274 344 386
#     4  11  23  42  62 100 137 169 222 273 337 400
#     4  12  26  45  67  99 133 181 220 276 325 402
#     4  12  26  41  69  99 138 175 219 270 342 396
#     4  10  24  42  68  99 127 181 216 289 330 395
#
# _framework density 26.794934999999999
#
# number of rings (size 3 to 8) (size 9 to 14) (size 15 to 20)
#    0.000    0.857    4.286    3.000    2.000    0.000 
#    0.000    1.429    0.000    0.000    0.000    0.000 
#    0.000    0.000    0.000    0.000    0.000    0.000 
#
# Total GULP energy -78177.274290 kJ/mol
# GULP energy per Si atom -5584.091021 kJ/mol
# Density = 2.673395 g / cm^3
# Si number density = 26.794935 Si / 1000 Ang^3
#
#
#
# Elastic Constant Matrix: (Units=GPa)
#
#
# Indices 1 2 3 4 5 6 
#
# 1 97.9399 17.3421 39.1416 -6.6888 17.7223 8.1123
# 2 17.3421 104.0253 15.8694 -16.0704 -2.5032 14.2906
# 3 39.1416 15.8694 105.2404 7.1885 32.0122 0.4279
# 4 -6.6888 -16.0704 7.1885 19.4334 0.2749 15.6774
# 5 17.7223 -2.5032 32.0122 0.2749 55.1440 -12.1684
# 6 8.1123 14.2906 0.4279 15.6774 -12.1684 52.1697
#
#
#
# Elastic Compliance Matrix: (Units=1/GPa)
#
#
# Indices 1 2 3 4 5 6 
#
# 1 0.014389 0.001781 -0.005677 0.014923 -0.003061 -0.007877
# 2 0.001781 0.015486 -0.004667 0.024739 0.000092 -0.011893
# 3 -0.005677 -0.004667 0.015170 -0.015665 -0.005933 0.005360
# 4 0.014923 0.024739 -0.015665 0.120355 -0.005418 -0.046400
# 5 -0.003061 0.000092 -0.005933 -0.005418 0.024314 0.007799
# 6 -0.007877 -0.011893 0.005360 -0.046400 0.007799 0.039370
#
#
# Mechanical properties :
#
#
# Convention : Reuss Voigt Hill
#
# Bulk Modulus (GPa) = 35.81640 50.21242 43.01441
# Shear Modulus (GPa) = 19.56824 41.00626 30.28725
#
# Velocity S-wave (km/s) = 2.70533 3.91624 3.36569
# Velocity P-wave (km/s) = 4.81189 6.26334 5.58497
#
# Compressibility (1/GPa) = 0.02792017
#
# Stress axis : x y z
#
# Youngs Moduli (GPa) = 69.49703 64.57459 65.91960
#
# Poissons Ratio (x) = -0.11501 0.37419
# Poissons Ratio (y) = -0.12378 0.30765
# Poissons Ratio (z) = 0.39450 0.30137
#
# Static dielectric constant tensor:
#      x y z
#    x 2.105800 -0.101680 -0.006340 
#    y -0.101680 2.157280 0.039290 
#    z -0.006340 0.039290 2.299170 
# 
# From -- ./inp_files/459474.got.cif
#   From: 2010.05.17/outbox.cif.g08.bks.cpg/sg2_230_cif.got.tgz:459474.got - 2010.06.03 11:33:40.
