data_PCOD9046243
_publ_section_title
;
Structure prediction by ZEFSAII (Michael W. Deem and Ramdas Pophale) SiO2 
 PCOD9046243
Probable space group: P -1
;
_chemical_formula_sum "Si O2"
_cell_formula_units_Z 16
_cell_length_a 11.560959
_cell_length_b 7.386342
_cell_length_c 11.413354
_cell_angle_alpha 97.931157
_cell_angle_beta 117.206922
_cell_angle_gamma 120.912555
_cell_volume 648.828890
_symmetry_space_group_name_H-M "P -1"
_symmetry_group_IT_number 2
_symmetry_cell_setting 'triclinic'
loop_
_space_group_symop_operation_xyz
x,y,z
-x,-y,-z
loop_
_atom_site_type_symbol
_atom_site_label
_atom_site_fract_x
_atom_site_fract_y
_atom_site_fract_z
Si Si1 0.005244 0.226151 0.017829
Si Si2 0.093382 0.703798 0.789484
Si Si3 0.583792 0.994804 0.158623
Si Si4 0.828689 0.459147 0.463638
Si Si5 0.619280 0.548153 0.954967
Si Si6 0.735138 0.763912 0.524237
Si Si7 0.038558 0.268702 0.782744
Si Si8 0.358297 0.463223 0.278969
O O1 0.204824 0.450696 0.161493
O O2 0.895400 0.211636 0.067844
O O3 0.958734 0.252274 0.869730
O O4 0.000000 0.000000 0.000000
O O5 0.236559 0.930175 0.796708
O O6 0.132071 0.523831 0.789665
O O7 0.898146 0.530621 0.636420
O O8 0.661291 0.201479 0.312706
O O9 0.452659 0.724702 0.122223
O O10 0.500000 0.000000 0.000000
O O11 0.779967 0.631665 0.449211
O O12 0.000000 0.500000 0.500000
O O13 0.616668 0.641565 0.835280
O O14 0.500000 0.500000 0.000000
O O15 0.812314 0.728313 0.107776
O O16 0.555481 0.700104 0.410881
O O17 0.709185 0.681927 0.642437
O O18 0.895722 0.046752 0.617805
#
# Coordination Sequence:
#
# PCOD9046243 Si02
#       8
#     2   2   2   2   2   2   2   2
#     4  11  21  41  68  97 132 177 220 275 333 405
#     4  11  23  43  66  97 136 174 223 274 339 401
#     4  11  25  46  63  96 135 176 227 277 335 400
#     4  10  24  42  69  95 132 180 222 274 342 398
#     4  11  27  42  68 100 135 178 229 277 335 406
#     4  11  23  46  71  99 138 177 225 284 340 409
#     4  11  24  42  67 102 133 173 225 274 341 401
#     4  10  24  43  68 102 130 175 232 271 343 398
#
# _framework density 24.659815999999999
#
# number of rings (size 3 to 8) (size 9 to 14) (size 15 to 20)
#    0.000    1.250    3.750    0.375   10.500    0.000 
#    0.000    4.375    0.000    0.000    0.000    0.000 
#    0.000    0.000    0.000    0.000    0.000    0.000 
#
# Total GULP energy -89117.723571 kJ/mol
# GULP energy per Si atom -5569.857723 kJ/mol
# Density = 2.460369 g / cm^3
# Si number density = 24.659816 Si / 1000 Ang^3
#
#
#
# Elastic Constant Matrix: (Units=GPa)
#
#
# Indices 1 2 3 4 5 6 
#
# 1 76.7469 22.9907 19.4960 17.1808 -13.4818 13.5058
# 2 22.9907 73.7023 17.6841 22.7397 -2.6460 5.2646
# 3 19.4960 17.6841 113.8328 25.5461 13.1449 -3.0756
# 4 17.1808 22.7397 25.5461 46.3981 9.0963 -0.1901
# 5 -13.4818 -2.6460 13.1449 9.0963 37.3784 -5.2738
# 6 13.5058 5.2646 -3.0756 -0.1901 -5.2738 30.2545
#
#
#
# Elastic Compliance Matrix: (Units=1/GPa)
#
#
# Indices 1 2 3 4 5 6 
#
# 1 0.018231 -0.002593 -0.002527 -0.005628 0.007714 -0.006635
# 2 -0.002593 0.017035 -0.000842 -0.007350 0.002134 -0.001566
# 3 -0.002527 -0.000842 0.010662 -0.003819 -0.003549 0.001716
# 4 -0.005628 -0.007350 -0.003819 0.031008 -0.008453 0.002125
# 5 0.007714 0.002134 -0.003549 -0.008453 0.033212 0.001560
# 6 -0.006635 -0.001566 0.001716 0.002125 0.001560 0.036747
#
#
# Mechanical properties :
#
#
# Convention : Reuss Voigt Hill
#
# Bulk Modulus (GPa) = 29.40741 42.73596 36.07168
# Shear Modulus (GPa) = 29.38528 36.41361 32.89944
#
# Velocity S-wave (km/s) = 3.45574 3.84687 3.65654
# Velocity P-wave (km/s) = 5.27958 6.09090 5.69969
#
# Compressibility (1/GPa) = 0.03400503
#
# Stress axis : x y z
#
# Youngs Moduli (GPa) = 54.85098 58.70166 93.79525
#
# Poissons Ratio (x) = 0.15224 0.23697
# Poissons Ratio (y) = 0.14225 0.07893
# Poissons Ratio (z) = 0.13858 0.04940
#
# Static dielectric constant tensor:
#      x y z
#    x 2.048120 -0.028410 -0.033400 
#    y -0.028410 1.988860 -0.053800 
#    z -0.033400 -0.053800 2.075570 
# 
# From -- ./inp_files/379435.got.cif
#   From: 2010.05.17/outbox.cif.g08.bks.cpg/sg2_190_cif.got.tgz:379435.got - 2010.06.03 11:33:40.
