data_PCOD9046199
_publ_section_title
;
Structure prediction by ZEFSAII (Michael W. Deem and Ramdas Pophale) SiO2 
 PCOD9046199
Probable space group: P -1
;
_chemical_formula_sum "Si O2"
_cell_formula_units_Z 13
_cell_length_a 29.589529
_cell_length_b 31.007205
_cell_length_c 13.045971
_cell_angle_alpha 18.140758
_cell_angle_beta 17.401563
_cell_angle_gamma 8.958319
_cell_volume 549.737915
_symmetry_space_group_name_H-M "P -1"
_symmetry_group_IT_number 2
_symmetry_cell_setting 'triclinic'
loop_
_space_group_symop_operation_xyz
x,y,z
-x,-y,-z
loop_
_atom_site_type_symbol
_atom_site_label
_atom_site_fract_x
_atom_site_fract_y
_atom_site_fract_z
Si Si1 0.245768 0.912066 0.623792
Si Si2 0.653961 0.683378 0.631415
Si Si3 0.714120 0.496596 0.368890
Si Si4 0.677212 0.835121 0.594716
Si Si5 0.303746 0.292528 0.750089
Si Si6 0.351622 0.629920 0.400646
Si Si7 0.000000 0.000000 0.500000
O O1 0.438062 0.708048 0.570133
O O2 0.499695 0.744013 0.538967
O O3 0.040413 0.210037 0.365584
O O4 0.000000 0.000000 0.000000
O O5 0.746978 0.637016 0.417986
O O6 0.969623 0.398552 0.649507
O O7 0.486520 0.942486 0.465688
O O8 0.427124 0.733851 0.004831
O O9 0.700272 0.388710 0.557140
O O10 0.693504 0.662413 0.984741
O O11 0.500000 0.000000 0.500000
O O12 0.000000 0.500000 0.000000
O O13 0.500000 0.000000 0.000000
O O14 0.649137 0.315506 0.510652
O O15 0.055142 0.858519 0.597099
#
# Coordination Sequence:
#
# PCOD9046199 Si02
#       7
#     2   2   2   2   2   2   1
#     4  12  26  46  76 114 154 194 249 315 387 444
#     4  12  26  47  72 106 142 191 253 298 360 451
#     4  12  26  47  74 112 155 195 248 308 380 455
#     4  12  28  47  72 105 152 195 246 304 373 435
#     4  12  25  45  75 103 145 195 243 302 370 442
#     4  11  25  44  74  99 144 187 250 294 367 425
#     4  10  24  42  68  98 136 184 242 292 360 416
#
# _framework density 23.647632999999999
#
# number of rings (size 3 to 8) (size 9 to 14) (size 15 to 20)
#    0.000    0.308    0.000    9.231    6.462    2.462 
#    0.000    0.000    0.000    0.000    0.000    0.000 
#    0.000    0.000    0.000    0.000    0.000    0.000 
#
# Total GULP energy -72633.728623 kJ/mol
# GULP energy per Si atom -5587.209894 kJ/mol
# Density = 2.359381 g / cm^3
# Si number density = 23.647633 Si / 1000 Ang^3
#
#
#
# Elastic Constant Matrix: (Units=GPa)
#
#
# Indices 1 2 3 4 5 6 
#
# 1 41.9335 -66.9777 -2.6511 -70.7124 -39.4619 -35.2370
# 2 -66.9777 30.1105 -60.0516 -90.4291 -28.9750 -43.3985
# 3 -2.6511 -60.0516 70.1536 -41.4762 -21.3301 -25.2468
# 4 -70.7124 -90.4291 -41.4762 -11.0661 -25.1442 -31.3656
# 5 -39.4619 -28.9750 -21.3301 -25.1442 25.7415 -11.6862
# 6 -35.2370 -43.3985 -25.2468 -31.3656 -11.6862 26.8924
#
#
#
# Elastic Compliance Matrix: (Units=1/GPa)
#
#
# Indices 1 2 3 4 5 6 
#
# 1 0.009760 -0.003857 -0.005787 -0.003678 0.000993 -0.002728
# 2 -0.003857 0.005528 0.000092 -0.003822 -0.004457 -0.002442
# 3 -0.005787 0.000092 0.011796 -0.002748 -0.001845 -0.000368
# 4 -0.003678 -0.003822 -0.002748 0.008580 -0.006795 -0.006514
# 5 0.000993 -0.004457 -0.001845 -0.006795 0.025074 -0.004653
# 6 -0.002728 -0.002442 -0.000368 -0.006514 -0.004653 0.019705
#
#
# Mechanical properties :
#
#
# Convention : Reuss Voigt Hill
#
# Bulk Modulus (GPa) = 125.32697 -13.01813 56.15442
# Shear Modulus (GPa) = 48.91996 26.43877 37.67937
#
# Velocity S-wave (km/s) = 4.55324 3.34732 3.99603
# Velocity P-wave (km/s) = 8.98640 3.06960 6.71483
#
# Compressibility (1/GPa) = 0.00797913
#
# Stress axis : x y z
#
# Youngs Moduli (GPa) = 102.46155 180.90955 84.77297
#
# Poissons Ratio (x) = 0.69776 0.49062
# Poissons Ratio (y) = 0.39519 -0.00781
# Poissons Ratio (z) = 0.59299 -0.01668
#
# Static dielectric constant tensor:
#      x y z
#    x -2.013640 2.666990 0.371810 
#    y 2.666990 0.035720 -0.231140 
#    z 0.371810 -0.231140 1.931850 
# 
# From -- ./inp_files/477182.got.cif
#   From: 2010.05.17/outbox.cif.g08.bks.cpg/sg2_239_cif.got.tgz:477182.got - 2010.06.03 11:33:40.
