data_PCOD9046693
_publ_section_title
;
Structure prediction by ZEFSAII (Michael W. Deem and Ramdas Pophale) SiO2 
 PCOD9046693
Probable space group: P -1
;
_chemical_formula_sum "Si O2"
_cell_formula_units_Z 13
_cell_length_a 8.812250
_cell_length_b 18.732184
_cell_length_c 6.516362
_cell_angle_alpha 57.979615
_cell_angle_beta 73.127729
_cell_angle_gamma 35.885440
_cell_volume 513.153721
_symmetry_space_group_name_H-M "P -1"
_symmetry_group_IT_number 2
_symmetry_cell_setting 'triclinic'
loop_
_space_group_symop_operation_xyz
x,y,z
-x,-y,-z
loop_
_atom_site_type_symbol
_atom_site_label
_atom_site_fract_x
_atom_site_fract_y
_atom_site_fract_z
Si Si1 0.776328 0.919215 0.424688
Si Si2 0.752259 0.716400 0.236198
Si Si3 0.530874 0.367370 0.886670
Si Si4 0.772688 0.566990 0.773092
Si Si5 0.621815 0.382008 0.358095
Si Si6 0.768222 0.103874 0.099611
Si Si7 0.500000 0.000000 0.000000
O O1 0.056483 0.750595 0.603812
O O2 0.500000 0.000000 0.500000
O O3 0.793669 0.007288 0.366530
O O4 0.717542 0.944297 0.167368
O O5 0.767099 0.661192 0.531971
O O6 0.011073 0.581027 0.207978
O O7 0.506539 0.786605 0.090019
O O8 0.707030 0.833261 0.116894
O O9 0.554494 0.378243 0.619346
O O10 0.520979 0.465852 0.833059
O O11 0.253931 0.439443 0.964013
O O12 0.753901 0.197910 0.080581
O O13 0.492236 0.642722 0.701025
O O14 0.000000 0.000000 0.000000
#
# Coordination Sequence:
#
# PCOD9046693 Si02
#       7
#     2   2   2   2   2   2   1
#     4  11  26  45  70  99 136 176 225 280 338 402
#     4  10  24  43  67 101 136 170 226 286 324 406
#     4  11  25  41  72  95 134 184 221 276 342 394
#     4  11  24  45  67 100 137 174 226 277 336 401
#     4  11  25  46  66 101 134 175 230 278 329 413
#     4  11  22  47  66  98 138 174 223 282 332 402
#     4  10  26  42  64  98 136 170 216 278 338 386
#
# _framework density 25.333538999999998
#
# number of rings (size 3 to 8) (size 9 to 14) (size 15 to 20)
#    0.000    1.231    3.077    0.462   10.769    1.846 
#    0.000    1.538    0.000    0.000    0.000    0.000 
#    0.000    0.000    0.000    0.000    0.000    0.000 
#
# Total GULP energy -72408.229816 kJ/mol
# GULP energy per Si atom -5569.863832 kJ/mol
# Density = 2.527588 g / cm^3
# Si number density = 25.333539 Si / 1000 Ang^3
#
#
#
# Elastic Constant Matrix: (Units=GPa)
#
#
# Indices 1 2 3 4 5 6 
#
# 1 64.9827 52.4694 19.6088 -17.9291 -9.1242 25.9210
# 2 52.4694 173.2603 40.0512 -4.9980 -31.6179 7.2542
# 3 19.6088 40.0512 59.6155 -0.5740 -19.3978 13.7925
# 4 -17.9291 -4.9980 -0.5740 45.7572 -6.0329 -14.1471
# 5 -9.1242 -31.6179 -19.3978 -6.0329 44.9626 -14.8178
# 6 25.9210 7.2542 13.7925 -14.1471 -14.8178 57.7064
#
#
#
# Elastic Compliance Matrix: (Units=1/GPa)
#
#
# Indices 1 2 3 4 5 6 
#
# 1 0.027892 -0.007875 -0.002594 0.006403 -0.003516 -0.010252
# 2 -0.007875 0.009680 -0.003222 0.000004 0.005285 0.004449
# 3 -0.002594 -0.003222 0.022264 -0.001100 0.005834 -0.002523
# 4 0.006403 0.000004 -0.001100 0.026908 0.006282 0.005596
# 5 -0.003516 0.005285 0.005834 0.006282 0.031629 0.009183
# 6 -0.010252 0.004449 -0.002523 0.005596 0.009183 0.025708
#
#
# Mechanical properties :
#
#
# Convention : Reuss Voigt Hill
#
# Bulk Modulus (GPa) = 30.81447 58.01304 44.41376
# Shear Modulus (GPa) = 27.43008 42.06721 34.74864
#
# Velocity S-wave (km/s) = 3.29410 4.07939 3.70759
# Velocity P-wave (km/s) = 5.16314 6.71848 5.99149
#
# Compressibility (1/GPa) = 0.03245229
#
# Stress axis : x y z
#
# Youngs Moduli (GPa) = 35.85215 103.30987 44.91652
#
# Poissons Ratio (x) = 0.81354 0.11653
# Poissons Ratio (y) = 0.28233 0.14474
# Poissons Ratio (z) = 0.09302 0.33290
#
# Static dielectric constant tensor:
#      x y z
#    x 1.928740 0.004180 -0.019970 
#    y 0.004180 2.003010 0.089550 
#    z -0.019970 0.089550 2.097670 
# 
# From -- ./inp_files/219275.got.cif
#   From: 2010.05.17/outbox.cif.g08.bks.cpg/sg2_110_cif.got.tgz:219275.got - 2010.06.03 11:33:40.
