data_PCOD9046832
_publ_section_title
;
Structure prediction by ZEFSAII (Michael W. Deem and Ramdas Pophale) SiO2 
 PCOD9046832
Probable space group: P -1
;
_chemical_formula_sum "Si O2"
_cell_formula_units_Z 14
_cell_length_a 16.806872
_cell_length_b 5.301656
_cell_length_c 30.549341
_cell_angle_alpha 49.068792
_cell_angle_beta 164.328787
_cell_angle_gamma 129.619249
_cell_volume 555.184224
_symmetry_space_group_name_H-M "P -1"
_symmetry_group_IT_number 2
_symmetry_cell_setting 'triclinic'
loop_
_space_group_symop_operation_xyz
x,y,z
-x,-y,-z
loop_
_atom_site_type_symbol
_atom_site_label
_atom_site_fract_x
_atom_site_fract_y
_atom_site_fract_z
Si Si1 0.871042 0.807027 0.247266
Si Si2 0.491130 0.158867 0.827178
Si Si3 0.791847 0.805852 0.946285
Si Si4 0.070915 0.125722 0.474566
Si Si5 0.333470 0.143453 0.956043
Si Si6 0.400361 0.206023 0.512361
Si Si7 0.610487 0.467275 0.686645
O O1 0.954391 0.478598 0.354903
O O2 0.921834 0.826258 0.219430
O O3 0.061538 0.107456 0.335195
O O4 0.532178 0.855749 0.073346
O O5 0.135296 0.112760 0.639077
O O6 0.571437 0.541561 0.836368
O O7 0.648875 0.948236 0.973072
O O8 0.636796 0.033379 0.873830
O O9 0.043805 0.586678 0.127789
O O10 0.000000 0.000000 0.000000
O O11 0.421461 0.213750 0.647160
O O12 0.000000 0.000000 0.500000
O O13 0.500000 0.500000 0.000000
O O14 0.500000 0.500000 0.500000
O O15 0.467157 0.349057 0.578862
O O16 0.556244 0.851726 0.626643
#
# Coordination Sequence:
#
# PCOD9046832 Si02
#       7
#     2   2   2   2   2   2   2
#     4  10  24  43  68 108 143 189 238 303 363 422
#     4  12  26  46  78 112 139 198 247 297 370 427
#     4  12  28  50  73 107 151 190 245 300 359 432
#     4  11  24  49  76 105 144 190 245 300 360 432
#     4  11  23  42  72 104 151 178 240 304 361 433
#     4  11  25  45  71 100 144 187 240 287 360 436
#     4  11  26  48  70 107 144 191 237 296 362 429
#
# _framework density 25.216854999999999
#
# number of rings (size 3 to 8) (size 9 to 14) (size 15 to 20)
#    0.000    0.857    1.429    4.286    6.000    4.571 
#    0.000    6.429    0.000    0.000    0.000    0.000 
#    0.000    0.000    0.000    0.000    0.000    0.000 
#
# Total GULP energy -78286.799737 kJ/mol
# GULP energy per Si atom -5591.914267 kJ/mol
# Density = 2.515946 g / cm^3
# Si number density = 25.216855 Si / 1000 Ang^3
#
#
#
# Elastic Constant Matrix: (Units=GPa)
#
#
# Indices 1 2 3 4 5 6 
#
# 1 150.0378 50.2098 7.4380 -8.4242 -26.7237 4.5916
# 2 50.2098 144.3340 17.5708 10.9054 -17.0852 13.9666
# 3 7.4380 17.5708 95.7876 8.3054 -8.2244 -8.1335
# 4 -8.4242 10.9054 8.3054 44.0404 1.0545 3.4338
# 5 -26.7237 -17.0852 -8.2244 1.0545 37.8745 -11.6065
# 6 4.5916 13.9666 -8.1335 3.4338 -11.6065 36.8327
#
#
#
# Elastic Compliance Matrix: (Units=1/GPa)
#
#
# Indices 1 2 3 4 5 6 
#
# 1 0.008556 -0.002675 0.000230 0.002015 0.005276 0.001473
# 2 -0.002675 0.008556 -0.001323 -0.002191 0.000915 -0.002710
# 3 0.000230 -0.001323 0.011519 -0.002219 0.003449 0.004311
# 4 0.002015 -0.002191 -0.002219 0.024297 -0.001541 -0.002661
# 5 0.005276 0.000915 0.003449 -0.001541 0.034646 0.010818
# 6 0.001473 -0.002710 0.004311 -0.002661 0.010818 0.032603
#
#
# Mechanical properties :
#
#
# Convention : Reuss Voigt Hill
#
# Bulk Modulus (GPa) = 47.40461 60.06627 53.73544
# Shear Modulus (GPa) = 37.10682 44.74556 40.92619
#
# Velocity S-wave (km/s) = 3.84019 4.21697 4.03298
# Velocity P-wave (km/s) = 6.20502 6.89797 6.56065
#
# Compressibility (1/GPa) = 0.02109499
#
# Stress axis : x y z
#
# Youngs Moduli (GPa) = 116.87113 116.87496 86.81079
#
# Poissons Ratio (x) = 0.31261 -0.01993
# Poissons Ratio (y) = 0.31260 0.11488
# Poissons Ratio (z) = -0.02684 0.15467
#
# Static dielectric constant tensor:
#      x y z
#    x 2.160370 0.074610 -0.022050 
#    y 0.074610 2.004620 -0.002350 
#    z -0.022050 -0.002350 2.210280 
# 
# From -- ./inp_files/619062.got.cif
#   From: 2010.05.17/outbox.cif.g08.bks.cpg/sg2_310_cif.got.tgz:619062.got - 2010.06.03 11:33:40.
