data_PCOD9046805
_publ_section_title
;
Structure prediction by ZEFSAII (Michael W. Deem and Ramdas Pophale) SiO2 
 PCOD9046805
Probable space group: P -1
;
_chemical_formula_sum "Si O2"
_cell_formula_units_Z 16
_cell_length_a 23.479753
_cell_length_b 17.886783
_cell_length_c 5.120383
_cell_angle_alpha 73.819790
_cell_angle_beta 83.481328
_cell_angle_gamma 21.214267
_cell_volume 677.932311
_symmetry_space_group_name_H-M "P -1"
_symmetry_group_IT_number 2
_symmetry_cell_setting 'triclinic'
loop_
_space_group_symop_operation_xyz
x,y,z
-x,-y,-z
loop_
_atom_site_type_symbol
_atom_site_label
_atom_site_fract_x
_atom_site_fract_y
_atom_site_fract_z
Si Si1 0.723708 0.551570 0.311420
Si Si2 0.524473 0.049831 0.587500
Si Si3 0.658399 0.353272 0.488539
Si Si4 0.020558 0.386208 0.708264
Si Si5 0.399015 0.906019 0.829369
Si Si6 0.962076 0.137629 0.304295
Si Si7 0.358758 0.518945 0.132377
Si Si8 0.178798 0.407458 0.879363
O O1 0.649714 0.684238 0.485951
O O2 0.884835 0.288280 0.432698
O O3 0.767287 0.573555 0.104025
O O4 0.556937 0.719819 0.124579
O O5 0.624515 0.983854 0.424157
O O6 0.500000 0.000000 0.500000
O O7 0.648720 0.867057 0.943106
O O8 0.500000 0.500000 0.500000
O O9 0.641190 0.412188 0.151240
O O10 0.653947 0.428472 0.628164
O O11 0.852057 0.068617 0.684642
O O12 0.000000 0.500000 0.500000
O O13 0.917453 0.468950 0.465819
O O14 0.223691 0.107115 0.865310
O O15 0.942374 0.471952 0.949523
O O16 0.468775 0.751471 0.745378
O O17 0.806519 0.324999 0.995083
O O18 0.000000 0.000000 0.500000
#
# Coordination Sequence:
#
# PCOD9046805 Si02
#       8
#     2   2   2   2   2   2   2   2
#     4  11  25  44  70 101 137 184 236 284 347 410
#     4  12  24  43  70 102 139 183 238 287 344 403
#     4  11  23  45  72 101 139 177 221 286 351 409
#     4  12  26  44  63  98 136 182 228 282 347 398
#     4  11  26  41  71  97 138 186 232 287 335 419
#     4   9  22  45  70 102 134 179 225 287 339 412
#     4  10  24  43  68 103 134 179 231 277 343 411
#     4  12  26  45  67  98 139 181 227 286 342 409
#
# _framework density 23.601175999999999
#
# number of rings (size 3 to 8) (size 9 to 14) (size 15 to 20)
#    0.000    1.000    2.500    3.000    7.000    2.000 
#    2.250    0.000    0.000    0.000    0.000    0.000 
#    0.000    0.000    0.000    0.000    0.000    0.000 
#
# Total GULP energy -89552.101119 kJ/mol
# GULP energy per Si atom -5597.006320 kJ/mol
# Density = 2.354746 g / cm^3
# Si number density = 23.601176 Si / 1000 Ang^3
#
#
#
# Elastic Constant Matrix: (Units=GPa)
#
#
# Indices 1 2 3 4 5 6 
#
# 1 74.4646 59.9536 20.5943 -4.8041 0.0389 -5.1451
# 2 59.9536 167.4440 10.0201 -17.3720 8.4471 4.5542
# 3 20.5943 10.0201 28.4370 -0.5026 5.5918 1.4499
# 4 -4.8041 -17.3720 -0.5026 37.0240 -1.2604 3.4353
# 5 0.0389 8.4471 5.5918 -1.2604 35.8358 1.1711
# 6 -5.1451 4.5542 1.4499 3.4353 1.1711 55.6203
#
#
#
# Elastic Compliance Matrix: (Units=1/GPa)
#
#
# Indices 1 2 3 4 5 6 
#
# 1 0.024700 -0.008305 -0.015993 -0.001075 0.004279 0.003358
# 2 -0.008305 0.009271 0.003396 0.003397 -0.002529 -0.001772
# 3 -0.015993 0.003396 0.047283 0.000148 -0.008063 -0.002829
# 4 -0.001075 0.003397 0.000148 0.028675 0.000256 -0.002158
# 5 0.004279 -0.002529 -0.008063 0.000256 0.029758 0.000171
# 6 0.003358 -0.001772 -0.002829 -0.002158 0.000171 0.018638
#
#
# Mechanical properties :
#
#
# Convention : Reuss Voigt Hill
#
# Bulk Modulus (GPa) = 25.34904 50.16462 37.75683
# Shear Modulus (GPa) = 23.44339 37.68120 30.56230
#
# Velocity S-wave (km/s) = 3.15511 4.00006 3.60244
# Velocity P-wave (km/s) = 4.90274 6.52957 5.77374
#
# Compressibility (1/GPa) = 0.03944922
#
# Stress axis : x y z
#
# Youngs Moduli (GPa) = 40.48643 107.86443 21.14904
#
# Poissons Ratio (x) = 0.89586 0.33823
# Poissons Ratio (y) = 0.33626 -0.07182
# Poissons Ratio (z) = 0.64749 -0.36629
#
# Static dielectric constant tensor:
#      x y z
#    x 2.010330 0.032950 0.068760 
#    y 0.032950 1.914610 0.029750 
#    z 0.068760 0.029750 1.986430 
# 
# From -- ./inp_files/110749.got.cif
#   From: 2010.05.17/outbox.cif.g08.bks.cpg/sg2_56_cif.got.tgz:110749.got - 2010.06.03 11:33:40.
