data_PCOD9046636
_publ_section_title
;
Structure prediction by ZEFSAII (Michael W. Deem and Ramdas Pophale) SiO2 
 PCOD9046636
Probable space group: P -1
;
_chemical_formula_sum "Si O2"
_cell_formula_units_Z 16
_cell_length_a 11.876036
_cell_length_b 14.357806
_cell_length_c 10.884155
_cell_angle_alpha 103.025834
_cell_angle_beta 57.928229
_cell_angle_gamma 149.733639
_cell_volume 664.050951
_symmetry_space_group_name_H-M "P -1"
_symmetry_group_IT_number 2
_symmetry_cell_setting 'triclinic'
loop_
_space_group_symop_operation_xyz
x,y,z
-x,-y,-z
loop_
_atom_site_type_symbol
_atom_site_label
_atom_site_fract_x
_atom_site_fract_y
_atom_site_fract_z
Si Si1 0.508002 0.892045 0.490773
Si Si2 0.857603 0.667791 0.622362
Si Si3 0.319219 0.697227 0.799259
Si Si4 0.123084 0.826581 0.055960
Si Si5 0.504745 0.376793 0.202514
Si Si6 0.738272 0.145119 0.763713
Si Si7 0.924904 0.000644 0.855089
Si Si8 0.440059 0.232524 0.757195
O O1 0.305898 0.723808 0.673370
O O2 0.427577 0.776369 0.384670
O O3 0.500000 0.000000 0.500000
O O4 0.861853 0.109495 0.394499
O O5 0.661816 0.630706 0.675835
O O6 0.655612 0.457966 0.746721
O O7 0.000381 0.695986 0.439664
O O8 0.476712 0.695532 0.728058
O O9 0.550574 0.924260 0.792989
O O10 0.000000 0.500000 0.000000
O O11 0.130073 0.759597 0.148285
O O12 0.865208 0.632658 0.049599
O O13 0.023864 0.861185 0.185665
O O14 0.470202 0.048630 0.872656
O O15 0.321515 0.214817 0.146321
O O16 0.789159 0.936953 0.049248
O O17 0.237853 0.148548 0.740287
#
# Coordination Sequence:
#
# PCOD9046636 Si02
#       8
#     2   2   2   2   2   2   2   2
#     4  11  28  50  73 106 159 195 242 305 376 449
#     4  11  26  46  70 111 143 193 242 312 371 434
#     4  11  24  44  74 114 144 194 246 303 370 444
#     4  11  23  43  71 102 144 191 234 309 369 437
#     4  12  24  44  76 109 143 186 249 316 371 425
#     4  10  24  43  66 105 151 179 243 300 377 438
#     4  11  25  45  71 105 142 194 254 302 363 446
#     4  11  26  47  72 102 147 198 249 295 370 453
#
# _framework density 24.094536999999999
#
# number of rings (size 3 to 8) (size 9 to 14) (size 15 to 20)
#    0.000    1.000    5.000    0.000    5.250    6.500 
#    0.000    0.000    0.000    0.000    0.000    0.000 
#    0.000    0.000    0.000    0.000    0.000    0.000 
#
# Total GULP energy -89382.200000 kJ/mol
# GULP energy per Si atom -5586.387500 kJ/mol
# Density = 2.403970 g / cm^3
# Si number density = 24.094537 Si / 1000 Ang^3
#
#
#
# Elastic Constant Matrix: (Units=GPa)
#
#
# Indices 1 2 3 4 5 6 
#
# 1 107.0909 -4.2965 22.1012 -0.9564 -20.5923 -11.7389
# 2 -4.2965 85.0255 0.3482 2.7140 -9.4792 4.2658
# 3 22.1012 0.3482 31.1530 -6.8064 0.3795 -3.2616
# 4 -0.9564 2.7140 -6.8064 31.1160 -0.6246 -9.8310
# 5 -20.5923 -9.4792 0.3795 -0.6246 36.6196 0.3519
# 6 -11.7389 4.2658 -3.2616 -9.8310 0.3519 40.0189
#
#
#
# Elastic Compliance Matrix: (Units=1/GPa)
#
#
# Indices 1 2 3 4 5 6 
#
# 1 0.013101 0.001460 -0.009290 -0.000755 0.007802 0.002676
# 2 0.001460 0.012428 -0.001784 -0.001831 0.004040 -0.001527
# 3 -0.009290 -0.001784 0.041273 0.009819 -0.005978 0.003294
# 4 -0.000755 -0.001831 0.009819 0.037575 -0.000455 0.010009
# 5 0.007802 0.004040 -0.005978 -0.000455 0.032786 0.000971
# 6 0.002676 -0.001527 0.003294 0.010009 0.000971 0.028655
#
#
# Mechanical properties :
#
#
# Convention : Reuss Voigt Hill
#
# Bulk Modulus (GPa) = 21.02004 28.84168 24.93086
# Shear Modulus (GPa) = 24.88762 35.22533 30.05648
#
# Velocity S-wave (km/s) = 3.21739 3.82771 3.53574
# Velocity P-wave (km/s) = 4.74816 5.61528 5.19983
#
# Compressibility (1/GPa) = 0.04757364
#
# Stress axis : x y z
#
# Youngs Moduli (GPa) = 76.33224 80.46563 24.22872
#
# Poissons Ratio (x) = -0.11746 0.22509
# Poissons Ratio (y) = -0.11142 0.04321
# Poissons Ratio (z) = 0.70914 0.14351
#
# Static dielectric constant tensor:
#      x y z
#    x 1.973080 -0.010240 -0.019010 
#    y -0.010240 1.893160 -0.006960 
#    z -0.019010 -0.006960 1.933940 
# 
# From -- ./inp_files/434125.got.cif
#   From: 2010.05.17/outbox.cif.g08.bks.cpg/sg2_218_cif.got.tgz:434125.got - 2010.06.03 11:33:40.
