data_PCOD9046200
_publ_section_title
;
Structure prediction by ZEFSAII (Michael W. Deem and Ramdas Pophale) SiO2 
 PCOD9046200
Probable space group: P -1
;
_chemical_formula_sum "Si O2"
_cell_formula_units_Z 14
_cell_length_a 23.419265
_cell_length_b 4.951775
_cell_length_c 5.127491
_cell_angle_alpha 90.082003
_cell_angle_beta 86.816600
_cell_angle_gamma 110.315885
_cell_volume 556.668083
_symmetry_space_group_name_H-M "P -1"
_symmetry_group_IT_number 2
_symmetry_cell_setting 'triclinic'
loop_
_space_group_symop_operation_xyz
x,y,z
-x,-y,-z
loop_
_atom_site_type_symbol
_atom_site_label
_atom_site_fract_x
_atom_site_fract_y
_atom_site_fract_z
Si Si1 0.725499 0.015347 0.142964
Si Si2 0.129015 0.095407 0.253779
Si Si3 0.163538 0.428796 0.747601
Si Si4 0.671421 0.680537 0.641880
Si Si5 0.564288 0.657187 0.352189
Si Si6 0.385195 0.790586 0.950194
Si Si7 0.064854 0.469928 0.457009
O O1 0.673849 0.163899 0.161596
O O2 0.710848 0.772566 0.369697
O O3 0.787388 0.271009 0.187026
O O4 0.713363 0.864157 0.864186
O O5 0.158173 0.197372 0.970240
O O6 0.069349 0.192534 0.304529
O O7 0.110175 0.761099 0.313307
O O8 0.171748 0.296716 0.466555
O O9 0.097231 0.458849 0.724009
O O10 0.612430 0.764773 0.579153
O O11 0.640322 0.359128 0.765213
O O12 0.500000 0.500000 0.500000
O O13 0.589973 0.438692 0.193113
O O14 0.564783 0.901459 0.143058
O O15 0.000000 0.500000 0.500000
#
# Coordination Sequence:
#
# PCOD9046200 Si02
#       7
#     2   2   2   2   2   2   2
#     4  11  25  46  71  98 139 177 229 278 336 407
#     4  10  24  42  68  98 137 174 230 272 346 392
#     4  10  25  43  68 101 134 181 226 280 339 399
#     4  11  24  45  70 100 133 178 221 278 336 395
#     4  11  26  47  73 103 137 177 226 276 338 405
#     4  11  24  46  67 104 133 180 219 279 335 398
#     4  10  24  44  69 101 137 180 228 281 338 401
#
# _framework density 25.149639000000001
#
# number of rings (size 3 to 8) (size 9 to 14) (size 15 to 20)
#    0.857    0.571    2.857    1.714    6.000    4.571 
#    0.000    0.000    0.000    0.000    0.000    0.000 
#    0.000    0.000    0.000    0.000    0.000    0.000 
#
# Total GULP energy -78242.941637 kJ/mol
# GULP energy per Si atom -5588.781545 kJ/mol
# Density = 2.509240 g / cm^3
# Si number density = 25.149639 Si / 1000 Ang^3
#
#
#
# Elastic Constant Matrix: (Units=GPa)
#
#
# Indices 1 2 3 4 5 6 
#
# 1 54.4803 -10.7124 0.3619 4.6826 9.9710 0.3590
# 2 -10.7124 106.0716 38.6102 -29.4707 -0.5995 -18.4161
# 3 0.3619 38.6102 168.9111 -29.3050 4.3998 0.2507
# 4 4.6826 -29.4707 -29.3050 43.8812 -0.6420 -0.6919
# 5 9.9710 -0.5995 4.3998 -0.6420 25.0522 3.0364
# 6 0.3590 -18.4161 0.2507 -0.6919 3.0364 44.1742
#
#
#
# Elastic Compliance Matrix: (Units=1/GPa)
#
#
# Indices 1 2 3 4 5 6 
#
# 1 0.020354 0.002074 -0.000520 -0.001226 -0.008142 0.001243
# 2 0.002074 0.013399 -0.001720 0.007709 -0.000702 0.005748
# 3 -0.000520 -0.001720 0.006949 0.003518 -0.000887 -0.000636
# 4 -0.001226 0.007709 0.003518 0.030510 0.000393 0.003655
# 5 -0.008142 -0.000702 -0.000887 0.000393 0.043696 -0.003219
# 6 0.001243 0.005748 -0.000636 0.003655 -0.003219 0.025306
#
#
# Mechanical properties :
#
#
# Convention : Reuss Voigt Hill
#
# Bulk Modulus (GPa) = 24.77106 42.88694 33.82900
# Shear Modulus (GPa) = 32.46689 42.70173 37.58431
#
# Velocity S-wave (km/s) = 3.59687 4.12504 3.86998
# Velocity P-wave (km/s) = 5.20777 6.30695 5.78353
#
# Compressibility (1/GPa) = 0.04036969
#
# Stress axis : x y z
#
# Youngs Moduli (GPa) = 49.13066 74.63222 143.90640
#
# Poissons Ratio (x) = -0.15479 0.07485
# Poissons Ratio (y) = -0.10190 0.24752
# Poissons Ratio (z) = 0.02556 0.12837
#
# Static dielectric constant tensor:
#      x y z
#    x 2.035610 -0.001400 -0.012700 
#    y -0.001400 1.989610 0.035530 
#    z -0.012700 0.035530 1.991570 
# 
# From -- ./inp_files/120809.got.cif
#   From: 2010.05.17/outbox.cif.g08.bks.cpg/sg2_61_cif.got.tgz:120809.got - 2010.06.03 11:33:40.
