data_PCOD9046699
_publ_section_title
;
Structure prediction by ZEFSAII (Michael W. Deem and Ramdas Pophale) SiO2 
 PCOD9046699
Probable space group: P -1
;
_chemical_formula_sum "Si O2"
_cell_formula_units_Z 16
_cell_length_a 24.513831
_cell_length_b 12.027879
_cell_length_c 5.124448
_cell_angle_alpha 82.539304
_cell_angle_beta 72.484195
_cell_angle_gamma 29.988819
_cell_volume 692.538779
_symmetry_space_group_name_H-M "P -1"
_symmetry_group_IT_number 2
_symmetry_cell_setting 'triclinic'
loop_
_space_group_symop_operation_xyz
x,y,z
-x,-y,-z
loop_
_atom_site_type_symbol
_atom_site_label
_atom_site_fract_x
_atom_site_fract_y
_atom_site_fract_z
Si Si1 0.258243 0.795794 0.688232
Si Si2 0.919354 0.709974 0.247698
Si Si3 0.239226 0.440442 0.455571
Si Si4 0.266003 0.532555 0.898737
Si Si5 0.631144 0.299687 0.965608
Si Si6 0.351168 0.985338 0.886790
Si Si7 0.866481 0.586592 0.632521
Si Si8 0.458886 0.906573 0.252115
O O1 0.224701 0.725060 0.802477
O O2 0.299971 0.755141 0.348911
O O3 0.155090 0.060302 0.827728
O O4 0.361262 0.644218 0.795438
O O5 0.838538 0.751027 0.474359
O O6 0.004907 0.616447 0.371600
O O7 0.000000 0.500000 0.000000
O O8 0.234113 0.498517 0.732303
O O9 0.151906 0.487357 0.504369
O O10 0.371576 0.163789 0.300880
O O11 0.217547 0.574211 0.232670
O O12 0.407972 0.294540 0.802492
O O13 0.677289 0.096231 0.022326
O O14 0.500000 0.500000 0.000000
O O15 0.230451 0.256710 0.047465
O O16 0.443258 0.871318 0.008377
O O17 0.403256 0.924439 0.551386
#
# Coordination Sequence:
#
# PCOD9046699 Si02
#       8
#     2   2   2   2   2   2   2   2
#     4  12  26  44  67 100 139 179 227 272 344 407
#     4  11  25  45  75  98 132 170 226 294 354 400
#     4  11  24  41  69  93 137 177 230 274 318 402
#     4  12  24  44  63  98 139 185 221 266 331 399
#     4  12  23  40  64  98 141 182 212 268 339 415
#     4  11  21  37  64 100 135 162 223 278 334 399
#     4  10  24  43  67 102 124 170 227 289 345 387
#     4  11  22  38  66  99 134 181 222 271 328 396
#
# _framework density 23.103397999999999
#
# number of rings (size 3 to 8) (size 9 to 14) (size 15 to 20)
#    0.000    0.750    1.250    7.125    8.750    0.000 
#    0.000    1.250    0.000    0.000    0.000    0.000 
#    0.000    0.000    0.000    0.000    0.000    0.000 
#
# Total GULP energy -89622.645984 kJ/mol
# GULP energy per Si atom -5601.415374 kJ/mol
# Density = 2.305081 g / cm^3
# Si number density = 23.103398 Si / 1000 Ang^3
#
#
#
# Elastic Constant Matrix: (Units=GPa)
#
#
# Indices 1 2 3 4 5 6 
#
# 1 137.1012 39.2112 17.2663 -16.3683 -4.6448 -6.7835
# 2 39.2112 74.4455 22.4362 -20.4098 -8.8209 14.0168
# 3 17.2663 22.4362 88.9261 -25.8514 -13.5297 4.0513
# 4 -16.3683 -20.4098 -25.8514 32.4809 3.2843 -6.3719
# 5 -4.6448 -8.8209 -13.5297 3.2843 25.4872 -9.1301
# 6 -6.7835 14.0168 4.0513 -6.3719 -9.1301 40.1612
#
#
#
# Elastic Compliance Matrix: (Units=1/GPa)
#
#
# Indices 1 2 3 4 5 6 
#
# 1 0.009162 -0.004811 0.000107 0.002318 0.001139 0.003842
# 2 -0.004811 0.019810 -0.001227 0.007668 0.002234 -0.005878
# 3 0.000107 -0.001227 0.015953 0.011697 0.007408 0.002377
# 4 0.002318 0.007668 0.011697 0.046564 0.005106 0.005084
# 5 0.001139 0.002234 0.007408 0.005106 0.047142 0.010193
# 6 0.003842 -0.005878 0.002377 0.005084 0.010193 0.030484
#
#
# Mechanical properties :
#
#
# Convention : Reuss Voigt Hill
#
# Bulk Modulus (GPa) = 30.24553 50.92226 40.58390
# Shear Modulus (GPa) = 26.04184 34.39647 30.21915
#
# Velocity S-wave (km/s) = 3.36100 3.86269 3.62055
# Velocity P-wave (km/s) = 5.30863 6.47941 5.92302
#
# Compressibility (1/GPa) = 0.03306273
#
# Stress axis : x y z
#
# Youngs Moduli (GPa) = 109.14942 50.47926 62.68273
#
# Poissons Ratio (x) = 0.24285 -0.00670
# Poissons Ratio (y) = 0.52511 0.07693
# Poissons Ratio (z) = -0.01167 0.06195
#
# Static dielectric constant tensor:
#      x y z
#    x 1.850720 0.006780 0.005960 
#    y 0.006780 1.926590 -0.020160 
#    z 0.005960 -0.020160 1.878590 
# 
# From -- ./inp_files/123623.got.cif
#   From: 2010.05.17/outbox.cif.g08.bks.cpg/sg2_62_cif.got.tgz:123623.got - 2010.06.03 11:33:40.
