data_PCOD9046139
_publ_section_title
;
Structure prediction by ZEFSAII (Michael W. Deem and Ramdas Pophale) SiO2 
 PCOD9046139
Probable space group: P -1
;
_chemical_formula_sum "Si O2"
_cell_formula_units_Z 16
_cell_length_a 15.540072
_cell_length_b 9.666511
_cell_length_c 8.778769
_cell_angle_alpha 115.104771
_cell_angle_beta 38.486344
_cell_angle_gamma 101.490244
_cell_volume 722.194224
_symmetry_space_group_name_H-M "P -1"
_symmetry_group_IT_number 2
_symmetry_cell_setting 'triclinic'
loop_
_space_group_symop_operation_xyz
x,y,z
-x,-y,-z
loop_
_atom_site_type_symbol
_atom_site_label
_atom_site_fract_x
_atom_site_fract_y
_atom_site_fract_z
Si Si1 0.322217 0.666432 0.530457
Si Si2 0.247411 0.178676 0.621896
Si Si3 0.528787 0.083229 0.655220
Si Si4 0.762238 0.882009 0.749672
Si Si5 0.966757 0.186041 0.167855
Si Si6 0.003333 0.664133 0.491780
Si Si7 0.235181 0.775818 0.046767
Si Si8 0.534095 0.619078 0.634507
O O1 0.444379 0.748025 0.341466
O O2 0.390522 0.482694 0.375931
O O3 0.184468 0.717373 0.639619
O O4 0.272407 0.737027 0.800297
O O5 0.233434 0.149048 0.449505
O O6 0.355276 0.290360 0.544451
O O7 0.325848 0.018347 0.521511
O O8 0.093928 0.244869 0.937311
O O9 0.500000 0.000000 0.500000
O O10 0.397917 0.087350 0.950577
O O11 0.857990 0.735991 0.638530
O O12 0.820545 0.037316 0.773958
O O13 0.978238 0.216904 0.344081
O O14 0.000000 0.000000 0.000000
O O15 0.130757 0.671429 0.202577
O O16 0.000000 0.500000 0.500000
O O17 0.380700 0.734365 0.925611
O O18 0.500000 0.500000 0.500000
#
# Coordination Sequence:
#
# PCOD9046139 Si02
#       8
#     2   2   2   2   2   2   2   2
#     4  11  24  42  72 102 138 184 228 289 345 414
#     4  12  25  44  74 101 137 183 237 284 346 420
#     4  12  22  43  72 106 136 179 237 281 344 414
#     4  12  25  45  72 102 140 184 232 288 351 423
#     4  12  25  46  72 101 139 185 240 284 343 422
#     4  12  30  45  70 106 142 185 233 298 354 412
#     4  11  23  47  69  98 146 180 231 282 357 419
#     4  10  24  42  68 101 134 182 224 285 351 411
#
# _framework density 22.154706000000001
#
# number of rings (size 3 to 8) (size 9 to 14) (size 15 to 20)
#    0.000    0.500    3.750    4.500    7.000    0.500 
#    0.000    1.250    0.000    0.000    0.000    0.000 
#    0.000    0.000    0.000    0.000    0.000    0.000 
#
# Total GULP energy -89573.830254 kJ/mol
# GULP energy per Si atom -5598.364391 kJ/mol
# Density = 2.210428 g / cm^3
# Si number density = 22.154706 Si / 1000 Ang^3
#
#
#
# Elastic Constant Matrix: (Units=GPa)
#
#
# Indices 1 2 3 4 5 6 
#
# 1 95.5756 -16.7109 12.4047 10.3804 -1.1224 -25.1382
# 2 -16.7109 99.3210 1.7512 -10.2151 -11.1301 -6.7104
# 3 12.4047 1.7512 45.6147 -14.3785 -14.4045 -6.3976
# 4 10.3804 -10.2151 -14.3785 33.9712 2.2720 -9.0404
# 5 -1.1224 -11.1301 -14.4045 2.2720 42.5602 -1.2916
# 6 -25.1382 -6.7104 -6.3976 -9.0404 -1.2916 35.9526
#
#
#
# Elastic Compliance Matrix: (Units=1/GPa)
#
#
# Indices 1 2 3 4 5 6 
#
# 1 0.014071 0.002845 -0.003275 -0.002411 0.000414 0.009195
# 2 0.002845 0.011878 0.002470 0.005100 0.003929 0.006069
# 3 -0.003275 0.002470 0.032864 0.017245 0.011027 0.008751
# 4 -0.002411 0.005100 0.017245 0.042147 0.005255 0.013121
# 5 0.000414 0.003929 0.011027 0.005255 0.028148 0.005318
# 6 0.009195 0.006069 0.008751 0.013121 0.005318 0.040424
#
#
# Mechanical properties :
#
#
# Convention : Reuss Voigt Hill
#
# Bulk Modulus (GPa) = 15.90006 26.15571 21.02789
# Shear Modulus (GPa) = 26.82168 38.70122 32.76145
#
# Velocity S-wave (km/s) = 3.48322 4.18408 3.84963
# Velocity P-wave (km/s) = 4.83420 5.93074 5.41032
#
# Compressibility (1/GPa) = 0.06289284
#
# Stress axis : x y z
#
# Youngs Moduli (GPa) = 71.07024 84.18620 30.42823
#
# Poissons Ratio (x) = -0.23950 0.09966
# Poissons Ratio (y) = -0.20218 -0.07516
# Poissons Ratio (z) = 0.23277 -0.20795
#
# Static dielectric constant tensor:
#      x y z
#    x 1.798520 0.003820 -0.019710 
#    y 0.003820 1.822290 0.004510 
#    z -0.019710 0.004510 1.811380 
# 
# From -- ./inp_files/217112.got.cif
#   From: 2010.05.17/outbox.cif.g08.bks.cpg/sg2_109_cif.got.tgz:217112.got - 2010.06.03 11:33:40.
