data_PCOD9046091
_publ_section_title
;
Structure prediction by ZEFSAII (Michael W. Deem and Ramdas Pophale) SiO2 
 PCOD9046091
Probable space group: P -1
;
_chemical_formula_sum "Si O2"
_cell_formula_units_Z 16
_cell_length_a 14.936080
_cell_length_b 9.289474
_cell_length_c 8.202212
_cell_angle_alpha 129.034957
_cell_angle_beta 89.143680
_cell_angle_gamma 62.302575
_cell_volume 700.007373
_symmetry_space_group_name_H-M "P -1"
_symmetry_group_IT_number 2
_symmetry_cell_setting 'triclinic'
loop_
_space_group_symop_operation_xyz
x,y,z
-x,-y,-z
loop_
_atom_site_type_symbol
_atom_site_label
_atom_site_fract_x
_atom_site_fract_y
_atom_site_fract_z
Si Si1 0.083769 0.108414 0.910768
Si Si2 0.181091 0.380636 0.091752
Si Si3 0.066294 0.141476 0.544554
Si Si4 0.368757 0.350729 0.604504
Si Si5 0.739660 0.866972 0.430103
Si Si6 0.601103 0.720231 0.814626
Si Si7 0.443966 0.613163 0.253951
Si Si8 0.136710 0.793604 0.994898
O O1 0.097173 0.062971 0.680467
O O2 0.126779 0.906604 0.899539
O O3 0.143256 0.224608 0.040625
O O4 0.948713 0.271468 0.057887
O O5 0.291539 0.328256 0.131689
O O6 0.067067 0.644709 0.297771
O O7 0.218844 0.291545 0.843606
O O8 0.145710 0.214476 0.543150
O O9 0.093239 0.961751 0.273257
O O10 0.351476 0.154485 0.500418
O O11 0.353831 0.387632 0.440386
O O12 0.482589 0.315531 0.616008
O O13 0.266465 0.579747 0.862911
O O14 0.677235 0.139138 0.588000
O O15 0.560272 0.578252 0.791843
O O16 0.500000 0.000000 0.000000
O O17 0.500000 0.500000 0.000000
#
# Coordination Sequence:
#
# PCOD9046091 Si02
#       8
#     2   2   2   2   2   2   2   2
#     4  10  24  42  67 104 149 185 242 297 358 428
#     4  11  25  44  73  98 146 192 241 290 368 422
#     4  11  24  44  72 104 150 193 242 293 365 427
#     4  12  26  45  71 104 149 182 242 300 362 424
#     4  11  24  46  73 106 142 189 243 298 356 439
#     4  12  29  47  72 105 143 187 239 304 363 427
#     4  12  26  47  77 103 137 191 244 293 367 432
#     4  11  25  41  70 107 148 189 244 291 370 426
#
# _framework density 22.856902000000002
#
# number of rings (size 3 to 8) (size 9 to 14) (size 15 to 20)
#    0.000    0.750    0.000    7.125   10.500    1.500 
#    0.000    0.000    0.000    0.000    0.000    0.000 
#    0.000    0.000    0.000    0.000    0.000    0.000 
#
# Total GULP energy -89379.516508 kJ/mol
# GULP energy per Si atom -5586.219782 kJ/mol
# Density = 2.280488 g / cm^3
# Si number density = 22.856902 Si / 1000 Ang^3
#
#
#
# Elastic Constant Matrix: (Units=GPa)
#
#
# Indices 1 2 3 4 5 6 
#
# 1 167.9169 49.7274 14.0489 0.4344 5.9735 20.8586
# 2 49.7274 105.1250 32.5788 21.1811 -8.1292 26.8942
# 3 14.0489 32.5788 112.4615 19.9281 -17.5716 -1.0222
# 4 0.4344 21.1811 19.9281 18.4916 -5.0375 -1.2548
# 5 5.9735 -8.1292 -17.5716 -5.0375 31.9881 -1.7457
# 6 20.8586 26.8942 -1.0222 -1.2548 -1.7457 48.3899
#
#
#
# Elastic Compliance Matrix: (Units=1/GPa)
#
#
# Indices 1 2 3 4 5 6 
#
# 1 0.007448 -0.004184 -0.000960 0.004982 -0.002243 -0.000857
# 2 -0.004184 0.018162 -0.001132 -0.019759 0.001184 -0.008785
# 3 -0.000960 -0.001132 0.011906 -0.010092 0.004908 0.001210
# 4 0.004982 -0.019759 -0.010092 0.089074 0.003135 0.011044
# 5 -0.002243 0.001184 0.004908 0.003135 0.035268 0.001766
# 6 -0.000857 -0.008785 0.001210 0.011044 0.001766 0.026293
#
#
# Mechanical properties :
#
#
# Convention : Reuss Voigt Hill
#
# Bulk Modulus (GPa) = 40.05585 64.24596 52.15090
# Shear Modulus (GPa) = 23.92070 39.05049 31.48559
#
# Velocity S-wave (km/s) = 3.23854 4.13786 3.71551
# Velocity P-wave (km/s) = 5.61666 7.14129 6.42436
#
# Compressibility (1/GPa) = 0.02496514
#
# Stress axis : x y z
#
# Youngs Moduli (GPa) = 134.26430 55.05850 83.99075
#
# Poissons Ratio (x) = 0.23035 0.08059
# Poissons Ratio (y) = 0.56173 0.09511
# Poissons Ratio (z) = 0.12884 0.06235
#
# Static dielectric constant tensor:
#      x y z
#    x 2.258580 -0.045250 -0.020460 
#    y -0.045250 1.932790 0.037270 
#    z -0.020460 0.037270 1.814320 
# 
# From -- ./inp_files/299676.got.cif
#   From: 2010.05.17/outbox.cif.g08.bks.cpg/sg2_150_cif.got.tgz:299676.got - 2010.06.03 11:33:40.
