data_PCOD9046433
_publ_section_title
;
Structure prediction by ZEFSAII (Michael W. Deem and Ramdas Pophale) SiO2 
 PCOD9046433
Probable space group: P -1
;
_chemical_formula_sum "Si O2"
_cell_formula_units_Z 15
_cell_length_a 7.742374
_cell_length_b 14.060977
_cell_length_c 8.750147
_cell_angle_alpha 37.774632
_cell_angle_beta 106.367937
_cell_angle_gamma 100.489583
_cell_volume 558.522366
_symmetry_space_group_name_H-M "P -1"
_symmetry_group_IT_number 2
_symmetry_cell_setting 'triclinic'
loop_
_space_group_symop_operation_xyz
x,y,z
-x,-y,-z
loop_
_atom_site_type_symbol
_atom_site_label
_atom_site_fract_x
_atom_site_fract_y
_atom_site_fract_z
Si Si1 0.418863 0.913563 0.739228
Si Si2 0.724856 0.382404 0.787728
Si Si3 0.729000 0.249067 0.611853
Si Si4 0.000000 0.000000 0.500000
Si Si5 0.707065 0.528843 0.050770
Si Si6 0.320873 0.309620 0.455108
Si Si7 0.097898 0.264768 0.976842
Si Si8 0.225775 0.101075 0.943652
O O1 0.574883 0.907651 0.915057
O O2 0.500000 0.000000 0.500000
O O3 0.356525 0.733978 0.961884
O O4 0.219524 0.996121 0.611491
O O5 0.722241 0.314663 0.700401
O O6 0.649126 0.556751 0.580292
O O7 0.940984 0.379223 0.862476
O O8 0.515610 0.242457 0.531302
O O9 0.820826 0.077062 0.838104
O O10 0.792569 0.371499 0.348643
O O11 0.052258 0.099422 0.239342
O O12 0.780582 0.599602 0.823582
O O13 0.723556 0.664501 0.006900
O O14 0.500000 0.500000 0.000000
O O15 0.231870 0.169413 0.690527
O O16 0.113479 0.235110 0.840495
#
# Coordination Sequence:
#
# PCOD9046433 Si02
#       8
#     2   2   2   1   2   2   2   2
#     4  11  24  41  77 110 149 200 248 315 381 451
#     4  11  26  47  75 106 152 199 255 315 379 456
#     4  11  25  44  72 113 144 199 261 308 381 456
#     4  10  24  42  72 118 150 192 254 314 378 458
#     4  10  26  45  75 106 147 199 257 308 372 459
#     4  11  25  44  71 108 146 197 249 316 371 452
#     4  11  26  48  73 113 150 203 252 316 384 452
#     4  12  26  44  78 109 151 201 251 313 383 455
#
# _framework density 26.856582
#
# number of rings (size 3 to 8) (size 9 to 14) (size 15 to 20)
#    0.000    1.067    2.667    1.600    9.333    4.267 
#    0.000    0.000    0.000    0.000    0.000    0.000 
#    0.000    0.000    0.000    0.000    0.000    0.000 
#
# Total GULP energy -83624.497797 kJ/mol
# GULP energy per Si atom -5574.966520 kJ/mol
# Density = 2.679546 g / cm^3
# Si number density = 26.856582 Si / 1000 Ang^3
#
#
#
# Elastic Constant Matrix: (Units=GPa)
#
#
# Indices 1 2 3 4 5 6 
#
# 1 121.8980 43.6776 39.4297 4.5515 -2.2572 0.6847
# 2 43.6776 113.0685 44.1393 -15.4218 -2.2608 2.7018
# 3 39.4297 44.1393 215.9753 -10.0054 -40.0271 -10.5744
# 4 4.5515 -15.4218 -10.0054 28.2927 6.5399 6.4188
# 5 -2.2572 -2.2608 -40.0271 6.5399 37.9313 -10.2590
# 6 0.6847 2.7018 -10.5744 6.4188 -10.2590 37.0678
#
#
#
# Elastic Compliance Matrix: (Units=1/GPa)
#
#
# Indices 1 2 3 4 5 6 
#
# 1 0.010224 -0.004093 -0.001211 -0.004421 -0.000008 0.000528
# 2 -0.004093 0.012628 -0.002554 0.008782 -0.004903 -0.004451
# 3 -0.001211 -0.002554 0.007225 -0.001911 0.009115 0.005123
# 4 -0.004421 0.008782 -0.001911 0.046092 -0.013145 -0.012723
# 5 -0.000008 -0.004903 0.009115 -0.013145 0.042556 0.017012
# 6 0.000528 -0.004451 0.005123 -0.012723 0.017012 0.035665
#
#
# Mechanical properties :
#
#
# Convention : Reuss Voigt Hill
#
# Bulk Modulus (GPa) = 69.62369 78.38165 74.00267
# Shear Modulus (GPa) = 28.58931 42.23803 35.41367
#
# Velocity S-wave (km/s) = 3.26623 3.97006 3.63522
# Velocity P-wave (km/s) = 6.34073 7.08970 6.72565
#
# Compressibility (1/GPa) = 0.01436293
#
# Stress axis : x y z
#
# Youngs Moduli (GPa) = 97.81354 79.18865 138.41713
#
# Poissons Ratio (x) = 0.32408 0.16756
# Poissons Ratio (y) = 0.40030 0.35345
# Poissons Ratio (z) = 0.11841 0.20221
#
# Static dielectric constant tensor:
#      x y z
#    x 2.157070 0.047090 0.052570 
#    y 0.047090 2.126860 0.031040 
#    z 0.052570 0.031040 2.073820 
# 
# From -- ./inp_files/199088.got.cif
#   From: 2010.05.17/outbox.cif.g08.bks.cpg/sg2_100_cif.got.tgz:199088.got - 2010.06.03 11:33:40.
