data_PCOD9046208
_publ_section_title
;
Structure prediction by ZEFSAII (Michael W. Deem and Ramdas Pophale) SiO2 
 PCOD9046208
Probable space group: P -1
;
_chemical_formula_sum "Si O2"
_cell_formula_units_Z 16
_cell_length_a 21.946416
_cell_length_b 9.016529
_cell_length_c 10.601970
_cell_angle_alpha 147.951350
_cell_angle_beta 146.835377
_cell_angle_gamma 39.374443
_cell_volume 594.249095
_symmetry_space_group_name_H-M "P -1"
_symmetry_group_IT_number 2
_symmetry_cell_setting 'triclinic'
loop_
_space_group_symop_operation_xyz
x,y,z
-x,-y,-z
loop_
_atom_site_type_symbol
_atom_site_label
_atom_site_fract_x
_atom_site_fract_y
_atom_site_fract_z
Si Si1 0.384141 0.510539 0.890146
Si Si2 0.604338 0.627264 0.667889
Si Si3 0.249266 0.457493 0.368456
Si Si4 0.999341 0.767014 0.439656
Si Si5 0.357982 0.929473 0.521979
Si Si6 0.058192 0.267849 0.322975
Si Si7 0.802551 0.025730 0.953862
Si Si8 0.221492 0.091252 0.691292
O O1 0.300550 0.472732 0.605344
O O2 0.392365 0.239062 0.802750
O O3 0.500000 0.500000 0.000000
O O4 0.309315 0.785449 0.029942
O O5 0.653184 0.690206 0.664240
O O6 0.469988 0.733116 0.506780
O O7 0.639844 0.286489 0.512013
O O8 0.664443 0.802296 0.998932
O O9 0.209510 0.771092 0.471472
O O10 0.163509 0.260441 0.107830
O O11 0.057196 0.428735 0.302207
O O12 0.873263 0.753987 0.259483
O O13 0.084048 0.857108 0.755053
O O14 0.000000 0.000000 0.500000
O O15 0.248557 0.952796 0.259523
O O16 0.180139 0.169604 0.533950
O O17 0.000000 0.500000 0.500000
O O18 0.000000 0.000000 0.000000
#
# Coordination Sequence:
#
# PCOD9046208 Si02
#       8
#     2   2   2   2   2   2   2   2
#     4  11  22  42  66  97 135 178 228 285 354 425
#     4  11  23  43  67 100 137 176 233 288 356 430
#     4  11  23  39  68  98 130 184 226 287 352 425
#     4  11  24  45  70 102 141 186 240 300 357 432
#     4  10  24  42  68  99 134 179 227 294 353 425
#     4  10  25  47  70 102 142 195 245 295 366 435
#     4  11  24  44  65 100 139 175 239 287 359 422
#     4  11  25  44  68  99 139 184 233 288 360 435
#
# _framework density 26.924738000000001
#
# number of rings (size 3 to 8) (size 9 to 14) (size 15 to 20)
#    0.000    1.250    0.000    5.250    5.250    4.500 
#   11.250    3.125    0.000    0.000    0.000    0.000 
#    0.000    0.000    0.000    0.000    0.000    0.000 
#
# Total GULP energy -89309.363353 kJ/mol
# GULP energy per Si atom -5581.835210 kJ/mol
# Density = 2.686346 g / cm^3
# Si number density = 26.924738 Si / 1000 Ang^3
#
#
#
# Elastic Constant Matrix: (Units=GPa)
#
#
# Indices 1 2 3 4 5 6 
#
# 1 93.5123 7.3479 25.8317 0.2928 -3.1367 41.2182
# 2 7.3479 156.8728 35.8583 21.0522 7.7656 38.9004
# 3 25.8317 35.8583 89.5374 2.6728 10.8082 12.7230
# 4 0.2928 21.0522 2.6728 54.1443 6.0601 17.7414
# 5 -3.1367 7.7656 10.8082 6.0601 44.1564 5.7360
# 6 41.2182 38.9004 12.7230 17.7414 5.7360 50.9184
#
#
#
# Elastic Compliance Matrix: (Units=1/GPa)
#
#
# Indices 1 2 3 4 5 6 
#
# 1 0.021832 0.004921 -0.005779 0.005059 0.004294 -0.022235
# 2 0.004921 0.009591 -0.003902 -0.000284 0.001001 -0.010349
# 3 -0.005779 -0.003902 0.014204 -0.000245 -0.003768 0.004620
# 4 0.005059 -0.000284 -0.000245 0.022464 -0.001117 -0.011518
# 5 0.004294 0.001001 -0.003768 -0.001117 0.024589 -0.005680
# 6 -0.022235 -0.010349 0.004620 -0.011518 -0.005680 0.049044
#
#
# Mechanical properties :
#
#
# Convention : Reuss Voigt Hill
#
# Bulk Modulus (GPa) = 27.69655 53.11095 40.40375
# Shear Modulus (GPa) = 30.62198 47.90278 39.26238
#
# Velocity S-wave (km/s) = 3.37607 4.22256 3.82282
# Velocity P-wave (km/s) = 5.05036 6.59862 5.87571
#
# Compressibility (1/GPa) = 0.03610558
#
# Stress axis : x y z
#
# Youngs Moduli (GPa) = 45.80347 104.26401 70.40126
#
# Poissons Ratio (x) = -0.51304 0.40686
# Poissons Ratio (y) = -0.22538 0.27474
# Poissons Ratio (z) = 0.26471 0.40689
#
# Static dielectric constant tensor:
#      x y z
#    x 2.431590 -0.249420 -0.192650 
#    y -0.249420 2.295260 0.176950 
#    z -0.192650 0.176950 2.230110 
# 
# From -- ./inp_files/476425.got.cif
#   From: 2010.05.17/outbox.cif.g08.bks.cpg/sg2_239_cif.got.tgz:476425.got - 2010.06.03 11:33:40.
