data_PCOD9046357
_publ_section_title
;
Structure prediction by ZEFSAII (Michael W. Deem and Ramdas Pophale) SiO2 
 PCOD9046357
Probable space group: P -1
;
_chemical_formula_sum "Si O2"
_cell_formula_units_Z 16
_cell_length_a 9.813879
_cell_length_b 14.402555
_cell_length_c 9.363413
_cell_angle_alpha 84.718737
_cell_angle_beta 128.087013
_cell_angle_gamma 57.081828
_cell_volume 666.975697
_symmetry_space_group_name_H-M "P -1"
_symmetry_group_IT_number 2
_symmetry_cell_setting 'triclinic'
loop_
_space_group_symop_operation_xyz
x,y,z
-x,-y,-z
loop_
_atom_site_type_symbol
_atom_site_label
_atom_site_fract_x
_atom_site_fract_y
_atom_site_fract_z
Si Si1 0.892927 0.395295 0.525199
Si Si2 0.517602 0.981815 0.845877
Si Si3 0.953948 0.290314 0.882229
Si Si4 0.685757 0.140588 0.337016
Si Si5 0.354088 0.243228 0.642733
Si Si6 0.657461 0.282483 0.889272
Si Si7 0.694172 0.333101 0.190406
Si Si8 0.222236 0.336568 0.228636
O O1 0.650046 0.561874 0.299140
O O2 0.853072 0.312173 0.429509
O O3 0.881864 0.384940 0.688394
O O4 0.165828 0.324410 0.649163
O O5 0.377280 0.123087 0.651544
O O6 0.429588 0.912930 0.769497
O O7 0.500000 0.000000 0.000000
O O8 0.824724 0.867918 0.017895
O O9 0.729367 0.317850 0.798695
O O10 0.095975 0.291735 0.097075
O O11 0.582903 0.278851 0.176830
O O12 0.528802 0.218946 0.379427
O O13 0.000000 0.000000 0.500000
O O14 0.632780 0.182908 0.861462
O O15 0.231772 0.335910 0.406104
O O16 0.830494 0.245411 0.141733
O O17 0.500000 0.500000 0.000000
O O18 0.000000 0.500000 0.000000
#
# Coordination Sequence:
#
# PCOD9046357 Si02
#       8
#     2   2   2   2   2   2   2   2
#     4  11  23  42  71  97 143 189 236 297 373 425
#     4  11  24  46  70  99 143 193 237 296 366 441
#     4  11  25  44  68 102 144 184 241 305 357 434
#     4  11  26  45  72 107 146 190 245 299 369 434
#     4  12  25  44  73 100 144 197 237 296 371 436
#     4  11  25  40  67 105 139 179 249 300 356 430
#     4  10  24  42  71 102 143 189 249 296 363 433
#     4  11  28  45  74 107 150 190 247 308 370 430
#
# _framework density 23.988880000000002
#
# number of rings (size 3 to 8) (size 9 to 14) (size 15 to 20)
#    0.000    1.000    1.250    3.750   10.500    3.500 
#    0.000    0.000    0.000    0.000    0.000    0.000 
#    0.000    0.000    0.000    0.000    0.000    0.000 
#
# Total GULP energy -89168.503384 kJ/mol
# GULP energy per Si atom -5573.031461 kJ/mol
# Density = 2.393428 g / cm^3
# Si number density = 23.988880 Si / 1000 Ang^3
#
#
#
# Elastic Constant Matrix: (Units=GPa)
#
#
# Indices 1 2 3 4 5 6 
#
# 1 159.7488 47.5895 37.6835 7.5009 -9.7088 15.0577
# 2 47.5895 73.5457 13.2718 7.6273 1.1859 22.1067
# 3 37.6835 13.2718 53.6709 16.1708 -4.2454 9.2228
# 4 7.5009 7.6273 16.1708 45.1334 -6.7515 -1.7277
# 5 -9.7088 1.1859 -4.2454 -6.7515 31.4023 -8.4744
# 6 15.0577 22.1067 9.2228 -1.7277 -8.4744 37.8413
#
#
#
# Elastic Compliance Matrix: (Units=1/GPa)
#
#
# Indices 1 2 3 4 5 6 
#
# 1 0.009270 -0.005807 -0.005771 0.002072 0.003274 0.001938
# 2 -0.005807 0.021329 0.001825 -0.004767 -0.006702 -0.012313
# 3 -0.005771 0.001825 0.025846 -0.009123 -0.001917 -0.005915
# 4 0.002072 -0.004767 -0.009123 0.027258 0.007357 0.007076
# 5 0.003274 -0.006702 -0.001917 0.007357 0.037629 0.011842
# 6 0.001938 -0.012313 -0.005915 0.007076 0.011842 0.037265
#
#
# Mechanical properties :
#
#
# Convention : Reuss Voigt Hill
#
# Bulk Modulus (GPa) = 27.07194 53.78389 40.42791
# Shear Modulus (GPa) = 26.25827 35.43678 30.84753
#
# Velocity S-wave (km/s) = 3.31207 3.84763 3.58985
# Velocity P-wave (km/s) = 5.09275 6.49677 5.83713
#
# Compressibility (1/GPa) = 0.03693862
#
# Stress axis : x y z
#
# Youngs Moduli (GPa) = 107.87227 46.88483 38.69011
#
# Poissons Ratio (x) = 0.27228 0.22329
# Poissons Ratio (y) = 0.62645 -0.07062
# Poissons Ratio (z) = 0.62256 -0.08558
#
# Static dielectric constant tensor:
#      x y z
#    x 1.690830 0.045100 0.273470 
#    y 0.045100 2.005960 -0.060860 
#    z 0.273470 -0.060860 1.725350 
# 
# From -- ./inp_files/207129.got.cif
#   From: 2010.05.17/outbox.cif.g08.bks.cpg/sg2_104_cif.got.tgz:207129.got - 2010.06.03 11:33:40.
