data_PCOD9046299
_publ_section_title
;
Structure prediction by ZEFSAII (Michael W. Deem and Ramdas Pophale) SiO2 
 PCOD9046299
Probable space group: P -1
;
_chemical_formula_sum "Si O2"
_cell_formula_units_Z 14
_cell_length_a 8.803282
_cell_length_b 17.923984
_cell_length_c 5.283398
_cell_angle_alpha 137.385293
_cell_angle_beta 91.111786
_cell_angle_gamma 92.256574
_cell_volume 562.564838
_symmetry_space_group_name_H-M "P -1"
_symmetry_group_IT_number 2
_symmetry_cell_setting 'triclinic'
loop_
_space_group_symop_operation_xyz
x,y,z
-x,-y,-z
loop_
_atom_site_type_symbol
_atom_site_label
_atom_site_fract_x
_atom_site_fract_y
_atom_site_fract_z
Si Si1 0.120366 0.228395 0.712140
Si Si2 0.358511 0.570316 0.699533
Si Si3 0.535303 0.782636 0.480540
Si Si4 0.301824 0.734007 0.725654
Si Si5 0.899190 0.905488 0.107894
Si Si6 0.076070 0.593768 0.052876
Si Si7 0.373248 0.945632 0.548804
O O1 0.294902 0.236743 0.639405
O O2 0.121038 0.187991 0.903813
O O3 0.044575 0.344348 0.966394
O O4 0.048363 0.139384 0.275933
O O5 0.500000 0.500000 0.500000
O O6 0.303442 0.612205 0.536680
O O7 0.431050 0.683289 0.104012
O O8 0.208399 0.535139 0.762849
O O9 0.475757 0.767062 0.724947
O O10 0.465230 0.891292 0.640954
O O11 0.166588 0.704012 0.452470
O O12 0.272839 0.839814 0.158635
O O13 0.742210 0.961220 0.173580
O O14 0.000000 0.000000 0.500000
O O15 0.000000 0.500000 0.000000
O O16 0.500000 0.000000 0.500000
#
# Coordination Sequence:
#
# PCOD9046299 Si02
#       7
#     2   2   2   2   2   2   2
#     4  12  28  47  71 112 146 193 257 308 373 454
#     4  10  25  46  74 102 140 192 250 315 374 448
#     4  10  24  42  70 104 145 187 249 311 367 449
#     4  10  24  44  70 100 145 188 247 309 365 456
#     4  12  28  45  73 104 154 199 247 309 375 449
#     4  11  28  47  72 103 147 198 243 313 382 447
#     4  11  22  43  69 103 140 195 241 300 374 436
#
# _framework density 24.886021
#
# number of rings (size 3 to 8) (size 9 to 14) (size 15 to 20)
#    0.000    1.143    1.429    2.143   16.000    2.857 
#    0.000    0.000    0.000    0.000    0.000    0.000 
#    0.000    0.000    0.000    0.000    0.000    0.000 
#
# Total GULP energy -78150.925166 kJ/mol
# GULP energy per Si atom -5582.208940 kJ/mol
# Density = 2.482938 g / cm^3
# Si number density = 24.886021 Si / 1000 Ang^3
#
#
#
# Elastic Constant Matrix: (Units=GPa)
#
#
# Indices 1 2 3 4 5 6 
#
# 1 140.1072 54.7204 27.7498 21.5616 -23.9323 -11.0848
# 2 54.7204 129.1288 20.7686 15.8170 -29.8862 6.8497
# 3 27.7498 20.7686 84.0527 16.4439 -3.9183 -11.5480
# 4 21.5616 15.8170 16.4439 33.0470 -7.6522 -1.2698
# 5 -23.9323 -29.8862 -3.9183 -7.6522 54.2718 9.2491
# 6 -11.0848 6.8497 -11.5480 -1.2698 9.2491 40.4794
#
#
#
# Elastic Compliance Matrix: (Units=1/GPa)
#
#
# Indices 1 2 3 4 5 6 
#
# 1 0.009654 -0.003220 -0.001275 -0.003693 0.001467 0.002374
# 2 -0.003220 0.010955 -0.001771 -0.001259 0.005064 -0.004437
# 3 -0.001275 -0.001771 0.014389 -0.005790 -0.002055 0.004344
# 4 -0.003693 -0.001259 -0.005790 0.036719 0.002767 -0.001930
# 5 0.001467 0.005064 -0.002055 0.002767 0.023167 -0.006248
# 6 0.002374 -0.004437 0.004344 -0.001930 -0.006248 0.028711
#
#
# Mechanical properties :
#
#
# Convention : Reuss Voigt Hill
#
# Bulk Modulus (GPa) = 44.51007 62.19626 53.35316
# Shear Modulus (GPa) = 34.81471 42.22964 38.52217
#
# Velocity S-wave (km/s) = 3.74433 4.12384 3.93866
# Velocity P-wave (km/s) = 6.05126 6.90807 6.49381
#
# Compressibility (1/GPa) = 0.02246683
#
# Stress axis : x y z
#
# Youngs Moduli (GPa) = 103.58217 91.28045 69.49564
#
# Poissons Ratio (x) = 0.29395 0.08858
# Poissons Ratio (y) = 0.33356 0.12308
# Poissons Ratio (z) = 0.13203 0.16166
#
# Static dielectric constant tensor:
#      x y z
#    x 2.000500 -0.006490 0.019500 
#    y -0.006490 2.200520 -0.256160 
#    z 0.019500 -0.256160 2.152730 
# 
# From -- ./inp_files/28308.got.cif
#   From: 2010.05.17/outbox.cif.g08.bks.cpg/sg2_15_cif.got.tgz:28308.got - 2010.06.03 11:33:40.
