data_PCOD9046463
_publ_section_title
;
Structure prediction by ZEFSAII (Michael W. Deem and Ramdas Pophale) SiO2 
 PCOD9046463
Probable space group: P -1
;
_chemical_formula_sum "Si O2"
_cell_formula_units_Z 16
_cell_length_a 20.738808
_cell_length_b 14.424905
_cell_length_c 8.459594
_cell_angle_alpha 54.555060
_cell_angle_beta 53.750672
_cell_angle_gamma 19.337408
_cell_volume 673.515871
_symmetry_space_group_name_H-M "P -1"
_symmetry_group_IT_number 2
_symmetry_cell_setting 'triclinic'
loop_
_space_group_symop_operation_xyz
x,y,z
-x,-y,-z
loop_
_atom_site_type_symbol
_atom_site_label
_atom_site_fract_x
_atom_site_fract_y
_atom_site_fract_z
Si Si1 0.590683 0.541048 0.226259
Si Si2 0.838808 0.864458 0.824762
Si Si3 0.755894 0.777409 0.244307
Si Si4 0.619563 0.867880 0.694427
Si Si5 0.356292 0.721181 0.843646
Si Si6 0.941314 0.206865 0.391627
Si Si7 0.457776 0.308218 0.525842
Si Si8 0.897047 0.326863 0.979749
O O1 0.595481 0.420240 0.238193
O O2 0.626270 0.501838 0.400674
O O3 0.371639 0.877522 0.204945
O O4 0.758312 0.404290 0.045878
O O5 0.035617 0.551868 0.778018
O O6 0.884931 0.937869 0.663187
O O7 0.795780 0.857878 0.061751
O O8 0.698785 0.817702 0.464498
O O9 0.571471 0.964082 0.227304
O O10 0.794589 0.571984 0.816938
O O11 0.548775 0.072197 0.687205
O O12 0.396358 0.800578 0.669913
O O13 0.500000 0.500000 0.000000
O O14 0.124597 0.009874 0.925508
O O15 0.731919 0.480792 0.514736
O O16 0.889935 0.332999 0.173849
O O17 0.000000 0.000000 0.500000
#
# Coordination Sequence:
#
# PCOD9046463 Si02
#       8
#     2   2   2   2   2   2   2   2
#     4  11  25  46  70 106 143 185 242 294 361 432
#     4  11  22  45  73 102 140 197 236 293 357 435
#     4  10  24  42  73 105 149 189 241 295 359 435
#     4  11  24  47  70 110 147 189 239 306 365 422
#     4  12  27  48  74 105 142 193 242 303 361 435
#     4  11  24  46  70 104 140 194 242 294 358 435
#     4  11  26  45  71 105 145 188 238 302 360 430
#     4  11  26  46  75 104 143 190 239 304 363 426
#
# _framework density 23.755935999999998
#
# number of rings (size 3 to 8) (size 9 to 14) (size 15 to 20)
#    0.000    1.000    2.500    3.000    5.250    5.500 
#    2.250    0.000    0.000    0.000    0.000    0.000 
#    0.000    0.000    0.000    0.000    0.000    0.000 
#
# Total GULP energy -89343.052978 kJ/mol
# GULP energy per Si atom -5583.940811 kJ/mol
# Density = 2.370187 g / cm^3
# Si number density = 23.755936 Si / 1000 Ang^3
#
#
#
# Elastic Constant Matrix: (Units=GPa)
#
#
# Indices 1 2 3 4 5 6 
#
# 1 90.4732 48.7694 44.4166 4.9258 -19.5270 -2.8372
# 2 48.7694 168.5183 37.1484 7.3096 -6.2676 -25.5072
# 3 44.4166 37.1484 62.0060 5.1503 -30.8390 -6.1790
# 4 4.9258 7.3096 5.1503 51.1101 -4.9674 -8.1141
# 5 -19.5270 -6.2676 -30.8390 -4.9674 42.6351 3.9203
# 6 -2.8372 -25.5072 -6.1790 -8.1141 3.9203 37.9079
#
#
#
# Elastic Compliance Matrix: (Units=1/GPa)
#
#
# Indices 1 2 3 4 5 6 
#
# 1 0.018336 -0.003145 -0.011614 -0.000609 -0.000284 -0.002738
# 2 -0.003145 0.008377 -0.004052 -0.000027 -0.003612 0.005109
# 3 -0.011614 -0.004052 0.037406 0.000033 0.021116 0.000325
# 4 -0.000609 -0.000027 0.000033 0.020451 0.001743 0.004139
# 5 -0.000284 -0.003612 0.021116 0.001743 0.038511 -0.002620
# 6 -0.002738 0.005109 0.000325 0.004139 -0.002620 0.030822
#
#
# Mechanical properties :
#
#
# Convention : Reuss Voigt Hill
#
# Bulk Modulus (GPa) = 37.73812 64.62958 51.18385
# Shear Modulus (GPa) = 24.95537 39.04150 31.99843
#
# Velocity S-wave (km/s) = 3.24464 4.05834 3.67408
# Velocity P-wave (km/s) = 5.47332 7.01604 6.29214
#
# Compressibility (1/GPa) = 0.02649841
#
# Stress axis : x y z
#
# Youngs Moduli (GPa) = 54.53786 119.36859 26.73371
#
# Poissons Ratio (x) = 0.37538 0.31049
# Poissons Ratio (y) = 0.17151 0.10831
# Poissons Ratio (z) = 0.63341 0.48363
#
# Static dielectric constant tensor:
#      x y z
#    x 2.024350 -0.033680 -0.008850 
#    y -0.033680 1.943530 0.019730 
#    z -0.008850 0.019730 1.928430 
# 
# From -- ./inp_files/347498.got.cif
#   From: 2010.05.17/outbox.cif.g08.bks.cpg/sg2_174_cif.got.tgz:347498.got - 2010.06.03 11:33:40.
