data_PCOD9046049
_publ_section_title
;
Structure prediction by ZEFSAII (Michael W. Deem and Ramdas Pophale) SiO2 
 PCOD9046049
Probable space group: P -1
;
_chemical_formula_sum "Si O2"
_cell_formula_units_Z 12
_cell_length_a 13.621552
_cell_length_b 17.065141
_cell_length_c 19.445586
_cell_angle_alpha 157.974161
_cell_angle_beta 157.605464
_cell_angle_gamma 22.323910
_cell_volume 568.124072
_symmetry_space_group_name_H-M "P -1"
_symmetry_group_IT_number 2
_symmetry_cell_setting 'triclinic'
loop_
_space_group_symop_operation_xyz
x,y,z
-x,-y,-z
loop_
_atom_site_type_symbol
_atom_site_label
_atom_site_fract_x
_atom_site_fract_y
_atom_site_fract_z
Si Si1 0.752188 0.630849 0.389252
Si Si2 0.515859 0.266396 0.174562
Si Si3 0.267350 0.937633 0.709470
Si Si4 0.393182 0.794359 0.516534
Si Si5 0.979556 0.813554 0.886766
Si Si6 0.120940 0.951007 0.238034
O O1 0.421599 0.744959 0.296367
O O2 0.000000 0.500000 0.500000
O O3 0.798201 0.445259 0.208191
O O4 0.808563 0.837201 0.563082
O O5 0.455635 0.525980 0.324392
O O6 0.532981 0.240022 0.246625
O O7 0.295146 0.178270 0.930641
O O8 0.833865 0.065652 0.191503
O O9 0.926275 0.014222 0.560956
O O10 0.370927 0.830685 0.614292
O O11 0.657732 0.833989 0.693297
O O12 0.050677 0.859260 0.046889
O O13 0.000000 0.000000 0.000000
#
# Coordination Sequence:
#
# PCOD9046049 Si02
#       6
#     2   2   2   2   2   2
#     4  11  24  43  65  91 130 173 216 263 321 385
#     4  11  22  42  67  95 127 167 217 265 327 378
#     4  10  24  42  66  97 125 170 218 263 322 385
#     4  11  23  43  66  94 134 168 212 270 318 379
#     4  12  24  43  66  97 135 172 217 263 327 387
#     4  11  24  41  65  94 130 171 213 267 324 382
#
# _framework density 21.122146999999998
#
# number of rings (size 3 to 8) (size 9 to 14) (size 15 to 20)
#    0.000    1.000    5.000    1.500    2.333    0.000 
#    3.000    1.667    0.000    0.000    0.000    0.000 
#    0.000    0.000    0.000    0.000    0.000    0.000 
#
# Total GULP energy -67113.431251 kJ/mol
# GULP energy per Si atom -5592.785938 kJ/mol
# Density = 2.107407 g / cm^3
# Si number density = 21.122147 Si / 1000 Ang^3
#
#
#
# Elastic Constant Matrix: (Units=GPa)
#
#
# Indices 1 2 3 4 5 6 
#
# 1 47.5365 15.4400 7.9541 -3.4055 -2.3572 -10.7475
# 2 15.4400 67.5278 25.8145 -7.3048 7.2258 -16.6796
# 3 7.9541 25.8145 97.2045 12.6728 8.3373 -3.0456
# 4 -3.4055 -7.3048 12.6728 30.8916 -6.0136 2.6297
# 5 -2.3572 7.2258 8.3373 -6.0136 46.6681 -5.3565
# 6 -10.7475 -16.6796 -3.0456 2.6297 -5.3565 29.9222
#
#
#
# Elastic Compliance Matrix: (Units=1/GPa)
#
#
# Indices 1 2 3 4 5 6 
#
# 1 0.024293 -0.003303 -0.001486 0.002516 0.003140 0.007074
# 2 -0.003303 0.020696 -0.005672 0.005973 -0.000538 0.009152
# 3 -0.001486 -0.005672 0.013014 -0.007181 -0.002702 -0.002224
# 4 0.002516 0.005973 -0.007181 0.037982 0.005511 0.001151
# 5 0.003140 -0.000538 -0.002702 0.005511 0.023350 0.004249
# 6 0.007074 0.009152 -0.002224 0.001151 0.004249 0.041496
#
#
# Mechanical properties :
#
#
# Convention : Reuss Voigt Hill
#
# Bulk Modulus (GPa) = 26.96783 34.52067 30.74425
# Shear Modulus (GPa) = 25.75806 32.36706 29.06256
#
# Velocity S-wave (km/s) = 3.49590 3.91880 3.71337
# Velocity P-wave (km/s) = 5.39354 6.07082 5.74218
#
# Compressibility (1/GPa) = 0.03708122
#
# Stress axis : x y z
#
# Youngs Moduli (GPa) = 41.16347 48.31768 76.84179
#
# Poissons Ratio (x) = 0.15958 0.11422
# Poissons Ratio (y) = 0.13595 0.43584
# Poissons Ratio (z) = 0.06119 0.27405
#
# Static dielectric constant tensor:
#      x y z
#    x 1.757280 -0.002860 -0.012590 
#    y -0.002860 1.762810 -0.015990 
#    z -0.012590 -0.015990 1.751890 
# 
# From -- ./inp_files/28036.got.cif
#   From: 2010.05.17/outbox.cif.g08.bks.cpg/sg2_15_cif.got.tgz:28036.got - 2010.06.03 11:33:40.
