data_PCOD9046551
_publ_section_title
;
Structure prediction by ZEFSAII (Michael W. Deem and Ramdas Pophale) SiO2 
 PCOD9046551
Probable space group: P -1
;
_chemical_formula_sum "Si O2"
_cell_formula_units_Z 16
_cell_length_a 7.744953
_cell_length_b 20.492673
_cell_length_c 18.012778
_cell_angle_alpha 156.541711
_cell_angle_beta 133.426316
_cell_angle_gamma 34.853974
_cell_volume 622.967817
_symmetry_space_group_name_H-M "P -1"
_symmetry_group_IT_number 2
_symmetry_cell_setting 'triclinic'
loop_
_space_group_symop_operation_xyz
x,y,z
-x,-y,-z
loop_
_atom_site_type_symbol
_atom_site_label
_atom_site_fract_x
_atom_site_fract_y
_atom_site_fract_z
Si Si1 0.192241 0.708777 0.811242
Si Si2 0.158954 0.101452 0.240265
Si Si3 0.432665 0.000369 0.629735
Si Si4 0.714094 0.054425 0.655981
Si Si5 0.837186 0.500523 0.180395
Si Si6 0.250500 0.261498 0.190661
Si Si7 0.304637 0.685257 0.540232
Si Si8 0.808742 0.309580 0.833601
O O1 0.515510 0.534578 0.682132
O O2 0.928630 0.810938 0.776191
O O3 0.086028 0.627260 0.755332
O O4 0.169182 0.900897 0.035901
O O5 0.895269 0.269932 0.398877
O O6 0.478798 0.033491 0.292650
O O7 0.059541 0.154550 0.682537
O O8 0.518457 0.137304 0.761859
O O9 0.670939 0.751530 0.409999
O O10 0.061430 0.867440 0.598069
O O11 0.500000 0.000000 0.500000
O O12 0.765728 0.174840 0.737505
O O13 0.536823 0.516668 0.123869
O O14 0.139359 0.339201 0.153855
O O15 0.896664 0.425658 0.033169
O O16 0.426987 0.319743 0.351236
O O17 0.500000 0.000000 0.000000
#
# Coordination Sequence:
#
# PCOD9046551 Si02
#       8
#     2   2   2   2   2   2   2   2
#     4  11  24  42  66 103 137 190 238 283 368 424
#     4  10  24  43  64 101 144 180 235 297 352 424
#     4  11  25  46  77 105 145 192 237 299 362 427
#     4  11  25  47  74 109 145 184 243 294 358 429
#     4  11  26  46  73 109 142 188 250 289 360 433
#     4  12  25  44  72 102 144 187 238 302 349 427
#     4  11  24  43  70  98 140 183 231 296 349 429
#     4  11  26  49  75 103 151 194 232 305 355 427
#
# _framework density 25.683512
#
# number of rings (size 3 to 8) (size 9 to 14) (size 15 to 20)
#    0.000    1.000    2.500    2.625    7.000    3.000 
#    0.000    3.750    0.000    0.000    0.000    0.000 
#    0.000    0.000    0.000    0.000    0.000    0.000 
#
# Total GULP energy -89237.660154 kJ/mol
# GULP energy per Si atom -5577.353760 kJ/mol
# Density = 2.562505 g / cm^3
# Si number density = 25.683512 Si / 1000 Ang^3
#
#
#
# Elastic Constant Matrix: (Units=GPa)
#
#
# Indices 1 2 3 4 5 6 
#
# 1 79.6757 8.3296 36.7224 8.3266 -4.4567 -7.6610
# 2 8.3296 144.2407 29.2083 -3.7817 2.2085 19.3376
# 3 36.7224 29.2083 91.4028 -2.9052 -16.9138 -11.3380
# 4 8.3266 -3.7817 -2.9052 34.7830 -4.2652 -15.4273
# 5 -4.4567 2.2085 -16.9138 -4.2652 31.2178 7.2775
# 6 -7.6610 19.3376 -11.3380 -15.4273 7.2775 28.3248
#
#
#
# Elastic Compliance Matrix: (Units=1/GPa)
#
#
# Indices 1 2 3 4 5 6 
#
# 1 0.016228 0.000657 -0.007475 -0.005321 -0.002183 -0.001389
# 2 0.000657 0.009091 -0.004776 -0.004090 -0.001410 -0.009806
# 3 -0.007475 -0.004776 0.018645 0.008907 0.007903 0.011523
# 4 -0.005321 -0.004090 0.008907 0.042902 0.003854 0.027295
# 5 -0.002183 -0.001410 0.007903 0.003854 0.037566 -0.004017
# 6 -0.001389 -0.009806 0.011523 0.027295 -0.004017 0.062135
#
#
# Mechanical properties :
#
#
# Convention : Reuss Voigt Hill
#
# Bulk Modulus (GPa) = 48.13501 51.53777 49.83639
# Shear Modulus (GPa) = 23.07544 34.93571 29.00557
#
# Velocity S-wave (km/s) = 3.00067 3.69214 3.36422
# Velocity P-wave (km/s) = 5.54866 6.18756 5.87680
#
# Compressibility (1/GPa) = 0.02077490
#
# Stress axis : x y z
#
# Youngs Moduli (GPa) = 61.62217 109.99748 53.63364
#
# Poissons Ratio (x) = -0.07222 0.40091
# Poissons Ratio (y) = -0.04046 0.25617
# Poissons Ratio (z) = 0.46062 0.52537
#
# Static dielectric constant tensor:
#      x y z
#    x 2.140330 0.053480 0.039600 
#    y 0.053480 2.156470 -0.011430 
#    z 0.039600 -0.011430 2.164490 
# 
# From -- ./inp_files/591991.got.cif
#   From: 2010.05.17/outbox.cif.g08.bks.cpg/sg2_296_cif.got.tgz:591991.got - 2010.06.03 11:33:40.
