data_PCOD9046229
_publ_section_title
;
Structure prediction by ZEFSAII (Michael W. Deem and Ramdas Pophale) SiO2 
 PCOD9046229
Probable space group: P -1
;
_chemical_formula_sum "Si O2"
_cell_formula_units_Z 16
_cell_length_a 16.096715
_cell_length_b 16.962350
_cell_length_c 7.115777
_cell_angle_alpha 122.770081
_cell_angle_beta 54.611930
_cell_angle_gamma 154.666199
_cell_volume 676.860996
_symmetry_space_group_name_H-M "P -1"
_symmetry_group_IT_number 2
_symmetry_cell_setting 'triclinic'
loop_
_space_group_symop_operation_xyz
x,y,z
-x,-y,-z
loop_
_atom_site_type_symbol
_atom_site_label
_atom_site_fract_x
_atom_site_fract_y
_atom_site_fract_z
Si Si1 0.260794 0.419815 0.617543
Si Si2 0.133601 0.825311 0.984063
Si Si3 0.539512 0.136871 0.055160
Si Si4 0.046589 0.176226 0.036782
Si Si5 0.431468 0.596664 0.006201
Si Si6 0.843666 0.842531 0.771792
Si Si7 0.026839 0.510533 0.256498
Si Si8 0.309445 0.614354 0.515884
O O1 0.405522 0.578988 0.792212
O O2 0.258315 0.307407 0.437747
O O3 0.304022 0.509477 0.486581
O O4 0.035209 0.263077 0.776665
O O5 0.085669 0.837775 0.863393
O O6 0.357194 0.020542 0.008958
O O7 0.083838 0.676049 0.872372
O O8 0.542254 0.203661 0.323526
O O9 0.751366 0.312944 0.894242
O O10 0.500000 0.000000 0.000000
O O11 0.273627 0.389215 0.988557
O O12 0.038696 0.128467 0.194614
O O13 0.987666 0.044380 0.803963
O O14 0.649928 0.742832 0.979555
O O15 0.359542 0.632167 0.257028
O O16 0.900686 0.498375 0.328149
O O17 0.000000 0.500000 0.500000
#
# Coordination Sequence:
#
# PCOD9046229 Si02
#       8
#     2   2   2   2   2   2   2   2
#     4  11  24  45  73 105 149 197 244 309 379 438
#     4  11  25  46  69 109 150 190 254 302 372 456
#     4  12  26  49  75 109 150 207 254 303 379 457
#     4  10  24  42  69 103 141 187 244 303 368 432
#     4  11  25  47  71 106 143 193 250 303 376 450
#     4  11  24  46  71 105 148 191 250 313 368 443
#     4  12  26  48  76 110 158 195 246 319 378 449
#     4  12  25  46  76 105 151 197 241 313 378 445
#
# _framework density 23.638534
#
# number of rings (size 3 to 8) (size 9 to 14) (size 15 to 20)
#    0.000    0.750    3.750    3.375    1.750    4.500 
#    4.500    0.000    0.000    0.000    0.000    0.000 
#    0.000    0.000    0.000    0.000    0.000    0.000 
#
# Total GULP energy -89424.840391 kJ/mol
# GULP energy per Si atom -5589.052524 kJ/mol
# Density = 2.358473 g / cm^3
# Si number density = 23.638534 Si / 1000 Ang^3
#
#
#
# Elastic Constant Matrix: (Units=GPa)
#
#
# Indices 1 2 3 4 5 6 
#
# 1 103.4719 36.8828 22.6153 -3.8386 8.2666 13.3513
# 2 36.8828 104.0708 33.0683 27.7999 0.3564 5.8374
# 3 22.6153 33.0683 96.4096 14.7562 -6.2281 -2.6212
# 4 -3.8386 27.7999 14.7562 22.4572 -1.2476 -10.9767
# 5 8.2666 0.3564 -6.2281 -1.2476 34.8765 0.5302
# 6 13.3513 5.8374 -2.6212 -10.9767 0.5302 42.2561
#
#
#
# Elastic Compliance Matrix: (Units=1/GPa)
#
#
# Indices 1 2 3 4 5 6 
#
# 1 0.013723 -0.007510 -0.002899 0.013388 -0.003215 0.000040
# 2 -0.007510 0.021521 -0.001003 -0.031580 0.000386 -0.008871
# 3 -0.002899 -0.001003 0.012720 -0.007534 0.002702 -0.000148
# 4 0.013388 -0.031580 -0.007534 0.103838 -0.000887 0.026650
# 5 -0.003215 0.000386 0.002702 -0.000887 0.029874 0.000525
# 6 0.000040 -0.008871 -0.000148 0.026650 0.000525 0.031785
#
#
# Mechanical properties :
#
#
# Convention : Reuss Voigt Hill
#
# Bulk Modulus (GPa) = 39.77519 54.34279 47.05899
# Shear Modulus (GPa) = 20.43609 34.01037 27.22323
#
# Velocity S-wave (km/s) = 2.94347 3.79722 3.39727
# Velocity P-wave (km/s) = 5.33057 6.50109 5.94471
#
# Compressibility (1/GPa) = 0.02514130
#
# Stress axis : x y z
#
# Youngs Moduli (GPa) = 72.86794 46.46612 78.61575
#
# Poissons Ratio (x) = 0.34896 0.22791
# Poissons Ratio (y) = 0.54723 0.07883
# Poissons Ratio (z) = 0.21125 0.04659
#
# Static dielectric constant tensor:
#      x y z
#    x 1.979890 -0.017580 0.036630 
#    y -0.017580 1.853300 0.026520 
#    z 0.036630 0.026520 1.929370 
# 
# From -- ./inp_files/315727.got.cif
#   From: 2010.05.17/outbox.cif.g08.bks.cpg/sg2_158_cif.got.tgz:315727.got - 2010.06.03 11:33:40.
