data_PCOD9046328
_publ_section_title
;
Structure prediction by ZEFSAII (Michael W. Deem and Ramdas Pophale) SiO2 
 PCOD9046328
Probable space group: P -1
;
_chemical_formula_sum "Si O2"
_cell_formula_units_Z 14
_cell_length_a 22.599116
_cell_length_b 14.020549
_cell_length_c 13.834733
_cell_angle_alpha 32.542000
_cell_angle_beta 17.949998
_cell_angle_gamma 24.685138
_cell_volume 556.353801
_symmetry_space_group_name_H-M "P -1"
_symmetry_group_IT_number 2
_symmetry_cell_setting 'triclinic'
loop_
_space_group_symop_operation_xyz
x,y,z
-x,-y,-z
loop_
_atom_site_type_symbol
_atom_site_label
_atom_site_fract_x
_atom_site_fract_y
_atom_site_fract_z
Si Si1 0.742174 0.732445 0.841234
Si Si2 0.731119 0.633141 0.735070
Si Si3 0.956621 0.247612 0.259055
Si Si4 0.365332 0.303576 0.528297
Si Si5 0.744487 0.426438 0.235661
Si Si6 0.160330 0.034212 0.790469
Si Si7 0.613310 0.249497 0.000154
O O1 0.691063 0.636907 0.908453
O O2 0.026626 0.619927 0.465721
O O3 0.766730 0.615202 0.004145
O O4 0.500000 0.000000 0.000000
O O5 0.498322 0.724414 0.953568
O O6 0.781755 0.813577 0.483511
O O7 0.181776 0.254346 0.886250
O O8 0.094799 0.977173 0.265926
O O9 0.806914 0.416302 0.438233
O O10 0.764962 0.384506 0.351834
O O11 0.589097 0.184519 0.360702
O O12 0.479842 0.207350 0.326568
O O13 0.500000 0.500000 0.500000
O O14 0.978972 0.188097 0.028896
O O15 0.000000 0.000000 0.000000
O O16 0.500000 0.500000 0.000000
#
# Coordination Sequence:
#
# PCOD9046328 Si02
#       7
#     2   2   2   2   2   2   2
#     4  10  24  42  70  95 139 187 217 289 358 403
#     4  10  24  45  65 101 139 176 239 281 345 426
#     4  11  24  44  71 102 134 186 235 288 345 418
#     4  11  23  43  72 100 136 180 235 286 351 412
#     4  11  24  41  65 104 138 173 237 283 334 425
#     4  11  22  40  71  96 137 178 225 292 351 405
#     4  12  26  44  71 100 142 188 228 289 351 414
#
# _framework density 25.163844999999998
#
# number of rings (size 3 to 8) (size 9 to 14) (size 15 to 20)
#    0.000    1.143    2.857    3.000    4.000    7.429 
#    0.000    0.000    0.000    0.000    0.000    0.000 
#    0.000    0.000    0.000    0.000    0.000    0.000 
#
# Total GULP energy -78300.712726 kJ/mol
# GULP energy per Si atom -5592.908052 kJ/mol
# Density = 2.510657 g / cm^3
# Si number density = 25.163845 Si / 1000 Ang^3
#
#
#
# Elastic Constant Matrix: (Units=GPa)
#
#
# Indices 1 2 3 4 5 6 
#
# 1 73.5901 10.0831 2.9775 12.6743 -8.3694 -16.9708
# 2 10.0831 155.8724 24.9384 43.1297 7.1472 11.4281
# 3 2.9775 24.9384 71.5487 17.8111 -6.5318 1.9242
# 4 12.6743 43.1297 17.8111 49.4732 6.7683 -2.7524
# 5 -8.3694 7.1472 -6.5318 6.7683 49.5200 12.2151
# 6 -16.9708 11.4281 1.9242 -2.7524 12.2151 39.0732
#
#
#
# Elastic Compliance Matrix: (Units=1/GPa)
#
#
# Indices 1 2 3 4 5 6 
#
# 1 0.015925 -0.000658 0.000447 -0.003562 0.001783 0.006279
# 2 -0.000658 0.008941 -0.001107 -0.007466 0.000330 -0.003475
# 3 0.000447 -0.001107 0.016091 -0.005527 0.003551 -0.001774
# 4 -0.003562 -0.007466 -0.005527 0.030663 -0.005636 0.004831
# 5 0.001783 0.000330 0.003551 -0.005636 0.023470 -0.007231
# 6 0.006279 -0.003475 -0.001774 0.004831 -0.007231 0.032025
#
#
# Mechanical properties :
#
#
# Convention : Reuss Voigt Hill
#
# Bulk Modulus (GPa) = 26.09508 41.88990 33.99249
# Shear Modulus (GPa) = 35.08156 45.14745 40.11451
#
# Velocity S-wave (km/s) = 3.73785 4.24032 3.99699
# Velocity P-wave (km/s) = 5.38714 6.37627 5.90246
#
# Compressibility (1/GPa) = 0.03832140
#
# Stress axis : x y z
#
# Youngs Moduli (GPa) = 62.79394 111.84976 62.14468
#
# Poissons Ratio (x) = 0.07364 -0.02780
# Poissons Ratio (y) = 0.04134 0.06878
# Poissons Ratio (z) = -0.02809 0.12379
#
# Static dielectric constant tensor:
#      x y z
#    x 2.180140 -0.003070 0.307870 
#    y -0.003070 2.065560 -0.044670 
#    z 0.307870 -0.044670 2.490760 
# 
# From -- ./inp_files/255974.got.cif
#   From: 2010.05.17/outbox.cif.g08.bks.cpg/sg2_128_cif.got.tgz:255974.got - 2010.06.03 11:33:40.
