data_PCOD9046136
_publ_section_title
;
Structure prediction by ZEFSAII (Michael W. Deem and Ramdas Pophale) SiO2 
 PCOD9046136
Probable space group: P -1
;
_chemical_formula_sum "Si O2"
_cell_formula_units_Z 14
_cell_length_a 20.694840
_cell_length_b 6.872003
_cell_length_c 9.401714
_cell_angle_alpha 133.328374
_cell_angle_beta 137.837170
_cell_angle_gamma 59.747293
_cell_volume 652.833075
_symmetry_space_group_name_H-M "P -1"
_symmetry_group_IT_number 2
_symmetry_cell_setting 'triclinic'
loop_
_space_group_symop_operation_xyz
x,y,z
-x,-y,-z
loop_
_atom_site_type_symbol
_atom_site_label
_atom_site_fract_x
_atom_site_fract_y
_atom_site_fract_z
Si Si1 0.997314 0.039642 0.763460
Si Si2 0.713348 0.974162 0.548890
Si Si3 0.145602 0.139064 0.798668
Si Si4 0.437447 0.582740 0.574318
Si Si5 0.574169 0.524794 0.004569
Si Si6 0.094560 0.735406 0.014392
Si Si7 0.665669 0.972533 0.799467
O O1 0.970740 0.263324 0.949675
O O2 0.080793 0.091392 0.810399
O O3 0.905977 0.980402 0.484202
O O4 0.031662 0.803205 0.806869
O O5 0.642367 0.200381 0.484937
O O6 0.823067 0.037636 0.717919
O O7 0.707586 0.988804 0.717437
O O8 0.669236 0.691672 0.285088
O O9 0.147986 0.457722 0.942976
O O10 0.249421 0.024620 0.944514
O O11 0.500000 0.500000 0.500000
O O12 0.387974 0.311089 0.415082
O O13 0.515399 0.676942 0.863711
O O14 0.500000 0.500000 0.000000
O O15 0.600038 0.228499 0.846232
#
# Coordination Sequence:
#
# PCOD9046136 Si02
#       7
#     2   2   2   2   2   2   2
#     4  10  24  42  68 101 132 174 219 274 332 401
#     4  12  25  44  69 100 137 177 222 282 331 397
#     4  11  23  44  69  98 136 175 219 272 341 389
#     4  12  24  45  72  93 134 178 222 277 339 393
#     4  12  26  45  70  99 136 176 228 278 335 397
#     4  11  23  44  68 100 135 172 225 271 332 396
#     4  12  25  45  68 100 140 173 221 287 331 395
#
# _framework density 21.444994000000001
#
# number of rings (size 3 to 8) (size 9 to 14) (size 15 to 20)
#    0.000    0.571    5.714    2.571    0.000    4.571 
#   10.286    0.000    0.000    0.000    0.000    0.000 
#    0.000    0.000    0.000    0.000    0.000    0.000 
#
# Total GULP energy -78291.507263 kJ/mol
# GULP energy per Si atom -5592.250519 kJ/mol
# Density = 2.139618 g / cm^3
# Si number density = 21.444994 Si / 1000 Ang^3
#
#
#
# Elastic Constant Matrix: (Units=GPa)
#
#
# Indices 1 2 3 4 5 6 
#
# 1 51.7180 1.2071 -4.3196 -14.5764 -8.7437 13.8643
# 2 1.2071 93.1303 20.9949 -17.4633 -4.7521 -2.2308
# 3 -4.3196 20.9949 94.6453 -30.4691 -0.6037 7.8365
# 4 -14.5764 -17.4633 -30.4691 44.5526 1.3017 -0.9330
# 5 -8.7437 -4.7521 -0.6037 1.3017 28.8290 -7.5048
# 6 13.8643 -2.2308 7.8365 -0.9330 -7.5048 25.7304
#
#
#
# Elastic Compliance Matrix: (Units=1/GPa)
#
#
# Indices 1 2 3 4 5 6 
#
# 1 0.028834 0.000493 0.007057 0.013997 0.004200 -0.015910
# 2 0.000493 0.011967 -0.001588 0.003738 0.002470 0.002111
# 3 0.007057 -0.001588 0.015942 0.012427 -0.000564 -0.008509
# 4 0.013997 0.003738 0.012427 0.036763 0.001022 -0.009372
# 5 0.004200 0.002470 -0.000564 0.001022 0.038776 0.009469
# 6 -0.015910 0.002111 -0.008509 -0.009372 0.009469 0.052634
#
#
# Mechanical properties :
#
#
# Convention : Reuss Voigt Hill
#
# Bulk Modulus (GPa) = 14.56298 30.58426 22.57362
# Shear Modulus (GPa) = 25.52600 34.59647 30.06123
#
# Velocity S-wave (km/s) = 3.45382 4.02091 3.74810
# Velocity P-wave (km/s) = 4.76558 5.98745 5.41111
#
# Compressibility (1/GPa) = 0.06866725
#
# Stress axis : x y z
#
# Youngs Moduli (GPa) = 34.68144 83.56500 62.72902
#
# Poissons Ratio (x) = -0.04123 -0.44267
# Poissons Ratio (y) = -0.01711 0.09959
# Poissons Ratio (z) = -0.24474 0.13267
#
# Static dielectric constant tensor:
#      x y z
#    x 1.863270 -0.025200 -0.007240 
#    y -0.025200 1.786230 0.020670 
#    z -0.007240 0.020670 1.758650 
# 
# From -- ./inp_files/34920.got.cif
#   From: 2010.05.17/outbox.cif.g08.bks.cpg/sg2_18_cif.got.tgz:34920.got - 2010.06.03 11:33:40.
