data_PCOD9046461
_publ_section_title
;
Structure prediction by ZEFSAII (Michael W. Deem and Ramdas Pophale) SiO2 
 PCOD9046461
Probable space group: P -1
;
_chemical_formula_sum "Si O2"
_cell_formula_units_Z 14
_cell_length_a 14.221724
_cell_length_b 23.446095
_cell_length_c 6.772313
_cell_angle_alpha 68.086726
_cell_angle_beta 79.750199
_cell_angle_gamma 20.663790
_cell_volume 630.090482
_symmetry_space_group_name_H-M "P -1"
_symmetry_group_IT_number 2
_symmetry_cell_setting 'triclinic'
loop_
_space_group_symop_operation_xyz
x,y,z
-x,-y,-z
loop_
_atom_site_type_symbol
_atom_site_label
_atom_site_fract_x
_atom_site_fract_y
_atom_site_fract_z
Si Si1 0.530226 0.759162 0.877237
Si Si2 0.945597 0.105280 0.909030
Si Si3 0.283072 0.960298 0.323596
Si Si4 0.180268 0.341004 0.775040
Si Si5 0.182127 0.655722 0.914451
Si Si6 0.130942 0.239868 0.810371
Si Si7 0.730844 0.497521 0.257160
O O1 0.485987 0.796906 0.613260
O O2 0.753908 0.669737 0.023655
O O3 0.640726 0.622158 0.063909
O O4 0.190053 0.980752 0.818818
O O5 0.576693 0.340764 0.723702
O O6 0.050851 0.061796 0.144966
O O7 0.000000 0.000000 0.000000
O O8 0.093736 0.126718 0.301190
O O9 0.498405 0.860776 0.208899
O O10 0.049590 0.352646 0.812015
O O11 0.000000 0.500000 0.500000
O O12 0.205715 0.587385 0.835035
O O13 0.500000 0.500000 0.000000
O O14 0.076668 0.687747 0.115737
O O15 0.022949 0.318920 0.525761
O O16 0.500000 0.000000 0.000000
#
# Coordination Sequence:
#
# PCOD9046461 Si02
#       7
#     2   2   2   2   2   2   2
#     4  10  24  42  73 105 140 182 234 302 348 417
#     4   9  21  41  65 102 140 179 234 290 356 408
#     4  11  24  44  70 104 144 180 238 293 352 419
#     4  11  24  48  71 103 139 188 239 290 359 415
#     4  12  28  47  70 105 143 191 237 285 352 425
#     4  12  28  49  70 100 150 187 235 295 349 428
#     4  11  25  43  71 105 136 191 237 283 363 417
#
# _framework density 22.21903
#
# number of rings (size 3 to 8) (size 9 to 14) (size 15 to 20)
#    0.000    1.143    4.286    0.000    6.000    5.143 
#    0.000    0.000    0.000    0.000    0.000    0.000 
#    0.000    0.000    0.000    0.000    0.000    0.000 
#
# Total GULP energy -78228.946375 kJ/mol
# GULP energy per Si atom -5587.781884 kJ/mol
# Density = 2.216846 g / cm^3
# Si number density = 22.219030 Si / 1000 Ang^3
#
#
#
# Elastic Constant Matrix: (Units=GPa)
#
#
# Indices 1 2 3 4 5 6 
#
# 1 114.5468 15.8497 48.8747 -0.2888 -2.7003 11.4604
# 2 15.8497 97.6323 31.2340 -3.0229 -2.8242 13.2408
# 3 48.8747 31.2340 118.7420 -6.6924 -2.7143 1.8957
# 4 -0.2888 -3.0229 -6.6924 32.2962 1.3885 -1.5196
# 5 -2.7003 -2.8242 -2.7143 1.3885 33.4540 2.8069
# 6 11.4604 13.2408 1.8957 -1.5196 2.8069 40.4764
#
#
#
# Elastic Compliance Matrix: (Units=1/GPa)
#
#
# Indices 1 2 3 4 5 6 
#
# 1 0.010968 0.000067 -0.004522 -0.001010 0.000819 -0.003010
# 2 0.000067 0.011749 -0.003019 0.000251 0.001059 -0.003785
# 3 -0.004522 -0.003019 0.011166 0.002074 0.000047 0.001820
# 4 -0.001010 0.000251 0.002074 0.031529 -0.001317 0.001382
# 5 0.000819 0.001059 0.000047 -0.001317 0.030335 -0.002734
# 6 -0.003010 -0.003785 0.001820 0.001382 -0.002734 0.026952
#
#
# Mechanical properties :
#
#
# Convention : Reuss Voigt Hill
#
# Bulk Modulus (GPa) = 52.81426 58.09309 55.45368
# Shear Modulus (GPa) = 34.73148 36.90951 35.82050
#
# Velocity S-wave (km/s) = 3.95795 4.08016 4.01952
# Velocity P-wave (km/s) = 6.68645 6.95697 6.82305
#
# Compressibility (1/GPa) = 0.01893428
#
# Stress axis : x y z
#
# Youngs Moduli (GPa) = 91.17167 85.11138 89.55634
#
# Poissons Ratio (x) = -0.00569 0.40500
# Poissons Ratio (y) = -0.00609 0.27039
# Poissons Ratio (z) = 0.41231 0.25697
#
# Static dielectric constant tensor:
#      x y z
#    x 1.819620 -0.045070 0.000170 
#    y -0.045070 1.884890 -0.000050 
#    z 0.000170 -0.000050 1.743350 
# 
# From -- ./inp_files/68792.got.cif
#   From: 2010.05.17/outbox.cif.g08.bks.cpg/sg2_35_cif.got.tgz:68792.got - 2010.06.03 11:33:40.
