data_PCOD9046289
_publ_section_title
;
Structure prediction by ZEFSAII (Michael W. Deem and Ramdas Pophale) SiO2 
 PCOD9046289
Probable space group: P -1
;
_chemical_formula_sum "Si O2"
_cell_formula_units_Z 13
_cell_length_a 5.426237
_cell_length_b 10.056282
_cell_length_c 11.552082
_cell_angle_alpha 61.860738
_cell_angle_beta 76.476926
_cell_angle_gamma 98.596059
_cell_volume 515.052745
_symmetry_space_group_name_H-M "P -1"
_symmetry_group_IT_number 2
_symmetry_cell_setting 'triclinic'
loop_
_space_group_symop_operation_xyz
x,y,z
-x,-y,-z
loop_
_atom_site_type_symbol
_atom_site_label
_atom_site_fract_x
_atom_site_fract_y
_atom_site_fract_z
Si Si1 0.926151 0.898437 0.379051
Si Si2 0.500000 0.000000 0.500000
Si Si3 0.308116 0.594187 0.936233
Si Si4 0.923994 0.585807 0.579843
Si Si5 0.530628 0.933858 0.797599
Si Si6 0.769696 0.863153 0.147318
Si Si7 0.321979 0.493031 0.735228
O O1 0.733901 0.918616 0.492906
O O2 0.059076 0.773494 0.474458
O O3 0.823273 0.829911 0.290996
O O4 0.160732 0.053034 0.251766
O O5 0.450269 0.959100 0.664487
O O6 0.361220 0.759879 0.925736
O O7 0.385788 0.611275 0.787148
O O8 0.500000 0.500000 0.000000
O O9 0.000000 0.500000 0.000000
O O10 0.607150 0.548490 0.618418
O O11 0.000000 0.500000 0.500000
O O12 0.059695 0.520931 0.696900
O O13 0.474747 0.063563 0.836522
O O14 0.723649 0.693757 0.160531
O O15 0.000000 0.000000 0.000000
#
# Coordination Sequence:
#
# PCOD9046289 Si02
#       7
#     2   1   2   2   2   2   2
#     4  11  25  44  74 109 145 199 246 316 375 450
#     4  10  24  42  70 102 146 184 244 302 376 438
#     4  12  29  51  75 106 150 202 253 304 371 450
#     4  12  25  46  75 111 153 186 251 308 389 440
#     4  11  26  46  75 105 149 193 251 307 376 447
#     4  11  26  46  73 106 149 197 254 304 372 449
#     4  12  27  48  77 110 148 200 244 316 373 445
#
# _framework density 25.240134000000001
#
# number of rings (size 3 to 8) (size 9 to 14) (size 15 to 20)
#    0.000    0.615    1.538    4.615   12.923    0.615 
#    0.000    0.000    0.000    0.000    0.000    0.000 
#    0.000    0.000    0.000    0.000    0.000    0.000 
#
# Total GULP energy -72373.055576 kJ/mol
# GULP energy per Si atom -5567.158121 kJ/mol
# Density = 2.518269 g / cm^3
# Si number density = 25.240134 Si / 1000 Ang^3
#
#
#
# Elastic Constant Matrix: (Units=GPa)
#
#
# Indices 1 2 3 4 5 6 
#
# 1 78.5545 12.7722 19.6597 -12.9417 -9.1842 -13.7760
# 2 12.7722 100.7700 15.6731 -20.7228 -5.8981 -17.0843
# 3 19.6597 15.6731 70.9407 -6.7112 -19.8095 -6.7944
# 4 -12.9417 -20.7228 -6.7112 49.3980 2.9374 -13.9019
# 5 -9.1842 -5.8981 -19.8095 2.9374 49.3632 9.6678
# 6 -13.7760 -17.0843 -6.7944 -13.9019 9.6678 33.3284
#
#
#
# Elastic Compliance Matrix: (Units=1/GPa)
#
#
# Indices 1 2 3 4 5 6 
#
# 1 0.016220 0.001661 -0.003350 0.007367 -0.000545 0.010105
# 2 0.001661 0.013855 -0.001976 0.009401 -0.001699 0.011800
# 3 -0.003350 -0.001976 0.017118 0.000069 0.006135 -0.000659
# 4 0.007367 0.009401 0.000069 0.032731 -0.003862 0.022651
# 5 -0.000545 -0.001699 0.006135 -0.003862 0.024312 -0.008509
# 6 0.010105 0.011800 -0.000659 0.022651 -0.008509 0.052012
#
#
# Mechanical properties :
#
#
# Convention : Reuss Voigt Hill
#
# Bulk Modulus (GPa) = 25.08560 38.49724 31.79142
# Shear Modulus (GPa) = 28.27022 39.89527 34.08274
#
# Velocity S-wave (km/s) = 3.35035 3.98002 3.67868
# Velocity P-wave (km/s) = 4.99267 6.03376 5.53774
#
# Compressibility (1/GPa) = 0.03986351
#
# Stress axis : x y z
#
# Youngs Moduli (GPa) = 61.65133 72.17783 58.41900
#
# Poissons Ratio (x) = -0.11992 0.19568
# Poissons Ratio (y) = -0.10243 0.11545
# Poissons Ratio (z) = 0.20651 0.14265
#
# Static dielectric constant tensor:
#      x y z
#    x 1.959720 0.019030 0.037930 
#    y 0.019030 1.978240 -0.033840 
#    z 0.037930 -0.033840 2.057420 
# 
# From -- ./inp_files/67966.got.cif
#   From: 2010.05.17/outbox.cif.g08.bks.cpg/sg2_34_cif.got.tgz:67966.got - 2010.06.03 11:33:40.
