data_PCOD9046240
_publ_section_title
;
Structure prediction by ZEFSAII (Michael W. Deem and Ramdas Pophale) SiO2 
 PCOD9046240
Probable space group: P -1
;
_chemical_formula_sum "Si O2"
_cell_formula_units_Z 14
_cell_length_a 10.742898
_cell_length_b 15.629722
_cell_length_c 12.278318
_cell_angle_alpha 153.629215
_cell_angle_beta 140.826893
_cell_angle_gamma 51.780547
_cell_volume 556.874000
_symmetry_space_group_name_H-M "P -1"
_symmetry_group_IT_number 2
_symmetry_cell_setting 'triclinic'
loop_
_space_group_symop_operation_xyz
x,y,z
-x,-y,-z
loop_
_atom_site_type_symbol
_atom_site_label
_atom_site_fract_x
_atom_site_fract_y
_atom_site_fract_z
Si Si1 0.392428 0.843918 0.657294
Si Si2 0.503566 0.850933 0.101950
Si Si3 0.204538 0.950618 0.195496
Si Si4 0.552933 0.473447 0.805025
Si Si5 0.845662 0.668851 0.497856
Si Si6 0.104017 0.662708 0.985142
Si Si7 0.287732 0.558734 0.438407
O O1 0.529550 0.710572 0.545119
O O2 0.234996 0.672458 0.424931
O O3 0.354497 0.975240 0.679130
O O4 0.500000 0.000000 0.000000
O O5 0.377595 0.920736 0.193999
O O6 0.611065 0.687423 0.032208
O O7 0.336587 0.722307 0.755501
O O8 0.206659 0.181421 0.455703
O O9 0.206309 0.864647 0.219720
O O10 0.989861 0.817864 0.849757
O O11 0.365592 0.460330 0.742907
O O12 0.735544 0.412989 0.919746
O O13 0.951914 0.508943 0.341413
O O14 0.895803 0.633853 0.876982
O O15 0.500000 0.500000 0.500000
#
# Coordination Sequence:
#
# PCOD9046240 Si02
#       7
#     2   2   2   2   2   2   2
#     4  10  24  42  69  92 125 176 231 268 315 385
#     4  11  21  42  68  94 124 174 225 271 318 387
#     4  11  23  39  71  96 131 172 225 269 322 394
#     4  12  24  41  66  98 138 174 209 275 342 388
#     4  11  23  40  65 100 134 172 218 268 329 393
#     4  12  26  41  63 102 139 170 215 271 339 393
#     4  11  23  44  70  91 126 176 229 273 314 386
#
# _framework density 25.140336999999999
#
# number of rings (size 3 to 8) (size 9 to 14) (size 15 to 20)
#    0.000    0.857    5.714    1.714    0.000    2.286 
#    2.571    0.714    0.000    0.000    0.000    0.000 
#    0.000    0.000    0.000    0.000    0.000    0.000 
#
# Total GULP energy -78288.519698 kJ/mol
# GULP energy per Si atom -5592.037121 kJ/mol
# Density = 2.508312 g / cm^3
# Si number density = 25.140337 Si / 1000 Ang^3
#
#
#
# Elastic Constant Matrix: (Units=GPa)
#
#
# Indices 1 2 3 4 5 6 
#
# 1 117.0215 53.1071 28.7789 6.9521 26.0039 20.6485
# 2 53.1071 171.9000 31.6794 34.9837 25.4916 48.6328
# 3 28.7789 31.6794 64.2404 21.2696 11.6203 9.8831
# 4 6.9521 34.9837 21.2696 52.7968 -5.8558 9.1382
# 5 26.0039 25.4916 11.6203 -5.8558 34.8092 5.0152
# 6 20.6485 48.6328 9.8831 9.1382 5.0152 47.1400
#
#
#
# Elastic Compliance Matrix: (Units=1/GPa)
#
#
# Indices 1 2 3 4 5 6 
#
# 1 0.011801 -0.001596 -0.003199 0.000506 -0.006163 -0.002294
# 2 -0.001596 0.011095 -0.000099 -0.006323 -0.006697 -0.008788
# 3 -0.003199 -0.000099 0.021039 -0.008536 -0.005907 -0.000624
# 4 0.000506 -0.006323 -0.008536 0.027514 0.011510 0.001533
# 5 -0.006163 -0.006697 -0.005907 0.011510 0.041540 0.004197
# 6 -0.002294 -0.008788 -0.000624 0.001533 0.004197 0.030672
#
#
# Mechanical properties :
#
#
# Convention : Reuss Voigt Hill
#
# Bulk Modulus (GPa) = 29.28627 64.47697 46.88162
# Shear Modulus (GPa) = 30.33382 42.92229 36.62805
#
# Velocity S-wave (km/s) = 3.47735 4.13644 3.82113
# Velocity P-wave (km/s) = 5.27229 6.96534 6.17710
#
# Compressibility (1/GPa) = 0.03414570
#
# Stress axis : x y z
#
# Youngs Moduli (GPa) = 84.73937 90.13032 47.52976
#
# Poissons Ratio (x) = 0.14387 0.15206
# Poissons Ratio (y) = 0.13527 0.00472
# Poissons Ratio (z) = 0.27111 0.00895
#
# Static dielectric constant tensor:
#      x y z
#    x 2.020070 0.112710 -0.055260 
#    y 0.112710 2.027830 -0.036260 
#    z -0.055260 -0.036260 1.993690 
# 
# From -- ./inp_files/261196.got.cif
#   From: 2010.05.17/outbox.cif.g08.bks.cpg/sg2_131_cif.got.tgz:261196.got - 2010.06.03 11:33:40.
