data_PCOD9046885
_publ_section_title
;
Structure prediction by ZEFSAII (Michael W. Deem and Ramdas Pophale) SiO2 
 PCOD9046885
Probable space group: P -1
;
_chemical_formula_sum "Si O2"
_cell_formula_units_Z 13
_cell_length_a 12.409420
_cell_length_b 11.887198
_cell_length_c 6.929891
_cell_angle_alpha 119.445583
_cell_angle_beta 119.362770
_cell_angle_gamma 41.887382
_cell_volume 580.602495
_symmetry_space_group_name_H-M "P -1"
_symmetry_group_IT_number 2
_symmetry_cell_setting 'triclinic'
loop_
_space_group_symop_operation_xyz
x,y,z
-x,-y,-z
loop_
_atom_site_type_symbol
_atom_site_label
_atom_site_fract_x
_atom_site_fract_y
_atom_site_fract_z
Si Si1 0.500000 0.000000 0.500000
Si Si2 0.986180 0.220942 0.629917
Si Si3 0.131078 0.308427 0.546745
Si Si4 0.465907 0.237796 0.428718
Si Si5 0.733687 0.172087 0.337709
Si Si6 0.211113 0.453411 0.060038
Si Si7 0.518346 0.630194 0.045762
O O1 0.706563 0.837392 0.558027
O O2 0.476752 0.948560 0.650305
O O3 0.818152 0.253780 0.490037
O O4 0.952474 0.357301 0.868227
O O5 0.038731 0.245164 0.491931
O O6 0.124340 0.030216 0.671863
O O7 0.000000 0.500000 0.500000
O O8 0.189786 0.343234 0.819409
O O9 0.598541 0.237209 0.438706
O O10 0.302815 0.362389 0.264812
O O11 0.457669 0.288338 0.687344
O O12 0.640470 0.221160 0.094346
O O13 0.327872 0.463963 0.041721
O O14 0.500000 0.500000 0.000000
#
# Coordination Sequence:
#
# PCOD9046885 Si02
#       7
#     1   2   2   2   2   2   2
#     4  12  24  46  74 102 140 182 240 288 342 430
#     4  11  23  46  65  99 146 180 229 291 348 420
#     4  12  27  46  73 105 140 187 236 292 352 416
#     4  11  23  45  69 100 135 181 234 288 349 411
#     4  10  24  43  69 101 139 186 227 282 357 412
#     4  11  25  44  69 101 138 181 234 292 350 412
#     4  11  23  41  71 100 135 183 231 285 345 419
#
# _framework density 22.390533000000001
#
# number of rings (size 3 to 8) (size 9 to 14) (size 15 to 20)
#    0.000    0.923    3.077    3.231    2.154    5.538 
#    0.000    2.308    0.000    0.000    0.000    0.000 
#    0.000    0.000    0.000    0.000    0.000    0.000 
#
# Total GULP energy -72453.769983 kJ/mol
# GULP energy per Si atom -5573.366922 kJ/mol
# Density = 2.233957 g / cm^3
# Si number density = 22.390533 Si / 1000 Ang^3
#
#
#
# Elastic Constant Matrix: (Units=GPa)
#
#
# Indices 1 2 3 4 5 6 
#
# 1 143.9395 30.3201 16.1808 -19.0107 -15.2800 3.4642
# 2 30.3201 95.2343 18.3233 -16.2003 -15.6590 -5.9500
# 3 16.1808 18.3233 87.0891 -16.7160 -17.1042 -6.1879
# 4 -19.0107 -16.2003 -16.7160 30.3510 6.8637 -14.6528
# 5 -15.2800 -15.6590 -17.1042 6.8637 22.9627 -3.5434
# 6 3.4642 -5.9500 -6.1879 -14.6528 -3.5434 31.9685
#
#
#
# Elastic Compliance Matrix: (Units=1/GPa)
#
#
# Indices 1 2 3 4 5 6 
#
# 1 0.008116 -0.001171 0.000479 0.004594 0.003821 0.001525
# 2 -0.001171 0.014156 0.001325 0.009741 0.008245 0.008397
# 3 0.000479 0.001325 0.016491 0.012538 0.011362 0.010393
# 4 0.004594 0.009741 0.012538 0.062671 0.005409 0.033067
# 5 0.003821 0.008245 0.011362 0.005409 0.060490 0.012504
# 6 0.001525 0.008397 0.010393 0.033067 0.012504 0.051232
#
#
# Mechanical properties :
#
#
# Convention : Reuss Voigt Hill
#
# Bulk Modulus (GPa) = 24.98219 50.65681 37.81950
# Shear Modulus (GPa) = 22.19927 34.48570 28.34248
#
# Velocity S-wave (km/s) = 3.15216 3.92878 3.56170
# Velocity P-wave (km/s) = 4.94265 6.57676 5.81737
#
# Compressibility (1/GPa) = 0.04002851
#
# Stress axis : x y z
#
# Youngs Moduli (GPa) = 123.21544 70.64292 60.63843
#
# Poissons Ratio (x) = 0.08273 -0.02905
# Poissons Ratio (y) = 0.14429 -0.08034
# Poissons Ratio (z) = -0.05902 -0.09359
#
# Static dielectric constant tensor:
#      x y z
#    x 1.896900 0.006750 0.012410 
#    y 0.006750 1.808650 -0.037340 
#    z 0.012410 -0.037340 1.735610 
# 
# From -- ./inp_files/28919.got.cif
#   From: 2010.05.17/outbox.cif.g08.bks.cpg/sg2_15_cif.got.tgz:28919.got - 2010.06.03 11:33:40.
