data_PCOD9046217
_publ_section_title
;
Structure prediction by ZEFSAII (Michael W. Deem and Ramdas Pophale) SiO2 
 PCOD9046217
Probable space group: P -1
;
_chemical_formula_sum "Si O2"
_cell_formula_units_Z 16
_cell_length_a 13.988576
_cell_length_b 11.388802
_cell_length_c 8.282854
_cell_angle_alpha 69.174925
_cell_angle_beta 126.050085
_cell_angle_gamma 144.907273
_cell_volume 590.381250
_symmetry_space_group_name_H-M "P -1"
_symmetry_group_IT_number 2
_symmetry_cell_setting 'triclinic'
loop_
_space_group_symop_operation_xyz
x,y,z
-x,-y,-z
loop_
_atom_site_type_symbol
_atom_site_label
_atom_site_fract_x
_atom_site_fract_y
_atom_site_fract_z
Si Si1 0.574497 0.868375 0.404888
Si Si2 0.771826 0.582637 0.594973
Si Si3 0.578834 0.404463 0.139667
Si Si4 0.143724 0.073036 0.468044
Si Si5 0.769384 0.297727 0.306431
Si Si6 0.232546 0.984808 0.127132
Si Si7 0.871221 0.291910 0.070901
Si Si8 0.104677 0.216219 0.931087
O O1 0.352029 0.627463 0.325897
O O2 0.672774 0.865467 0.364832
O O3 0.649061 0.073783 0.359588
O O4 0.661762 0.910155 0.648621
O O5 0.667146 0.515862 0.349278
O O6 0.774414 0.721899 0.614668
O O7 0.989400 0.704758 0.728821
O O8 0.669740 0.343800 0.229428
O O9 0.668674 0.563136 0.003574
O O10 0.337962 0.182946 0.026092
O O11 0.000000 0.000000 0.500000
O O12 0.003915 0.874157 0.305972
O O13 0.772308 0.276169 0.129099
O O14 0.000000 0.500000 0.500000
O O15 0.999966 0.778508 0.049989
O O16 0.272115 0.893940 0.111425
O O17 0.000000 0.500000 0.000000
O O18 0.000000 0.000000 0.000000
#
# Coordination Sequence:
#
# PCOD9046217 Si02
#       8
#     2   2   2   2   2   2   2   2
#     4  10  24  42  69 101 133 178 232 280 336 411
#     4  11  23  42  69 100 135 182 227 284 339 403
#     4  11  24  44  71  99 137 181 233 278 342 413
#     4  11  20  40  70  98 135 169 235 280 339 401
#     4  12  23  43  70  98 134 178 225 277 342 406
#     4  10  25  44  65 101 137 178 230 280 341 405
#     4  12  25  42  67  98 138 182 227 279 346 406
#     4  11  23  44  69  98 140 184 221 286 349 405
#
# _framework density 27.101130000000001
#
# number of rings (size 3 to 8) (size 9 to 14) (size 15 to 20)
#    0.000    1.000    2.500    4.875    1.750    2.000 
#    4.500    0.000    0.000    0.000    0.000    0.000 
#    0.000    0.000    0.000    0.000    0.000    0.000 
#
# Total GULP energy -89452.068248 kJ/mol
# GULP energy per Si atom -5590.754266 kJ/mol
# Density = 2.703945 g / cm^3
# Si number density = 27.101130 Si / 1000 Ang^3
#
#
#
# Elastic Constant Matrix: (Units=GPa)
#
#
# Indices 1 2 3 4 5 6 
#
# 1 130.3256 47.0283 47.3803 11.7431 -8.1789 -13.6879
# 2 47.0283 215.0624 16.3538 -14.7084 -3.3129 14.5696
# 3 47.3803 16.3538 41.2555 2.3951 -17.3104 15.1237
# 4 11.7431 -14.7084 2.3951 36.7060 -8.3420 -9.6007
# 5 -8.1789 -3.3129 -17.3104 -8.3420 43.5937 -8.1274
# 6 -13.6879 14.5696 15.1237 -9.6007 -8.1274 59.4518
#
#
#
# Elastic Compliance Matrix: (Units=1/GPa)
#
#
# Indices 1 2 3 4 5 6 
#
# 1 0.020720 -0.003511 -0.029116 -0.004691 -0.006721 0.011361
# 2 -0.003511 0.005557 0.002957 0.002782 0.001036 -0.002331
# 3 -0.029116 0.002957 0.073070 0.004494 0.020443 -0.022496
# 4 -0.004691 0.002782 0.004494 0.032251 0.007919 0.003385
# 5 -0.006721 0.001036 0.020443 0.007919 0.031116 -0.001469
# 6 0.011361 -0.002331 -0.022496 0.003385 -0.001469 0.026076
#
#
# Mechanical properties :
#
#
# Convention : Reuss Voigt Hill
#
# Bulk Modulus (GPa) = 24.99665 67.57424 46.28545
# Shear Modulus (GPa) = 19.12305 46.34235 32.73270
#
# Velocity S-wave (km/s) = 2.65923 4.13967 3.47911
# Velocity P-wave (km/s) = 4.32113 6.91646 5.76670
#
# Compressibility (1/GPa) = 0.04000535
#
# Stress axis : x y z
#
# Youngs Moduli (GPa) = 48.26371 179.95725 13.68560
#
# Poissons Ratio (x) = 0.63179 0.39847
# Poissons Ratio (y) = 0.16944 -0.04047
# Poissons Ratio (z) = 1.40526 -0.53211
#
# Static dielectric constant tensor:
#      x y z
#    x 2.171910 0.037850 0.104420 
#    y 0.037850 2.201610 -0.011360 
#    z 0.104420 -0.011360 2.183390 
# 
# From -- ./inp_files/307393.got.cif
#   From: 2010.05.17/outbox.cif.g08.bks.cpg/sg2_154_cif.got.tgz:307393.got - 2010.06.03 11:33:40.
