data_PCOD9046227
_publ_section_title
;
Structure prediction by ZEFSAII (Michael W. Deem and Ramdas Pophale) SiO2 
 PCOD9046227
Probable space group: P -1
;
_chemical_formula_sum "Si O2"
_cell_formula_units_Z 16
_cell_length_a 16.421568
_cell_length_b 13.258373
_cell_length_c 5.769095
_cell_angle_alpha 106.206114
_cell_angle_beta 105.241037
_cell_angle_gamma 30.413705
_cell_volume 609.967439
_symmetry_space_group_name_H-M "P -1"
_symmetry_group_IT_number 2
_symmetry_cell_setting 'triclinic'
loop_
_space_group_symop_operation_xyz
x,y,z
-x,-y,-z
loop_
_atom_site_type_symbol
_atom_site_label
_atom_site_fract_x
_atom_site_fract_y
_atom_site_fract_z
Si Si1 0.587328 0.964636 0.247427
Si Si2 0.913474 0.572632 0.227157
Si Si3 0.412236 0.249124 0.640653
Si Si4 0.945265 0.317328 0.892709
Si Si5 0.361317 0.673320 0.696781
Si Si6 0.301977 0.927798 0.114456
Si Si7 0.203251 0.668055 0.877999
Si Si8 0.893728 0.957311 0.562774
O O1 0.629387 0.826511 0.376253
O O2 0.767236 0.810307 0.248197
O O3 0.467574 0.181387 0.374050
O O4 0.500000 0.000000 0.000000
O O5 0.000000 0.500000 0.500000
O O6 0.000000 0.500000 0.000000
O O7 0.863653 0.504502 0.075583
O O8 0.580590 0.098392 0.796529
O O9 0.291300 0.470992 0.720052
O O10 0.998633 0.244386 0.620508
O O11 0.840569 0.325301 0.890765
O O12 0.122008 0.136144 0.024926
O O13 0.500000 0.500000 0.500000
O O14 0.317855 0.638703 0.851047
O O15 0.191749 0.872210 0.565870
O O16 0.390395 0.752256 0.900230
O O17 0.257802 0.927383 0.332526
O O18 0.024735 0.872392 0.770484
#
# Coordination Sequence:
#
# PCOD9046227 Si02
#       8
#     2   2   2   2   2   2   2   2
#     4  11  28  45  71 108 150 199 256 317 393 458
#     4  12  29  48  80 111 155 203 265 326 388 465
#     4  11  25  45  68  98 150 188 248 300 394 449
#     4  10  24  43  69 102 137 191 246 300 381 448
#     4  11  25  45  69 106 138 188 245 306 385 449
#     4  10  24  45  69  98 143 184 245 300 375 449
#     4  11  24  43  70  97 145 186 247 307 373 456
#     4  10  24  42  69 102 139 184 245 303 375 449
#
# _framework density 26.230906999999998
#
# number of rings (size 3 to 8) (size 9 to 14) (size 15 to 20)
#    0.000    1.250    1.250    1.875   12.250   10.500 
#    0.000    0.000    0.000    0.000    0.000    0.000 
#    0.000    0.000    0.000    0.000    0.000    0.000 
#
# Total GULP energy -89222.934704 kJ/mol
# GULP energy per Si atom -5576.433419 kJ/mol
# Density = 2.617120 g / cm^3
# Si number density = 26.230907 Si / 1000 Ang^3
#
#
#
# Elastic Constant Matrix: (Units=GPa)
#
#
# Indices 1 2 3 4 5 6 
#
# 1 107.7038 -17.4785 5.0869 18.3321 -9.0832 -6.3068
# 2 -17.4785 82.1725 10.6520 15.8325 -3.2460 -11.0733
# 3 5.0869 10.6520 104.8656 31.0756 1.7380 -5.6940
# 4 18.3321 15.8325 31.0756 58.3990 -0.4783 0.0031
# 5 -9.0832 -3.2460 1.7380 -0.4783 30.9709 4.1010
# 6 -6.3068 -11.0733 -5.6940 0.0031 4.1010 29.4144
#
#
#
# Elastic Compliance Matrix: (Units=1/GPa)
#
#
# Indices 1 2 3 4 5 6 
#
# 1 0.011171 0.003827 0.000652 -0.004866 0.003098 0.003531
# 2 0.003827 0.014893 0.000188 -0.005325 0.001767 0.006218
# 3 0.000652 0.000188 0.011536 -0.006401 -0.000875 0.002566
# 4 -0.004866 -0.005325 -0.006401 0.023496 -0.000708 -0.004191
# 5 0.003098 0.001767 -0.000875 -0.000708 0.033892 -0.003565
# 6 0.003531 0.006218 0.002566 -0.004191 -0.003565 0.038089
#
#
# Mechanical properties :
#
#
# Convention : Reuss Voigt Hill
#
# Bulk Modulus (GPa) = 21.30629 32.36253 26.83441
# Shear Modulus (GPa) = 35.87100 43.52230 39.69665
#
# Velocity S-wave (km/s) = 3.70200 4.07775 3.89441
# Velocity P-wave (km/s) = 5.13938 5.87665 5.52034
#
# Compressibility (1/GPa) = 0.04693450
#
# Stress axis : x y z
#
# Youngs Moduli (GPa) = 89.51446 67.14580 86.68389
#
# Poissons Ratio (x) = -0.25700 -0.05649
# Poissons Ratio (y) = -0.34262 -0.01628
# Poissons Ratio (z) = -0.05833 -0.01261
#
# Static dielectric constant tensor:
#      x y z
#    x 3.071380 -0.454430 -0.438870 
#    y -0.454430 2.286830 0.226560 
#    z -0.438870 0.226560 2.326820 
# 
# From -- ./inp_files/110995.got.cif
#   From: 2010.05.17/outbox.cif.g08.bks.cpg/sg2_56_cif.got.tgz:110995.got - 2010.06.03 11:33:40.
