data_PCOD9046118
_publ_section_title
;
Structure prediction by ZEFSAII (Michael W. Deem and Ramdas Pophale) SiO2 
 PCOD9046118
Probable space group: P -1
;
_chemical_formula_sum "Si O2"
_cell_formula_units_Z 14
_cell_length_a 10.249928
_cell_length_b 12.492346
_cell_length_c 14.808721
_cell_angle_alpha 153.303150
_cell_angle_beta 134.751803
_cell_angle_gamma 46.750734
_cell_volume 595.533520
_symmetry_space_group_name_H-M "P -1"
_symmetry_group_IT_number 2
_symmetry_cell_setting 'triclinic'
loop_
_space_group_symop_operation_xyz
x,y,z
-x,-y,-z
loop_
_atom_site_type_symbol
_atom_site_label
_atom_site_fract_x
_atom_site_fract_y
_atom_site_fract_z
Si Si1 0.858194 0.727083 0.567342
Si Si2 0.763862 0.424455 0.612221
Si Si3 0.839915 0.695615 0.315950
Si Si4 0.330617 0.995803 0.847016
Si Si5 0.975048 0.812810 0.011297
Si Si6 0.223610 0.484196 0.104546
Si Si7 0.449197 0.881274 0.479527
O O1 0.850261 0.699898 0.433575
O O2 0.646221 0.750477 0.515737
O O3 0.000000 0.500000 0.500000
O O4 0.937969 0.965992 0.815994
O O5 0.642623 0.272825 0.382164
O O6 0.720078 0.475851 0.733432
O O7 0.965036 0.241019 0.575040
O O8 0.820866 0.669546 0.782720
O O9 0.664758 0.892405 0.351476
O O10 0.858623 0.422151 0.081580
O O11 0.138497 0.072985 0.869387
O O12 0.500000 0.000000 0.000000
O O13 0.317528 0.206400 0.924673
O O14 0.310947 0.691310 0.254207
O O15 0.000000 0.500000 0.000000
O O16 0.500000 0.000000 0.500000
#
# Coordination Sequence:
#
# PCOD9046118 Si02
#       7
#     2   2   2   2   2   2   2
#     4  11  23  41  67  95 141 179 232 288 350 420
#     4   9  21  42  70  99 133 175 233 295 346 417
#     4   9  20  42  66  90 130 179 230 275 352 406
#     4  11  23  42  70  99 139 183 230 291 359 414
#     4   9  20  40  67  92 129 182 223 283 351 398
#     4  11  25  42  71 105 138 181 236 292 358 409
#     4  10  24  42  67  98 139 181 232 283 345 428
#
# _framework density 23.508334999999999
#
# number of rings (size 3 to 8) (size 9 to 14) (size 15 to 20)
#    0.857    1.143    1.429    0.857    8.000    5.714 
#    2.571    2.857    0.000    0.000    0.000    0.000 
#    0.000    0.000    0.000    0.000    0.000    0.000 
#
# Total GULP energy -78013.648796 kJ/mol
# GULP energy per Si atom -5572.403485 kJ/mol
# Density = 2.345483 g / cm^3
# Si number density = 23.508335 Si / 1000 Ang^3
#
#
#
# Elastic Constant Matrix: (Units=GPa)
#
#
# Indices 1 2 3 4 5 6 
#
# 1 57.5887 22.6857 38.7138 -1.2694 14.6965 -11.5719
# 2 22.6857 117.5625 66.7821 9.7633 6.9680 -20.2440
# 3 38.7138 66.7821 222.6151 2.6111 20.4589 -5.4192
# 4 -1.2694 9.7633 2.6111 38.4684 0.7112 -12.2713
# 5 14.6965 6.9680 20.4589 0.7112 47.2181 1.3468
# 6 -11.5719 -20.2440 -5.4192 -12.2713 1.3468 21.9534
#
#
#
# Elastic Compliance Matrix: (Units=1/GPa)
#
#
# Indices 1 2 3 4 5 6 
#
# 1 0.024755 -0.000296 -0.003279 0.006316 -0.006789 0.015913
# 2 -0.000296 0.012282 -0.003325 0.000514 -0.000592 0.010673
# 3 -0.003279 -0.003325 0.006071 -0.000839 -0.001001 -0.003703
# 4 0.006316 0.000514 -0.000839 0.033327 -0.002819 0.022398
# 5 -0.006789 -0.000592 -0.001001 -0.002819 0.024067 -0.007424
# 6 0.015913 0.010673 -0.003703 0.022398 -0.007424 0.075842
#
#
# Mechanical properties :
#
#
# Convention : Reuss Voigt Hill
#
# Bulk Modulus (GPa) = 34.11972 72.68106 53.40039
# Shear Modulus (GPa) = 25.01077 39.50031 32.25554
#
# Velocity S-wave (km/s) = 3.26530 4.10355 3.70819
# Velocity P-wave (km/s) = 5.36299 7.31003 6.41086
#
# Compressibility (1/GPa) = 0.02930856
#
# Stress axis : x y z
#
# Youngs Moduli (GPa) = 40.39610 81.41908 164.70722
#
# Poissons Ratio (x) = 0.02412 0.54005
# Poissons Ratio (y) = 0.01197 0.54762
# Poissons Ratio (z) = 0.13245 0.27070
#
# Static dielectric constant tensor:
#      x y z
#    x 1.969230 0.027020 0.018470 
#    y 0.027020 1.984470 -0.002370 
#    z 0.018470 -0.002370 1.938660 
# 
# From -- ./inp_files/569892.got.cif
#   From: 2010.05.17/outbox.cif.g08.bks.cpg/sg2_285_cif.got.tgz:569892.got - 2010.06.03 11:33:40.
