data_PCOD9046377
_publ_section_title
;
Structure prediction by ZEFSAII (Michael W. Deem and Ramdas Pophale) SiO2 
 PCOD9046377
Probable space group: P -1
;
_chemical_formula_sum "Si O2"
_cell_formula_units_Z 16
_cell_length_a 21.533304
_cell_length_b 10.477653
_cell_length_c 7.635232
_cell_angle_alpha 124.360712
_cell_angle_beta 42.806807
_cell_angle_gamma 146.393112
_cell_volume 642.914482
_symmetry_space_group_name_H-M "P -1"
_symmetry_group_IT_number 2
_symmetry_cell_setting 'triclinic'
loop_
_space_group_symop_operation_xyz
x,y,z
-x,-y,-z
loop_
_atom_site_type_symbol
_atom_site_label
_atom_site_fract_x
_atom_site_fract_y
_atom_site_fract_z
Si Si1 0.485187 0.163717 0.615698
Si Si2 0.827875 0.390716 0.703626
Si Si3 0.192594 0.874682 0.919765
Si Si4 0.265918 0.325780 0.643046
Si Si5 0.136402 0.113670 0.402462
Si Si6 0.308471 0.489023 0.052951
Si Si7 0.970630 0.570342 0.881918
Si Si8 0.394154 0.153017 0.176851
O O1 0.623697 0.404118 0.432352
O O2 0.500000 0.000000 0.500000
O O3 0.351909 0.044835 0.684039
O O4 0.448949 0.198671 0.901961
O O5 0.953664 0.477522 0.405754
O O6 0.887644 0.543463 0.875689
O O7 0.723369 0.122722 0.763335
O O8 0.750945 0.415180 0.762625
O O9 0.095816 0.806684 0.907712
O O10 0.134148 0.636264 0.923138
O O11 0.164739 0.968333 0.197886
O O12 0.142976 0.168318 0.634236
O O13 0.244634 0.318676 0.887653
O O14 0.337549 0.251157 0.403943
O O15 0.260447 0.351238 0.224924
O O16 0.000000 0.000000 0.500000
O O17 0.471962 0.700858 0.867472
#
# Coordination Sequence:
#
# PCOD9046377 Si02
#       8
#     2   2   2   2   2   2   2   2
#     4  12  25  43  75 105 140 187 237 295 359 416
#     4  11  24  45  67 106 138 185 234 293 347 425
#     4  11  24  45  70 104 136 192 235 290 358 418
#     4  12  27  48  74 104 144 183 240 296 353 426
#     4  12  27  48  74 104 146 189 236 291 358 425
#     4  12  28  44  73 108 141 183 241 293 354 422
#     4  10  24  42  71  95 146 179 238 283 353 421
#     4  12  24  48  72 101 146 188 236 296 360 412
#
# _framework density 24.886669999999999
#
# number of rings (size 3 to 8) (size 9 to 14) (size 15 to 20)
#    0.000    0.500    3.750    3.375    7.000    2.500 
#    0.000    0.000    0.000    0.000    0.000    0.000 
#    0.000    0.000    0.000    0.000    0.000    0.000 
#
# Total GULP energy -89664.172165 kJ/mol
# GULP energy per Si atom -5604.010760 kJ/mol
# Density = 2.483003 g / cm^3
# Si number density = 24.886670 Si / 1000 Ang^3
#
#
#
# Elastic Constant Matrix: (Units=GPa)
#
#
# Indices 1 2 3 4 5 6 
#
# 1 79.5062 38.4990 9.7689 4.9608 -2.6774 27.9977
# 2 38.4990 92.3587 3.5642 -6.2594 -8.3164 14.1802
# 3 9.7689 3.5642 56.3865 0.8054 -3.5095 7.9485
# 4 4.9608 -6.2594 0.8054 34.9045 4.0023 -1.8883
# 5 -2.6774 -8.3164 -3.5095 4.0023 43.2103 -1.0918
# 6 27.9977 14.1802 7.9485 -1.8883 -1.0918 53.0995
#
#
#
# Elastic Compliance Matrix: (Units=1/GPa)
#
#
# Indices 1 2 3 4 5 6 
#
# 1 0.019374 -0.007054 -0.001692 -0.004414 -0.000094 -0.008237
# 2 -0.007054 0.014151 0.000400 0.003302 0.002014 0.000039
# 3 -0.001692 0.000400 0.018373 -0.000383 0.001451 -0.001949
# 4 -0.004414 0.003302 -0.000383 0.030291 -0.002411 0.002531
# 5 -0.000094 0.002014 0.001451 -0.002411 0.023858 -0.000301
# 6 -0.008237 0.000039 -0.001949 0.002531 -0.000301 0.023541
#
#
# Mechanical properties :
#
#
# Convention : Reuss Voigt Hill
#
# Bulk Modulus (GPa) = 28.40324 36.87951 32.64138
# Shear Modulus (GPa) = 31.64242 38.00414 34.82328
#
# Velocity S-wave (km/s) = 3.56962 3.91204 3.74475
# Velocity P-wave (km/s) = 5.33174 5.93772 5.64287
#
# Compressibility (1/GPa) = 0.03520725
#
# Stress axis : x y z
#
# Youngs Moduli (GPa) = 51.61540 70.66485 54.42739
#
# Poissons Ratio (x) = 0.49844 0.09211
# Poissons Ratio (y) = 0.36407 -0.02178
# Poissons Ratio (z) = 0.08735 -0.02828
#
# Static dielectric constant tensor:
#      x y z
#    x 2.003730 0.054250 0.038250 
#    y 0.054250 1.984260 0.021930 
#    z 0.038250 0.021930 1.919350 
# 
# From -- ./inp_files/353660.got.cif
#   From: 2010.05.17/outbox.cif.g08.bks.cpg/sg2_177_cif.got.tgz:353660.got - 2010.06.03 11:33:40.
