data_PCOD9046206
_publ_section_title
;
Structure prediction by ZEFSAII (Michael W. Deem and Ramdas Pophale) SiO2 
 PCOD9046206
Probable space group: P -1
;
_chemical_formula_sum "Si O2"
_cell_formula_units_Z 16
_cell_length_a 11.431274
_cell_length_b 12.527578
_cell_length_c 8.193597
_cell_angle_alpha 106.789079
_cell_angle_beta 53.141111
_cell_angle_gamma 130.632540
_cell_volume 702.403651
_symmetry_space_group_name_H-M "P -1"
_symmetry_group_IT_number 2
_symmetry_cell_setting 'triclinic'
loop_
_space_group_symop_operation_xyz
x,y,z
-x,-y,-z
loop_
_atom_site_type_symbol
_atom_site_label
_atom_site_fract_x
_atom_site_fract_y
_atom_site_fract_z
Si Si1 0.665853 0.487037 0.352983
Si Si2 0.722610 0.991546 0.192204
Si Si3 0.945263 0.353487 0.414730
Si Si4 0.601255 0.236216 0.115004
Si Si5 0.940740 0.292674 0.034811
Si Si6 0.643167 0.041559 0.622400
Si Si7 0.429735 0.280296 0.991834
Si Si8 0.705346 0.569322 0.706915
O O1 0.500000 0.500000 0.500000
O O2 0.585411 0.328901 0.300870
O O3 0.757652 0.542824 0.478616
O O4 0.841644 0.587763 0.130198
O O5 0.541883 0.980156 0.289069
O O6 0.895265 0.142161 0.041175
O O7 0.716694 0.996040 0.395075
O O8 0.697447 0.861652 0.070285
O O9 0.881061 0.325380 0.268335
O O10 0.799934 0.211462 0.578915
O O11 0.000000 0.500000 0.500000
O O12 0.135218 0.373772 0.269501
O O13 0.800840 0.273995 0.005145
O O14 0.573422 0.276827 0.978874
O O15 0.431937 0.068515 0.214587
O O16 0.332150 0.317438 0.216977
O O17 0.530804 0.412899 0.842793
#
# Coordination Sequence:
#
# PCOD9046206 Si02
#       8
#     2   2   2   2   2   2   2   2
#     4  12  24  43  63  94 133 176 213 271 330 390
#     4   9  19  41  64  91 129 168 210 271 324 392
#     4  11  22  42  70 102 132 170 217 277 321 387
#     4  11  22  42  67  97 131 169 217 280 322 385
#     4  10  24  42  68  99 128 169 227 263 332 392
#     4   9  20  38  65  98 127 166 216 263 336 387
#     4  11  23  41  64  93 129 176 216 272 328 382
#     4  11  25  41  62  92 130 172 225 262 329 399
#
# _framework density 22.778925000000001
#
# number of rings (size 3 to 8) (size 9 to 14) (size 15 to 20)
#    0.000    1.500    1.250    4.125    1.750    5.000 
#    2.250    2.500    0.000    0.000    0.000    0.000 
#    0.000    0.000    0.000    0.000    0.000    0.000 
#
# Total GULP energy -89400.384962 kJ/mol
# GULP energy per Si atom -5587.524060 kJ/mol
# Density = 2.272708 g / cm^3
# Si number density = 22.778925 Si / 1000 Ang^3
#
#
#
# Elastic Constant Matrix: (Units=GPa)
#
#
# Indices 1 2 3 4 5 6 
#
# 1 56.2064 18.6540 9.5745 7.0062 1.8317 -3.9503
# 2 18.6540 174.9028 55.3001 2.2539 0.2778 0.2030
# 3 9.5745 55.3001 64.3097 14.8885 -1.0216 -9.8964
# 4 7.0062 2.2539 14.8885 32.6038 14.1495 3.2368
# 5 1.8317 0.2778 -1.0216 14.1495 24.6461 3.2198
# 6 -3.9503 0.2030 -9.8964 3.2368 3.2198 21.5071
#
#
#
# Elastic Compliance Matrix: (Units=1/GPa)
#
#
# Indices 1 2 3 4 5 6 
#
# 1 0.019365 -0.002382 0.001203 -0.005539 0.001192 0.004788
# 2 -0.002382 0.008966 -0.009690 0.006246 -0.003201 -0.005442
# 3 0.001203 -0.009690 0.030940 -0.019927 0.010658 0.015953
# 4 -0.005539 0.006246 -0.019927 0.055052 -0.030261 -0.014000
# 5 0.001192 -0.003201 0.010658 -0.030261 0.058207 0.000994
# 6 0.004788 -0.005442 0.015953 -0.014000 0.000994 0.056726
#
#
# Mechanical properties :
#
#
# Convention : Reuss Voigt Hill
#
# Bulk Modulus (GPa) = 26.64199 51.38625 39.01412
# Shear Modulus (GPa) = 18.97499 29.87742 24.42620
#
# Velocity S-wave (km/s) = 2.88932 3.62557 3.27818
# Velocity P-wave (km/s) = 4.78039 6.33514 5.61187
#
# Compressibility (1/GPa) = 0.03753473
#
# Stress axis : x y z
#
# Youngs Moduli (GPa) = 51.63908 111.53247 32.32038
#
# Poissons Ratio (x) = 0.26565 -0.03888
# Poissons Ratio (y) = 0.12299 0.31317
# Poissons Ratio (z) = -0.06212 1.08070
#
# Static dielectric constant tensor:
#      x y z
#    x 1.880040 -0.007920 0.013590 
#    y -0.007920 1.861080 -0.006910 
#    z 0.013590 -0.006910 1.872260 
# 
# From -- ./inp_files/262774.got.cif
#   From: 2010.05.17/outbox.cif.g08.bks.cpg/sg2_132_cif.got.tgz:262774.got - 2010.06.03 11:33:40.
