data_PCOD9046399
_publ_section_title
;
Structure prediction by ZEFSAII (Michael W. Deem and Ramdas Pophale) SiO2 
 PCOD9046399
Probable space group: P -1
;
_chemical_formula_sum "Si O2"
_cell_formula_units_Z 14
_cell_length_a 11.184753
_cell_length_b 6.862855
_cell_length_c 8.011926
_cell_angle_alpha 81.662102
_cell_angle_beta 104.682248
_cell_angle_gamma 111.979853
_cell_volume 550.805170
_symmetry_space_group_name_H-M "P -1"
_symmetry_group_IT_number 2
_symmetry_cell_setting 'triclinic'
loop_
_space_group_symop_operation_xyz
x,y,z
-x,-y,-z
loop_
_atom_site_type_symbol
_atom_site_label
_atom_site_fract_x
_atom_site_fract_y
_atom_site_fract_z
Si Si1 0.900793 0.151529 0.068890
Si Si2 0.026275 0.141922 0.653179
Si Si3 0.320519 0.493561 0.321152
Si Si4 0.670730 0.699498 0.306033
Si Si5 0.961993 0.469150 0.749529
Si Si6 0.372581 0.221163 0.072600
Si Si7 0.516652 0.958626 0.317081
O O1 0.912828 0.319027 0.202791
O O2 0.989444 0.019263 0.179858
O O3 0.959692 0.310194 0.919540
O O4 0.757693 0.986260 0.990700
O O5 0.180924 0.275274 0.686049
O O6 0.954830 0.310005 0.616222
O O7 0.000000 0.000000 0.500000
O O8 0.367708 0.446837 0.526884
O O9 0.168957 0.473805 0.290171
O O10 0.337489 0.337877 0.204217
O O11 0.405010 0.730969 0.270292
O O12 0.650520 0.915035 0.331206
O O13 0.600923 0.651044 0.107974
O O14 0.487584 0.134575 0.176521
O O15 0.500000 0.000000 0.500000
#
# Coordination Sequence:
#
# PCOD9046399 Si02
#       7
#     2   2   2   2   2   2   2
#     4  10  24  42  72 101 142 188 238 287 357 431
#     4  11  26  44  68 106 145 188 234 296 363 425
#     4  12  27  48  76 110 144 193 241 297 362 434
#     4  11  27  47  72 109 144 185 244 304 351 431
#     4  11  25  43  71 107 144 187 237 293 359 433
#     4  11  26  49  75 108 145 191 244 296 369 422
#     4  12  26  51  76 103 144 196 242 302 364 421
#
# _framework density 25.417335000000001
#
# number of rings (size 3 to 8) (size 9 to 14) (size 15 to 20)
#    0.000    0.857    2.857    2.143   14.000    2.857 
#    5.143    0.000    0.000    0.000    0.000    0.000 
#    0.000    0.000    0.000    0.000    0.000    0.000 
#
# Total GULP energy -78337.964401 kJ/mol
# GULP energy per Si atom -5595.568886 kJ/mol
# Density = 2.535948 g / cm^3
# Si number density = 25.417335 Si / 1000 Ang^3
#
#
#
# Elastic Constant Matrix: (Units=GPa)
#
#
# Indices 1 2 3 4 5 6 
#
# 1 68.7406 35.8088 4.4599 -2.2285 -5.6059 -15.9894
# 2 35.8088 132.0680 56.1831 13.8138 -5.1621 -18.7661
# 3 4.4599 56.1831 172.8871 -15.6930 -3.3196 -14.3490
# 4 -2.2285 13.8138 -15.6930 58.8575 -9.1892 5.3312
# 5 -5.6059 -5.1621 -3.3196 -9.1892 24.2952 1.1272
# 6 -15.9894 -18.7661 -14.3490 5.3312 1.1272 48.9518
#
#
#
# Elastic Compliance Matrix: (Units=1/GPa)
#
#
# Indices 1 2 3 4 5 6 
#
# 1 0.018660 -0.005425 0.001965 0.002793 0.004284 0.004189
# 2 -0.005425 0.011328 -0.003782 -0.004212 -0.001045 0.001945
# 3 0.001965 -0.003782 0.007360 0.003116 0.001789 0.000969
# 4 0.002793 -0.004212 0.003116 0.020359 0.007977 -0.002190
# 5 0.004284 -0.001045 0.001789 0.007977 0.045206 -0.000387
# 6 0.004189 0.001945 0.000969 -0.002190 -0.000387 0.023073
#
#
# Mechanical properties :
#
#
# Convention : Reuss Voigt Hill
#
# Bulk Modulus (GPa) = 43.73747 62.95549 53.34648
# Shear Modulus (GPa) = 33.76268 44.90382 39.33325
#
# Velocity S-wave (km/s) = 3.64858 4.20773 3.93809
# Velocity P-wave (km/s) = 5.91563 6.95910 6.45847
#
# Compressibility (1/GPa) = 0.02286369
#
# Stress axis : x y z
#
# Youngs Moduli (GPa) = 53.59019 88.27853 135.86710
#
# Poissons Ratio (x) = 0.47891 -0.26698
# Poissons Ratio (y) = 0.29073 0.51388
# Poissons Ratio (z) = -0.10530 0.33389
#
# Static dielectric constant tensor:
#      x y z
#    x 1.871120 -0.071970 -0.044140 
#    y -0.071970 1.980070 0.047290 
#    z -0.044140 0.047290 2.087230 
# 
# From -- ./inp_files/229650.got.cif
#   From: 2010.05.17/outbox.cif.g08.bks.cpg/sg2_115_cif.got.tgz:229650.got - 2010.06.03 11:33:40.
