data_PCOD9046332
_publ_section_title
;
Structure prediction by ZEFSAII (Michael W. Deem and Ramdas Pophale) SiO2 
 PCOD9046332
Probable space group: P -1
;
_chemical_formula_sum "Si O2"
_cell_formula_units_Z 14
_cell_length_a 8.702173
_cell_length_b 9.304758
_cell_length_c 10.906683
_cell_angle_alpha 115.098374
_cell_angle_beta 75.552160
_cell_angle_gamma 134.104129
_cell_volume 572.858725
_symmetry_space_group_name_H-M "P -1"
_symmetry_group_IT_number 2
_symmetry_cell_setting 'triclinic'
loop_
_space_group_symop_operation_xyz
x,y,z
-x,-y,-z
loop_
_atom_site_type_symbol
_atom_site_label
_atom_site_fract_x
_atom_site_fract_y
_atom_site_fract_z
Si Si1 0.108239 0.935103 0.284979
Si Si2 0.282127 0.151851 0.565630
Si Si3 0.692858 0.528709 0.769496
Si Si4 0.900655 0.262348 0.402253
Si Si5 0.331994 0.129269 0.084918
Si Si6 0.339635 0.840078 0.803017
Si Si7 0.910236 0.436129 0.856600
O O1 0.171442 0.794445 0.233217
O O2 0.872802 0.814477 0.339187
O O3 0.265191 0.141353 0.417556
O O4 0.114825 0.974955 0.152930
O O5 0.511924 0.330799 0.646399
O O6 0.165495 0.909715 0.544410
O O7 0.913451 0.688403 0.703643
O O8 0.625056 0.659082 0.871096
O O9 0.741157 0.451999 0.850359
O O10 0.000000 0.500000 0.500000
O O11 0.678424 0.145994 0.332004
O O12 0.493709 0.159812 0.162019
O O13 0.337588 0.011628 0.929499
O O14 0.115397 0.605802 0.794313
O O15 0.000000 0.500000 0.000000
#
# Coordination Sequence:
#
# PCOD9046332 Si02
#       7
#     2   2   2   2   2   2   2
#     4  11  24  44  70  97 143 178 230 282 340 403
#     4  11  25  45  69 102 137 183 230 282 338 404
#     4  11  26  43  72 101 135 182 230 280 344 404
#     4  11  25  44  67 103 139 178 228 283 343 405
#     4  11  23  45  69 101 133 184 228 281 345 403
#     4  10  24  42  70  96 140 176 228 284 346 402
#     4  11  23  43  68 100 134 180 222 285 343 407
#
# _framework density 24.438832999999999
#
# number of rings (size 3 to 8) (size 9 to 14) (size 15 to 20)
#    0.000    1.143    2.857    2.571    4.000    6.286 
#    0.000    2.143    0.000    0.000    0.000    0.000 
#    0.000    0.000    0.000    0.000    0.000    0.000 
#
# Total GULP energy -78284.256055 kJ/mol
# GULP energy per Si atom -5591.732575 kJ/mol
# Density = 2.438321 g / cm^3
# Si number density = 24.438833 Si / 1000 Ang^3
#
#
#
# Elastic Constant Matrix: (Units=GPa)
#
#
# Indices 1 2 3 4 5 6 
#
# 1 96.6251 19.7065 51.7139 26.6271 -3.6909 -16.1374
# 2 19.7065 65.4235 0.3801 17.6439 -6.8699 -19.3472
# 3 51.7139 0.3801 90.0157 7.6209 1.8266 -20.9473
# 4 26.6271 17.6439 7.6209 33.8839 -5.0580 -5.3377
# 5 -3.6909 -6.8699 1.8266 -5.0580 42.8181 17.6906
# 6 -16.1374 -19.3472 -20.9473 -5.3377 17.6906 38.4469
#
#
#
# Elastic Compliance Matrix: (Units=1/GPa)
#
#
# Indices 1 2 3 4 5 6 
#
# 1 0.019641 -0.002913 -0.010503 -0.011592 0.000658 -0.000856
# 2 -0.002913 0.022071 0.005480 -0.008868 -0.003457 0.013229
# 3 -0.010503 0.005480 0.019864 0.001990 -0.005608 0.012029
# 4 -0.011592 -0.008868 0.001990 0.042761 0.004319 -0.004295
# 5 0.000658 -0.003457 -0.005608 0.004319 0.031147 -0.018251
# 6 -0.000856 0.013229 0.012029 -0.004295 -0.018251 0.046663
#
#
# Mechanical properties :
#
#
# Convention : Reuss Voigt Hill
#
# Bulk Modulus (GPa) = 21.87942 43.96280 32.92111
# Shear Modulus (GPa) = 23.44627 35.04737 29.24682
#
# Velocity S-wave (km/s) = 3.10076 3.79104 3.46314
# Velocity P-wave (km/s) = 4.66816 6.09841 5.43058
#
# Compressibility (1/GPa) = 0.04570504
#
# Stress axis : x y z
#
# Youngs Moduli (GPa) = 50.91386 45.30738 50.34151
#
# Poissons Ratio (x) = 0.13198 0.52872
# Poissons Ratio (y) = 0.14831 -0.27586
# Poissons Ratio (z) = 0.53473 -0.24827
#
# Static dielectric constant tensor:
#      x y z
#    x 3.075110 0.003110 0.748040 
#    y 0.003110 2.007380 -0.085890 
#    z 0.748040 -0.085890 2.491990 
# 
# From -- ./inp_files/159422.got.cif
#   From: 2010.05.17/outbox.cif.g08.bks.cpg/sg2_80_cif.got.tgz:159422.got - 2010.06.03 11:33:40.
