data_PCOD9046316
_publ_section_title
;
Structure prediction by ZEFSAII (Michael W. Deem and Ramdas Pophale) SiO2 
 PCOD9046316
Probable space group: P -1
;
_chemical_formula_sum "Si O2"
_cell_formula_units_Z 14
_cell_length_a 7.233639
_cell_length_b 8.686274
_cell_length_c 9.724468
_cell_angle_alpha 103.970154
_cell_angle_beta 93.988791
_cell_angle_gamma 85.720902
_cell_volume 590.455711
_symmetry_space_group_name_H-M "P -1"
_symmetry_group_IT_number 2
_symmetry_cell_setting 'triclinic'
loop_
_space_group_symop_operation_xyz
x,y,z
-x,-y,-z
loop_
_atom_site_type_symbol
_atom_site_label
_atom_site_fract_x
_atom_site_fract_y
_atom_site_fract_z
Si Si1 0.882766 0.354631 0.509073
Si Si2 0.879085 0.677211 0.216562
Si Si3 0.346644 0.039823 0.618599
Si Si4 0.630938 0.398558 0.091131
Si Si5 0.480649 0.720898 0.653326
Si Si6 0.111701 0.875370 0.077213
Si Si7 0.158060 0.118518 0.369225
O O1 0.661585 0.360967 0.476419
O O2 0.000000 0.500000 0.500000
O O3 0.958823 0.323626 0.659973
O O4 0.962737 0.216418 0.380115
O O5 0.804510 0.504975 0.155927
O O6 0.965936 0.755782 0.105335
O O7 0.698809 0.790344 0.278136
O O8 0.391793 0.902695 0.700157
O O9 0.500000 0.000000 0.500000
O O10 0.178671 0.039716 0.502866
O O11 0.524414 0.365913 0.220389
O O12 0.500000 0.500000 0.000000
O O13 0.718858 0.232144 0.000885
O O14 0.685698 0.751537 0.615115
O O15 0.180099 0.983798 0.228128
O O16 0.000000 0.000000 0.000000
#
# Coordination Sequence:
#
# PCOD9046316 Si02
#       7
#     2   2   2   2   2   2   2
#     4  11  22  43  71 105 139 176 232 301 372 414
#     4  11  24  46  71 102 146 183 239 303 356 423
#     4   9  20  41  72 102 134 175 233 294 363 410
#     4  12  29  45  68 107 147 195 237 291 360 421
#     4  11  23  45  72 100 140 181 238 294 355 424
#     4  12  27  47  75  99 141 201 248 283 348 435
#     4  10  24  42  70 108 133 179 241 294 360 424
#
# _framework density 23.710498000000001
#
# number of rings (size 3 to 8) (size 9 to 14) (size 15 to 20)
#    0.000    1.143    1.429    3.857    6.000    4.571 
#    5.143    0.000    0.000    0.000    0.000    0.000 
#    0.000    0.000    0.000    0.000    0.000    0.000 
#
# Total GULP energy -78178.750802 kJ/mol
# GULP energy per Si atom -5584.196486 kJ/mol
# Density = 2.365653 g / cm^3
# Si number density = 23.710498 Si / 1000 Ang^3
#
#
#
# Elastic Constant Matrix: (Units=GPa)
#
#
# Indices 1 2 3 4 5 6 
#
# 1 114.7404 22.8208 4.6139 0.9700 -4.8448 6.3960
# 2 22.8208 94.1606 39.0884 -21.3579 -0.2097 0.7191
# 3 4.6139 39.0884 69.9802 -12.5704 4.6566 -8.8018
# 4 0.9700 -21.3579 -12.5704 58.6627 4.2920 -2.8829
# 5 -4.8448 -0.2097 4.6566 4.2920 28.2333 -0.3447
# 6 6.3960 0.7191 -8.8018 -2.8829 -0.3447 48.7706
#
#
#
# Elastic Compliance Matrix: (Units=1/GPa)
#
#
# Indices 1 2 3 4 5 6 
#
# 1 0.009386 -0.002715 0.000414 -0.001237 0.001696 -0.001177
# 2 -0.002715 0.015455 -0.007911 0.003899 0.000348 -0.001067
# 3 0.000414 -0.007911 0.019694 0.001768 -0.003459 0.003697
# 4 -0.001237 0.003899 0.001768 0.019188 -0.003373 0.001534
# 5 0.001696 0.000348 -0.003459 -0.003373 0.036786 -0.000791
# 6 -0.001177 -0.001067 0.003697 0.001534 -0.000791 0.021427
#
#
# Mechanical properties :
#
#
# Convention : Reuss Voigt Hill
#
# Bulk Modulus (GPa) = 41.47081 45.76971 43.62026
# Shear Modulus (GPa) = 33.24565 41.29051 37.26808
#
# Velocity S-wave (km/s) = 3.74859 4.17759 3.96889
# Velocity P-wave (km/s) = 6.02199 6.52803 6.28011
#
# Compressibility (1/GPa) = 0.02411335
#
# Stress axis : x y z
#
# Youngs Moduli (GPa) = 106.53877 64.70272 50.77740
#
# Poissons Ratio (x) = 0.17564 -0.02104
# Poissons Ratio (y) = 0.28921 0.40169
# Poissons Ratio (z) = -0.04415 0.51185
#
# Static dielectric constant tensor:
#      x y z
#    x 1.989810 -0.097460 0.012200 
#    y -0.097460 2.111560 0.026340 
#    z 0.012200 0.026340 1.906350 
# 
# From -- ./inp_files/155565.got.cif
#   From: 2010.05.17/outbox.cif.g08.bks.cpg/sg2_78_cif.got.tgz:155565.got - 2010.06.03 11:33:40.
