data_PCOD9046376
_publ_section_title
;
Structure prediction by ZEFSAII (Michael W. Deem and Ramdas Pophale) SiO2 
 PCOD9046376
Probable space group: P -1
;
_chemical_formula_sum "Si O2"
_cell_formula_units_Z 14
_cell_length_a 15.310889
_cell_length_b 8.975670
_cell_length_c 9.673975
_cell_angle_alpha 95.313340
_cell_angle_beta 121.388658
_cell_angle_gamma 39.627280
_cell_volume 596.363506
_symmetry_space_group_name_H-M "P -1"
_symmetry_group_IT_number 2
_symmetry_cell_setting 'triclinic'
loop_
_space_group_symop_operation_xyz
x,y,z
-x,-y,-z
loop_
_atom_site_type_symbol
_atom_site_label
_atom_site_fract_x
_atom_site_fract_y
_atom_site_fract_z
Si Si1 0.957916 0.131262 0.328019
Si Si2 0.413649 0.987974 0.617970
Si Si3 0.195383 0.157621 0.998374
Si Si4 0.180967 0.353059 0.714321
Si Si5 0.611519 0.378002 0.940070
Si Si6 0.231200 0.376705 0.262775
Si Si7 0.351759 0.753806 0.508972
O O1 0.867754 0.410145 0.296338
O O2 0.806357 0.224165 0.122382
O O3 0.161673 0.894423 0.395162
O O4 0.000000 0.000000 0.500000
O O5 0.635874 0.683609 0.728954
O O6 0.290774 0.001334 0.456597
O O7 0.364265 0.090236 0.743096
O O8 0.341052 0.217261 0.484412
O O9 0.199998 0.247434 0.868375
O O10 0.992111 0.321473 0.860890
O O11 0.353038 0.832962 0.102504
O O12 0.224191 0.235353 0.153036
O O13 0.000000 0.500000 0.500000
O O14 0.500000 0.500000 0.000000
O O15 0.471492 0.628599 0.737746
O O16 0.500000 0.500000 0.500000
#
# Coordination Sequence:
#
# PCOD9046376 Si02
#       7
#     2   2   2   2   2   2   2
#     4  12  27  47  75 103 144 190 232 293 357 413
#     4  11  24  44  69 102 134 182 234 281 348 414
#     4  11  24  46  68 101 136 178 233 284 342 419
#     4  12  23  44  74 100 135 180 236 288 339 411
#     4  12  27  46  73 104 143 188 237 284 358 422
#     4  10  24  42  71  95 138 177 227 285 351 404
#     4  12  27  47  71 105 148 182 237 294 352 421
#
# _framework density 23.475612999999999
#
# number of rings (size 3 to 8) (size 9 to 14) (size 15 to 20)
#    0.000    0.571    4.286    2.571    6.000    3.429 
#    0.000    0.000    0.000    0.000    0.000    0.000 
#    0.000    0.000    0.000    0.000    0.000    0.000 
#
# Total GULP energy -78326.540686 kJ/mol
# GULP energy per Si atom -5594.752906 kJ/mol
# Density = 2.342218 g / cm^3
# Si number density = 23.475613 Si / 1000 Ang^3
#
#
#
# Elastic Constant Matrix: (Units=GPa)
#
#
# Indices 1 2 3 4 5 6 
#
# 1 132.8039 38.4227 32.2447 -3.1418 4.9040 -30.5945
# 2 38.4227 99.3049 -13.5760 17.8195 -6.6902 -16.3930
# 3 32.2447 -13.5760 91.3311 4.3806 -3.0596 -11.2426
# 4 -3.1418 17.8195 4.3806 25.9902 -4.5364 1.6497
# 5 4.9040 -6.6902 -3.0596 -4.5364 45.6967 -0.6400
# 6 -30.5945 -16.3930 -11.2426 1.6497 -0.6400 57.0599
#
#
#
# Elastic Compliance Matrix: (Units=1/GPa)
#
#
# Indices 1 2 3 4 5 6 
#
# 1 0.011229 -0.005527 -0.004694 0.005422 -0.001744 0.003332
# 2 -0.005527 0.015757 0.005316 -0.012192 0.002087 0.002987
# 3 -0.004694 0.005316 0.014001 -0.006416 0.001610 0.001972
# 4 0.005422 -0.012192 -0.006416 0.049134 0.002036 -0.003258
# 5 -0.001744 0.002087 0.001610 0.002036 0.022689 0.000178
# 6 0.003332 0.002987 0.001972 -0.003258 0.000178 0.020655
#
#
# Mechanical properties :
#
#
# Convention : Reuss Voigt Hill
#
# Bulk Modulus (GPa) = 32.07590 48.62475 40.35033
# Shear Modulus (GPa) = 32.53790 43.50593 38.02192
#
# Velocity S-wave (km/s) = 3.72698 4.30960 4.02883
# Velocity P-wave (km/s) = 5.67571 6.74695 6.23438
#
# Compressibility (1/GPa) = 0.03117605
#
# Stress axis : x y z
#
# Youngs Moduli (GPa) = 89.05614 63.46521 71.42260
#
# Poissons Ratio (x) = 0.35076 0.33528
# Poissons Ratio (y) = 0.49220 -0.37967
# Poissons Ratio (z) = 0.41806 -0.33737
#
# Static dielectric constant tensor:
#      x y z
#    x 2.074880 0.013580 -0.025140 
#    y 0.013580 1.892820 -0.072030 
#    z -0.025140 -0.072030 1.888350 
# 
# From -- ./inp_files/209407.got.cif
#   From: 2010.05.17/outbox.cif.g08.bks.cpg/sg2_105_cif.got.tgz:209407.got - 2010.06.03 11:33:40.
