data_PCOD9046834
_publ_section_title
;
Structure prediction by ZEFSAII (Michael W. Deem and Ramdas Pophale) SiO2 
 PCOD9046834
Probable space group: P -1
;
_chemical_formula_sum "Si O2"
_cell_formula_units_Z 16
_cell_length_a 7.742414
_cell_length_b 12.566529
_cell_length_c 12.196551
_cell_angle_alpha 146.493369
_cell_angle_beta 102.035084
_cell_angle_gamma 86.247810
_cell_volume 627.630122
_symmetry_space_group_name_H-M "P -1"
_symmetry_group_IT_number 2
_symmetry_cell_setting 'triclinic'
loop_
_space_group_symop_operation_xyz
x,y,z
-x,-y,-z
loop_
_atom_site_type_symbol
_atom_site_label
_atom_site_fract_x
_atom_site_fract_y
_atom_site_fract_z
Si Si1 0.771617 0.684330 0.834594
Si Si2 0.728755 0.107588 0.226654
Si Si3 0.610806 0.698668 0.597976
Si Si4 0.647722 0.458826 0.176058
Si Si5 0.184260 0.875687 0.003562
Si Si6 0.736352 0.528269 0.924408
Si Si7 0.105049 0.815309 0.282290
Si Si8 0.961662 0.816922 0.496991
O O1 0.667936 0.614272 0.648675
O O2 0.767956 0.526681 0.794777
O O3 0.976270 0.780547 0.913986
O O4 0.690702 0.869106 0.027964
O O5 0.562855 0.201222 0.324102
O O6 0.765322 0.145847 0.135747
O O7 0.909615 0.187534 0.387126
O O8 0.387321 0.447344 0.628625
O O9 0.767489 0.893349 0.767075
O O10 0.703521 0.252203 0.021984
O O11 0.465961 0.441555 0.068499
O O12 0.818586 0.616075 0.289762
O O13 0.762215 0.336348 0.828718
O O14 0.903861 0.697904 0.126221
O O15 0.093750 0.867662 0.453577
O O16 0.143773 0.002200 0.369168
#
# Coordination Sequence:
#
# PCOD9046834 Si02
#       8
#     2   2   2   2   2   2   2   2
#     4  11  21  41  68  96 138 179 215 270 334 392
#     4  11  21  41  68  96 138 179 215 270 334 392
#     4  11  24  40  66 103 139 177 216 265 330 405
#     4  12  26  43  68 104 136 171 224 268 334 400
#     4  11  24  40  66 103 139 177 216 265 330 405
#     4  11  23  43  66  96 127 176 219 277 328 392
#     4  10  24  43  68  90 128 173 226 276 334 382
#     4  11  23  43  66  96 127 176 219 277 328 392
#
# _framework density 25.492723000000002
#
# number of rings (size 3 to 8) (size 9 to 14) (size 15 to 20)
#    0.000    1.000    1.250    7.500    0.000    6.000 
#    0.000    0.000    0.000    0.000    0.000    0.000 
#    0.000    0.000    0.000    0.000    0.000    0.000 
#
# Total GULP energy -89730.679028 kJ/mol
# GULP energy per Si atom -5608.167439 kJ/mol
# Density = 2.543470 g / cm^3
# Si number density = 25.492723 Si / 1000 Ang^3
#
#
#
# Elastic Constant Matrix: (Units=GPa)
#
#
# Indices 1 2 3 4 5 6 
#
# 1 103.6627 27.5384 15.3054 -14.9456 6.9089 -17.3402
# 2 27.5384 141.2394 19.7250 -2.1794 5.9671 -18.6796
# 3 15.3054 19.7250 58.3271 -5.3287 0.8657 -22.3452
# 4 -14.9456 -2.1794 -5.3287 32.4621 -0.7468 2.8653
# 5 6.9089 5.9671 0.8657 -0.7468 43.6868 -8.0308
# 6 -17.3402 -18.6796 -22.3452 2.8653 -8.0308 53.4542
#
#
#
# Elastic Compliance Matrix: (Units=1/GPa)
#
#
# Indices 1 2 3 4 5 6 
#
# 1 0.011375 -0.001648 -0.001126 0.004720 -0.001061 0.002231
# 2 -0.001648 0.007845 -0.001719 -0.000654 -0.000522 0.001445
# 3 -0.001126 -0.001719 0.021278 0.002184 0.001506 0.008038
# 4 0.004720 -0.000654 0.002184 0.033254 -0.000054 0.000425
# 5 -0.001061 -0.000522 0.001506 -0.000054 0.023775 0.003678
# 6 0.002231 0.001445 0.008038 0.000425 0.003678 0.023826
#
#
# Mechanical properties :
#
#
# Convention : Reuss Voigt Hill
#
# Bulk Modulus (GPa) = 31.73373 47.59632 39.66502
# Shear Modulus (GPa) = 35.50071 41.96466 38.73268
#
# Velocity S-wave (km/s) = 3.73578 4.06167 3.90213
# Velocity P-wave (km/s) = 5.57523 6.38023 5.99127
#
# Compressibility (1/GPa) = 0.03151221
#
# Stress axis : x y z
#
# Youngs Moduli (GPa) = 87.91097 127.47620 46.99686
#
# Poissons Ratio (x) = 0.21007 0.05291
# Poissons Ratio (y) = 0.14487 0.08079
# Poissons Ratio (z) = 0.09898 0.21913
#
# Static dielectric constant tensor:
#      x y z
#    x 2.045480 0.041170 -0.039060 
#    y 0.041170 1.996850 0.003320 
#    z -0.039060 0.003320 2.032970 
# 
# From -- ./inp_files/501030.got.cif
#   From: 2010.05.17/outbox.cif.g08.bks.cpg/sg2_251_cif.got.tgz:501030.got - 2010.06.03 11:33:40.
