data_PCOD9046194
_publ_section_title
;
Structure prediction by ZEFSAII (Michael W. Deem and Ramdas Pophale) SiO2 
 PCOD9046194
Probable space group: P -1
;
_chemical_formula_sum "Si O2"
_cell_formula_units_Z 16
_cell_length_a 17.869672
_cell_length_b 14.419415
_cell_length_c 5.322590
_cell_angle_alpha 68.908094
_cell_angle_beta 74.808747
_cell_angle_gamma 32.775285
_cell_volume 690.466369
_symmetry_space_group_name_H-M "P -1"
_symmetry_group_IT_number 2
_symmetry_cell_setting 'triclinic'
loop_
_space_group_symop_operation_xyz
x,y,z
-x,-y,-z
loop_
_atom_site_type_symbol
_atom_site_label
_atom_site_fract_x
_atom_site_fract_y
_atom_site_fract_z
Si Si1 0.428516 0.927591 0.223194
Si Si2 0.694236 0.358274 0.626790
Si Si3 0.572167 0.649971 0.723945
Si Si4 0.921106 0.915547 0.184633
Si Si5 0.841279 0.490401 0.638058
Si Si6 0.719070 0.706104 0.028917
Si Si7 0.866444 0.170950 0.182524
Si Si8 0.358610 0.808021 0.133236
O O1 0.480588 0.842218 0.538037
O O2 0.348761 0.915486 0.208791
O O3 0.335181 0.123843 0.102681
O O4 0.574472 0.795219 0.077339
O O5 0.578412 0.564237 0.574708
O O6 0.792451 0.286518 0.384481
O O7 0.647716 0.297120 0.657959
O O8 0.769442 0.272918 0.917840
O O9 0.726830 0.525005 0.737475
O O10 0.501007 0.669384 0.992138
O O11 0.013917 0.719301 0.330253
O O12 0.908266 0.009913 0.328404
O O13 0.005062 0.894771 0.930380
O O14 0.770213 0.049088 0.086900
O O15 0.817071 0.576554 0.832750
O O16 0.796234 0.599690 0.325463
#
# Coordination Sequence:
#
# PCOD9046194 Si02
#       8
#     2   2   2   2   2   2   2   2
#     4  10  24  42  68  98 131 176 218 281 344 386
#     4  11  25  42  69  99 136 179 227 269 319 399
#     4  11  24  42  68  99 138 175 223 275 330 404
#     4  10  24  44  69  97 137 180 223 272 329 397
#     4  11  23  43  72 100 122 176 230 278 320 397
#     4  10  24  44  72  95 130 169 233 279 327 395
#     4  10  24  44  66  96 136 185 225 262 321 400
#     4  11  25  43  64 101 142 178 213 277 343 395
#
# _framework density 23.172740999999998
#
# number of rings (size 3 to 8) (size 9 to 14) (size 15 to 20)
#    0.000    1.500    2.500    0.375   10.500    8.500 
#    0.000    1.250    0.000    0.000    0.000    0.000 
#    0.000    0.000    0.000    0.000    0.000    0.000 
#
# Total GULP energy -89465.891929 kJ/mol
# GULP energy per Si atom -5591.618246 kJ/mol
# Density = 2.312000 g / cm^3
# Si number density = 23.172741 Si / 1000 Ang^3
#
#
#
# Elastic Constant Matrix: (Units=GPa)
#
#
# Indices 1 2 3 4 5 6 
#
# 1 55.5526 -6.9887 7.8370 -9.4342 -3.4875 5.3344
# 2 -6.9887 95.8124 33.1537 -21.5718 0.1406 22.8261
# 3 7.8370 33.1537 91.0255 1.0994 13.5418 10.6304
# 4 -9.4342 -21.5718 1.0994 30.9716 6.4252 2.2934
# 5 -3.4875 0.1406 13.5418 6.4252 27.4709 -4.8250
# 6 5.3344 22.8261 10.6304 2.2934 -4.8250 32.3965
#
#
#
# Elastic Compliance Matrix: (Units=1/GPa)
#
#
# Indices 1 2 3 4 5 6 
#
# 1 0.022827 0.008342 -0.004100 0.013577 0.000078 -0.009240
# 2 0.008342 0.021625 -0.006412 0.019749 -0.003392 -0.016409
# 3 -0.004100 -0.006412 0.014764 -0.004828 -0.006690 -0.000306
# 4 0.013577 0.019749 -0.004828 0.054396 -0.012276 -0.020245
# 5 0.000078 -0.003392 -0.006690 -0.012276 0.044724 0.012102
# 6 -0.009240 -0.016409 -0.000306 -0.020245 0.012102 0.047287
#
#
# Mechanical properties :
#
#
# Convention : Reuss Voigt Hill
#
# Bulk Modulus (GPa) = 18.22335 34.48828 26.35581
# Shear Modulus (GPa) = 21.90540 32.06038 26.98289
#
# Velocity S-wave (km/s) = 3.07792 3.72363 3.41607
# Velocity P-wave (km/s) = 4.52909 5.77950 5.19208
#
# Compressibility (1/GPa) = 0.05487466
#
# Stress axis : x y z
#
# Youngs Moduli (GPa) = 43.80853 46.24268 67.73395
#
# Poissons Ratio (x) = -0.38574 0.27771
# Poissons Ratio (y) = -0.36544 0.43431
# Poissons Ratio (z) = 0.17961 0.29651
#
# Static dielectric constant tensor:
#      x y z
#    x 1.877450 0.008470 0.037410 
#    y 0.008470 1.914160 -0.044860 
#    z 0.037410 -0.044860 1.901730 
# 
# From -- ./inp_files/110713.got.cif
#   From: 2010.05.17/outbox.cif.g08.bks.cpg/sg2_56_cif.got.tgz:110713.got - 2010.06.03 11:33:40.
