data_PCOD9046955
_publ_section_title
;
Structure prediction by ZEFSAII (Michael W. Deem and Ramdas Pophale) SiO2 
 PCOD9046955
Probable space group: P -1
;
_chemical_formula_sum "Si O2"
_cell_formula_units_Z 16
_cell_length_a 14.656087
_cell_length_b 17.987973
_cell_length_c 8.692020
_cell_angle_alpha 131.013079
_cell_angle_beta 121.869020
_cell_angle_gamma 22.410664
_cell_volume 634.055998
_symmetry_space_group_name_H-M "P -1"
_symmetry_group_IT_number 2
_symmetry_cell_setting 'triclinic'
loop_
_space_group_symop_operation_xyz
x,y,z
-x,-y,-z
loop_
_atom_site_type_symbol
_atom_site_label
_atom_site_fract_x
_atom_site_fract_y
_atom_site_fract_z
Si Si1 0.490388 0.383129 0.731454
Si Si2 0.301190 0.639669 0.374044
Si Si3 0.767505 0.803222 0.897901
Si Si4 0.692600 0.950933 0.694016
Si Si5 0.243882 0.986637 0.684569
Si Si6 0.378128 0.799749 0.868317
Si Si7 0.888525 0.148586 0.959164
Si Si8 0.882659 0.631995 0.238566
O O1 0.610332 0.353006 0.662573
O O2 0.648692 0.286153 0.885215
O O3 0.549090 0.220984 0.534914
O O4 0.214552 0.654351 0.863716
O O5 0.500000 0.500000 0.500000
O O6 0.400589 0.443854 0.192149
O O7 0.004102 0.868619 0.395351
O O8 0.850867 0.825822 0.110568
O O9 0.763103 0.838986 0.765243
O O10 0.939863 0.567082 0.752474
O O11 0.500000 0.000000 0.000000
O O12 0.843104 0.779359 0.452231
O O13 0.395992 0.178566 0.729298
O O14 0.717767 0.045565 0.877787
O O15 0.409123 0.830635 0.777399
O O16 0.130354 0.943604 0.789646
O O17 0.000000 0.000000 0.000000
O O18 0.000000 0.500000 0.000000
#
# Coordination Sequence:
#
# PCOD9046955 Si02
#       8
#     2   2   2   2   2   2   2   2
#     4  11  23  39  58  92 126 171 216 265 326 392
#     4  12  21  37  68  92 130 174 214 269 332 393
#     4  11  23  44  69  97 135 180 225 283 347 404
#     4  10  24  43  69  98 134 176 228 281 339 413
#     4  11  24  40  64  96 127 165 231 271 320 411
#     4  11  22  41  63  94 126 171 219 269 332 395
#     4  11  23  40  57  84 133 172 212 267 326 387
#     4  11  22  45  69  98 134 171 223 283 349 408
#
# _framework density 25.234362999999998
#
# number of rings (size 3 to 8) (size 9 to 14) (size 15 to 20)
#    0.000    1.000    5.000    2.250    0.000    1.000 
#    2.250    0.000    0.000    0.000    0.000    0.000 
#    0.000    0.000    0.000    0.000    0.000    0.000 
#
# Total GULP energy -89115.720275 kJ/mol
# GULP energy per Si atom -5569.732517 kJ/mol
# Density = 2.517693 g / cm^3
# Si number density = 25.234363 Si / 1000 Ang^3
#
#
#
# Elastic Constant Matrix: (Units=GPa)
#
#
# Indices 1 2 3 4 5 6 
#
# 1 23.1838 16.5554 -6.9800 -6.2733 -1.5352 5.3984
# 2 16.5554 163.9232 41.1844 22.9107 4.4691 15.4703
# 3 -6.9800 41.1844 117.9417 8.2082 4.4613 0.9258
# 4 -6.2733 22.9107 8.2082 43.3476 0.0961 8.6429
# 5 -1.5352 4.4691 4.4613 0.0961 29.8306 -5.0248
# 6 5.3984 15.4703 0.9258 8.6429 -5.0248 34.2516
#
#
#
# Elastic Compliance Matrix: (Units=1/GPa)
#
#
# Indices 1 2 3 4 5 6 
#
# 1 0.056058 -0.008058 0.005219 0.013045 0.001862 -0.008355
# 2 -0.008058 0.008535 -0.003056 -0.004794 -0.001475 -0.001509
# 3 0.005219 -0.003056 0.009848 0.000496 -0.000738 0.000058
# 4 0.013045 -0.004794 0.000496 0.028828 0.000014 -0.007176
# 5 0.001862 -0.001475 -0.000738 0.000014 0.034877 0.005506
# 6 -0.008355 -0.001509 0.000058 -0.007176 0.005506 0.033811
#
#
# Mechanical properties :
#
#
# Convention : Reuss Voigt Hill
#
# Bulk Modulus (GPa) = 15.96181 45.17428 30.56804
# Shear Modulus (GPa) = 24.43422 38.43852 31.43637
#
# Velocity S-wave (km/s) = 3.11511 3.90713 3.53338
# Velocity P-wave (km/s) = 4.39064 6.18829 5.36529
#
# Compressibility (1/GPa) = 0.06264953
#
# Stress axis : x y z
#
# Youngs Moduli (GPa) = 17.83867 117.16857 101.54682
#
# Poissons Ratio (x) = 0.94418 -0.52994
# Poissons Ratio (y) = 0.14375 0.31031
# Poissons Ratio (z) = -0.09310 0.35805
#
# Static dielectric constant tensor:
#      x y z
#    x 0.622430 -0.201520 0.358870 
#    y -0.201520 1.966620 -0.003400 
#    z 0.358870 -0.003400 2.156750 
# 
# From -- ./inp_files/337837.got.cif
#   From: 2010.05.17/outbox.cif.g08.bks.cpg/sg2_169_cif.got.tgz:337837.got - 2010.06.03 11:33:40.
