data_PCOD9046524
_publ_section_title
;
Structure prediction by ZEFSAII (Michael W. Deem and Ramdas Pophale) SiO2 
 PCOD9046524
Probable space group: P -1
;
_chemical_formula_sum "Si O2"
_cell_formula_units_Z 14
_cell_length_a 18.999661
_cell_length_b 9.281469
_cell_length_c 6.478536
_cell_angle_alpha 50.576803
_cell_angle_beta 93.853951
_cell_angle_gamma 122.063887
_cell_volume 681.370730
_symmetry_space_group_name_H-M "P -1"
_symmetry_group_IT_number 2
_symmetry_cell_setting 'triclinic'
loop_
_space_group_symop_operation_xyz
x,y,z
-x,-y,-z
loop_
_atom_site_type_symbol
_atom_site_label
_atom_site_fract_x
_atom_site_fract_y
_atom_site_fract_z
Si Si1 0.895851 0.041495 0.399180
Si Si2 0.956036 0.816509 0.351936
Si Si3 0.524878 0.039387 0.201779
Si Si4 0.290488 0.796271 0.767497
Si Si5 0.631699 0.416250 0.161081
Si Si6 0.252805 0.057426 0.224839
Si Si7 0.854641 0.282923 0.867216
O O1 0.889148 0.850150 0.423889
O O2 0.809301 0.955673 0.595526
O O3 0.913583 0.244602 0.060966
O O4 0.972019 0.123034 0.511349
O O5 0.908823 0.542336 0.533548
O O6 0.000000 0.000000 0.000000
O O7 0.608131 0.036942 0.267460
O O8 0.434039 0.819849 0.496962
O O9 0.568103 0.308940 0.041748
O O10 0.500000 0.000000 0.000000
O O11 0.285031 0.918645 0.457110
O O12 0.281972 0.569051 0.894453
O O13 0.218090 0.740816 0.972277
O O14 0.663933 0.660673 0.041509
O O15 0.196244 0.923750 0.128606
#
# Coordination Sequence:
#
# PCOD9046524 Si02
#       7
#     2   2   2   2   2   2   2
#     4  10  24  43  61  93 126 160 209 255 305 366
#     4  11  24  43  67  91 121 167 208 253 310 365
#     4   9  20  40  64  87 121 165 204 249 302 360
#     4   9  22  39  61  91 121 161 204 254 300 363
#     4   9  21  40  60  88 123 159 203 254 299 361
#     4  11  23  39  63  93 125 159 204 253 308 360
#     4  11  24  40  64  93 126 163 206 255 310 367
#
# _framework density 20.546817000000001
#
# number of rings (size 3 to 8) (size 9 to 14) (size 15 to 20)
#    0.857    1.143    0.000    2.143    2.000   12.000 
#    0.000    1.429    0.000    0.000    0.000    0.000 
#    0.000    0.000    0.000    0.000    0.000    0.000 
#
# Total GULP energy -77974.045825 kJ/mol
# GULP energy per Si atom -5569.574702 kJ/mol
# Density = 2.050005 g / cm^3
# Si number density = 20.546817 Si / 1000 Ang^3
#
#
#
# Elastic Constant Matrix: (Units=GPa)
#
#
# Indices 1 2 3 4 5 6 
#
# 1 51.9932 -1.6023 33.6209 8.4312 16.0853 6.7370
# 2 -1.6023 118.8225 54.7729 -11.6112 25.1129 10.1355
# 3 33.6209 54.7729 96.8259 -6.3042 22.9684 2.4245
# 4 8.4312 -11.6112 -6.3042 35.1825 3.1529 5.9978
# 5 16.0853 25.1129 22.9684 3.1529 23.4268 6.6839
# 6 6.7370 10.1355 2.4245 5.9978 6.6839 20.2912
#
#
#
# Elastic Compliance Matrix: (Units=1/GPa)
#
#
# Indices 1 2 3 4 5 6 
#
# 1 0.037735 0.012248 -0.015059 -0.004334 -0.021247 -0.008567
# 2 0.012248 0.017531 -0.010000 0.003757 -0.015749 -0.007551
# 3 -0.015059 -0.010000 0.021955 0.003251 -0.003016 0.007404
# 4 -0.004334 0.003757 0.003251 0.033314 -0.006266 -0.008609
# 5 -0.021247 -0.015749 -0.003016 -0.006266 0.080649 -0.009432
# 6 -0.008567 -0.007551 0.007404 -0.008609 -0.009432 0.060666
#
#
# Mechanical properties :
#
#
# Convention : Reuss Voigt Hill
#
# Bulk Modulus (GPa) = 19.38013 49.02494 34.20254
# Shear Modulus (GPa) = 16.96816 27.83678 22.40247
#
# Velocity S-wave (km/s) = 2.87684 3.68475 3.30557
# Velocity P-wave (km/s) = 4.52633 6.48191 5.59029
#
# Compressibility (1/GPa) = 0.05159923
#
# Stress axis : x y z
#
# Youngs Moduli (GPa) = 26.50083 57.04330 45.54715
#
# Poissons Ratio (x) = -0.69868 0.68588
# Poissons Ratio (y) = -0.32459 0.45548
# Poissons Ratio (z) = 0.39907 0.57044
#
# Static dielectric constant tensor:
#      x y z
#    x 1.739180 -0.005300 0.000820 
#    y -0.005300 1.740650 -0.005520 
#    z 0.000820 -0.005520 1.736160 
# 
# From -- ./inp_files/122151.got.cif
#   From: 2010.05.17/outbox.cif.g08.bks.cpg/sg2_62_cif.got.tgz:122151.got - 2010.06.03 11:33:40.
