data_PCOD9046608
_publ_section_title
;
Structure prediction by ZEFSAII (Michael W. Deem and Ramdas Pophale) SiO2 
 PCOD9046608
Probable space group: P -1
;
_chemical_formula_sum "Si O2"
_cell_formula_units_Z 14
_cell_length_a 19.430962
_cell_length_b 14.684831
_cell_length_c 8.052853
_cell_angle_alpha 128.155519
_cell_angle_beta 49.589788
_cell_angle_gamma 162.498628
_cell_volume 526.153957
_symmetry_space_group_name_H-M "P -1"
_symmetry_group_IT_number 2
_symmetry_cell_setting 'triclinic'
loop_
_space_group_symop_operation_xyz
x,y,z
-x,-y,-z
loop_
_atom_site_type_symbol
_atom_site_label
_atom_site_fract_x
_atom_site_fract_y
_atom_site_fract_z
Si Si1 0.425776 0.389237 0.801894
Si Si2 0.285326 0.810965 0.392808
Si Si3 0.070572 0.720011 0.130222
Si Si4 0.807476 0.691676 0.079160
Si Si5 0.456829 0.781123 0.234587
Si Si6 0.070196 0.956544 0.271565
Si Si7 0.402518 0.140352 0.357400
O O1 0.218262 0.205777 0.816114
O O2 0.418814 0.245894 0.606181
O O3 0.659883 0.725536 0.732324
O O4 0.500000 0.500000 0.000000
O O5 0.341894 0.744082 0.256033
O O6 0.000000 0.500000 0.500000
O O7 0.455237 0.066058 0.557175
O O8 0.387594 0.989873 0.269154
O O9 0.945140 0.688191 0.221630
O O10 0.150249 0.852901 0.337598
O O11 0.000000 0.500000 0.000000
O O12 0.300456 0.980176 0.949334
O O13 0.607886 0.418993 0.222332
O O14 0.033945 0.921142 0.088454
O O15 0.734077 0.544454 0.855461
O O16 0.000000 0.000000 0.500000
#
# Coordination Sequence:
#
# PCOD9046608 Si02
#       7
#     2   2   2   2   2   2   2
#     4  12  25  47  71 103 145 181 239 304 365 435
#     4  11  25  44  67 101 145 188 232 295 365 433
#     4  11  25  43  72 107 141 186 248 296 362 439
#     4  11  24  43  71 100 135 182 240 292 359 427
#     4  10  24  43  65  98 143 181 234 289 357 429
#     4  12  25  45  75 103 143 192 243 300 358 435
#     4  11  23  42  72  99 142 182 234 300 361 417
#
# _framework density 26.608180999999998
#
# number of rings (size 3 to 8) (size 9 to 14) (size 15 to 20)
#    0.000    0.857    4.286    3.000    6.000    1.714 
#    0.000    0.000    0.000    0.000    0.000    0.000 
#    0.000    0.000    0.000    0.000    0.000    0.000 
#
# Total GULP energy -78120.464108 kJ/mol
# GULP energy per Si atom -5580.033151 kJ/mol
# Density = 2.654762 g / cm^3
# Si number density = 26.608181 Si / 1000 Ang^3
#
#
#
# Elastic Constant Matrix: (Units=GPa)
#
#
# Indices 1 2 3 4 5 6 
#
# 1 171.1784 29.4313 14.8413 5.4078 -23.2508 -0.8339
# 2 29.4313 117.8884 5.5573 20.6937 -7.2212 6.0431
# 3 14.8413 5.5573 84.7182 29.4365 -8.3365 -0.8020
# 4 5.4078 20.6937 29.4365 36.7327 6.0659 -0.7610
# 5 -23.2508 -7.2212 -8.3365 6.0659 49.5541 11.7468
# 6 -0.8339 6.0431 -0.8020 -0.7610 11.7468 44.1258
#
#
#
# Elastic Compliance Matrix: (Units=1/GPa)
#
#
# Indices 1 2 3 4 5 6 
#
# 1 0.006533 -0.001388 -0.000759 -0.000052 0.002851 -0.000460
# 2 -0.001388 0.010479 0.002753 -0.008437 0.002925 -0.002336
# 3 -0.000759 0.002753 0.018194 -0.016987 0.005624 -0.001851
# 4 -0.000052 -0.008437 -0.016987 0.047512 -0.011017 0.004598
# 5 0.002851 0.002925 0.005624 -0.011017 0.025981 -0.007351
# 6 -0.000460 -0.002336 -0.001851 0.004598 -0.007351 0.024976
#
#
# Mechanical properties :
#
#
# Convention : Reuss Voigt Hill
#
# Bulk Modulus (GPa) = 27.45886 52.60498 40.03192
# Shear Modulus (GPa) = 34.57739 47.67952 41.12845
#
# Velocity S-wave (km/s) = 3.60877 4.23769 3.93581
# Velocity P-wave (km/s) = 5.26369 6.61492 5.97761
#
# Compressibility (1/GPa) = 0.03641812
#
# Stress axis : x y z
#
# Youngs Moduli (GPa) = 153.07124 95.42691 54.96198
#
# Poissons Ratio (x) = 0.13244 0.04173
# Poissons Ratio (y) = 0.21245 -0.15131
# Poissons Ratio (z) = 0.11623 -0.26271
#
# Static dielectric constant tensor:
#      x y z
#    x 2.076010 -0.051490 0.047860 
#    y -0.051490 2.102290 -0.037810 
#    z 0.047860 -0.037810 2.111670 
# 
# From -- ./inp_files/297515.got.cif
#   From: 2010.05.17/outbox.cif.g08.bks.cpg/sg2_149_cif.got.tgz:297515.got - 2010.06.03 11:33:40.
