data_PCOD9046081
_publ_section_title
;
Structure prediction by ZEFSAII (Michael W. Deem and Ramdas Pophale) SiO2 
 PCOD9046081
Probable space group: P -1
;
_chemical_formula_sum "Si O2"
_cell_formula_units_Z 15
_cell_length_a 11.190577
_cell_length_b 8.029474
_cell_length_c 12.777888
_cell_angle_alpha 66.685723
_cell_angle_beta 124.296962
_cell_angle_gamma 140.655222
_cell_volume 599.591748
_symmetry_space_group_name_H-M "P -1"
_symmetry_group_IT_number 2
_symmetry_cell_setting 'triclinic'
loop_
_space_group_symop_operation_xyz
x,y,z
-x,-y,-z
loop_
_atom_site_type_symbol
_atom_site_label
_atom_site_fract_x
_atom_site_fract_y
_atom_site_fract_z
Si Si1 0.530821 0.991141 0.851810
Si Si2 0.137545 0.442686 0.068758
Si Si3 0.500000 0.500000 0.500000
Si Si4 0.958933 0.269216 0.584198
Si Si5 0.150954 0.404788 0.848351
Si Si6 0.204764 0.066317 0.874917
Si Si7 0.784936 0.791567 0.377362
Si Si8 0.494496 0.881945 0.418225
O O1 0.629779 0.267442 0.874887
O O2 0.544604 0.026924 0.723874
O O3 0.295717 0.713598 0.828957
O O4 0.660837 0.951802 0.985668
O O5 0.101173 0.338895 0.960395
O O6 0.039569 0.204043 0.155505
O O7 0.000000 0.500000 0.000000
O O8 0.577112 0.603848 0.390705
O O9 0.366276 0.579123 0.420544
O O10 0.000000 0.500000 0.500000
O O11 0.958288 0.262402 0.710570
O O12 0.158512 0.339976 0.624700
O O13 0.728968 0.999266 0.501103
O O14 0.252392 0.309717 0.882171
O O15 0.227794 0.081056 0.757746
O O16 0.000000 0.000000 0.500000
O O17 0.500000 0.000000 0.500000
#
# Coordination Sequence:
#
# PCOD9046081 Si02
#       8
#     2   2   1   2   2   2   2   2
#     4  11  25  47  70 110 151 197 252 320 384 464
#     4  10  24  42  67 102 146 192 247 314 384 457
#     4  12  28  50  82 116 150 208 258 332 396 476
#     4  11  23  45  73 104 149 200 257 319 389 456
#     4  11  23  44  74 104 144 203 252 318 389 459
#     4  10  25  47  73 107 147 198 255 322 387 469
#     4  11  25  49  75 109 151 195 261 322 395 467
#     4  12  28  47  77 116 158 207 264 323 392 473
#
# _framework density 25.017019999999999
#
# number of rings (size 3 to 8) (size 9 to 14) (size 15 to 20)
#    0.000    1.067    2.667    2.000    7.467    5.333 
#    2.400    0.000    0.000    0.000    0.000    0.000 
#    0.000    0.000    0.000    0.000    0.000    0.000 
#
# Total GULP energy -83529.039355 kJ/mol
# GULP energy per Si atom -5568.602624 kJ/mol
# Density = 2.496008 g / cm^3
# Si number density = 25.017020 Si / 1000 Ang^3
#
#
#
# Elastic Constant Matrix: (Units=GPa)
#
#
# Indices 1 2 3 4 5 6 
#
# 1 103.9496 12.7614 54.9511 -13.0594 -18.3237 -3.9573
# 2 12.7614 55.8155 28.7064 -8.5951 -5.1296 5.9002
# 3 54.9511 28.7064 208.0767 -22.9365 -23.9698 2.9056
# 4 -13.0594 -8.5951 -22.9365 46.4699 10.6274 -3.0956
# 5 -18.3237 -5.1296 -23.9698 10.6274 48.8642 -8.1241
# 6 -3.9573 5.9002 2.9056 -3.0956 -8.1241 25.8780
#
#
#
# Elastic Compliance Matrix: (Units=1/GPa)
#
#
# Indices 1 2 3 4 5 6 
#
# 1 0.012022 -0.001327 -0.002495 0.001355 0.003460 0.003669
# 2 -0.001327 0.020091 -0.002204 0.002111 -0.000676 -0.004496
# 3 -0.002495 -0.002204 0.006114 0.001571 0.001506 0.000095
# 4 0.001355 0.002111 0.001571 0.023952 -0.003490 0.001319
# 5 0.003460 -0.000676 0.001506 -0.003490 0.024483 0.007783
# 6 0.003669 -0.004496 0.000095 0.001319 0.007783 0.042820
#
#
# Mechanical properties :
#
#
# Convention : Reuss Voigt Hill
#
# Bulk Modulus (GPa) = 38.20307 62.29774 50.25040
# Shear Modulus (GPa) = 33.27599 42.33727 37.80663
#
# Velocity S-wave (km/s) = 3.65106 4.11827 3.89168
# Velocity P-wave (km/s) = 5.75131 6.89708 6.35009
#
# Compressibility (1/GPa) = 0.02617591
#
# Stress axis : x y z
#
# Youngs Moduli (GPa) = 83.18258 49.77330 163.55175
#
# Poissons Ratio (x) = 0.06603 0.40808
# Poissons Ratio (y) = 0.11035 0.36045
# Poissons Ratio (z) = 0.20755 0.10969
#
# Static dielectric constant tensor:
#      x y z
#    x 1.982540 0.031010 -0.029130 
#    y 0.031010 1.936600 0.004290 
#    z -0.029130 0.004290 2.027650 
# 
# From -- ./inp_files/416949.got.cif
#   From: 2010.05.17/outbox.cif.g08.bks.cpg/sg2_209_cif.got.tgz:416949.got - 2010.06.03 11:33:40.
