data_PCOD9046336
_publ_section_title
;
Structure prediction by ZEFSAII (Michael W. Deem and Ramdas Pophale) SiO2 
 PCOD9046336
Probable space group: P -1
;
_chemical_formula_sum "Si O2"
_cell_formula_units_Z 12
_cell_length_a 9.214905
_cell_length_b 9.813324
_cell_length_c 13.671262
_cell_angle_alpha 128.189354
_cell_angle_beta 57.645397
_cell_angle_gamma 150.917362
_cell_volume 472.261321
_symmetry_space_group_name_H-M "P -1"
_symmetry_group_IT_number 2
_symmetry_cell_setting 'triclinic'
loop_
_space_group_symop_operation_xyz
x,y,z
-x,-y,-z
loop_
_atom_site_type_symbol
_atom_site_label
_atom_site_fract_x
_atom_site_fract_y
_atom_site_fract_z
Si Si1 0.998252 0.824681 0.609840
Si Si2 0.332509 0.666218 0.352766
Si Si3 0.380065 0.422987 0.618830
Si Si4 0.465012 0.060579 0.935853
Si Si5 0.965557 0.417178 0.753130
Si Si6 0.697117 0.700946 0.925623
O O1 0.801264 0.486512 0.558874
O O2 0.704094 0.706135 0.681488
O O3 0.307569 0.025022 0.641858
O O4 0.173320 0.091597 0.583858
O O5 0.267983 0.436297 0.214909
O O6 0.184699 0.692345 0.349112
O O7 0.500000 0.500000 0.500000
O O8 0.176726 0.425488 0.692500
O O9 0.719763 0.217914 0.837706
O O10 0.167317 0.750197 0.851593
O O11 0.452150 0.253629 0.047061
O O12 0.500000 0.000000 0.000000
O O13 0.500000 0.500000 0.000000
O O14 0.000000 0.000000 0.000000
#
# Coordination Sequence:
#
# PCOD9046336 Si02
#       6
#     2   2   2   2   2   2
#     4  10  24  42  70  98 125 171 218 270 335 394
#     4  11  22  42  66  96 133 174 220 271 325 395
#     4  11  25  48  71  97 132 173 218 276 342 400
#     4  12  26  41  62 102 136 178 223 271 318 394
#     4  12  25  45  66  97 136 177 220 278 333 378
#     4  12  22  40  63  91 137 180 222 255 326 389
#
# _framework density 25.409659000000001
#
# number of rings (size 3 to 8) (size 9 to 14) (size 15 to 20)
#    0.000    0.667    3.333    4.000    7.000    0.000 
#    0.000    5.000    0.000    0.000    0.000    0.000 
#    0.000    0.000    0.000    0.000    0.000    0.000 
#
# Total GULP energy -66908.916760 kJ/mol
# GULP energy per Si atom -5575.743063 kJ/mol
# Density = 2.535183 g / cm^3
# Si number density = 25.409659 Si / 1000 Ang^3
#
#
#
# Elastic Constant Matrix: (Units=GPa)
#
#
# Indices 1 2 3 4 5 6 
#
# 1 220.7805 64.9760 2.4038 -18.3603 35.2966 -33.8778
# 2 64.9760 203.8911 53.2583 -37.1869 -29.6145 37.0769
# 3 2.4038 53.2583 79.4310 -30.9525 -31.8278 13.9385
# 4 -18.3603 -37.1869 -30.9525 52.9731 9.3418 -5.4874
# 5 35.2966 -29.6145 -31.8278 9.3418 150.8623 -72.2371
# 6 -33.8778 37.0769 13.9385 -5.4874 -72.2371 112.4692
#
#
#
# Elastic Compliance Matrix: (Units=1/GPa)
#
#
# Indices 1 2 3 4 5 6 
#
# 1 0.005748 -0.002386 0.001375 0.001443 -0.000657 0.001996
# 2 -0.002386 0.007482 -0.003778 0.001969 -0.000212 -0.002757
# 3 0.001375 -0.003778 0.019569 0.008850 0.003404 0.001853
# 4 0.001443 0.001969 0.008850 0.025880 0.000419 0.000221
# 5 -0.000657 -0.000212 0.003404 0.000419 0.010368 0.006130
# 6 0.001996 -0.002757 0.001853 0.000221 0.006130 0.014120
#
#
# Mechanical properties :
#
#
# Convention : Reuss Voigt Hill
#
# Bulk Modulus (GPa) = 43.06678 82.81987 62.94332
# Shear Modulus (GPa) = 49.75889 88.82522 69.29206
#
# Velocity S-wave (km/s) = 4.43003 5.91888 5.22773
# Velocity P-wave (km/s) = 6.56907 8.90929 7.82714
#
# Compressibility (1/GPa) = 0.02321976
#
# Stress axis : x y z
#
# Youngs Moduli (GPa) = 173.97524 133.66236 51.10203
#
# Poissons Ratio (x) = 0.31893 -0.07026
# Poissons Ratio (y) = 0.41511 0.19306
# Poissons Ratio (z) = -0.23919 0.50497
#
# Static dielectric constant tensor:
#      x y z
#    x 2.072330 -0.061950 0.026630 
#    y -0.061950 1.922130 0.028530 
#    z 0.026630 0.028530 2.063390 
# 
# From -- ./inp_files/198208.got.cif
#   From: 2010.05.17/outbox.cif.g08.bks.cpg/sg2_100_cif.got.tgz:198208.got - 2010.06.03 11:33:40.
