data_PCOD9046530
_publ_section_title
;
Structure prediction by ZEFSAII (Michael W. Deem and Ramdas Pophale) SiO2 
 PCOD9046530
Probable space group: P -1
;
_chemical_formula_sum "Si O2"
_cell_formula_units_Z 16
_cell_length_a 18.515673
_cell_length_b 21.789534
_cell_length_c 9.544933
_cell_angle_alpha 138.433202
_cell_angle_beta 42.127605
_cell_angle_gamma 162.114752
_cell_volume 776.341750
_symmetry_space_group_name_H-M "P -1"
_symmetry_group_IT_number 2
_symmetry_cell_setting 'triclinic'
loop_
_space_group_symop_operation_xyz
x,y,z
-x,-y,-z
loop_
_atom_site_type_symbol
_atom_site_label
_atom_site_fract_x
_atom_site_fract_y
_atom_site_fract_z
Si Si1 0.445667 0.149381 0.654112
Si Si2 0.655956 0.487025 0.051698
Si Si3 0.786282 0.558717 0.496486
Si Si4 0.030512 0.764861 0.776681
Si Si5 0.867521 0.837021 0.793674
Si Si6 0.981555 0.287238 0.859630
Si Si7 0.292719 0.096661 0.474366
Si Si8 0.179914 0.713610 0.667556
O O1 0.629223 0.362095 0.819222
O O2 0.365727 0.125291 0.577322
O O3 0.565806 0.141566 0.451288
O O4 0.226130 0.976602 0.781152
O O5 0.839883 0.671399 0.989500
O O6 0.392112 0.324522 0.149065
O O7 0.788294 0.581109 0.169409
O O8 0.818795 0.694513 0.671475
O O9 0.941469 0.636113 0.279273
O O10 0.513349 0.318888 0.470275
O O11 0.888754 0.609177 0.586377
O O12 0.162481 0.790714 0.726916
O O13 0.052045 0.970918 0.628019
O O14 0.000000 0.000000 0.000000
O O15 0.778980 0.053349 0.753905
O O16 0.897317 0.310507 0.109038
O O17 0.000000 0.500000 0.500000
#
# Coordination Sequence:
#
# PCOD9046530 Si02
#       8
#     2   2   2   2   2   2   2   2
#     4  12  21  42  66  92 129 168 213 267 314 381
#     4  11  23  41  67  94 130 167 217 267 310 381
#     4  11  22  42  65  92 139 168 207 267 324 376
#     4  11  21  40  64  95 125 168 211 262 317 380
#     4  11  21  40  68  99 126 172 217 261 317 378
#     4  10  24  43  62  93 133 166 211 263 328 376
#     4  11  23  42  62  95 136 167 211 267 318 382
#     4  11  22  43  68  92 129 168 213 267 320 378
#
# _framework density 20.609480000000001
#
# number of rings (size 3 to 8) (size 9 to 14) (size 15 to 20)
#    0.000    1.000    7.500    0.375    0.000    7.500 
#    2.250    2.500    0.000    0.000    0.000    0.000 
#    0.000    0.000    0.000    0.000    0.000    0.000 
#
# Total GULP energy -89344.920886 kJ/mol
# GULP energy per Si atom -5584.057555 kJ/mol
# Density = 2.056257 g / cm^3
# Si number density = 20.609480 Si / 1000 Ang^3
#
#
#
# Elastic Constant Matrix: (Units=GPa)
#
#
# Indices 1 2 3 4 5 6 
#
# 1 43.9520 0.8164 -3.2009 -10.5785 3.5962 3.6453
# 2 0.8164 113.6387 14.6785 -6.2669 -10.1323 -10.6658
# 3 -3.2009 14.6785 76.3195 -3.9932 -2.3816 -9.3990
# 4 -10.5785 -6.2669 -3.9932 39.3374 4.8535 -1.5376
# 5 3.5962 -10.1323 -2.3816 4.8535 27.6041 -3.1018
# 6 3.6453 -10.6658 -9.3990 -1.5376 -3.1018 27.5856
#
#
#
# Elastic Compliance Matrix: (Units=1/GPa)
#
#
# Indices 1 2 3 4 5 6 
#
# 1 0.025298 -0.000688 0.000991 0.007293 -0.005132 -0.003442
# 2 -0.000688 0.009725 -0.001251 0.000918 0.003829 0.003907
# 3 0.000991 -0.001251 0.014028 0.001558 0.000837 0.004346
# 4 0.007293 0.000918 0.001558 0.028384 -0.005368 0.000900
# 5 -0.005132 0.003829 0.000837 -0.005368 0.040064 0.006649
# 6 -0.003442 0.003907 0.004346 0.000900 0.006649 0.040495
#
#
# Mechanical properties :
#
#
# Convention : Reuss Voigt Hill
#
# Bulk Modulus (GPa) = 21.20691 28.72203 24.96447
# Shear Modulus (GPa) = 28.47271 33.67984 31.07628
#
# Velocity S-wave (km/s) = 3.72093 4.04690 3.88733
# Velocity P-wave (km/s) = 5.36402 5.98357 5.68224
#
# Compressibility (1/GPa) = 0.04715444
#
# Stress axis : x y z
#
# Youngs Moduli (GPa) = 39.52945 102.82806 71.28733
#
# Poissons Ratio (x) = 0.07076 -0.07064
# Poissons Ratio (y) = 0.02720 0.08916
# Poissons Ratio (z) = -0.03917 0.12860
#
# Static dielectric constant tensor:
#      x y z
#    x 1.737910 0.022220 -0.014180 
#    y 0.022220 1.770500 -0.015520 
#    z -0.014180 -0.015520 1.741890 
# 
# From -- ./inp_files/338175.got.cif
#   From: 2010.05.17/outbox.cif.g08.bks.cpg/sg2_170_cif.got.tgz:338175.got - 2010.06.03 11:33:40.
