data_PCOD9046909
_publ_section_title
;
Structure prediction by ZEFSAII (Michael W. Deem and Ramdas Pophale) SiO2 
 PCOD9046909
Probable space group: P -1
;
_chemical_formula_sum "Si O2"
_cell_formula_units_Z 15
_cell_length_a 7.658027
_cell_length_b 7.159628
_cell_length_c 19.444742
_cell_angle_alpha 40.412329
_cell_angle_beta 123.701356
_cell_angle_gamma 110.540603
_cell_volume 569.909395
_symmetry_space_group_name_H-M "P -1"
_symmetry_group_IT_number 2
_symmetry_cell_setting 'triclinic'
loop_
_space_group_symop_operation_xyz
x,y,z
-x,-y,-z
loop_
_atom_site_type_symbol
_atom_site_label
_atom_site_fract_x
_atom_site_fract_y
_atom_site_fract_z
Si Si1 0.666073 0.330024 0.481968
Si Si2 0.728149 0.983692 0.725496
Si Si3 0.737035 0.403271 0.740351
Si Si4 0.092948 0.216033 0.533210
Si Si5 0.000000 0.000000 0.000000
Si Si6 0.122063 0.566685 0.702886
Si Si7 0.823911 0.381083 0.100632
Si Si8 0.502927 0.496096 0.120593
O O1 0.472169 0.370365 0.375668
O O2 0.729685 0.647367 0.425025
O O3 0.884298 0.180238 0.540505
O O4 0.619131 0.169280 0.586372
O O5 0.608560 0.721719 0.796678
O O6 0.965345 0.847139 0.794421
O O7 0.733398 0.183719 0.737362
O O8 0.949136 0.540918 0.730981
O O9 0.786380 0.215910 0.871293
O O10 0.003078 0.456677 0.388973
O O11 0.173429 0.896788 0.613552
O O12 0.890713 0.707824 0.028737
O O13 0.334233 0.369077 0.829889
O O14 0.669488 0.345452 0.141670
O O15 0.684239 0.342479 0.012336
#
# Coordination Sequence:
#
# PCOD9046909 Si02
#       8
#     2   2   2   2   1   2   2   2
#     4  11  25  46  71 107 141 193 238 297 368 422
#     4  12  25  47  76 106 144 193 239 290 367 433
#     4  12  26  45  72 103 147 189 239 299 353 428
#     4  10  24  43  69 102 148 185 239 299 358 430
#     4  12  26  50  72 106 142 182 248 300 348 434
#     4  11  23  44  66 105 144 186 243 293 352 429
#     4  11  26  49  74 106 146 191 240 298 357 430
#     4  11  24  45  73 103 143 193 233 293 361 418
#
# _framework density 26.319973000000001
#
# number of rings (size 3 to 8) (size 9 to 14) (size 15 to 20)
#    0.000    0.800    4.000    2.400    3.733    2.667 
#    0.000    4.000    0.000    0.000    0.000    0.000 
#    0.000    0.000    0.000    0.000    0.000    0.000 
#
# Total GULP energy -83683.597057 kJ/mol
# GULP energy per Si atom -5578.906470 kJ/mol
# Density = 2.626007 g / cm^3
# Si number density = 26.319973 Si / 1000 Ang^3
#
#
#
# Elastic Constant Matrix: (Units=GPa)
#
#
# Indices 1 2 3 4 5 6 
#
# 1 91.7060 0.6665 30.5657 5.1662 20.4353 17.0999
# 2 0.6665 89.6693 35.3840 2.9757 20.9148 10.7623
# 3 30.5657 35.3840 136.4394 35.6471 20.4960 16.1697
# 4 5.1662 2.9757 35.6471 50.3697 4.5299 13.8170
# 5 20.4353 20.9148 20.4960 4.5299 28.3439 9.9130
# 6 17.0999 10.7623 16.1697 13.8170 9.9130 33.0477
#
#
#
# Elastic Compliance Matrix: (Units=1/GPa)
#
#
# Indices 1 2 3 4 5 6 
#
# 1 0.015020 0.003998 -0.002931 0.002790 -0.010084 -0.005782
# 2 0.003998 0.015425 -0.003691 0.003190 -0.010938 -0.003339
# 3 -0.002931 -0.003691 0.011115 -0.007436 -0.002401 0.001109
# 4 0.002790 0.003190 -0.007436 0.027473 0.000261 -0.010409
# 5 -0.010084 -0.010938 -0.002401 0.000261 0.054601 -0.006533
# 6 -0.005782 -0.003339 0.001109 -0.010409 -0.006533 0.040107
#
#
# Mechanical properties :
#
#
# Convention : Reuss Voigt Hill
#
# Bulk Modulus (GPa) = 27.53798 50.11637 38.82717
# Shear Modulus (GPa) = 27.61031 39.09883 33.35457
#
# Velocity S-wave (km/s) = 3.24238 3.85843 3.56374
# Velocity P-wave (km/s) = 4.95004 6.23959 5.63184
#
# Compressibility (1/GPa) = 0.03631348
#
# Stress axis : x y z
#
# Youngs Moduli (GPa) = 66.57719 64.83080 89.96987
#
# Poissons Ratio (x) = -0.25921 0.26368
# Poissons Ratio (y) = -0.26619 0.33204
# Poissons Ratio (z) = 0.19512 0.23927
#
# Static dielectric constant tensor:
#      x y z
#    x 2.053450 -0.016680 -0.031340 
#    y -0.016680 2.179120 0.060250 
#    z -0.031340 0.060250 2.087620 
# 
# From -- ./inp_files/606571.got.cif
#   From: 2010.05.17/outbox.cif.g08.bks.cpg/sg2_304_cif.got.tgz:606571.got - 2010.06.03 11:33:40.
