data_PCOD9046159
_publ_section_title
;
Structure prediction by ZEFSAII (Michael W. Deem and Ramdas Pophale) SiO2 
 PCOD9046159
Probable space group: P -1
;
_chemical_formula_sum "Si O2"
_cell_formula_units_Z 15
_cell_length_a 10.508887
_cell_length_b 20.950405
_cell_length_c 9.602940
_cell_angle_alpha 39.828011
_cell_angle_beta 59.991873
_cell_angle_gamma 30.858146
_cell_volume 607.628358
_symmetry_space_group_name_H-M "P -1"
_symmetry_group_IT_number 2
_symmetry_cell_setting 'triclinic'
loop_
_space_group_symop_operation_xyz
x,y,z
-x,-y,-z
loop_
_atom_site_type_symbol
_atom_site_label
_atom_site_fract_x
_atom_site_fract_y
_atom_site_fract_z
Si Si1 0.372812 0.410968 0.644100
Si Si2 0.276163 0.703003 0.855166
Si Si3 0.000000 0.000000 0.000000
Si Si4 0.388321 0.193870 0.868583
Si Si5 0.214255 0.202702 0.242861
Si Si6 0.074422 0.200243 0.886641
Si Si7 0.674248 0.611268 0.974037
Si Si8 0.868021 0.969756 0.414390
O O1 0.313400 0.352752 0.666650
O O2 0.201689 0.607134 0.367086
O O3 0.705561 0.232499 0.753863
O O4 0.289098 0.429033 0.815099
O O5 0.462359 0.654188 0.947230
O O6 0.113283 0.866639 0.556962
O O7 0.500000 0.500000 0.000000
O O8 0.030536 0.788418 0.932678
O O9 0.876049 0.018280 0.180894
O O10 0.238765 0.209775 0.809872
O O11 0.314970 0.183400 0.070924
O O12 0.723715 0.990778 0.990813
O O13 0.049525 0.193792 0.355663
O O14 0.500000 0.000000 0.500000
O O15 0.985544 0.415734 0.066040
O O16 0.465213 0.826938 0.698858
#
# Coordination Sequence:
#
# PCOD9046159 Si02
#       8
#     2   2   1   2   2   2   2   2
#     4  11  25  44  69 105 144 183 240 296 348 427
#     4  12  23  48  73 103 147 188 241 294 358 425
#     4  10  24  42  68 106 140 180 226 290 366 410
#     4  11  25  47  69 106 141 190 244 285 355 424
#     4  12  24  45  71 102 148 186 237 296 351 431
#     4  11  25  46  73 104 141 196 235 293 357 416
#     4  11  26  43  71 108 136 194 233 293 369 409
#     4  11  24  46  69 104 143 185 237 299 351 435
#
# _framework density 24.686142
#
# number of rings (size 3 to 8) (size 9 to 14) (size 15 to 20)
#    0.000    0.800    2.667    4.000    3.733    3.733 
#    4.800    0.000    0.000    0.000    0.000    0.000 
#    0.000    0.000    0.000    0.000    0.000    0.000 
#
# Total GULP energy -83617.312286 kJ/mol
# GULP energy per Si atom -5574.487486 kJ/mol
# Density = 2.462995 g / cm^3
# Si number density = 24.686142 Si / 1000 Ang^3
#
#
#
# Elastic Constant Matrix: (Units=GPa)
#
#
# Indices 1 2 3 4 5 6 
#
# 1 51.6287 13.6797 3.3226 -12.1357 -6.0491 7.4400
# 2 13.6797 163.5065 47.9933 -27.7628 3.5488 -5.2976
# 3 3.3226 47.9933 109.2418 -28.6508 10.3554 -3.2440
# 4 -12.1357 -27.7628 -28.6508 40.1357 -7.7016 3.2212
# 5 -6.0491 3.5488 10.3554 -7.7016 39.0968 -14.7484
# 6 7.4400 -5.2976 -3.2440 3.2212 -14.7484 38.7969
#
#
#
# Elastic Compliance Matrix: (Units=1/GPa)
#
#
# Indices 1 2 3 4 5 6 
#
# 1 0.022379 -0.001148 0.001488 0.007974 0.003342 -0.003716
# 2 -0.001148 0.007489 -0.002479 0.003135 0.000828 0.001090
# 3 0.001488 -0.002479 0.012222 0.007205 -0.001679 -0.000838
# 4 0.007974 0.003135 0.007205 0.035819 0.005588 -0.001348
# 5 0.003342 0.000828 -0.001679 0.005588 0.031681 0.010911
# 6 -0.003716 0.001090 -0.000838 -0.001348 0.010911 0.030826
#
#
# Mechanical properties :
#
#
# Convention : Reuss Voigt Hill
#
# Bulk Modulus (GPa) = 26.44709 50.48535 38.46622
# Shear Modulus (GPa) = 31.78673 40.89796 36.34235
#
# Velocity S-wave (km/s) = 3.59226 4.07470 3.84106
# Velocity P-wave (km/s) = 5.28605 6.52938 5.94033
#
# Compressibility (1/GPa) = 0.03781134
#
# Stress axis : x y z
#
# Youngs Moduli (GPa) = 44.68501 133.52177 81.82123
#
# Poissons Ratio (x) = 0.15329 -0.12175
# Poissons Ratio (y) = 0.05130 0.20286
# Poissons Ratio (z) = -0.06649 0.33104
#
# Static dielectric constant tensor:
#      x y z
#    x -0.675690 -1.878280 -1.568650 
#    y -1.878280 0.809550 -1.000320 
#    z -1.568650 -1.000320 1.014720 
# 
# From -- ./inp_files/282717.got.cif
#   From: 2010.05.17/outbox.cif.g08.bks.cpg/sg2_142_cif.got.tgz:282717.got - 2010.06.03 11:33:40.
