data_PCOD9046589
_publ_section_title
;
Structure prediction by ZEFSAII (Michael W. Deem and Ramdas Pophale) SiO2 
 PCOD9046589
Probable space group: P -1
;
_chemical_formula_sum "Si O2"
_cell_formula_units_Z 14
_cell_length_a 11.646938
_cell_length_b 28.575923
_cell_length_c 4.957551
_cell_angle_alpha 49.388589
_cell_angle_beta 120.143519
_cell_angle_gamma 150.482583
_cell_volume 607.946633
_symmetry_space_group_name_H-M "P -1"
_symmetry_group_IT_number 2
_symmetry_cell_setting 'triclinic'
loop_
_space_group_symop_operation_xyz
x,y,z
-x,-y,-z
loop_
_atom_site_type_symbol
_atom_site_label
_atom_site_fract_x
_atom_site_fract_y
_atom_site_fract_z
Si Si1 0.803345 0.742110 0.669815
Si Si2 0.229800 0.724616 0.111376
Si Si3 0.272299 0.424477 0.827197
Si Si4 0.541120 0.074366 0.073802
Si Si5 0.789044 0.366478 0.040689
Si Si6 0.317400 0.563317 0.016657
Si Si7 0.106171 0.871926 0.015442
O O1 0.801753 0.669647 0.028196
O O2 0.537145 0.659804 0.720119
O O3 0.907238 0.783725 0.336860
O O4 0.978364 0.844397 0.696174
O O5 0.378279 0.839093 0.967385
O O6 0.211748 0.672164 0.538811
O O7 0.962271 0.644001 0.032835
O O8 0.323287 0.720287 0.990829
O O9 0.321622 0.495919 0.395830
O O10 0.500000 0.500000 0.000000
O O11 0.742915 0.130433 0.889145
O O12 0.302299 0.991349 0.932711
O O13 0.069416 0.482223 0.882306
O O14 0.674497 0.387085 0.906548
O O15 0.500000 0.000000 0.500000
#
# Coordination Sequence:
#
# PCOD9046589 Si02
#       7
#     2   2   2   2   2   2   2
#     4  12  23  39  62  97 134 165 205 269 333 381
#     4  11  24  40  69  93 132 165 222 270 318 390
#     4  11  22  37  63 100 135 169 208 266 336 382
#     4  11  23  41  67  96 131 161 209 273 334 397
#     4  10  25  44  65  95 125 187 228 255 305 378
#     4  10  24  43  65  92 138 178 226 263 306 388
#     4  11  24  38  62  97 127 164 205 255 348 387
#
# _framework density 23.028334999999998
#
# number of rings (size 3 to 8) (size 9 to 14) (size 15 to 20)
#    0.000    1.143    2.857    2.143    6.000    9.714 
#    0.000    0.000    0.000    5.143    0.000    0.000 
#    0.000    0.000    0.000    0.000    0.000    0.000 
#
# Total GULP energy -78358.704032 kJ/mol
# GULP energy per Si atom -5597.050288 kJ/mol
# Density = 2.297592 g / cm^3
# Si number density = 23.028335 Si / 1000 Ang^3
#
#
#
# Elastic Constant Matrix: (Units=GPa)
#
#
# Indices 1 2 3 4 5 6 
#
# 1 128.2562 37.9712 24.9679 -6.5453 -27.5378 -13.6557
# 2 37.9712 105.5588 26.1397 5.8459 1.1477 -26.0265
# 3 24.9679 26.1397 60.6828 16.6452 -13.9104 0.4773
# 4 -6.5453 5.8459 16.6452 25.3993 -5.0235 -6.0600
# 5 -27.5378 1.1477 -13.9104 -5.0235 21.5615 -1.5528
# 6 -13.6557 -26.0265 0.4773 -6.0600 -1.5528 46.5059
#
#
#
# Elastic Compliance Matrix: (Units=1/GPa)
#
#
# Indices 1 2 3 4 5 6 
#
# 1 0.015318 -0.004692 -0.002767 0.012015 0.021129 0.004172
# 2 -0.004692 0.014530 -0.006621 -0.000829 -0.010772 0.006354
# 3 -0.002767 -0.006621 0.027441 -0.016752 0.010141 -0.006643
# 4 0.012015 -0.000829 -0.016752 0.060289 0.019474 0.011742
# 5 0.021129 -0.010772 0.010141 0.019474 0.085410 0.005461
# 6 0.004172 0.006354 -0.006643 0.011742 0.005461 0.028064
#
#
# Mechanical properties :
#
#
# Convention : Reuss Voigt Hill
#
# Bulk Modulus (GPa) = 34.32671 52.51727 43.42199
# Shear Modulus (GPa) = 18.59274 32.38795 25.49034
#
# Velocity S-wave (km/s) = 2.84454 3.75432 3.33064
# Velocity P-wave (km/s) = 5.07220 6.45354 5.80411
#
# Compressibility (1/GPa) = 0.02913183
#
# Stress axis : x y z
#
# Youngs Moduli (GPa) = 65.28123 68.82194 36.44137
#
# Poissons Ratio (x) = 0.32288 0.10083
# Poissons Ratio (y) = 0.30627 0.24126
# Poissons Ratio (z) = 0.18062 0.45564
#
# Static dielectric constant tensor:
#      x y z
#    x 1.902360 0.012990 -0.007990 
#    y 0.012990 1.911450 0.015360 
#    z -0.007990 0.015360 1.880120 
# 
# From -- ./inp_files/84675.got.cif
#   From: 2010.05.17/outbox.cif.g08.bks.cpg/sg2_43_cif.got.tgz:84675.got - 2010.06.03 11:33:40.
