data_PCOD9046912
_publ_section_title
;
Structure prediction by ZEFSAII (Michael W. Deem and Ramdas Pophale) SiO2 
 PCOD9046912
Probable space group: P -1
;
_chemical_formula_sum "Si O2"
_cell_formula_units_Z 16
_cell_length_a 8.817451
_cell_length_b 11.912269
_cell_length_c 17.756011
_cell_angle_alpha 48.137712
_cell_angle_beta 33.005390
_cell_angle_gamma 61.067868
_cell_volume 743.248483
_symmetry_space_group_name_H-M "P -1"
_symmetry_group_IT_number 2
_symmetry_cell_setting 'triclinic'
loop_
_space_group_symop_operation_xyz
x,y,z
-x,-y,-z
loop_
_atom_site_type_symbol
_atom_site_label
_atom_site_fract_x
_atom_site_fract_y
_atom_site_fract_z
Si Si1 0.592045 0.614177 0.210757
Si Si2 0.209878 0.658453 0.949354
Si Si3 0.643764 0.042565 0.341731
Si Si4 0.352788 0.848570 0.952655
Si Si5 0.770445 0.971743 0.945722
Si Si6 0.738168 0.431764 0.476808
Si Si7 0.611447 0.433411 0.851674
Si Si8 0.267917 0.916269 0.413500
O O1 0.377015 0.573637 0.387131
O O2 0.452524 0.565851 0.210511
O O3 0.695671 0.797870 0.083074
O O4 0.894898 0.559269 0.115297
O O5 0.301752 0.779690 0.788797
O O6 0.208281 0.756455 0.982451
O O7 0.449445 0.556339 0.901400
O O8 0.955203 0.003358 0.231252
O O9 0.500000 0.000000 0.500000
O O10 0.457670 0.949976 0.394372
O O11 0.565530 0.991909 0.766302
O O12 0.502274 0.731788 0.990223
O O13 0.159771 0.916396 0.062060
O O14 0.500000 0.000000 0.000000
O O15 0.500000 0.500000 0.500000
O O16 0.775157 0.262942 0.508462
O O17 0.051062 0.532713 0.292817
O O18 0.000000 0.000000 0.500000
#
# Coordination Sequence:
#
# PCOD9046912 Si02
#       8
#     2   2   2   2   2   2   2   2
#     4  11  24  43  69  99 134 182 224 285 338 411
#     4  10  24  43  69 103 135 179 227 284 345 408
#     4  10  25  42  68 101 137 179 231 277 343 409
#     4  11  23  44  74  97 133 179 236 272 338 411
#     4  11  23  41  72 103 130 176 232 283 334 401
#     4  12  27  44  67 105 141 181 231 286 349 403
#     4  12  25  45  68 102 140 179 223 284 352 409
#     4  11  26  45  72 101 140 186 230 288 341 412
#
# _framework density 21.527121000000001
#
# number of rings (size 3 to 8) (size 9 to 14) (size 15 to 20)
#    0.000    1.000    2.500    3.375    5.250    4.500 
#    0.000    0.000    0.000    0.000    0.000    0.000 
#    0.000    0.000    0.000    0.000    0.000    0.000 
#
# Total GULP energy -89472.526512 kJ/mol
# GULP energy per Si atom -5592.032907 kJ/mol
# Density = 2.147812 g / cm^3
# Si number density = 21.527121 Si / 1000 Ang^3
#
#
#
# Elastic Constant Matrix: (Units=GPa)
#
#
# Indices 1 2 3 4 5 6 
#
# 1 92.6975 34.5014 40.6026 16.6677 -4.8620 -3.9847
# 2 34.5014 88.5475 44.7018 14.3801 -2.8811 4.5716
# 3 40.6026 44.7018 95.2714 25.4662 12.3134 -5.1759
# 4 16.6677 14.3801 25.4662 31.2713 -3.3587 -8.7345
# 5 -4.8620 -2.8811 12.3134 -3.3587 42.0241 6.4099
# 6 -3.9847 4.5716 -5.1759 -8.7345 6.4099 25.4887
#
#
#
# Elastic Compliance Matrix: (Units=1/GPa)
#
#
# Indices 1 2 3 4 5 6 
#
# 1 0.014390 -0.002932 -0.004439 -0.002311 0.002511 0.000451
# 2 -0.002932 0.016669 -0.006885 -0.001895 0.003648 -0.006413
# 3 -0.004439 -0.006885 0.019617 -0.010481 -0.008021 0.002950
# 4 -0.002311 -0.001895 -0.010481 0.046647 0.004463 0.012713
# 5 0.002511 0.003648 -0.008021 0.004463 0.028180 -0.007448
# 6 0.000451 -0.006413 0.002950 0.012713 -0.007448 0.047282
#
#
# Mechanical properties :
#
#
# Convention : Reuss Voigt Hill
#
# Bulk Modulus (GPa) = 45.11874 57.34754 51.23314
# Shear Modulus (GPa) = 23.95945 30.20419 27.08182
#
# Velocity S-wave (km/s) = 3.33977 3.74983 3.55072
# Velocity P-wave (km/s) = 5.98971 6.74135 6.37661
#
# Compressibility (1/GPa) = 0.02216374
#
# Stress axis : x y z
#
# Youngs Moduli (GPa) = 69.49180 59.99134 50.97534
#
# Poissons Ratio (x) = 0.17590 0.22630
# Poissons Ratio (y) = 0.20375 0.35096
# Poissons Ratio (z) = 0.30851 0.41304
#
# Static dielectric constant tensor:
#      x y z
#    x 1.792430 -0.015430 -0.010440 
#    y -0.015430 1.851660 0.003030 
#    z -0.010440 0.003030 1.755310 
# 
# From -- ./inp_files/559505.got.cif
#   From: 2010.05.17/outbox.cif.g08.bks.cpg/sg2_280_cif.got.tgz:559505.got - 2010.06.03 11:33:40.
