data_PCOD9046424
_publ_section_title
;
Structure prediction by ZEFSAII (Michael W. Deem and Ramdas Pophale) SiO2 
 PCOD9046424
Probable space group: P -1
;
_chemical_formula_sum "Si O2"
_cell_formula_units_Z 15
_cell_length_a 24.029757
_cell_length_b 11.783754
_cell_length_c 6.263987
_cell_angle_alpha 82.436417
_cell_angle_beta 117.696042
_cell_angle_gamma 150.047487
_cell_volume 619.402249
_symmetry_space_group_name_H-M "P -1"
_symmetry_group_IT_number 2
_symmetry_cell_setting 'triclinic'
loop_
_space_group_symop_operation_xyz
x,y,z
-x,-y,-z
loop_
_atom_site_type_symbol
_atom_site_label
_atom_site_fract_x
_atom_site_fract_y
_atom_site_fract_z
Si Si1 0.069475 0.467879 0.206865
Si Si2 0.871424 0.658877 0.416955
Si Si3 0.579738 0.433056 0.376388
Si Si4 0.000000 0.500000 0.500000
Si Si5 0.367376 0.080895 0.456700
Si Si6 0.546986 0.210256 0.030003
Si Si7 0.778969 0.975260 0.499093
Si Si8 0.873327 0.795639 0.012190
O O1 0.150066 0.497109 0.466819
O O2 0.035742 0.500863 0.327799
O O3 0.197339 0.736526 0.205679
O O4 0.914598 0.175178 0.870322
O O5 0.736790 0.520552 0.293974
O O6 0.853916 0.640784 0.134885
O O7 0.043824 0.986501 0.716484
O O8 0.452746 0.271860 0.353730
O O9 0.491855 0.191824 0.137140
O O10 0.672527 0.684897 0.347035
O O11 0.715083 0.588573 0.702120
O O12 0.871165 0.181063 0.411158
O O13 0.334850 0.121761 0.566998
O O14 0.478496 0.165518 0.721730
O O15 0.500000 0.000000 0.000000
O O16 0.000000 0.000000 0.000000
#
# Coordination Sequence:
#
# PCOD9046424 Si02
#       8
#     2   2   2   1   2   2   2   2
#     4  11  24  46  73 103 143 184 246 302 353 431
#     4  11  23  42  70 100 143 179 234 302 345 427
#     4  12  26  45  74 104 148 196 237 298 371 428
#     4  10  24  42  72 106 134 186 234 298 362 414
#     4  11  25  46  69 105 148 187 237 304 359 436
#     4  12  26  46  66 105 145 188 238 292 365 428
#     4  11  26  48  75 107 139 190 254 298 359 427
#     4  11  23  41  69 107 135 182 239 290 354 424
#
# _framework density 24.216895999999998
#
# number of rings (size 3 to 8) (size 9 to 14) (size 15 to 20)
#    0.000    0.800    5.333    2.000    1.867    6.400 
#    2.400    0.000    0.000    0.000    0.000    0.000 
#    0.000    0.000    0.000    0.000    0.000    0.000 
#
# Total GULP energy -83656.596966 kJ/mol
# GULP energy per Si atom -5577.106464 kJ/mol
# Density = 2.416178 g / cm^3
# Si number density = 24.216896 Si / 1000 Ang^3
#
#
#
# Elastic Constant Matrix: (Units=GPa)
#
#
# Indices 1 2 3 4 5 6 
#
# 1 70.6919 36.8871 20.8989 -0.1885 15.3377 -0.1547
# 2 36.8871 164.1542 14.6180 -5.8747 1.3138 8.7061
# 3 20.8989 14.6180 47.6880 13.3030 15.0654 -2.3460
# 4 -0.1885 -5.8747 13.3030 24.4901 -10.8120 -3.3712
# 5 15.3377 1.3138 15.0654 -10.8120 37.3611 -4.2214
# 6 -0.1547 8.7061 -2.3460 -3.3712 -4.2214 47.5925
#
#
#
# Elastic Compliance Matrix: (Units=1/GPa)
#
#
# Indices 1 2 3 4 5 6 
#
# 1 0.018863 -0.003739 -0.005238 -0.000392 -0.005618 -0.000039
# 2 -0.003739 0.007444 -0.003492 0.005374 0.004146 -0.000798
# 3 -0.005238 -0.003492 0.041840 -0.034881 -0.024918 -0.001997
# 4 -0.000392 0.005374 -0.034881 0.078443 0.037435 0.006173
# 5 -0.005618 0.004146 -0.024918 0.037435 0.050386 0.005116
# 6 -0.000039 -0.000798 -0.001997 0.006173 0.005116 0.021950
#
#
# Mechanical properties :
#
#
# Convention : Reuss Voigt Hill
#
# Bulk Modulus (GPa) = 23.14342 47.48244 35.31293
# Shear Modulus (GPa) = 19.35976 35.89743 27.62859
#
# Velocity S-wave (km/s) = 2.83049 3.85428 3.38136
# Velocity P-wave (km/s) = 4.50108 6.28148 5.46428
#
# Compressibility (1/GPa) = 0.04320882
#
# Stress axis : x y z
#
# Youngs Moduli (GPa) = 53.01251 134.32755 23.90084
#
# Poissons Ratio (x) = 0.50230 0.12520
# Poissons Ratio (y) = 0.19823 0.08345
# Poissons Ratio (z) = 0.27770 0.46903
#
# Static dielectric constant tensor:
#      x y z
#    x 2.059760 -0.187670 0.143060 
#    y -0.187670 2.250280 -0.240400 
#    z 0.143060 -0.240400 2.192670 
# 
# From -- ./inp_files/123697.got.cif
#   From: 2010.05.17/outbox.cif.g08.bks.cpg/sg2_62_cif.got.tgz:123697.got - 2010.06.03 11:33:40.
