data_PCOD9046985
_publ_section_title
;
Structure prediction by ZEFSAII (Michael W. Deem and Ramdas Pophale) SiO2 
 PCOD9046985
Probable space group: P -1
;
_chemical_formula_sum "Si O2"
_cell_formula_units_Z 16
_cell_length_a 18.675134
_cell_length_b 19.183996
_cell_length_c 11.732435
_cell_angle_alpha 151.867778
_cell_angle_beta 29.847351
_cell_angle_gamma 158.829823
_cell_volume 690.284374
_symmetry_space_group_name_H-M "P -1"
_symmetry_group_IT_number 2
_symmetry_cell_setting 'triclinic'
loop_
_space_group_symop_operation_xyz
x,y,z
-x,-y,-z
loop_
_atom_site_type_symbol
_atom_site_label
_atom_site_fract_x
_atom_site_fract_y
_atom_site_fract_z
Si Si1 0.947052 0.839525 0.183694
Si Si2 0.681566 0.864199 0.740531
Si Si3 0.742244 0.372653 0.082147
Si Si4 0.631102 0.358809 0.631928
Si Si5 0.267713 0.879896 0.448773
Si Si6 0.798996 0.415831 0.721360
Si Si7 0.799708 0.271932 0.090364
Si Si8 0.906948 0.804673 0.922305
O O1 0.802853 0.839598 0.457395
O O2 0.878146 0.617616 0.971296
O O3 0.911098 0.847413 0.111228
O O4 0.182379 0.031287 0.180453
O O5 0.436383 0.659527 0.774444
O O6 0.689793 0.037570 0.929970
O O7 0.707670 0.305819 0.165419
O O8 0.764860 0.232118 0.783815
O O9 0.970402 0.604284 0.085991
O O10 0.657268 0.362405 0.736280
O O11 0.780194 0.358112 0.354089
O O12 0.700749 0.577869 0.830715
O O13 0.411136 0.124365 0.575226
O O14 0.329277 0.793201 0.325801
O O15 0.070216 0.794269 0.662588
O O16 0.000000 0.500000 0.500000
O O17 0.000000 0.000000 0.000000
#
# Coordination Sequence:
#
# PCOD9046985 Si02
#       8
#     2   2   2   2   2   2   2   2
#     4  10  24  43  70 101 142 180 225 280 352 406
#     4  11  23  43  68  97 139 179 221 291 341 409
#     4  11  24  39  70 101 132 182 233 283 346 404
#     4  11  23  40  68 100 132 171 231 280 341 402
#     4  12  23  39  72 100 129 177 231 282 342 408
#     4  11  20  42  69  97 135 176 224 285 331 410
#     4  11  23  42  68 102 133 180 236 286 335 412
#     4  11  26  45  66  96 144 182 219 287 345 410
#
# _framework density 23.178851999999999
#
# number of rings (size 3 to 8) (size 9 to 14) (size 15 to 20)
#    0.000    1.000    5.000    2.250    1.750    1.500 
#    0.000    9.375    0.000    0.000    0.000    0.000 
#    0.000    0.000    0.000    0.000    0.000    0.000 
#
# Total GULP energy -89327.043216 kJ/mol
# GULP energy per Si atom -5582.940201 kJ/mol
# Density = 2.312610 g / cm^3
# Si number density = 23.178852 Si / 1000 Ang^3
#
#
#
# Elastic Constant Matrix: (Units=GPa)
#
#
# Indices 1 2 3 4 5 6 
#
# 1 54.3736 17.1839 26.8057 -0.5209 9.1497 -6.5922
# 2 17.1839 83.0095 11.2818 8.7435 -2.0502 -12.1883
# 3 26.8057 11.2818 99.3845 6.4154 15.5226 0.5543
# 4 -0.5209 8.7435 6.4154 30.7987 5.5744 -10.5233
# 5 9.1497 -2.0502 15.5226 5.5744 29.4857 -4.5020
# 6 -6.5922 -12.1883 0.5543 -10.5233 -4.5020 41.4120
#
#
#
# Elastic Compliance Matrix: (Units=1/GPa)
#
#
# Indices 1 2 3 4 5 6 
#
# 1 0.023758 -0.004343 -0.005426 0.004816 -0.005235 0.003231
# 2 -0.004343 0.013958 -0.000803 -0.003563 0.003864 0.002942
# 3 -0.005426 -0.000803 0.012550 -0.002418 -0.004890 -0.002414
# 4 0.004816 -0.003563 -0.002418 0.038212 -0.006355 0.008770
# 5 -0.005235 0.003864 -0.004890 -0.006355 0.040058 0.003109
# 6 0.003231 0.002942 -0.002414 0.008770 0.003109 0.028127
#
#
# Mechanical properties :
#
#
# Convention : Reuss Voigt Hill
#
# Bulk Modulus (GPa) = 34.33917 38.59005 36.46461
# Shear Modulus (GPa) = 26.66478 32.43903 29.55191
#
# Velocity S-wave (km/s) = 3.39542 3.74506 3.57452
# Velocity P-wave (km/s) = 5.49717 5.94858 5.72733
#
# Compressibility (1/GPa) = 0.02912126
#
# Stress axis : x y z
#
# Youngs Moduli (GPa) = 42.09188 71.64539 79.68151
#
# Poissons Ratio (x) = 0.31114 0.43236
# Poissons Ratio (y) = 0.18280 0.06398
# Poissons Ratio (z) = 0.22840 0.05753
#
# Static dielectric constant tensor:
#      x y z
#    x 1.933780 0.036390 -0.061070 
#    y 0.036390 1.954300 -0.017530 
#    z -0.061070 -0.017530 1.857200 
# 
# From -- ./inp_files/472683.got.cif
#   From: 2010.05.17/outbox.cif.g08.bks.cpg/sg2_237_cif.got.tgz:472683.got - 2010.06.03 11:33:40.
