data_PCOD9046824
_publ_section_title
;
Structure prediction by ZEFSAII (Michael W. Deem and Ramdas Pophale) SiO2 
 PCOD9046824
Probable space group: P -1
;
_chemical_formula_sum "Si O2"
_cell_formula_units_Z 16
_cell_length_a 18.538736
_cell_length_b 12.432939
_cell_length_c 11.800092
_cell_angle_alpha 128.234752
_cell_angle_beta 32.045553
_cell_angle_gamma 142.922726
_cell_volume 855.935379
_symmetry_space_group_name_H-M "P -1"
_symmetry_group_IT_number 2
_symmetry_cell_setting 'triclinic'
loop_
_space_group_symop_operation_xyz
x,y,z
-x,-y,-z
loop_
_atom_site_type_symbol
_atom_site_label
_atom_site_fract_x
_atom_site_fract_y
_atom_site_fract_z
Si Si1 0.742313 0.006712 0.215124
Si Si2 0.475486 0.958450 0.869480
Si Si3 0.943864 0.675442 0.758873
Si Si4 0.761943 0.924810 0.389028
Si Si5 0.624143 0.240099 0.525172
Si Si6 0.855459 0.688571 0.142537
Si Si7 0.258516 0.653501 0.336516
Si Si8 0.205216 0.627144 0.859167
O O1 0.669606 0.111589 0.410970
O O2 0.757212 0.932320 0.262962
O O3 0.582211 0.851898 0.248393
O O4 0.935997 0.149369 0.994371
O O5 0.604156 0.914661 0.640401
O O6 0.285071 0.788522 0.951523
O O7 0.563706 0.148427 0.813145
O O8 0.500000 0.000000 0.000000
O O9 0.788446 0.505828 0.782072
O O10 0.099878 0.662250 0.546279
O O11 0.875152 0.660219 0.966149
O O12 0.046625 0.877070 0.707116
O O13 0.753783 0.764465 0.335570
O O14 0.734563 0.390336 0.571437
O O15 0.676163 0.287742 0.356631
O O16 0.777286 0.509963 0.197231
O O17 0.000000 0.500000 0.000000
#
# Coordination Sequence:
#
# PCOD9046824 Si02
#       8
#     2   2   2   2   2   2   2   2
#     4  10  17  34  56  84 111 148 194 242 284 336
#     4  11  22  38  59  90 121 151 194 251 305 340
#     4   9  17  33  56  88 112 146 196 241 289 342
#     4  10  20  37  59  84 116 156 194 243 292 354
#     4  11  18  33  58  83 119 146 196 242 290 335
#     4  11  21  35  59  87 118 155 195 241 294 350
#     4  10  18  32  58  84 117 148 190 247 291 340
#     4  12  23  36  57  94 120 155 198 246 292 349
#
# _framework density 18.693000999999999
#
# number of rings (size 3 to 8) (size 9 to 14) (size 15 to 20)
#    0.000    1.500    6.250    3.000    0.000    2.500 
#    0.000    0.000    0.000    6.000    0.000    0.000 
#    0.000    0.000    0.000    0.000    0.000    0.000 
#
# Total GULP energy -89123.440883 kJ/mol
# GULP energy per Si atom -5570.215055 kJ/mol
# Density = 1.865045 g / cm^3
# Si number density = 18.693001 Si / 1000 Ang^3
#
#
#
# Elastic Constant Matrix: (Units=GPa)
#
#
# Indices 1 2 3 4 5 6 
#
# 1 75.4763 51.5261 11.1641 0.2172 9.2631 8.5165
# 2 51.5261 92.8527 12.7748 4.9676 -5.6541 8.5234
# 3 11.1641 12.7748 26.5924 -1.6683 1.3484 2.1434
# 4 0.2172 4.9676 -1.6683 18.1183 -0.4062 -4.7795
# 5 9.2631 -5.6541 1.3484 -0.4062 23.6658 -2.7900
# 6 8.5165 8.5234 2.1434 -4.7795 -2.7900 30.1100
#
#
#
# Elastic Compliance Matrix: (Units=1/GPa)
#
#
# Indices 1 2 3 4 5 6 
#
# 1 0.025629 -0.014442 -0.002679 0.002064 -0.013756 -0.003917
# 2 -0.014442 0.020504 -0.004587 -0.005995 0.010549 -0.001367
# 3 -0.002679 -0.004587 0.041390 0.004963 -0.002358 -0.000321
# 4 0.002064 -0.005995 0.004963 0.059967 -0.000285 0.010252
# 5 -0.013756 0.010549 -0.002358 -0.000285 0.050967 0.005750
# 6 -0.003917 -0.001367 -0.000321 0.010252 0.005750 0.036889
#
#
# Mechanical properties :
#
#
# Convention : Reuss Voigt Hill
#
# Bulk Modulus (GPa) = 22.67292 38.42794 30.55043
# Shear Modulus (GPa) = 17.03783 22.34259 19.69021
#
# Velocity S-wave (km/s) = 3.02231 3.46097 3.24905
# Velocity P-wave (km/s) = 4.93301 6.04757 5.51850
#
# Compressibility (1/GPa) = 0.04410549
#
# Stress axis : x y z
#
# Youngs Moduli (GPa) = 39.01834 48.77188 24.16035
#
# Poissons Ratio (x) = 0.70436 0.06473
# Poissons Ratio (y) = 0.56350 0.11084
# Poissons Ratio (z) = 0.10454 0.22374
#
# Static dielectric constant tensor:
#      x y z
#    x 1.678890 0.047090 -0.020290 
#    y 0.047090 1.713710 -0.034980 
#    z -0.020290 -0.034980 1.650920 
# 
# From -- ./inp_files/263009.got.cif
#   From: 2010.05.17/outbox.cif.g08.bks.cpg/sg2_132_cif.got.tgz:263009.got - 2010.06.03 11:33:40.
