data_PCOD9046542
_publ_section_title
;
Structure prediction by ZEFSAII (Michael W. Deem and Ramdas Pophale) SiO2 
 PCOD9046542
Probable space group: P -1
;
_chemical_formula_sum "Si O2"
_cell_formula_units_Z 14
_cell_length_a 8.015635
_cell_length_b 5.124188
_cell_length_c 15.909260
_cell_angle_alpha 75.631455
_cell_angle_beta 106.085858
_cell_angle_gamma 85.243424
_cell_volume 600.096424
_symmetry_space_group_name_H-M "P -1"
_symmetry_group_IT_number 2
_symmetry_cell_setting 'triclinic'
loop_
_space_group_symop_operation_xyz
x,y,z
-x,-y,-z
loop_
_atom_site_type_symbol
_atom_site_label
_atom_site_fract_x
_atom_site_fract_y
_atom_site_fract_z
Si Si1 0.403218 0.744911 0.525049
Si Si2 0.638546 0.456431 0.132352
Si Si3 0.339021 0.395060 0.295673
Si Si4 0.851547 0.120579 0.656160
Si Si5 0.798968 0.884235 0.202232
Si Si6 0.885855 0.718773 0.041961
Si Si7 0.723849 0.269685 0.910094
O O1 0.500000 0.500000 0.500000
O O2 0.462972 0.672330 0.634167
O O3 0.207902 0.829262 0.453429
O O4 0.500000 0.000000 0.500000
O O5 0.641824 0.137938 0.168865
O O6 0.779671 0.489201 0.077090
O O7 0.453844 0.638831 0.070093
O O8 0.720359 0.604315 0.210320
O O9 0.226622 0.602237 0.328428
O O10 0.330041 0.565978 0.196003
O O11 0.244959 0.125584 0.302417
O O12 0.055863 0.075980 0.712120
O O13 0.886828 0.877992 0.121286
O O14 0.088144 0.640823 0.051383
O O15 0.775780 0.942003 0.947691
#
# Coordination Sequence:
#
# PCOD9046542 Si02
#       7
#     2   2   2   2   2   2   2
#     4   8  16  28  50  79 110 140 181 225 275 328
#     4  10  23  40  56  83 116 151 190 231 279 335
#     4  10  19  32  53  86 110 143 189 230 276 333
#     4  10  17  34  56  80 113 148 181 231 276 336
#     4  10  20  39  57  80 115 146 195 225 278 338
#     4   9  22  40  58  85 111 155 191 228 285 334
#     4  11  20  40  60  85 115 150 188 242 275 331
#
# _framework density 23.329587
#
# number of rings (size 3 to 8) (size 9 to 14) (size 15 to 20)
#    0.857    1.429    1.429    2.143    0.000    1.714 
#    5.143    2.143    0.000    1.714    0.000    0.000 
#    0.000    0.000    0.000    0.000    0.000    0.000 
#
# Total GULP energy -78041.464448 kJ/mol
# GULP energy per Si atom -5574.390318 kJ/mol
# Density = 2.327649 g / cm^3
# Si number density = 23.329587 Si / 1000 Ang^3
#
#
#
# Elastic Constant Matrix: (Units=GPa)
#
#
# Indices 1 2 3 4 5 6 
#
# 1 67.5970 6.7593 19.4458 4.4095 18.0984 -15.8276
# 2 6.7593 81.0892 19.0040 5.8787 11.4385 8.9154
# 3 19.4458 19.0040 139.4324 -11.2019 26.2211 9.6988
# 4 4.4095 5.8787 -11.2019 27.9804 8.8465 10.6110
# 5 18.0984 11.4385 26.2211 8.8465 29.2792 -2.9967
# 6 -15.8276 8.9154 9.6988 10.6110 -2.9967 23.2854
#
#
#
# Elastic Compliance Matrix: (Units=1/GPa)
#
#
# Indices 1 2 3 4 5 6 
#
# 1 0.024379 -0.002255 -0.005896 -0.015368 -0.001532 0.026696
# 2 -0.002255 0.014129 0.000561 0.003318 -0.006607 -0.009538
# 3 -0.005896 0.000561 0.014509 0.020683 -0.018071 -0.022017
# 4 -0.015368 0.003318 0.020683 0.083130 -0.041947 -0.063611
# 5 -0.001532 -0.006607 -0.018071 -0.041947 0.070346 0.037183
# 6 0.026696 -0.009538 -0.022017 -0.063611 0.037183 0.107686
#
#
# Mechanical properties :
#
#
# Convention : Reuss Voigt Hill
#
# Bulk Modulus (GPa) = 26.42904 42.05964 34.24434
# Shear Modulus (GPa) = 14.62119 32.30299 23.46209
#
# Velocity S-wave (km/s) = 2.50616 3.72511 3.17469
# Velocity P-wave (km/s) = 4.44158 6.04727 5.30552
#
# Compressibility (1/GPa) = 0.03783716
#
# Stress axis : x y z
#
# Youngs Moduli (GPa) = 41.01951 70.77800 68.92197
#
# Poissons Ratio (x) = 0.15961 0.40636
# Poissons Ratio (y) = 0.09250 -0.03869
# Poissons Ratio (z) = 0.24185 -0.03973
#
# Static dielectric constant tensor:
#      x y z
#    x 1.878960 -0.009750 0.014520 
#    y -0.009750 1.902190 0.064330 
#    z 0.014520 0.064330 1.993600 
# 
# From -- ./inp_files/210303.got.cif
#   From: 2010.05.17/outbox.cif.g08.bks.cpg/sg2_106_cif.got.tgz:210303.got - 2010.06.03 11:33:40.
