data_PCOD9046196
_publ_section_title
;
Structure prediction by ZEFSAII (Michael W. Deem and Ramdas Pophale) SiO2 
 PCOD9046196
Probable space group: P -1
;
_chemical_formula_sum "Si O2"
_cell_formula_units_Z 15
_cell_length_a 14.106046
_cell_length_b 11.576918
_cell_length_c 14.867627
_cell_angle_alpha 56.956732
_cell_angle_beta 150.268380
_cell_angle_gamma 140.370318
_cell_volume 707.034260
_symmetry_space_group_name_H-M "P -1"
_symmetry_group_IT_number 2
_symmetry_cell_setting 'triclinic'
loop_
_space_group_symop_operation_xyz
x,y,z
-x,-y,-z
loop_
_atom_site_type_symbol
_atom_site_label
_atom_site_fract_x
_atom_site_fract_y
_atom_site_fract_z
Si Si1 0.309735 0.332493 0.488198
Si Si2 0.539684 0.466103 0.284614
Si Si3 0.272145 0.562324 0.929322
Si Si4 0.099344 0.648118 0.598335
Si Si5 0.454026 0.095517 0.673366
Si Si6 0.722583 0.139349 0.700203
Si Si7 0.263908 0.809333 0.946594
Si Si8 0.000000 0.000000 0.000000
O O1 0.500000 0.500000 0.500000
O O2 0.439099 0.442531 0.643033
O O3 0.316478 0.171685 0.548002
O O4 0.008790 0.242073 0.269162
O O5 0.286116 0.231541 0.167973
O O6 0.829639 0.543106 0.477798
O O7 0.495995 0.561286 0.132322
O O8 0.308067 0.672964 0.823813
O O9 0.239681 0.646151 0.952065
O O10 0.985230 0.336199 0.783261
O O11 0.000000 0.500000 0.500000
O O12 0.235593 0.859541 0.588818
O O13 0.612979 0.176875 0.675069
O O14 0.649500 0.161142 0.890971
O O15 0.500000 0.000000 0.500000
O O16 0.818481 0.042225 0.859366
O O17 0.500000 0.000000 0.000000
#
# Coordination Sequence:
#
# PCOD9046196 Si02
#       8
#     2   2   2   2   2   2   2   1
#     4  12  28  44  73 108 146 186 240 300 364 433
#     4  11  24  45  71 100 143 183 239 295 358 418
#     4  11  23  43  70  98 139 181 228 296 353 413
#     4  12  26  47  70 103 142 189 235 293 357 437
#     4  12  27  43  75 107 140 184 242 292 365 436
#     4  11  25  44  70  98 139 185 234 293 352 424
#     4  12  25  45  72 102 144 185 233 296 362 425
#     4  10  24  42  68  98 134 190 232 282 352 418
#
# _framework density 21.21538
#
# number of rings (size 3 to 8) (size 9 to 14) (size 15 to 20)
#    0.000    0.533    4.000    3.200    7.467    2.667 
#    0.000    0.000    0.000    0.000    0.000    0.000 
#    0.000    0.000    0.000    0.000    0.000    0.000 
#
# Total GULP energy -83637.361535 kJ/mol
# GULP energy per Si atom -5575.824102 kJ/mol
# Density = 2.116709 g / cm^3
# Si number density = 21.215380 Si / 1000 Ang^3
#
#
#
# Elastic Constant Matrix: (Units=GPa)
#
#
# Indices 1 2 3 4 5 6 
#
# 1 46.5161 7.5905 -9.0462 -8.5567 -5.5357 -9.8888
# 2 7.5905 88.7004 20.4422 1.1199 -2.4121 -23.7383
# 3 -9.0462 20.4422 72.6352 -8.4152 10.4149 1.5158
# 4 -8.5567 1.1199 -8.4152 34.1592 -3.0971 1.2222
# 5 -5.5357 -2.4121 10.4149 -3.0971 31.1017 -1.5451
# 6 -9.8888 -23.7383 1.5158 1.2222 -1.5451 41.6806
#
#
#
# Elastic Compliance Matrix: (Units=1/GPa)
#
#
# Indices 1 2 3 4 5 6 
#
# 1 0.025441 -0.001759 0.003854 0.007579 0.004096 0.004824
# 2 -0.001759 0.015026 -0.005295 -0.002286 0.002820 0.008505
# 3 0.003854 -0.005295 0.017113 0.005001 -0.005109 -0.003060
# 4 0.007579 -0.002286 0.005001 0.032747 0.002731 -0.000545
# 5 0.004096 0.002820 -0.005109 0.002731 0.035282 0.003992
# 6 0.004824 0.008505 -0.003060 -0.000545 0.003992 0.030255
#
#
# Mechanical properties :
#
#
# Convention : Reuss Voigt Hill
#
# Bulk Modulus (GPa) = 19.53828 27.31386 23.42607
# Shear Modulus (GPa) = 27.88235 33.97931 30.93083
#
# Velocity S-wave (km/s) = 3.62919 4.00639 3.82245
# Velocity P-wave (km/s) = 5.17599 5.85696 5.52697
#
# Compressibility (1/GPa) = 0.05118158
#
# Stress axis : x y z
#
# Youngs Moduli (GPa) = 39.30610 66.55019 58.43397
#
# Poissons Ratio (x) = 0.11703 -0.22518
# Poissons Ratio (y) = 0.06912 0.30939
# Poissons Ratio (z) = -0.15147 0.35236
#
# Static dielectric constant tensor:
#      x y z
#    x 1.761080 0.009880 -0.043520 
#    y 0.009880 1.792390 -0.000020 
#    z -0.043520 -0.000020 1.772210 
# 
# From -- ./inp_files/446131.got.cif
#   From: 2010.05.17/outbox.cif.g08.bks.cpg/sg2_224_cif.got.tgz:446131.got - 2010.06.03 11:33:40.
