data_PCOD9046727
_publ_section_title
;
Structure prediction by ZEFSAII (Michael W. Deem and Ramdas Pophale) SiO2 
 PCOD9046727
Probable space group: P -1
;
_chemical_formula_sum "Si O2"
_cell_formula_units_Z 16
_cell_length_a 6.081032
_cell_length_b 15.135109
_cell_length_c 18.311761
_cell_angle_alpha 28.542243
_cell_angle_beta 111.731385
_cell_angle_gamma 110.520495
_cell_volume 746.830606
_symmetry_space_group_name_H-M "P -1"
_symmetry_group_IT_number 2
_symmetry_cell_setting 'triclinic'
loop_
_space_group_symop_operation_xyz
x,y,z
-x,-y,-z
loop_
_atom_site_type_symbol
_atom_site_label
_atom_site_fract_x
_atom_site_fract_y
_atom_site_fract_z
Si Si1 0.241859 0.898024 0.527036
Si Si2 0.871864 0.112013 0.790629
Si Si3 0.399973 0.888044 0.879680
Si Si4 0.371601 0.562264 0.013734
Si Si5 0.265660 0.549502 0.390269
Si Si6 0.292209 0.856791 0.050616
Si Si7 0.005016 0.160585 0.605875
Si Si8 0.020820 0.277766 0.247553
O O1 0.195384 0.838490 0.481299
O O2 0.136243 0.736330 0.686543
O O3 0.500000 0.000000 0.500000
O O4 0.076467 0.068529 0.392446
O O5 0.893764 0.318585 0.675769
O O6 0.900101 0.117434 0.703572
O O7 0.606342 0.031804 0.828222
O O8 0.055334 0.970394 0.947075
O O9 0.496515 0.728914 0.955209
O O10 0.201326 0.007605 0.730516
O O11 0.300553 0.803924 0.004569
O O12 0.145596 0.655402 0.884834
O O13 0.500000 0.500000 0.000000
O O14 0.265909 0.403640 0.172206
O O15 0.500000 0.500000 0.500000
O O16 0.314014 0.677688 0.232764
O O17 0.137233 0.360573 0.484714
O O18 0.500000 0.000000 0.000000
#
# Coordination Sequence:
#
# PCOD9046727 Si02
#       8
#     2   2   2   2   2   2   2   2
#     4  11  24  45  67  99 140 187 231 294 363 415
#     4  11  24  44  72 101 142 190 229 285 358 424
#     4  11  24  45  70  98 137 185 235 290 357 423
#     4  11  24  43  70  99 132 182 239 295 354 423
#     4  12  23  46  71 105 143 182 232 292 351 427
#     4  11  24  45  70 101 142 185 232 289 351 423
#     4  11  25  43  71 100 138 184 239 290 352 424
#     4  10  24  43  67  93 137 173 234 297 349 412
#
# _framework density 21.423866
#
# number of rings (size 3 to 8) (size 9 to 14) (size 15 to 20)
#    0.000    1.000    3.750    2.250    5.250    1.000 
#    2.250    0.000    0.000    0.000    0.000    0.000 
#    0.000    0.000    0.000    0.000    0.000    0.000 
#
# Total GULP energy -89223.313290 kJ/mol
# GULP energy per Si atom -5576.457081 kJ/mol
# Density = 2.137510 g / cm^3
# Si number density = 21.423866 Si / 1000 Ang^3
#
#
#
# Elastic Constant Matrix: (Units=GPa)
#
#
# Indices 1 2 3 4 5 6 
#
# 1 63.7511 33.9703 30.4465 5.8925 -8.5382 -2.7238
# 2 33.9703 130.4912 45.9600 0.0526 -6.5267 -2.2284
# 3 30.4465 45.9600 136.8852 13.9474 -16.4302 -1.2691
# 4 5.8925 0.0526 13.9474 32.5933 -0.3420 10.8192
# 5 -8.5382 -6.5267 -16.4302 -0.3420 37.8400 0.0665
# 6 -2.7238 -2.2284 -1.2691 10.8192 0.0665 33.8519
#
#
#
# Elastic Compliance Matrix: (Units=1/GPa)
#
#
# Indices 1 2 3 4 5 6 
#
# 1 0.019773 -0.004155 -0.002321 -0.003304 0.002703 0.002281
# 2 -0.004155 0.009618 -0.002554 0.001965 -0.000369 -0.000424
# 3 -0.002321 -0.002554 0.009474 -0.004023 0.003111 0.001280
# 4 -0.003304 0.001965 -0.004023 0.036997 -0.001797 -0.012108
# 5 0.002703 -0.000369 0.003111 -0.001797 0.028307 0.000829
# 6 0.002281 -0.000424 0.001280 -0.012108 0.000829 0.033612
#
#
# Mechanical properties :
#
#
# Convention : Reuss Voigt Hill
#
# Bulk Modulus (GPa) = 48.06065 61.32011 54.69038
# Shear Modulus (GPa) = 30.71741 35.57377 33.14559
#
# Velocity S-wave (km/s) = 3.79065 4.07931 3.93763
# Velocity P-wave (km/s) = 6.45296 7.13247 6.80121
#
# Compressibility (1/GPa) = 0.02080704
#
# Stress axis : x y z
#
# Youngs Moduli (GPa) = 50.57391 103.97392 105.55055
#
# Poissons Ratio (x) = 0.43196 0.24497
# Poissons Ratio (y) = 0.21011 0.26953
# Poissons Ratio (z) = 0.11737 0.26551
#
# Static dielectric constant tensor:
#      x y z
#    x 1.943960 -0.061080 -0.073080 
#    y -0.061080 1.788710 0.013050 
#    z -0.073080 0.013050 1.803680 
# 
# From -- ./inp_files/109932.got.cif
#   From: 2010.05.17/outbox.cif.g08.bks.cpg/sg2_55_cif.got.tgz:109932.got - 2010.06.03 11:33:40.
