data_PCOD9046156
_publ_section_title
;
Structure prediction by ZEFSAII (Michael W. Deem and Ramdas Pophale) SiO2 
 PCOD9046156
Probable space group: P -1
;
_chemical_formula_sum "Si O2"
_cell_formula_units_Z 16
_cell_length_a 16.571380
_cell_length_b 9.459106
_cell_length_c 11.786806
_cell_angle_alpha 55.075137
_cell_angle_beta 148.767717
_cell_angle_gamma 127.770334
_cell_volume 751.884320
_symmetry_space_group_name_H-M "P -1"
_symmetry_group_IT_number 2
_symmetry_cell_setting 'triclinic'
loop_
_space_group_symop_operation_xyz
x,y,z
-x,-y,-z
loop_
_atom_site_type_symbol
_atom_site_label
_atom_site_fract_x
_atom_site_fract_y
_atom_site_fract_z
Si Si1 0.209432 0.448180 0.180105
Si Si2 0.291699 0.124139 0.982657
Si Si3 0.172852 0.993151 0.666578
Si Si4 0.835354 0.233647 0.871982
Si Si5 0.687849 0.324408 0.015664
Si Si6 0.327020 0.509241 0.837212
Si Si7 0.335353 0.818559 0.550531
Si Si8 0.656419 0.854202 0.424307
O O1 0.235723 0.627830 0.205511
O O2 0.244180 0.512159 0.063821
O O3 0.318337 0.323221 0.407022
O O4 0.022848 0.333486 0.026013
O O5 0.471378 0.157089 0.235166
O O6 0.182816 0.944385 0.993517
O O7 0.231305 0.301064 0.839871
O O8 0.296727 0.090971 0.869463
O O9 0.221970 0.087003 0.562366
O O10 0.186553 0.791997 0.768189
O O11 0.000000 0.000000 0.500000
O O12 0.740893 0.184550 0.662911
O O13 0.523463 0.197086 0.821090
O O14 0.650552 0.389448 0.063276
O O15 0.261205 0.628251 0.614143
O O16 0.500000 0.500000 0.000000
O O17 0.316657 0.983077 0.529171
#
# Coordination Sequence:
#
# PCOD9046156 Si02
#       8
#     2   2   2   2   2   2   2   2
#     4  11  27  44  69 101 138 191 233 289 349 420
#     4  11  23  44  69 101 136 186 232 284 350 416
#     4  12  25  44  73 102 143 186 230 288 356 417
#     4  11  25  46  66  97 148 181 235 286 356 414
#     4  12  24  48  72 104 141 183 245 287 339 428
#     4  10  24  42  68 105 137 174 228 293 349 401
#     4  11  23  42  70 103 135 182 232 291 346 412
#     4  12  24  43  74 102 140 182 237 292 345 413
#
# _framework density 21.279869000000001
#
# number of rings (size 3 to 8) (size 9 to 14) (size 15 to 20)
#    0.000    0.750    3.750    3.375    8.750    0.500 
#    2.250    1.250    0.000    0.000    0.000    0.000 
#    0.000    0.000    0.000    0.000    0.000    0.000 
#
# Total GULP energy -89535.289386 kJ/mol
# GULP energy per Si atom -5595.955587 kJ/mol
# Density = 2.123144 g / cm^3
# Si number density = 21.279869 Si / 1000 Ang^3
#
#
#
# Elastic Constant Matrix: (Units=GPa)
#
#
# Indices 1 2 3 4 5 6 
#
# 1 103.9793 35.3081 37.2295 -16.5116 -9.0606 3.3241
# 2 35.3081 111.9599 37.5081 -32.4621 -8.1654 4.4192
# 3 37.2295 37.5081 59.9740 -21.8697 -5.7016 -7.9657
# 4 -16.5116 -32.4621 -21.8697 39.0267 -2.3883 -5.0900
# 5 -9.0606 -8.1654 -5.7016 -2.3883 39.1963 -1.0223
# 6 3.3241 4.4192 -7.9657 -5.0900 -1.0223 38.4734
#
#
#
# Elastic Compliance Matrix: (Units=1/GPa)
#
#
# Indices 1 2 3 4 5 6 
#
# 1 0.012932 -0.001426 -0.007326 -0.000042 0.001560 -0.002434
# 2 -0.001426 0.013441 -0.004553 0.008001 0.002263 -0.001245
# 3 -0.007326 -0.004553 0.029456 0.010918 0.002537 0.008767
# 4 -0.000042 0.008001 0.010918 0.039616 0.005835 0.006741
# 5 0.001560 0.002263 0.002537 0.005835 0.027112 0.001623
# 6 -0.002434 -0.001245 0.008767 0.006741 0.001623 0.029095
#
#
# Mechanical properties :
#
#
# Convention : Reuss Voigt Hill
#
# Bulk Modulus (GPa) = 34.22548 55.11162 44.66855
# Shear Modulus (GPa) = 26.59545 34.39710 30.49628
#
# Velocity S-wave (km/s) = 3.53908 4.02483 3.78974
# Velocity P-wave (km/s) = 5.72874 6.89592 6.33925
#
# Compressibility (1/GPa) = 0.02921800
#
# Stress axis : x y z
#
# Youngs Moduli (GPa) = 77.32913 74.39864 33.94878
#
# Poissons Ratio (x) = 0.10612 0.24871
# Poissons Ratio (y) = 0.11030 0.15458
# Poissons Ratio (z) = 0.56651 0.33875
#
# Static dielectric constant tensor:
#      x y z
#    x 1.741150 0.023710 0.021640 
#    y 0.023710 1.809740 0.012860 
#    z 0.021640 0.012860 1.749930 
# 
# From -- ./inp_files/279687.got.cif
#   From: 2010.05.17/outbox.cif.g08.bks.cpg/sg2_140_cif.got.tgz:279687.got - 2010.06.03 11:33:40.
