data_PCOD9046441
_publ_section_title
;
Structure prediction by ZEFSAII (Michael W. Deem and Ramdas Pophale) SiO2 
 PCOD9046441
Probable space group: P -1
;
_chemical_formula_sum "Si O2"
_cell_formula_units_Z 16
_cell_length_a 8.652978
_cell_length_b 8.460266
_cell_length_c 12.059754
_cell_angle_alpha 61.390492
_cell_angle_beta 92.188011
_cell_angle_gamma 92.398153
_cell_volume 774.214693
_symmetry_space_group_name_H-M "P -1"
_symmetry_group_IT_number 2
_symmetry_cell_setting 'triclinic'
loop_
_space_group_symop_operation_xyz
x,y,z
-x,-y,-z
loop_
_atom_site_type_symbol
_atom_site_label
_atom_site_fract_x
_atom_site_fract_y
_atom_site_fract_z
Si Si1 0.676432 0.039081 0.469513
Si Si2 0.930165 0.804025 0.531440
Si Si3 0.678725 0.139545 0.182011
Si Si4 0.929266 0.426193 0.745820
Si Si5 0.314932 0.131893 0.126644
Si Si6 0.835686 0.197190 0.632444
Si Si7 0.855991 0.897488 0.092670
Si Si8 0.178419 0.515885 0.039742
O O1 0.705444 0.112586 0.322312
O O2 0.739997 0.170686 0.524921
O O3 0.500000 0.000000 0.500000
O O4 0.753841 0.842820 0.538576
O O5 0.980536 0.632715 0.659211
O O6 0.988945 0.784457 0.414840
O O7 0.000000 0.000000 0.500000
O O8 0.496006 0.106494 0.163661
O O9 0.784743 0.009716 0.153913
O O10 0.728844 0.340858 0.080405
O O11 0.825009 0.364016 0.658828
O O12 0.830899 0.411976 0.859718
O O13 0.071507 0.291978 0.806449
O O14 0.257164 0.323937 0.102415
O O15 0.211836 0.978150 0.238440
O O16 0.274462 0.124323 0.998013
O O17 0.000000 0.000000 0.000000
O O18 0.000000 0.500000 0.000000
#
# Coordination Sequence:
#
# PCOD9046441 Si02
#       8
#     2   2   2   2   2   2   2   2
#     4  11  24  45  69 100 140 190 233 286 354 426
#     4  10  24  42  72  98 134 185 238 288 347 411
#     4  12  26  44  71 101 146 186 233 291 365 420
#     4  12  24  43  73 104 140 174 243 300 348 414
#     4  12  24  44  70 102 146 185 233 294 364 422
#     4  11  23  43  70  98 138 186 236 289 350 410
#     4  12  23  45  73 106 138 181 236 299 356 420
#     4  12  25  42  71 105 136 186 241 294 352 425
#
# _framework density 20.666104000000001
#
# number of rings (size 3 to 8) (size 9 to 14) (size 15 to 20)
#    0.000    0.500    5.000    3.375    5.250    0.000 
#    0.000    0.625    5.500    0.000    0.000    0.000 
#    0.000    0.000    0.000    0.000    0.000    0.000 
#
# Total GULP energy -89359.183340 kJ/mol
# GULP energy per Si atom -5584.948959 kJ/mol
# Density = 2.061907 g / cm^3
# Si number density = 20.666104 Si / 1000 Ang^3
#
#
#
# Elastic Constant Matrix: (Units=GPa)
#
#
# Indices 1 2 3 4 5 6 
#
# 1 87.3343 20.4094 26.7514 1.6758 8.1846 -16.0889
# 2 20.4094 89.0195 50.0178 12.3378 7.3984 -11.0084
# 3 26.7514 50.0178 126.7735 9.3889 1.5750 -0.9479
# 4 1.6758 12.3378 9.3889 63.1432 2.9771 6.6080
# 5 8.1846 7.3984 1.5750 2.9771 31.2880 9.1725
# 6 -16.0889 -11.0084 -0.9479 6.6080 9.1725 28.5262
#
#
#
# Elastic Compliance Matrix: (Units=1/GPa)
#
#
# Indices 1 2 3 4 5 6 
#
# 1 0.014990 0.000325 -0.003063 -0.000819 -0.006964 0.010907
# 2 0.000325 0.016757 -0.006313 -0.003008 -0.006112 0.009102
# 3 -0.003063 -0.006313 0.010947 0.000043 0.003153 -0.004824
# 4 -0.000819 -0.003008 0.000043 0.017008 0.001033 -0.005893
# 5 -0.006964 -0.006112 0.003153 0.001033 0.040689 -0.019504
# 6 0.010907 0.009102 -0.004824 -0.005893 -0.019504 0.052196
#
#
# Mechanical properties :
#
#
# Convention : Reuss Voigt Hill
#
# Bulk Modulus (GPa) = 40.66348 55.27606 47.96977
# Shear Modulus (GPa) = 27.95102 38.32140 33.13621
#
# Velocity S-wave (km/s) = 3.68163 4.31084 4.00860
# Velocity P-wave (km/s) = 6.14749 7.18214 6.68486
#
# Compressibility (1/GPa) = 0.02459209
#
# Stress axis : x y z
#
# Youngs Moduli (GPa) = 66.71103 59.67812 91.35176
#
# Poissons Ratio (x) = -0.01940 0.27978
# Poissons Ratio (y) = -0.02169 0.57671
# Poissons Ratio (z) = 0.20432 0.37675
#
# Static dielectric constant tensor:
#      x y z
#    x 1.811280 0.003510 0.031380 
#    y 0.003510 1.754730 0.018470 
#    z 0.031380 0.018470 1.755310 
# 
# From -- ./inp_files/381362.got.cif
#   From: 2010.05.17/outbox.cif.g08.bks.cpg/sg2_191_cif.got.tgz:381362.got - 2010.06.03 11:33:40.
