data_PCOD9046459
_publ_section_title
;
Structure prediction by ZEFSAII (Michael W. Deem and Ramdas Pophale) SiO2 
 PCOD9046459
Probable space group: P -1
;
_chemical_formula_sum "Si O2"
_cell_formula_units_Z 16
_cell_length_a 12.832196
_cell_length_b 18.021867
_cell_length_c 8.108907
_cell_angle_alpha 122.755142
_cell_angle_beta 104.516141
_cell_angle_gamma 30.618720
_cell_volume 694.767377
_symmetry_space_group_name_H-M "P -1"
_symmetry_group_IT_number 2
_symmetry_cell_setting 'triclinic'
loop_
_space_group_symop_operation_xyz
x,y,z
-x,-y,-z
loop_
_atom_site_type_symbol
_atom_site_label
_atom_site_fract_x
_atom_site_fract_y
_atom_site_fract_z
Si Si1 0.993548 0.178676 0.636473
Si Si2 0.724356 0.627997 0.102090
Si Si3 0.351005 0.032406 0.395909
Si Si4 0.976865 0.589243 0.353160
Si Si5 0.484119 0.434119 0.281127
Si Si6 0.367302 0.775985 0.337744
Si Si7 0.720556 0.387522 0.110541
Si Si8 0.377661 0.377775 0.432242
O O1 0.770595 0.365671 0.660777
O O2 0.202965 0.087258 0.540140
O O3 0.909030 0.254535 0.880786
O O4 0.110095 0.995931 0.446516
O O5 0.565345 0.666105 0.155927
O O6 0.837611 0.601047 0.267503
O O7 0.546838 0.820530 0.160484
O O8 0.925367 0.456628 0.846735
O O9 0.186926 0.207938 0.420233
O O10 0.500000 0.000000 0.500000
O O11 0.197374 0.432446 0.375999
O O12 0.500000 0.500000 0.500000
O O13 0.688739 0.314727 0.091892
O O14 0.494182 0.334773 0.262210
O O15 0.454818 0.613154 0.215994
O O16 0.429343 0.781319 0.541554
O O17 0.763098 0.435488 0.317087
#
# Coordination Sequence:
#
# PCOD9046459 Si02
#       8
#     2   2   2   2   2   2   2   2
#     4  11  19  37  64  77 111 155 180 227 286 324
#     4   9  19  32  55  82 107 144 191 224 271 344
#     4   9  18  32  56  84 107 139 189 225 261 337
#     4  10  17  34  56  78 109 150 182 228 283 315
#     4  10  20  38  60  83 109 149 190 231 275 331
#     4   9  21  36  52  86 111 140 185 230 272 339
#     4   9  21  38  57  79 115 145 187 228 276 331
#     4   9  20  36  55  81 116 142 184 237 274 325
#
# _framework density 23.029292000000002
#
# number of rings (size 3 to 8) (size 9 to 14) (size 15 to 20)
#    0.750    1.750    1.250    1.125    0.000    1.000 
#    2.250    0.625    0.000    2.250    0.000    0.000 
#    0.000    0.000    0.000    0.000    0.000    0.000 
#
# Total GULP energy -89154.561964 kJ/mol
# GULP energy per Si atom -5572.160123 kJ/mol
# Density = 2.297688 g / cm^3
# Si number density = 23.029292 Si / 1000 Ang^3
#
#
#
# Elastic Constant Matrix: (Units=GPa)
#
#
# Indices 1 2 3 4 5 6 
#
# 1 58.1409 -12.4223 6.1816 1.9454 4.0771 -12.6906
# 2 -12.4223 58.7721 10.3193 -1.4384 5.8819 -5.3781
# 3 6.1816 10.3193 62.4643 3.9123 1.8413 -5.2373
# 4 1.9454 -1.4384 3.9123 31.9973 5.5258 8.2202
# 5 4.0771 5.8819 1.8413 5.5258 30.1947 2.5382
# 6 -12.6906 -5.3781 -5.2373 8.2202 2.5382 27.2177
#
#
#
# Elastic Compliance Matrix: (Units=1/GPa)
#
#
# Indices 1 2 3 4 5 6 
#
# 1 0.021960 0.006496 -0.001853 -0.003257 -0.004579 0.012577
# 2 0.006496 0.020103 -0.003240 0.000040 -0.005179 0.006849
# 3 -0.001853 -0.003240 0.017121 -0.002825 0.000133 0.002631
# 4 -0.003257 0.000040 -0.002825 0.035836 -0.004910 -0.012420
# 5 -0.004579 -0.005179 0.000133 -0.004910 0.036057 -0.005012
# 6 0.012577 0.006849 0.002631 -0.012420 -0.005012 0.048683
#
#
# Mechanical properties :
#
#
# Convention : Reuss Voigt Hill
#
# Bulk Modulus (GPa) = 16.13123 20.83717 18.48420
# Shear Modulus (GPa) = 25.30152 29.56854 27.43503
#
# Velocity S-wave (km/s) = 3.31821 3.58712 3.45528
# Velocity P-wave (km/s) = 4.65839 5.12097 4.89514
#
# Compressibility (1/GPa) = 0.06199156
#
# Stress axis : x y z
#
# Youngs Moduli (GPa) = 45.53767 49.74450 58.40653
#
# Poissons Ratio (x) = -0.32315 0.10822
# Poissons Ratio (y) = -0.29583 0.18921
# Poissons Ratio (z) = 0.08438 0.16115
#
# Static dielectric constant tensor:
#      x y z
#    x 1.912450 0.001420 0.011080 
#    y 0.001420 1.915510 -0.023610 
#    z 0.011080 -0.023610 1.901540 
# 
# From -- ./inp_files/319059.got.cif
#   From: 2010.05.17/outbox.cif.g08.bks.cpg/sg2_160_cif.got.tgz:319059.got - 2010.06.03 11:33:40.
