data_PCOD9046959
_publ_section_title
;
Structure prediction by ZEFSAII (Michael W. Deem and Ramdas Pophale) SiO2 
 PCOD9046959
Probable space group: P -1
;
_chemical_formula_sum "Si O2"
_cell_formula_units_Z 16
_cell_length_a 12.582572
_cell_length_b 17.985486
_cell_length_c 8.090299
_cell_angle_alpha 127.494872
_cell_angle_beta 147.218424
_cell_angle_gamma 43.069714
_cell_volume 676.871515
_symmetry_space_group_name_H-M "P -1"
_symmetry_group_IT_number 2
_symmetry_cell_setting 'triclinic'
loop_
_space_group_symop_operation_xyz
x,y,z
-x,-y,-z
loop_
_atom_site_type_symbol
_atom_site_label
_atom_site_fract_x
_atom_site_fract_y
_atom_site_fract_z
Si Si1 0.777098 0.555498 0.171165
Si Si2 0.987379 0.870750 0.217306
Si Si3 0.201096 0.906082 0.243185
Si Si4 0.677553 0.323327 0.061472
Si Si5 0.776964 0.616588 0.905604
Si Si6 0.482691 0.010364 0.792618
Si Si7 0.695086 0.371096 0.797414
Si Si8 0.091637 0.217881 0.682461
O O1 0.000000 0.500000 0.500000
O O2 0.564548 0.627493 0.105739
O O3 0.781337 0.626690 0.122978
O O4 0.733790 0.464812 0.904250
O O5 0.982407 0.846753 0.373971
O O6 0.139810 0.906216 0.358430
O O7 0.088184 0.747538 0.115991
O O8 0.728734 0.967548 0.977949
O O9 0.407638 0.926762 0.523163
O O10 0.252981 0.793238 0.081692
O O11 0.000000 0.000000 0.000000
O O12 0.861294 0.307048 0.415351
O O13 0.678858 0.391198 0.999394
O O14 0.538229 0.625254 0.554680
O O15 0.797985 0.717377 0.999592
O O16 0.000000 0.500000 0.000000
O O17 0.272017 0.133311 0.670115
O O18 0.500000 0.000000 0.000000
#
# Coordination Sequence:
#
# PCOD9046959 Si02
#       8
#     2   2   2   2   2   2   2   2
#     4  12  25  42  67 102 133 181 226 278 344 402
#     4  10  25  42  72  94 139 177 226 276 337 403
#     4  11  24  46  67 102 134 181 222 281 341 394
#     4  11  24  43  66  95 139 171 223 284 334 405
#     4  12  25  43  72  97 136 177 230 281 337 406
#     4  10  24  43  69  98 137 174 231 275 331 406
#     4  11  24  44  67  98 135 178 227 280 340 399
#     4  11  23  45  65 101 131 178 226 280 338 404
#
# _framework density 23.638165999999998
#
# number of rings (size 3 to 8) (size 9 to 14) (size 15 to 20)
#    0.000    1.000    1.250    4.500    8.750    3.500 
#    0.000    0.000    0.000    0.000    0.000    0.000 
#    0.000    0.000    0.000    0.000    0.000    0.000 
#
# Total GULP energy -89409.776350 kJ/mol
# GULP energy per Si atom -5588.111022 kJ/mol
# Density = 2.358436 g / cm^3
# Si number density = 23.638166 Si / 1000 Ang^3
#
#
#
# Elastic Constant Matrix: (Units=GPa)
#
#
# Indices 1 2 3 4 5 6 
#
# 1 91.9400 23.3394 11.3753 -24.2730 12.5448 -5.9067
# 2 23.3394 95.4484 13.7819 2.5550 18.5003 -9.2766
# 3 11.3753 13.7819 107.8630 -9.6589 5.8517 -2.3332
# 4 -24.2730 2.5550 -9.6589 46.6468 -2.6899 8.0551
# 5 12.5448 18.5003 5.8517 -2.6899 30.8649 -16.6065
# 6 -5.9067 -9.2766 -2.3332 8.0551 -16.6065 41.1992
#
#
#
# Elastic Compliance Matrix: (Units=1/GPa)
#
#
# Indices 1 2 3 4 5 6 
#
# 1 0.014109 -0.002973 -0.000244 0.007528 -0.004241 -0.001842
# 2 -0.002973 0.012702 -0.001226 -0.002930 -0.006190 0.000442
# 3 -0.000244 -0.001226 0.009681 0.001985 -0.001161 -0.000619
# 4 0.007528 -0.002930 0.001985 0.026767 -0.002396 -0.005667
# 5 -0.004241 -0.006190 -0.001161 -0.002396 0.047226 0.017437
# 6 -0.001842 0.000442 -0.000619 -0.005667 0.017437 0.032209
#
#
# Mechanical properties :
#
#
# Convention : Reuss Voigt Hill
#
# Bulk Modulus (GPa) = 36.22489 43.58275 39.90382
# Shear Modulus (GPa) = 31.09771 40.19251 35.64511
#
# Velocity S-wave (km/s) = 3.63102 4.12797 3.88744
# Velocity P-wave (km/s) = 5.73908 6.41854 6.08830
#
# Compressibility (1/GPa) = 0.02760533
#
# Stress axis : x y z
#
# Youngs Moduli (GPa) = 70.87485 78.72644 103.29754
#
# Poissons Ratio (x) = 0.23408 0.02518
# Poissons Ratio (y) = 0.21074 0.12669
# Poissons Ratio (z) = 0.01727 0.09655
#
# Static dielectric constant tensor:
#      x y z
#    x 1.940080 0.026980 -0.014610 
#    y 0.026980 2.018780 0.087980 
#    z -0.014610 0.087980 1.974090 
# 
# From -- ./inp_files/46349.got.cif
#   From: 2010.05.17/outbox.cif.g08.bks.cpg/sg2_24_cif.got.tgz:46349.got - 2010.06.03 11:33:40.
