data_PCOD9046837
_publ_section_title
;
Structure prediction by ZEFSAII (Michael W. Deem and Ramdas Pophale) SiO2 
 PCOD9046837
Probable space group: P -1
;
_chemical_formula_sum "Si O2"
_cell_formula_units_Z 14
_cell_length_a 8.280167
_cell_length_b 17.191363
_cell_length_c 16.876074
_cell_angle_alpha 157.523789
_cell_angle_beta 136.790388
_cell_angle_gamma 38.463839
_cell_volume 571.110978
_symmetry_space_group_name_H-M "P -1"
_symmetry_group_IT_number 2
_symmetry_cell_setting 'triclinic'
loop_
_space_group_symop_operation_xyz
x,y,z
-x,-y,-z
loop_
_atom_site_type_symbol
_atom_site_label
_atom_site_fract_x
_atom_site_fract_y
_atom_site_fract_z
Si Si1 0.691617 0.698118 0.183097
Si Si2 0.622702 0.832967 0.571241
Si Si3 0.995664 0.266656 0.261283
Si Si4 0.857289 0.956460 0.166162
Si Si5 0.658021 0.107780 0.073065
Si Si6 0.679356 0.493151 0.150072
Si Si7 0.874657 0.166608 0.537448
O O1 0.629738 0.658438 0.213496
O O2 0.990975 0.659856 0.247881
O O3 0.531309 0.950980 0.334229
O O4 0.581284 0.537569 0.948228
O O5 0.815541 0.886877 0.746127
O O6 0.764119 0.613366 0.362356
O O7 0.425672 0.775163 0.500684
O O8 0.000000 0.500000 0.500000
O O9 0.722788 0.266008 0.185110
O O10 0.142199 0.142563 0.118644
O O11 0.729997 0.129621 0.210716
O O12 0.926951 0.054907 0.363245
O O13 0.630582 0.872680 0.021969
O O14 0.109886 0.746037 0.027970
O O15 0.000000 0.000000 0.500000
#
# Coordination Sequence:
#
# PCOD9046837 Si02
#       7
#     2   2   2   2   2   2   2
#     4  10  25  42  65  97 137 176 220 275 334 399
#     4  11  23  45  66  97 137 175 216 283 335 392
#     4  11  23  43  71 103 127 175 227 276 333 399
#     4  11  23  47  68 100 135 181 219 278 333 396
#     4  10  24  45  70  95 140 174 220 279 338 383
#     4  11  25  40  68 100 131 176 231 264 334 409
#     4  10  24  43  68  93 138 178 217 269 344 384
#
# _framework density 24.513625000000001
#
# number of rings (size 3 to 8) (size 9 to 14) (size 15 to 20)
#    0.000    1.429    1.429    2.143   12.000    2.857 
#    2.571    2.143    0.000    0.000    0.000    0.000 
#    0.000    0.000    0.000    0.000    0.000    0.000 
#
# Total GULP energy -78233.482604 kJ/mol
# GULP energy per Si atom -5588.105900 kJ/mol
# Density = 2.445783 g / cm^3
# Si number density = 24.513625 Si / 1000 Ang^3
#
#
#
# Elastic Constant Matrix: (Units=GPa)
#
#
# Indices 1 2 3 4 5 6 
#
# 1 94.7416 11.7202 37.6369 -11.0118 28.2410 -9.7299
# 2 11.7202 68.1629 17.9634 -16.0402 -1.4186 6.9119
# 3 37.6369 17.9634 75.4263 -7.1719 17.3078 15.9954
# 4 -11.0118 -16.0402 -7.1719 41.9558 2.0128 -2.6488
# 5 28.2410 -1.4186 17.3078 2.0128 54.0270 -20.9121
# 6 -9.7299 6.9119 15.9954 -2.6488 -20.9121 26.9529
#
#
#
# Elastic Compliance Matrix: (Units=1/GPa)
#
#
# Indices 1 2 3 4 5 6 
#
# 1 0.016452 -0.000657 -0.009913 0.003148 -0.001141 0.011415
# 2 -0.000657 0.017118 -0.003163 0.005694 0.001067 -0.001362
# 3 -0.009913 -0.003163 0.030622 0.000083 -0.018317 -0.035144
# 4 0.003148 0.005694 0.000083 0.026993 -0.002352 0.000454
# 5 -0.001141 0.001067 -0.018317 -0.002352 0.041364 0.042048
# 6 0.011415 -0.001362 -0.035144 0.000454 0.042048 0.095096
#
#
# Mechanical properties :
#
#
# Convention : Reuss Voigt Hill
#
# Bulk Modulus (GPa) = 27.22925 41.44131 34.33528
# Shear Modulus (GPa) = 18.70178 35.98782 27.34480
#
# Velocity S-wave (km/s) = 2.76509 3.83570 3.34352
# Velocity P-wave (km/s) = 4.61803 6.04640 5.37983
#
# Compressibility (1/GPa) = 0.03672521
#
# Stress axis : x y z
#
# Youngs Moduli (GPa) = 60.78120 58.41934 32.65659
#
# Poissons Ratio (x) = 0.03838 0.32372
# Poissons Ratio (y) = 0.03993 0.10331
# Poissons Ratio (z) = 0.60252 0.18480
#
# Static dielectric constant tensor:
#      x y z
#    x 1.951060 0.009430 0.030480 
#    y 0.009430 2.042660 -0.026970 
#    z 0.030480 -0.026970 1.937890 
# 
# From -- ./inp_files/562152.got.cif
#   From: 2010.05.17/outbox.cif.g08.bks.cpg/sg2_282_cif.got.tgz:562152.got - 2010.06.03 11:33:40.
