data_PCOD9046629
_publ_section_title
;
Structure prediction by ZEFSAII (Michael W. Deem and Ramdas Pophale) SiO2 
 PCOD9046629
Probable space group: P -1
;
_chemical_formula_sum "Si O2"
_cell_formula_units_Z 16
_cell_length_a 12.365998
_cell_length_b 17.865199
_cell_length_c 8.879524
_cell_angle_alpha 147.702652
_cell_angle_beta 44.871504
_cell_angle_gamma 130.451734
_cell_volume 733.017682
_symmetry_space_group_name_H-M "P -1"
_symmetry_group_IT_number 2
_symmetry_cell_setting 'triclinic'
loop_
_space_group_symop_operation_xyz
x,y,z
-x,-y,-z
loop_
_atom_site_type_symbol
_atom_site_label
_atom_site_fract_x
_atom_site_fract_y
_atom_site_fract_z
Si Si1 0.246378 0.245038 0.880054
Si Si2 0.974715 0.011849 0.867106
Si Si3 0.356156 0.658765 0.830579
Si Si4 0.507852 0.834943 0.712896
Si Si5 0.966190 0.267407 0.836311
Si Si6 0.203435 0.486290 0.130915
Si Si7 0.514148 0.605706 0.880563
Si Si8 0.804597 0.220135 0.237205
O O1 0.329804 0.194344 0.563234
O O2 0.114872 0.124677 0.858400
O O3 0.191334 0.392375 0.134461
O O4 0.373970 0.282089 0.945144
O O5 0.977369 0.862277 0.528688
O O6 0.000000 0.000000 0.000000
O O7 0.826476 0.084733 0.085513
O O8 0.463472 0.767145 0.802216
O O9 0.416675 0.673925 0.965858
O O10 0.383489 0.503034 0.483092
O O11 0.180164 0.683969 0.022998
O O12 0.369704 0.771527 0.630233
O O13 0.500000 0.000000 0.000000
O O14 0.900487 0.217459 0.982138
O O15 0.101014 0.395661 0.952877
O O16 0.148077 0.636557 0.473317
O O17 0.383652 0.515234 0.956960
#
# Coordination Sequence:
#
# PCOD9046629 Si02
#       8
#     2   2   2   2   2   2   2   2
#     4  12  23  45  71  98 140 178 235 280 345 405
#     4  12  30  47  67 103 143 184 232 289 353 411
#     4  10  24  43  66 104 140 175 231 277 357 396
#     4  11  23  41  71  96 135 186 236 278 334 419
#     4  11  25  46  73  98 140 186 238 280 340 423
#     4  12  24  42  76 105 138 184 236 286 336 417
#     4  11  24  42  69 106 142 176 218 297 343 411
#     4  11  24  45  69 106 136 184 237 283 343 412
#
# _framework density 21.827579
#
# number of rings (size 3 to 8) (size 9 to 14) (size 15 to 20)
#    0.000    0.750    3.750    4.125    5.250    3.500 
#    0.000    1.875    0.000    0.000    0.000    0.000 
#    0.000    0.000    0.000    0.000    0.000    0.000 
#
# Total GULP energy -89553.943160 kJ/mol
# GULP energy per Si atom -5597.121448 kJ/mol
# Density = 2.177790 g / cm^3
# Si number density = 21.827579 Si / 1000 Ang^3
#
#
#
# Elastic Constant Matrix: (Units=GPa)
#
#
# Indices 1 2 3 4 5 6 
#
# 1 98.2322 23.1632 24.9833 12.5094 5.2057 -15.1777
# 2 23.1632 64.1679 3.8634 6.7450 7.2650 4.2492
# 3 24.9833 3.8634 113.0001 14.9072 3.5535 -10.5543
# 4 12.5094 6.7450 14.9072 25.3776 6.0108 -5.4604
# 5 5.2057 7.2650 3.5535 6.0108 34.9697 4.9842
# 6 -15.1777 4.2492 -10.5543 -5.4604 4.9842 27.8435
#
#
#
# Elastic Compliance Matrix: (Units=1/GPa)
#
#
# Indices 1 2 3 4 5 6 
#
# 1 0.013201 -0.004717 -0.001741 -0.002384 -0.001402 0.007039
# 2 -0.004717 0.018199 0.000422 -0.003554 -0.001716 -0.005578
# 3 -0.001741 0.000422 0.010024 -0.004650 -0.000323 0.001932
# 4 -0.002384 -0.003554 -0.004650 0.047896 -0.007847 0.008278
# 5 -0.001402 -0.001716 -0.000323 -0.007847 0.031659 -0.007831
# 6 0.007039 -0.005578 0.001932 0.008278 -0.007831 0.044361
#
#
# Mechanical properties :
#
#
# Convention : Reuss Voigt Hill
#
# Bulk Modulus (GPa) = 34.06974 42.15778 38.11376
# Shear Modulus (GPa) = 26.71022 32.53084 29.62053
#
# Velocity S-wave (km/s) = 3.50192 3.86470 3.68778
# Velocity P-wave (km/s) = 5.65630 6.26662 5.96926
#
# Compressibility (1/GPa) = 0.02935156
#
# Stress axis : x y z
#
# Youngs Moduli (GPa) = 75.75454 54.94912 99.75910
#
# Poissons Ratio (x) = 0.25920 0.17370
# Poissons Ratio (y) = 0.35734 -0.04214
# Poissons Ratio (z) = 0.13191 -0.02321
#
# Static dielectric constant tensor:
#      x y z
#    x 1.838580 0.028270 -0.023480 
#    y 0.028270 1.789820 -0.019970 
#    z -0.023480 -0.019970 1.792550 
# 
# From -- ./inp_files/207821.got.cif
#   From: 2010.05.17/outbox.cif.g08.bks.cpg/sg2_104_cif.got.tgz:207821.got - 2010.06.03 11:33:40.
