data_PCOD9046303
_publ_section_title
;
Structure prediction by ZEFSAII (Michael W. Deem and Ramdas Pophale) SiO2 
 PCOD9046303
Probable space group: P -1
;
_chemical_formula_sum "Si O2"
_cell_formula_units_Z 16
_cell_length_a 8.707978
_cell_length_b 8.915707
_cell_length_c 14.785204
_cell_angle_alpha 50.404534
_cell_angle_beta 81.724366
_cell_angle_gamma 112.698022
_cell_volume 682.345897
_symmetry_space_group_name_H-M "P -1"
_symmetry_group_IT_number 2
_symmetry_cell_setting 'triclinic'
loop_
_space_group_symop_operation_xyz
x,y,z
-x,-y,-z
loop_
_atom_site_type_symbol
_atom_site_label
_atom_site_fract_x
_atom_site_fract_y
_atom_site_fract_z
Si Si1 0.950109 0.143057 0.857824
Si Si2 0.816046 0.020503 0.196995
Si Si3 0.846667 0.212279 0.650149
Si Si4 0.402618 0.076644 0.910225
Si Si5 0.504782 0.124761 0.599936
Si Si6 0.321809 0.636282 0.695350
Si Si7 0.318662 0.360006 0.341453
Si Si8 0.999067 0.922860 0.669382
O O1 0.100516 0.380464 0.817810
O O2 0.862495 0.199047 0.761021
O O3 0.081839 0.076844 0.826983
O O4 0.757856 0.931300 0.012241
O O5 0.967172 0.182195 0.204172
O O6 0.728472 0.094700 0.099372
O O7 0.621240 0.821125 0.351709
O O8 0.638075 0.109004 0.664667
O O9 0.000000 0.500000 0.500000
O O10 0.913037 0.060670 0.659092
O O11 0.568618 0.354622 0.751130
O O12 0.500000 0.000000 0.000000
O O13 0.643309 0.312221 0.435836
O O14 0.357054 0.862192 0.659765
O O15 0.504007 0.640856 0.706908
O O16 0.159393 0.287231 0.306025
O O17 0.193554 0.141549 0.510790
#
# Coordination Sequence:
#
# PCOD9046303 Si02
#       8
#     2   2   2   2   2   2   2   2
#     4  11  25  44  67  96 133 184 230 269 346 404
#     4  11  24  44  69  97 135 172 235 281 332 414
#     4  11  22  37  65 102 136 167 222 293 330 402
#     4  12  28  46  70  99 134 189 233 279 337 411
#     4  11  23  39  64 108 135 170 222 281 357 389
#     4  11  22  40  69 100 141 175 215 285 343 409
#     4  11  23  44  70  98 143 175 224 283 348 411
#     4  10  24  42  70 105 129 176 223 285 358 389
#
# _framework density 23.448519000000001
#
# number of rings (size 3 to 8) (size 9 to 14) (size 15 to 20)
#    0.000    1.000    5.000    1.125    3.500    2.000 
#    0.000    6.250    0.000    0.000    0.000    0.000 
#    0.000    0.000    0.000    0.000    0.000    0.000 
#
# Total GULP energy -89331.518151 kJ/mol
# GULP energy per Si atom -5583.219884 kJ/mol
# Density = 2.339515 g / cm^3
# Si number density = 23.448519 Si / 1000 Ang^3
#
#
#
# Elastic Constant Matrix: (Units=GPa)
#
#
# Indices 1 2 3 4 5 6 
#
# 1 111.6853 40.4541 39.0642 19.3978 1.1830 20.6836
# 2 40.4541 74.3857 36.8310 15.5571 -3.7671 29.9665
# 3 39.0642 36.8310 67.3016 14.3548 -3.4414 22.3872
# 4 19.3978 15.5571 14.3548 31.0742 12.8878 9.4316
# 5 1.1830 -3.7671 -3.4414 12.8878 44.7965 20.0754
# 6 20.6836 29.9665 22.3872 9.4316 20.0754 51.6100
#
#
#
# Elastic Compliance Matrix: (Units=1/GPa)
#
#
# Indices 1 2 3 4 5 6 
#
# 1 0.012553 -0.003660 -0.004227 -0.004081 0.000432 -0.000495
# 2 -0.003660 0.025840 -0.005044 -0.008479 0.010553 -0.013905
# 3 -0.004227 -0.005044 0.024258 -0.006615 0.006730 -0.007309
# 4 -0.004081 -0.008479 -0.006615 0.047193 -0.018228 0.007894
# 5 0.000432 0.010553 0.006730 -0.018228 0.038271 -0.020775
# 6 -0.000495 -0.013905 -0.007309 0.007894 -0.020775 0.037457
#
#
# Mechanical properties :
#
#
# Convention : Reuss Voigt Hill
#
# Bulk Modulus (GPa) = 27.17984 54.00791 40.59388
# Shear Modulus (GPa) = 22.35165 34.63102 28.49134
#
# Velocity S-wave (km/s) = 3.09078 3.84721 3.48955
# Velocity P-wave (km/s) = 4.93494 6.54349 5.79530
#
# Compressibility (1/GPa) = 0.03679197
#
# Stress axis : x y z
#
# Youngs Moduli (GPa) = 79.65913 38.69937 41.22278
#
# Poissons Ratio (x) = 0.14163 0.17423
# Poissons Ratio (y) = 0.29153 0.20792
# Poissons Ratio (z) = 0.33669 0.19519
#
# Static dielectric constant tensor:
#      x y z
#    x 1.958030 0.019060 0.016480 
#    y 0.019060 1.867140 0.038390 
#    z 0.016480 0.038390 1.857420 
# 
# From -- ./inp_files/186064.got.cif
#   From: 2010.05.17/outbox.cif.g08.bks.cpg/sg2_94_cif.got.tgz:186064.got - 2010.06.03 11:33:40.
