data_PCOD9046861
_publ_section_title
;
Structure prediction by ZEFSAII (Michael W. Deem and Ramdas Pophale) SiO2 
 PCOD9046861
Probable space group: P -1
;
_chemical_formula_sum "Si O2"
_cell_formula_units_Z 14
_cell_length_a 11.382602
_cell_length_b 7.798798
_cell_length_c 9.386205
_cell_angle_alpha 102.463732
_cell_angle_beta 41.285724
_cell_angle_gamma 102.762546
_cell_volume 534.577970
_symmetry_space_group_name_H-M "P -1"
_symmetry_group_IT_number 2
_symmetry_cell_setting 'triclinic'
loop_
_space_group_symop_operation_xyz
x,y,z
-x,-y,-z
loop_
_atom_site_type_symbol
_atom_site_label
_atom_site_fract_x
_atom_site_fract_y
_atom_site_fract_z
Si Si1 0.296482 0.944450 0.216135
Si Si2 0.387695 0.295373 0.757258
Si Si3 0.247744 0.121028 0.587945
Si Si4 0.658231 0.397882 0.765257
Si Si5 0.875237 0.521083 0.336601
Si Si6 0.242524 0.650298 0.869001
Si Si7 0.851694 0.980537 0.918654
O O1 0.274771 0.733328 0.202887
O O2 0.165305 0.026836 0.238972
O O3 0.280062 0.005132 0.402784
O O4 0.500000 0.000000 0.000000
O O5 0.381873 0.165844 0.603678
O O6 0.549368 0.295217 0.717856
O O7 0.372028 0.498188 0.761148
O O8 0.218042 0.206143 0.985174
O O9 0.232166 0.313020 0.571763
O O10 0.048962 0.045605 0.804526
O O11 0.828049 0.484721 0.537632
O O12 0.500000 0.500000 0.000000
O O13 0.071425 0.582967 0.110031
O O14 0.806152 0.371849 0.257895
O O15 0.273403 0.859460 0.906213
#
# Coordination Sequence:
#
# PCOD9046861 Si02
#       7
#     2   2   2   2   2   2   2
#     4  12  25  43  62  96 138 177 217 271 335 400
#     4  11  24  43  71 100 131 178 223 278 332 399
#     4  10  24  43  68  99 129 173 224 278 334 390
#     4  12  26  43  66  98 137 182 223 270 340 406
#     4   9  21  42  67  95 134 170 221 279 331 393
#     4   9  21  42  68  99 128 172 223 281 330 385
#     4  11  23  44  69  99 136 171 224 278 332 398
#
# _framework density 26.188883000000001
#
# number of rings (size 3 to 8) (size 9 to 14) (size 15 to 20)
#    0.000    1.429    1.429    3.429    4.000    4.000 
#    0.000    2.143    0.000    0.000    0.000    0.000 
#    0.000    0.000    0.000    0.000    0.000    0.000 
#
# Total GULP energy -78287.717151 kJ/mol
# GULP energy per Si atom -5591.979796 kJ/mol
# Density = 2.612928 g / cm^3
# Si number density = 26.188883 Si / 1000 Ang^3
#
#
#
# Elastic Constant Matrix: (Units=GPa)
#
#
# Indices 1 2 3 4 5 6 
#
# 1 104.2825 8.7900 21.8128 16.2192 15.3579 23.3255
# 2 8.7900 69.1508 35.4072 5.2038 3.0301 -2.6081
# 3 21.8128 35.4072 148.3161 -12.9497 22.1908 -7.1830
# 4 16.2192 5.2038 -12.9497 46.9739 8.6261 3.8056
# 5 15.3579 3.0301 22.1908 8.6261 31.3762 -1.9211
# 6 23.3255 -2.6081 -7.1830 3.8056 -1.9211 32.2299
#
#
#
# Elastic Compliance Matrix: (Units=1/GPa)
#
#
# Indices 1 2 3 4 5 6 
#
# 1 0.013577 -0.000671 -0.001889 -0.003403 -0.004933 -0.010194
# 2 -0.000671 0.017150 -0.004707 -0.003651 0.003093 0.001439
# 3 -0.001889 -0.004707 0.009675 0.004891 -0.006675 0.002167
# 4 -0.003403 -0.003651 0.004891 0.025812 -0.008556 -0.000301
# 5 -0.004933 0.003093 -0.006675 -0.008556 0.041416 0.005812
# 6 -0.010194 0.001439 0.002167 -0.000301 0.005812 0.039386
#
#
# Mechanical properties :
#
#
# Convention : Reuss Voigt Hill
#
# Bulk Modulus (GPa) = 38.65924 50.41882 44.53903
# Shear Modulus (GPa) = 29.38193 39.16529 34.27361
#
# Velocity S-wave (km/s) = 3.35315 3.87136 3.62153
# Velocity P-wave (km/s) = 5.45758 6.26714 5.87632
#
# Compressibility (1/GPa) = 0.02586703
#
# Stress axis : x y z
#
# Youngs Moduli (GPa) = 73.65479 58.30834 103.36209
#
# Poissons Ratio (x) = 0.03910 0.19528
# Poissons Ratio (y) = 0.04940 0.48657
# Poissons Ratio (z) = 0.13916 0.27448
#
# Static dielectric constant tensor:
#      x y z
#    x 1.922110 -0.032170 -0.056070 
#    y -0.032170 2.048540 -0.026610 
#    z -0.056070 -0.026610 2.151560 
# 
# From -- ./inp_files/154588.got.cif
#   From: 2010.05.17/outbox.cif.g08.bks.cpg/sg2_78_cif.got.tgz:154588.got - 2010.06.03 11:33:40.
