data_PCOD9046467
_publ_section_title
;
Structure prediction by ZEFSAII (Michael W. Deem and Ramdas Pophale) SiO2 
 PCOD9046467
Probable space group: P -1
;
_chemical_formula_sum "Si O2"
_cell_formula_units_Z 16
_cell_length_a 8.452165
_cell_length_b 18.989995
_cell_length_c 9.819807
_cell_angle_alpha 59.804048
_cell_angle_beta 149.739751
_cell_angle_gamma 120.560532
_cell_volume 676.504193
_symmetry_space_group_name_H-M "P -1"
_symmetry_group_IT_number 2
_symmetry_cell_setting 'triclinic'
loop_
_space_group_symop_operation_xyz
x,y,z
-x,-y,-z
loop_
_atom_site_type_symbol
_atom_site_label
_atom_site_fract_x
_atom_site_fract_y
_atom_site_fract_z
Si Si1 0.282037 0.160898 0.750467
Si Si2 0.481717 0.917791 0.239818
Si Si3 0.702954 0.681455 0.043371
Si Si4 0.846666 0.552269 0.725853
Si Si5 0.816844 0.271383 0.174522
Si Si6 0.134861 0.578035 0.614892
Si Si7 0.751232 0.846363 0.753470
Si Si8 0.323650 0.059735 0.142173
O O1 0.330994 0.088831 0.752963
O O2 0.998593 0.205434 0.446551
O O3 0.610665 0.227824 0.938078
O O4 0.242666 0.124306 0.907762
O O5 0.574086 0.848231 0.477665
O O6 0.545957 0.003426 0.288166
O O7 0.106611 0.897077 0.950952
O O8 0.446918 0.701719 0.945687
O O9 0.781529 0.759139 0.927059
O O10 0.512104 0.605698 0.886702
O O11 0.992171 0.654331 0.367396
O O12 0.500000 0.500000 0.500000
O O13 0.997229 0.558311 0.681945
O O14 0.921520 0.647569 0.739504
O O15 0.000000 0.500000 0.000000
O O16 0.000000 0.500000 0.500000
O O17 0.565978 0.893103 0.682812
O O18 0.000000 0.000000 0.000000
#
# Coordination Sequence:
#
# PCOD9046467 Si02
#       8
#     2   2   2   2   2   2   2   2
#     4  12  24  44  66  99 140 175 223 280 334 399
#     4  11  25  43  61 102 136 172 218 284 341 382
#     4  11  22  42  71  94 131 176 225 271 320 404
#     4  11  23  44  68  97 132 172 222 269 318 404
#     4  11  24  42  72  97 131 184 225 264 338 395
#     4  11  24  44  67 100 133 171 219 269 342 390
#     4  11  23  43  68  95 132 174 231 271 329 397
#     4  10  24  42  73  96 132 179 232 272 332 402
#
# _framework density 23.650998999999999
#
# number of rings (size 3 to 8) (size 9 to 14) (size 15 to 20)
#    0.000    1.000    1.250    6.375    3.500    2.000 
#   13.500    4.375    0.000    0.000    0.000    0.000 
#    0.000    0.000    0.000    0.000    0.000    0.000 
#
# Total GULP energy -89568.088737 kJ/mol
# GULP energy per Si atom -5598.005546 kJ/mol
# Density = 2.359717 g / cm^3
# Si number density = 23.650999 Si / 1000 Ang^3
#
#
#
# Elastic Constant Matrix: (Units=GPa)
#
#
# Indices 1 2 3 4 5 6 
#
# 1 37.9151 13.3826 12.8538 10.4239 -7.7858 -4.9147
# 2 13.3826 73.1563 3.0479 -0.3993 -0.6312 6.6396
# 3 12.8538 3.0479 131.9423 -5.2668 -2.2014 2.2062
# 4 10.4239 -0.3993 -5.2668 38.1204 -0.3844 -1.0213
# 5 -7.7858 -0.6312 -2.2014 -0.3844 30.6579 5.3114
# 6 -4.9147 6.6396 2.2062 -1.0213 5.3114 31.2814
#
#
#
# Elastic Compliance Matrix: (Units=1/GPa)
#
#
# Indices 1 2 3 4 5 6 
#
# 1 0.034942 -0.006740 -0.003614 -0.009900 0.007381 0.005599
# 2 -0.006740 0.015267 0.000441 0.001946 -0.000620 -0.004162
# 3 -0.003614 0.000441 0.008021 0.002069 -0.000109 -0.001141
# 4 -0.009900 0.001946 0.002069 0.029205 -0.001812 -0.000853
# 5 0.007381 -0.000620 -0.000109 -0.001812 0.035272 -0.004749
# 6 0.005599 -0.004162 -0.001141 -0.000853 -0.004749 0.034590
#
#
# Mechanical properties :
#
#
# Convention : Reuss Voigt Hill
#
# Bulk Modulus (GPa) = 26.03912 33.50915 29.77413
# Shear Modulus (GPa) = 26.32627 34.26055 30.29341
#
# Velocity S-wave (km/s) = 3.33996 3.81016 3.58278
# Velocity P-wave (km/s) = 5.08993 5.79270 5.45265
#
# Compressibility (1/GPa) = 0.03840375
#
# Stress axis : x y z
#
# Youngs Moduli (GPa) = 28.61867 65.50112 124.67547
#
# Poissons Ratio (x) = 0.44147 0.45058
# Poissons Ratio (y) = 0.19289 -0.05496
# Poissons Ratio (z) = 0.10343 -0.02888
#
# Static dielectric constant tensor:
#      x y z
#    x 1.915870 -0.021880 -0.005070 
#    y -0.021880 2.009650 0.027440 
#    z -0.005070 0.027440 1.861290 
# 
# From -- ./inp_files/223543.got.cif
#   From: 2010.05.17/outbox.cif.g08.bks.cpg/sg2_112_cif.got.tgz:223543.got - 2010.06.03 11:33:40.
