data_PCOD9046924
_publ_section_title
;
Structure prediction by ZEFSAII (Michael W. Deem and Ramdas Pophale) SiO2 
 PCOD9046924
Probable space group: P -1
;
_chemical_formula_sum "Si O2"
_cell_formula_units_Z 16
_cell_length_a 14.052511
_cell_length_b 6.772776
_cell_length_c 8.750223
_cell_angle_alpha 92.984136
_cell_angle_beta 74.314426
_cell_angle_gamma 61.366081
_cell_volume 687.279598
_symmetry_space_group_name_H-M "P -1"
_symmetry_group_IT_number 2
_symmetry_cell_setting 'triclinic'
loop_
_space_group_symop_operation_xyz
x,y,z
-x,-y,-z
loop_
_atom_site_type_symbol
_atom_site_label
_atom_site_fract_x
_atom_site_fract_y
_atom_site_fract_z
Si Si1 0.225119 0.974154 0.345186
Si Si2 0.880432 0.315266 0.515636
Si Si3 0.085158 0.433916 0.231117
Si Si4 0.685926 0.814211 0.492835
Si Si5 0.560831 0.959563 0.230574
Si Si6 0.608095 0.257808 0.982871
Si Si7 0.258396 0.520202 0.958552
Si Si8 0.947040 0.219921 0.153003
O O1 0.176800 0.806791 0.376728
O O2 0.149166 0.197014 0.286124
O O3 0.248853 0.046904 0.500431
O O4 0.346526 0.864475 0.202480
O O5 0.952892 0.373362 0.609030
O O6 0.778341 0.558080 0.501207
O O7 0.943731 0.163431 0.331401
O O8 0.003728 0.384030 0.153472
O O9 0.176378 0.470315 0.098244
O O10 0.640536 0.874558 0.343459
O O11 0.569588 0.904337 0.647093
O O12 0.617348 0.712972 0.112544
O O13 0.581135 0.121685 0.115018
O O14 0.713633 0.287690 0.993245
O O15 0.500000 0.500000 0.000000
O O16 0.182950 0.618038 0.842756
O O17 0.000000 0.000000 0.000000
#
# Coordination Sequence:
#
# PCOD9046924 Si02
#       8
#     2   2   2   2   2   2   2   2
#     4  11  23  42  70 101 142 184 234 293 351 427
#     4  11  24  48  73 103 149 184 237 301 360 427
#     4  11  25  48  72 103 142 190 247 292 360 424
#     4  10  24  43  69 106 141 191 234 285 361 432
#     4  11  24  43  71 103 146 188 233 290 359 431
#     4  12  25  41  70 107 142 187 234 289 353 431
#     4  12  25  47  71 102 143 186 240 299 352 427
#     4  12  28  48  75 106 138 193 247 303 362 421
#
# _framework density 23.280187999999999
#
# number of rings (size 3 to 8) (size 9 to 14) (size 15 to 20)
#    0.000    0.750    3.750    3.000    3.500    1.500 
#    4.500    3.125    0.000    0.000    0.000    0.000 
#    0.000    0.000    0.000    0.000    0.000    0.000 
#
# Total GULP energy -89284.539186 kJ/mol
# GULP energy per Si atom -5580.283699 kJ/mol
# Density = 2.322720 g / cm^3
# Si number density = 23.280188 Si / 1000 Ang^3
#
#
#
# Elastic Constant Matrix: (Units=GPa)
#
#
# Indices 1 2 3 4 5 6 
#
# 1 86.8137 28.2970 20.5407 11.0434 29.4002 5.7286
# 2 28.2970 108.4127 38.6008 -0.0461 12.6557 6.9797
# 3 20.5407 38.6008 110.2462 1.3595 6.4376 12.4495
# 4 11.0434 -0.0461 1.3595 28.5530 7.8822 -5.3312
# 5 29.4002 12.6557 6.4376 7.8822 35.2526 11.6477
# 6 5.7286 6.9797 12.4495 -5.3312 11.6477 37.6878
#
#
#
# Elastic Compliance Matrix: (Units=1/GPa)
#
#
# Indices 1 2 3 4 5 6 
#
# 1 0.017530 -0.002488 -0.001824 -0.002536 -0.013564 0.002232
# 2 -0.002488 0.011291 -0.003430 0.001680 -0.001799 0.000214
# 3 -0.001824 -0.003430 0.010894 -0.001070 0.002160 -0.003505
# 4 -0.002536 0.001680 -0.001070 0.040722 -0.010516 0.009438
# 5 -0.013564 -0.001799 0.002160 -0.010516 0.047019 -0.014338
# 6 0.002232 0.000214 -0.003505 0.009438 -0.014338 0.033079
#
#
# Mechanical properties :
#
#
# Convention : Reuss Voigt Hill
#
# Bulk Modulus (GPa) = 41.26539 53.37219 47.31879
# Shear Modulus (GPa) = 27.15955 34.83429 30.99692
#
# Velocity S-wave (km/s) = 3.41931 3.87241 3.65289
# Velocity P-wave (km/s) = 5.77520 6.55514 6.17749
#
# Compressibility (1/GPa) = 0.02423338
#
# Stress axis : x y z
#
# Youngs Moduli (GPa) = 57.04407 88.56259 91.79191
#
# Poissons Ratio (x) = 0.22030 0.16742
# Poissons Ratio (y) = 0.14190 0.31483
# Poissons Ratio (z) = 0.10405 0.30375
#
# Static dielectric constant tensor:
#      x y z
#    x 1.617290 -0.011680 0.127240 
#    y -0.011680 1.835490 0.102340 
#    z 0.127240 0.102340 1.925230 
# 
# From -- ./inp_files/98442.got.cif
#   From: 2010.05.17/outbox.cif.g08.bks.cpg/sg2_50_cif.got.tgz:98442.got - 2010.06.03 11:33:40.
