data_PCOD9046030
_publ_section_title
;
Structure prediction by ZEFSAII (Michael W. Deem and Ramdas Pophale) SiO2 
 PCOD9046030
Probable space group: P -1
;
_chemical_formula_sum "Si O2"
_cell_formula_units_Z 11
_cell_length_a 5.393993
_cell_length_b 4.685244
_cell_length_c 15.329901
_cell_angle_alpha 86.780134
_cell_angle_beta 90.455554
_cell_angle_gamma 94.951587
_cell_volume 385.362866
_symmetry_space_group_name_H-M "P -1"
_symmetry_group_IT_number 2
_symmetry_cell_setting 'triclinic'
loop_
_space_group_symop_operation_xyz
x,y,z
-x,-y,-z
loop_
_atom_site_type_symbol
_atom_site_label
_atom_site_fract_x
_atom_site_fract_y
_atom_site_fract_z
Si Si1 0.232141 0.304284 0.108789
Si Si2 0.071068 0.401236 0.776469
Si Si3 0.000000 0.500000 0.500000
Si Si4 0.447384 0.520049 0.625986
Si Si5 0.799755 0.048259 0.643323
Si Si6 0.269605 0.699314 0.934722
O O1 0.473272 0.140279 0.097889
O O2 0.177842 0.448876 0.197547
O O3 0.973302 0.135855 0.084020
O O4 0.268074 0.555983 0.031397
O O5 0.261904 0.562314 0.705858
O O6 0.221253 0.444083 0.866794
O O7 0.955463 0.117087 0.731641
O O8 0.279647 0.582585 0.542243
O O9 0.032031 0.785204 0.431395
O O10 0.545030 0.206710 0.644187
O O11 0.709410 0.725416 0.621389
#
# Coordination Sequence:
#
# PCOD9046030 Si02
#       6
#     2   2   1   2   2   2
#     4   8  14  27  51  84 122 167 216 264 317 378
#     4   9  19  33  57  88 124 166 211 265 319 383
#     4  10  24  42  66  92 122 166 210 262 318 388
#     4  11  24  41  63  92 126 164 210 263 321 385
#     4  11  24  41  63  92 126 164 210 263 321 385
#     4   8  14  27  51  84 122 167 216 264 317 378
#
# _framework density 28.544528
#
# number of rings (size 3 to 8) (size 9 to 14) (size 15 to 20)
#    1.091    1.455    0.000    2.182    0.000    7.273 
#    0.000    0.000    0.000    4.364    0.000   15.273 
#    0.000    0.000    0.000    0.000    0.000    0.000 
#
# Total GULP energy -61286.391779 kJ/mol
# GULP energy per Si atom -5571.490162 kJ/mol
# Density = 2.847956 g / cm^3
# Si number density = 28.544528 Si / 1000 Ang^3
#
#
#
# Elastic Constant Matrix: (Units=GPa)
#
#
# Indices 1 2 3 4 5 6 
#
# 1 137.3660 7.0927 -15.2505 -2.7419 -9.9245 28.6749
# 2 7.0927 120.1355 32.6715 12.2890 7.9842 21.1408
# 3 -15.2505 32.6715 125.5480 9.0825 18.0186 1.9249
# 4 -2.7419 12.2890 9.0825 25.1215 11.9929 -4.4951
# 5 -9.9245 7.9842 18.0186 11.9929 60.1073 -1.6342
# 6 28.6749 21.1408 1.9249 -4.4951 -1.6342 36.8172
#
#
#
# Elastic Compliance Matrix: (Units=1/GPa)
#
#
# Indices 1 2 3 4 5 6 
#
# 1 0.008990 0.000612 0.000990 -0.001610 0.001222 -0.007547
# 2 0.000612 0.010741 -0.002233 -0.005820 0.000309 -0.007224
# 3 0.000990 -0.002233 0.009043 -0.001134 -0.002030 -0.000190
# 4 -0.001610 -0.005820 -0.001134 0.048834 -0.008618 0.010235
# 5 0.001222 0.000309 -0.002030 -0.008618 0.019092 -0.001228
# 6 -0.007547 -0.007224 -0.000190 0.010235 -0.001228 0.038392
#
#
# Mechanical properties :
#
#
# Convention : Reuss Voigt Hill
#
# Bulk Modulus (GPa) = 36.35150 48.00855 42.18003
# Shear Modulus (GPa) = 34.35811 48.31158 41.33484
#
# Velocity S-wave (km/s) = 3.47315 4.11846 3.80950
# Velocity P-wave (km/s) = 5.37088 6.28259 5.84454
#
# Compressibility (1/GPa) = 0.02750918
#
# Stress axis : x y z
#
# Youngs Moduli (GPa) = 111.23894 93.09798 110.58641
#
# Poissons Ratio (x) = -0.05694 -0.10943
# Poissons Ratio (y) = -0.06803 0.24699
# Poissons Ratio (z) = -0.11008 0.20793
#
# Static dielectric constant tensor:
#      x y z
#    x 2.436140 -0.082730 -0.123380 
#    y -0.082730 2.172080 0.088580 
#    z -0.123380 0.088580 2.408880 
# 
# From -- ./inp_files/101895.got.cif
#   From: 2010.05.17/outbox.cif.g08.bks.cpg/sg2_51_cif.got.tgz:101895.got - 2010.06.03 11:33:40.
