data_PCOD9046792
_publ_section_title
;
Structure prediction by ZEFSAII (Michael W. Deem and Ramdas Pophale) SiO2 
 PCOD9046792
Probable space group: P -1
;
_chemical_formula_sum "Si O2"
_cell_formula_units_Z 16
_cell_length_a 12.117257
_cell_length_b 21.363512
_cell_length_c 24.155195
_cell_angle_alpha 16.682485
_cell_angle_beta 25.686716
_cell_angle_gamma 36.560533
_cell_volume 681.558336
_symmetry_space_group_name_H-M "P -1"
_symmetry_group_IT_number 2
_symmetry_cell_setting 'triclinic'
loop_
_space_group_symop_operation_xyz
x,y,z
-x,-y,-z
loop_
_atom_site_type_symbol
_atom_site_label
_atom_site_fract_x
_atom_site_fract_y
_atom_site_fract_z
Si Si1 0.224532 0.960773 0.273054
Si Si2 0.634918 0.899088 0.320091
Si Si3 0.572007 0.634839 0.294683
Si Si4 0.716793 0.905666 0.746264
Si Si5 0.134917 0.420435 0.889888
Si Si6 0.122297 0.762901 0.369635
Si Si7 0.290568 0.594181 0.825117
Si Si8 0.074401 0.755531 0.280181
O O1 0.179922 0.920468 0.393130
O O2 0.079318 0.763385 0.455454
O O3 0.130708 0.169258 0.125371
O O4 0.576654 0.085695 0.004820
O O5 0.410973 0.646448 0.603210
O O6 0.515666 0.853394 0.476001
O O7 0.944683 0.908823 0.175589
O O8 0.553951 0.088956 0.165775
O O9 0.500000 0.500000 0.500000
O O10 0.776745 0.561310 0.229536
O O11 0.267797 0.582998 0.449220
O O12 0.714114 0.935258 0.971337
O O13 0.634516 0.624915 0.033942
O O14 0.000000 0.000000 0.500000
O O15 0.832006 0.403701 0.060186
O O16 0.935967 0.697034 0.453991
O O17 0.000000 0.500000 0.000000
O O18 0.000000 0.500000 0.500000
#
# Coordination Sequence:
#
# PCOD9046792 Si02
#       8
#     2   2   2   2   2   2   2   2
#     4  11  20  37  60  87 122 156 194 245 293 355
#     4  11  22  33  56  89 116 150 194 241 307 341
#     4  10  19  33  57  84 112 149 199 235 286 346
#     4  12  21  34  59  88 116 150 204 252 286 343
#     4  10  17  34  56  83 111 145 196 238 287 342
#     4  10  21  40  55  86 124 153 197 240 286 365
#     4  10  18  36  54  83 114 146 193 252 282 342
#     4  12  20  38  62  86 128 160 190 246 306 361
#
# _framework density 23.475612000000002
#
# number of rings (size 3 to 8) (size 9 to 14) (size 15 to 20)
#    0.000    1.250   10.000    0.000    1.750    0.500 
#    0.000    2.500    0.000    6.750    0.000    7.875 
#    0.000    0.000    0.000    0.000    0.000    0.000 
#
# Total GULP energy -89087.520417 kJ/mol
# GULP energy per Si atom -5567.970026 kJ/mol
# Density = 2.342218 g / cm^3
# Si number density = 23.475612 Si / 1000 Ang^3
#
#
#
# Elastic Constant Matrix: (Units=GPa)
#
#
# Indices 1 2 3 4 5 6 
#
# 1 138.3422 57.1224 18.4188 -1.1225 25.7112 7.7525
# 2 57.1224 122.7352 11.3604 -18.3063 12.1055 16.0559
# 3 18.4188 11.3604 21.3506 -3.2936 10.1872 5.3645
# 4 -1.1225 -18.3063 -3.2936 22.9092 -0.5463 19.3678
# 5 25.7112 12.1055 10.1872 -0.5463 35.5399 0.9008
# 6 7.7525 16.0559 5.3645 19.3678 0.9008 67.6060
#
#
#
# Elastic Compliance Matrix: (Units=1/GPa)
#
#
# Indices 1 2 3 4 5 6 
#
# 1 0.010927 -0.005466 -0.006126 -0.007018 -0.004461 0.002601
# 2 -0.005466 0.014448 0.002581 0.018673 -0.001208 -0.008343
# 3 -0.006126 0.002581 0.062894 0.019079 -0.013924 -0.010181
# 4 -0.007018 0.018673 0.019079 0.085978 -0.004677 -0.029713
# 5 -0.004461 -0.001208 -0.013924 -0.004677 0.035626 0.002769
# 6 0.002601 -0.008343 -0.010181 -0.029713 0.002769 0.025758
#
#
# Mechanical properties :
#
#
# Convention : Reuss Voigt Hill
#
# Bulk Modulus (GPa) = 14.23549 50.69236 32.46392
# Shear Modulus (GPa) = 18.04605 38.24611 28.14608
#
# Velocity S-wave (km/s) = 2.77558 4.04070 3.46634
# Velocity P-wave (km/s) = 4.04338 6.58864 5.46622
#
# Compressibility (1/GPa) = 0.07024695
#
# Stress axis : x y z
#
# Youngs Moduli (GPa) = 91.51334 69.21299 15.89983
#
# Poissons Ratio (x) = 0.37830 0.09740
# Poissons Ratio (y) = 0.50019 -0.04103
# Poissons Ratio (z) = 0.56062 -0.17861
#
# Static dielectric constant tensor:
#      x y z
#    x 1.981480 0.034900 0.015220 
#    y 0.034900 2.005880 0.081750 
#    z 0.015220 0.081750 2.032130 
# 
# From -- ./inp_files/610896.got.cif
#   From: 2010.05.17/outbox.cif.g08.bks.cpg/sg2_306_cif.got.tgz:610896.got - 2010.06.03 11:33:40.
