data_PCOD9046768
_publ_section_title
;
Structure prediction by ZEFSAII (Michael W. Deem and Ramdas Pophale) SiO2 
 PCOD9046768
Probable space group: P -1
;
_chemical_formula_sum "Si O2"
_cell_formula_units_Z 16
_cell_length_a 22.457038
_cell_length_b 9.598666
_cell_length_c 9.295210
_cell_angle_alpha 90.891071
_cell_angle_beta 124.230998
_cell_angle_gamma 40.186382
_cell_volume 673.731002
_symmetry_space_group_name_H-M "P -1"
_symmetry_group_IT_number 2
_symmetry_cell_setting 'triclinic'
loop_
_space_group_symop_operation_xyz
x,y,z
-x,-y,-z
loop_
_atom_site_type_symbol
_atom_site_label
_atom_site_fract_x
_atom_site_fract_y
_atom_site_fract_z
Si Si1 0.113484 0.160496 0.273622
Si Si2 0.308205 0.761942 0.247000
Si Si3 0.774706 0.749882 0.623074
Si Si4 0.711340 0.661391 0.280748
Si Si5 0.153518 0.126073 0.763201
Si Si6 0.790926 0.215067 0.373084
Si Si7 0.509878 0.816060 0.516450
Si Si8 0.570794 0.141582 0.918884
O O1 0.199709 0.155754 0.436934
O O2 0.248863 0.875009 0.330976
O O3 0.092312 0.079745 0.361508
O O4 0.931446 0.488968 0.945868
O O5 0.500000 0.500000 0.500000
O O6 0.316116 0.583170 0.221212
O O7 0.171389 0.080215 0.959379
O O8 0.770771 0.624780 0.510962
O O9 0.609783 0.024745 0.510271
O O10 0.815491 0.335768 0.388003
O O11 0.500000 0.000000 0.000000
O O12 0.714181 0.777421 0.168940
O O13 0.000000 0.500000 0.500000
O O14 0.172170 0.938708 0.721466
O O15 0.336984 0.873485 0.962472
O O16 0.596650 0.553006 0.194719
O O17 0.464578 0.846120 0.292610
O O18 0.500000 0.000000 0.500000
#
# Coordination Sequence:
#
# PCOD9046768 Si02
#       8
#     2   2   2   2   2   2   2   2
#     4  11  24  44  71 102 139 179 235 292 352 410
#     4  12  24  46  70 104 136 186 245 287 344 429
#     4  11  25  42  72 102 139 183 228 295 354 416
#     4  10  24  43  67  99 140 180 234 279 352 431
#     4  12  28  43  69 101 144 179 234 293 348 407
#     4  11  24  44  69  99 133 187 231 281 349 422
#     4  12  25  44  72 103 140 181 236 293 350 418
#     4  11  23  44  67  98 137 183 230 284 343 417
#
# _framework density 23.748349999999999
#
# number of rings (size 3 to 8) (size 9 to 14) (size 15 to 20)
#    0.000    0.750    3.750    2.625   12.250    0.500 
#    0.000    0.625    0.000    0.000    0.000    0.000 
#    0.000    0.000    0.000    0.000    0.000    0.000 
#
# Total GULP energy -89313.156322 kJ/mol
# GULP energy per Si atom -5582.072270 kJ/mol
# Density = 2.369430 g / cm^3
# Si number density = 23.748350 Si / 1000 Ang^3
#
#
#
# Elastic Constant Matrix: (Units=GPa)
#
#
# Indices 1 2 3 4 5 6 
#
# 1 49.6734 22.5805 19.5308 0.3718 -18.2048 23.9715
# 2 22.5805 144.5116 33.6815 20.1399 2.5969 32.4598
# 3 19.5308 33.6815 68.7942 13.3901 -19.6958 13.0415
# 4 0.3718 20.1399 13.3901 27.6452 2.9055 -5.2611
# 5 -18.2048 2.5969 -19.6958 2.9055 34.3339 0.0298
# 6 23.9715 32.4598 13.0415 -5.2611 0.0298 47.5613
#
#
#
# Elastic Compliance Matrix: (Units=1/GPa)
#
#
# Indices 1 2 3 4 5 6 
#
# 1 0.037028 -0.001380 0.000633 -0.005486 0.020582 -0.018514
# 2 -0.001380 0.010217 -0.002763 -0.007023 -0.002490 -0.006295
# 3 0.000633 -0.002763 0.023603 -0.012210 0.015124 -0.006266
# 4 -0.005486 -0.007023 -0.012210 0.051895 -0.013788 0.016655
# 5 0.020582 -0.002490 0.015124 -0.013788 0.050082 -0.014378
# 6 -0.018514 -0.006295 -0.006266 0.016655 -0.014378 0.038222
#
#
# Mechanical properties :
#
#
# Convention : Reuss Voigt Hill
#
# Bulk Modulus (GPa) = 15.66687 46.06277 30.86482
# Shear Modulus (GPa) = 20.89042 34.38717 27.63879
#
# Velocity S-wave (km/s) = 2.96912 3.80936 3.41518
# Velocity P-wave (km/s) = 4.28551 6.22789 5.34566
#
# Compressibility (1/GPa) = 0.06382897
#
# Stress axis : x y z
#
# Youngs Moduli (GPa) = 27.00626 97.87735 42.36697
#
# Poissons Ratio (x) = 0.13509 -0.02683
# Poissons Ratio (y) = 0.03727 0.11706
# Poissons Ratio (z) = -0.01710 0.27043
#
# Static dielectric constant tensor:
#      x y z
#    x 1.955380 -0.005670 -0.002000 
#    y -0.005670 1.950220 -0.035570 
#    z -0.002000 -0.035570 1.987500 
# 
# From -- ./inp_files/352263.got.cif
#   From: 2010.05.17/outbox.cif.g08.bks.cpg/sg2_177_cif.got.tgz:352263.got - 2010.06.03 11:33:40.
