data_PCOD9046292
_publ_section_title
;
Structure prediction by ZEFSAII (Michael W. Deem and Ramdas Pophale) SiO2 
 PCOD9046292
Probable space group: P -1
;
_chemical_formula_sum "Si O2"
_cell_formula_units_Z 15
_cell_length_a 9.462232
_cell_length_b 9.517422
_cell_length_c 7.916735
_cell_angle_alpha 104.003772
_cell_angle_beta 105.720811
_cell_angle_gamma 63.292205
_cell_volume 607.041685
_symmetry_space_group_name_H-M "P -1"
_symmetry_group_IT_number 2
_symmetry_cell_setting 'triclinic'
loop_
_space_group_symop_operation_xyz
x,y,z
-x,-y,-z
loop_
_atom_site_type_symbol
_atom_site_label
_atom_site_fract_x
_atom_site_fract_y
_atom_site_fract_z
Si Si1 0.720607 0.199710 0.688982
Si Si2 0.416084 0.435518 0.787575
Si Si3 0.176327 0.581274 0.041208
Si Si4 0.180694 0.264701 0.104771
Si Si5 0.990158 0.900160 0.628416
Si Si6 0.500000 0.000000 0.000000
Si Si7 0.639815 0.239282 0.285515
Si Si8 0.841580 0.659804 0.502239
O O1 0.572646 0.270055 0.789646
O O2 0.652019 0.202364 0.480151
O O3 0.854994 0.030692 0.737805
O O4 0.800289 0.326148 0.762291
O O5 0.331870 0.527755 0.955765
O O6 0.436662 0.570425 0.716833
O O7 0.285667 0.375989 0.656112
O O8 0.008952 0.701507 0.938647
O O9 0.172053 0.415893 0.039621
O O10 0.226050 0.287431 0.316950
O O11 0.308596 0.107268 0.015924
O O12 0.906041 0.788835 0.503362
O O13 0.172500 0.815876 0.726906
O O14 0.000000 0.000000 0.500000
O O15 0.452159 0.855658 0.861091
O O16 0.000000 0.500000 0.500000
#
# Coordination Sequence:
#
# PCOD9046292 Si02
#       8
#     2   2   2   2   2   1   2   2
#     4  11  24  42  66 101 138 178 229 286 344 402
#     4  12  24  42  71 102 137 182 233 283 339 412
#     4  11  24  42  66  99 138 183 225 282 344 410
#     4  11  25  43  69 100 135 186 226 282 343 406
#     4  10  24  42  70 103 135 177 223 286 341 399
#     4  12  26  44  68 100 140 172 234 286 340 404
#     4  11  23  45  69  98 136 188 228 282 345 412
#     4  12  23  46  75 101 136 184 236 274 338 423
#
# _framework density 24.710000000000001
#
# number of rings (size 3 to 8) (size 9 to 14) (size 15 to 20)
#    0.000    0.800    2.667    4.000    1.867    4.800 
#    0.000    2.667    0.000    0.000    0.000    0.000 
#    0.000    0.000    0.000    0.000    0.000    0.000 
#
# Total GULP energy -83660.726613 kJ/mol
# GULP energy per Si atom -5577.381774 kJ/mol
# Density = 2.465376 g / cm^3
# Si number density = 24.710000 Si / 1000 Ang^3
#
#
#
# Elastic Constant Matrix: (Units=GPa)
#
#
# Indices 1 2 3 4 5 6 
#
# 1 98.2796 33.4075 33.0193 24.0899 2.8179 -25.1178
# 2 33.4075 98.8042 25.6277 32.9715 -8.1277 -20.3032
# 3 33.0193 25.6277 78.4676 20.5459 10.2590 4.3152
# 4 24.0899 32.9715 20.5459 39.1758 4.9485 -2.6675
# 5 2.8179 -8.1277 10.2590 4.9485 37.3106 5.1477
# 6 -25.1178 -20.3032 4.3152 -2.6675 5.1477 51.3622
#
#
#
# Elastic Compliance Matrix: (Units=1/GPa)
#
#
# Indices 1 2 3 4 5 6 
#
# 1 0.015438 -0.000327 -0.005241 -0.005949 -0.000050 0.007557
# 2 -0.000327 0.016848 -0.003062 -0.012683 0.005453 0.005552
# 3 -0.005241 -0.003062 0.017603 -0.003271 -0.003985 -0.005023
# 4 -0.005949 -0.012683 -0.003271 0.042044 -0.006324 -0.004831
# 5 -0.000050 0.005453 -0.003985 -0.006324 0.030049 -0.000874
# 6 0.007557 0.005552 -0.005023 -0.004831 -0.000874 0.025619
#
#
# Mechanical properties :
#
#
# Convention : Reuss Voigt Hill
#
# Bulk Modulus (GPa) = 30.64767 51.07336 40.86051
# Shear Modulus (GPa) = 28.45174 37.80285 33.12730
#
# Velocity S-wave (km/s) = 3.39695 3.91559 3.66545
# Velocity P-wave (km/s) = 5.27404 6.41533 5.87248
#
# Compressibility (1/GPa) = 0.03262891
#
# Stress axis : x y z
#
# Youngs Moduli (GPa) = 64.77615 59.35515 56.80746
#
# Poissons Ratio (x) = 0.01938 0.29773
# Poissons Ratio (y) = 0.02115 0.17396
# Poissons Ratio (z) = 0.33950 0.18177
#
# Static dielectric constant tensor:
#      x y z
#    x 2.033810 -0.031730 -0.015150 
#    y -0.031730 1.915950 -0.035600 
#    z -0.015150 -0.035600 1.962030 
# 
# From -- ./inp_files/159871.got.cif
#   From: 2010.05.17/outbox.cif.g08.bks.cpg/sg2_80_cif.got.tgz:159871.got - 2010.06.03 11:33:40.
