data_PCOD9046788
_publ_section_title
;
Structure prediction by ZEFSAII (Michael W. Deem and Ramdas Pophale) SiO2 
 PCOD9046788
Probable space group: P -1
;
_chemical_formula_sum "Si O2"
_cell_formula_units_Z 12
_cell_length_a 5.899944
_cell_length_b 8.500390
_cell_length_c 14.878170
_cell_angle_alpha 47.473553
_cell_angle_beta 80.860620
_cell_angle_gamma 59.199557
_cell_volume 451.196325
_symmetry_space_group_name_H-M "P -1"
_symmetry_group_IT_number 2
_symmetry_cell_setting 'triclinic'
loop_
_space_group_symop_operation_xyz
x,y,z
-x,-y,-z
loop_
_atom_site_type_symbol
_atom_site_label
_atom_site_fract_x
_atom_site_fract_y
_atom_site_fract_z
Si Si1 0.472331 0.024089 0.844068
Si Si2 0.973436 0.181560 0.187680
Si Si3 0.750350 0.424803 0.295911
Si Si4 0.642037 0.722078 0.670946
Si Si5 0.147426 0.201182 0.620323
Si Si6 0.762793 0.251752 0.970041
O O1 0.228976 0.152725 0.738042
O O2 0.444373 0.271370 0.792376
O O3 0.744745 0.851893 0.836916
O O4 0.454253 0.829842 0.981874
O O5 0.818833 0.360992 0.211533
O O6 0.824075 0.260461 0.069318
O O7 0.042953 0.909755 0.328204
O O8 0.063162 0.314242 0.358534
O O9 0.554076 0.318466 0.369510
O O10 0.420252 0.000905 0.621732
O O11 0.723738 0.494510 0.826503
O O12 0.000000 0.500000 0.500000
O O13 0.000000 0.000000 0.000000
#
# Coordination Sequence:
#
# PCOD9046788 Si02
#       6
#     2   2   2   2   2   2
#     4  11  23  42  70 101 138 183 230 281 347 420
#     4  10  24  43  68 101 138 185 229 285 349 410
#     4  11  24  43  67 100 146 176 230 283 339 416
#     4  11  24  45  65 103 141 180 229 280 342 412
#     4  10  24  48  71  95 136 184 235 293 347 404
#     4  11  23  40  68 102 144 184 224 279 346 421
#
# _framework density 26.595962
#
# number of rings (size 3 to 8) (size 9 to 14) (size 15 to 20)
#    0.000    1.333    3.333    1.000    4.667    8.667 
#    0.000    4.167    0.000    0.000    0.000    0.000 
#    0.000    0.000    0.000    0.000    0.000    0.000 
#
# Total GULP energy -66998.055194 kJ/mol
# GULP energy per Si atom -5583.171266 kJ/mol
# Density = 2.653543 g / cm^3
# Si number density = 26.595962 Si / 1000 Ang^3
#
#
#
# Elastic Constant Matrix: (Units=GPa)
#
#
# Indices 1 2 3 4 5 6 
#
# 1 128.1937 5.2432 34.7532 -3.4542 -15.8357 -4.2287
# 2 5.2432 85.8201 8.2036 -29.3311 -5.2085 21.9676
# 3 34.7532 8.2036 159.8711 -42.6895 -10.1589 5.6253
# 4 -3.4542 -29.3311 -42.6895 39.7649 -0.0507 -8.3277
# 5 -15.8357 -5.2085 -10.1589 -0.0507 29.1035 -0.2963
# 6 -4.2287 21.9676 5.6253 -8.3277 -0.2963 40.2343
#
#
#
# Elastic Compliance Matrix: (Units=1/GPa)
#
#
# Indices 1 2 3 4 5 6 
#
# 1 0.008939 -0.001268 -0.002304 -0.002313 0.003844 0.001504
# 2 -0.001268 0.019534 0.004495 0.017502 0.004326 -0.007773
# 3 -0.002304 0.004495 0.010570 0.014214 0.003253 -0.001208
# 4 -0.002313 0.017502 0.014214 0.052963 0.006920 -0.000773
# 5 0.003844 0.004326 0.003253 0.006920 0.038366 -0.000698
# 6 0.001504 -0.007773 -0.001208 -0.000773 -0.000698 0.029260
#
#
# Mechanical properties :
#
#
# Convention : Reuss Voigt Hill
#
# Bulk Modulus (GPa) = 24.45666 52.25386 38.35526
# Shear Modulus (GPa) = 29.16872 43.53286 36.35079
#
# Velocity S-wave (km/s) = 3.31529 4.05016 3.70101
# Velocity P-wave (km/s) = 4.88574 6.44683 5.71979
#
# Compressibility (1/GPa) = 0.04088866
#
# Stress axis : x y z
#
# Youngs Moduli (GPa) = 111.86398 51.19314 94.60742
#
# Poissons Ratio (x) = 0.06491 0.21802
# Poissons Ratio (y) = 0.14184 -0.42527
# Poissons Ratio (z) = 0.25778 -0.23012
#
# Static dielectric constant tensor:
#      x y z
#    x 2.287420 0.244830 0.070890 
#    y 0.244830 2.667610 0.043970 
#    z 0.070890 0.043970 2.076920 
# 
# From -- ./inp_files/24507.got.cif
#   From: 2010.05.17/outbox.cif.g08.bks.cpg/sg2_13_cif.got.tgz:24507.got - 2010.06.03 11:33:40.
