data_PCOD9046729
_publ_section_title
;
Structure prediction by ZEFSAII (Michael W. Deem and Ramdas Pophale) SiO2 
 PCOD9046729
Probable space group: P -1
;
_chemical_formula_sum "Si O2"
_cell_formula_units_Z 10
_cell_length_a 11.589469
_cell_length_b 12.981739
_cell_length_c 8.295691
_cell_angle_alpha 57.296427
_cell_angle_beta 56.742815
_cell_angle_gamma 22.938938
_cell_volume 404.387150
_symmetry_space_group_name_H-M "P -1"
_symmetry_group_IT_number 2
_symmetry_cell_setting 'triclinic'
loop_
_space_group_symop_operation_xyz
x,y,z
-x,-y,-z
loop_
_atom_site_type_symbol
_atom_site_label
_atom_site_fract_x
_atom_site_fract_y
_atom_site_fract_z
Si Si1 0.853919 0.241021 0.440400
Si Si2 0.242156 0.067205 0.547086
Si Si3 0.765034 0.523366 0.083320
Si Si4 0.843555 0.592846 0.308215
Si Si5 0.348032 0.752135 0.952331
O O1 0.500000 0.500000 0.500000
O O2 0.949406 0.257241 0.211222
O O3 0.000000 0.000000 0.500000
O O4 0.995799 0.183579 0.540050
O O5 0.533973 0.879398 0.382095
O O6 0.377204 0.856303 0.739126
O O7 0.041884 0.348844 0.480635
O O8 0.739967 0.604940 0.210459
O O9 0.474662 0.696957 0.073188
O O10 0.944461 0.467913 0.871190
O O11 0.500000 0.500000 0.000000
O O12 0.000000 0.000000 0.000000
#
# Coordination Sequence:
#
# PCOD9046729 Si02
#       5
#     2   2   2   2   2
#     4  11  21  36  60  87 120 163 205 251 302 366
#     4  11  23  41  63  94 129 164 213 261 319 377
#     4  10  24  43  67  94 129 167 216 263 313 377
#     4  10  24  43  67  94 124 170 216 263 312 372
#     4  12  26  43  65  96 132 169 208 262 323 381
#
# _framework density 24.72878
#
# number of rings (size 3 to 8) (size 9 to 14) (size 15 to 20)
#    0.000    1.200    0.000    6.000    0.000   15.200 
#    0.000    0.000    0.000    0.000    0.000    0.000 
#    0.000    0.000    0.000    0.000    0.000    0.000 
#
# Total GULP energy -55844.589999 kJ/mol
# GULP energy per Si atom -5584.459000 kJ/mol
# Density = 2.467250 g / cm^3
# Si number density = 24.728780 Si / 1000 Ang^3
#
#
#
# Elastic Constant Matrix: (Units=GPa)
#
#
# Indices 1 2 3 4 5 6 
#
# 1 106.3737 52.1562 16.1242 -12.4165 -11.6464 -28.3626
# 2 52.1562 174.4241 16.5844 -9.1700 2.0588 5.8845
# 3 16.1242 16.5844 102.5622 -41.1710 -8.7170 2.1575
# 4 -12.4165 -9.1700 -41.1710 41.8635 5.8036 -5.8752
# 5 -11.6464 2.0588 -8.7170 5.8036 29.0626 -16.4188
# 6 -28.3626 5.8845 2.1575 -5.8752 -16.4188 45.7959
#
#
#
# Elastic Compliance Matrix: (Units=1/GPa)
#
#
# Indices 1 2 3 4 5 6 
#
# 1 0.022240 -0.007507 0.001934 0.007111 0.021813 0.023380
# 2 -0.007507 0.008430 -0.001509 -0.001916 -0.008793 -0.009060
# 3 0.001934 -0.001509 0.016690 0.016585 0.005167 0.004585
# 4 0.007111 -0.001916 0.016585 0.042676 0.005915 0.011465
# 5 0.021813 -0.008793 0.005167 0.005915 0.066088 0.038848
# 6 0.023380 -0.009060 0.004585 0.011465 0.038848 0.052663
#
#
# Mechanical properties :
#
#
# Convention : Reuss Voigt Hill
#
# Bulk Modulus (GPa) = 30.12271 61.45438 45.78854
# Shear Modulus (GPa) = 21.36607 43.24409 32.30508
#
# Velocity S-wave (km/s) = 2.94260 4.18632 3.61830
# Velocity P-wave (km/s) = 4.87370 6.94783 6.00105
#
# Compressibility (1/GPa) = 0.03319755
#
# Stress axis : x y z
#
# Youngs Moduli (GPa) = 44.96348 118.62508 59.91522
#
# Poissons Ratio (x) = 0.89046 -0.11588
# Poissons Ratio (y) = 0.33752 0.09042
# Poissons Ratio (z) = -0.08697 0.17901
#
# Static dielectric constant tensor:
#      x y z
#    x 2.015710 0.039180 -0.020240 
#    y 0.039180 1.893110 -0.048640 
#    z -0.020240 -0.048640 2.115560 
# 
# From -- ./inp_files/16396.got.cif
#   From: 2010.05.17/outbox.cif.g08.bks.cpg/sg2_9_cif.got.tgz:16396.got - 2010.06.03 11:33:40.
