data_PCOD9046396
_publ_section_title
;
Structure prediction by ZEFSAII (Michael W. Deem and Ramdas Pophale) SiO2 
 PCOD9046396
Probable space group: P -1
;
_chemical_formula_sum "Si O2"
_cell_formula_units_Z 15
_cell_length_a 5.231401
_cell_length_b 17.078828
_cell_length_c 8.641799
_cell_angle_alpha 113.536123
_cell_angle_beta 83.918589
_cell_angle_gamma 124.361634
_cell_volume 577.024417
_symmetry_space_group_name_H-M "P -1"
_symmetry_group_IT_number 2
_symmetry_cell_setting 'triclinic'
loop_
_space_group_symop_operation_xyz
x,y,z
-x,-y,-z
loop_
_atom_site_type_symbol
_atom_site_label
_atom_site_fract_x
_atom_site_fract_y
_atom_site_fract_z
Si Si1 0.224314 0.060803 0.885751
Si Si2 0.407143 0.223724 0.642179
Si Si3 0.022221 0.573923 0.689964
Si Si4 0.183318 0.747066 0.618669
Si Si5 0.644568 0.589446 0.301881
Si Si6 0.066274 0.651954 0.045459
Si Si7 0.000000 0.000000 0.500000
Si Si8 0.065782 0.818640 0.974094
O O1 0.574781 0.095481 0.929622
O O2 0.122185 0.009664 0.681948
O O3 0.180913 0.154877 0.960133
O O4 0.000000 0.000000 0.000000
O O5 0.546722 0.187458 0.470638
O O6 0.430025 0.325171 0.663896
O O7 0.647844 0.265283 0.799928
O O8 0.071271 0.118215 0.606770
O O9 0.651312 0.518568 0.702629
O O10 0.000000 0.500000 0.500000
O O11 0.255435 0.688693 0.695039
O O12 0.132111 0.587231 0.871349
O O13 0.080251 0.804802 0.777252
O O14 0.903539 0.649739 0.465114
O O15 0.796550 0.581875 0.131052
O O16 0.978504 0.716875 0.995904
#
# Coordination Sequence:
#
# PCOD9046396 Si02
#       8
#     2   2   2   2   2   2   1   2
#     4  12  27  47  74 110 145 196 260 319 380 449
#     4  11  23  46  67 103 138 192 242 305 373 442
#     4  11  22  44  70 104 139 188 240 307 376 459
#     4  10  24  42  72 100 144 185 240 307 370 457
#     4  11  23  43  69 102 141 190 243 299 380 448
#     4  10  24  44  68 101 146 189 242 301 375 455
#     4  12  26  46  76 104 148 194 258 310 374 452
#     4  11  25  48  70 105 148 195 245 312 386 444
#
# _framework density 25.995433999999999
#
# number of rings (size 3 to 8) (size 9 to 14) (size 15 to 20)
#    0.000    1.067    2.667    2.800    3.733    1.067 
#    7.200    0.000    0.000    0.000    0.000    0.000 
#    0.000    0.000    0.000    0.000    0.000    0.000 
#
# Total GULP energy -83575.038089 kJ/mol
# GULP energy per Si atom -5571.669206 kJ/mol
# Density = 2.593627 g / cm^3
# Si number density = 25.995434 Si / 1000 Ang^3
#
#
#
# Elastic Constant Matrix: (Units=GPa)
#
#
# Indices 1 2 3 4 5 6 
#
# 1 55.9591 16.2260 16.1717 -7.1281 3.4644 -4.2210
# 2 16.2260 47.0166 12.9111 -7.5128 8.9187 13.3908
# 3 16.1717 12.9111 217.0753 -22.8052 -1.1499 16.6433
# 4 -7.1281 -7.5128 -22.8052 52.4224 7.6955 -3.9531
# 5 3.4644 8.9187 -1.1499 7.6955 35.2606 -0.0485
# 6 -4.2210 13.3908 16.6433 -3.9531 -0.0485 40.1774
#
#
#
# Elastic Compliance Matrix: (Units=1/GPa)
#
#
# Indices 1 2 3 4 5 6 
#
# 1 0.021329 -0.008286 -0.001369 0.001606 -0.000387 0.005727
# 2 -0.008286 0.028938 -0.000013 0.003309 -0.007242 -0.010193
# 3 -0.001369 -0.000013 0.005063 0.001876 -0.000109 -0.002052
# 4 0.001606 0.003309 0.001876 0.021438 -0.005612 0.000391
# 5 -0.000387 -0.007242 -0.000109 -0.005612 0.031454 0.001904
# 6 0.005727 -0.010193 -0.002052 0.000391 0.001904 0.029780
#
#
# Mechanical properties :
#
#
# Convention : Reuss Voigt Hill
#
# Bulk Modulus (GPa) = 27.78185 45.62984 36.70584
# Shear Modulus (GPa) = 29.52727 43.88823 36.70775
#
# Velocity S-wave (km/s) = 3.37391 4.11336 3.76185
# Velocity P-wave (km/s) = 5.08804 6.33646 5.74625
#
# Compressibility (1/GPa) = 0.03599473
#
# Stress axis : x y z
#
# Youngs Moduli (GPa) = 46.88490 34.55670 197.49994
#
# Poissons Ratio (x) = 0.28634 0.27029
# Poissons Ratio (y) = 0.38849 0.00258
# Poissons Ratio (z) = 0.06416 0.00045
#
# Static dielectric constant tensor:
#      x y z
#    x 2.079520 -0.074230 -0.026990 
#    y -0.074230 2.149880 -0.016320 
#    z -0.026990 -0.016320 2.044050 
# 
# From -- ./inp_files/107694.got.cif
#   From: 2010.05.17/outbox.cif.g08.bks.cpg/sg2_54_cif.got.tgz:107694.got - 2010.06.03 11:33:40.
