data_PCOD9046253
_publ_section_title
;
Structure prediction by ZEFSAII (Michael W. Deem and Ramdas Pophale) SiO2 
 PCOD9046253
Probable space group: P -1
;
_chemical_formula_sum "Si O2"
_cell_formula_units_Z 16
_cell_length_a 11.740719
_cell_length_b 13.889897
_cell_length_c 9.328772
_cell_angle_alpha 80.349463
_cell_angle_beta 141.594314
_cell_angle_gamma 117.280010
_cell_volume 787.805365
_symmetry_space_group_name_H-M "P -1"
_symmetry_group_IT_number 2
_symmetry_cell_setting 'triclinic'
loop_
_space_group_symop_operation_xyz
x,y,z
-x,-y,-z
loop_
_atom_site_type_symbol
_atom_site_label
_atom_site_fract_x
_atom_site_fract_y
_atom_site_fract_z
Si Si1 0.445238 0.975418 0.683302
Si Si2 0.577495 0.706547 0.060925
Si Si3 0.348698 0.789571 0.019356
Si Si4 0.721267 0.533971 0.029924
Si Si5 0.255819 0.057895 0.224962
Si Si6 0.468303 0.315851 0.292903
Si Si7 0.760814 0.406024 0.828930
Si Si8 0.959213 0.259363 0.525873
O O1 0.636426 0.966222 0.799950
O O2 0.243306 0.852756 0.569929
O O3 0.553269 0.076912 0.882282
O O4 0.344853 0.020200 0.454660
O O5 0.521430 0.773762 0.104066
O O6 0.452915 0.572540 0.018085
O O7 0.833163 0.754151 0.287529
O O8 0.475478 0.705580 0.806324
O O9 0.287829 0.715171 0.124184
O O10 0.136789 0.734904 0.723020
O O11 0.654885 0.620373 0.883281
O O12 0.722037 0.465649 0.909661
O O13 0.939480 0.621207 0.313038
O O14 0.337456 0.191488 0.266304
O O15 0.000000 0.000000 0.000000
O O16 0.637872 0.388983 0.563898
O O17 0.000000 0.500000 0.000000
#
# Coordination Sequence:
#
# PCOD9046253 Si02
#       8
#     2   2   2   2   2   2   2   2
#     4  11  25  44  64 101 132 167 228 269 324 396
#     4  10  24  42  69  97 132 176 221 268 327 392
#     4  11  25  44  64 100 135 172 220 273 325 395
#     4  10  24  43  65  96 130 173 222 268 327 393
#     4  11  24  42  69  95 134 176 212 272 334 389
#     4  11  21  43  65  94 130 168 220 268 327 391
#     4  11  26  38  65  99 131 171 214 274 333 388
#     4  11  23  41  71  92 131 180 220 271 327 384
#
# _framework density 20.309583
#
# number of rings (size 3 to 8) (size 9 to 14) (size 15 to 20)
#    0.000    1.250    1.250    4.500    7.000    3.500 
#    0.000    0.000    0.000    0.000    0.000    0.000 
#    0.000    0.000    0.000    0.000    0.000    0.000 
#
# Total GULP energy -89230.175417 kJ/mol
# GULP energy per Si atom -5576.885964 kJ/mol
# Density = 2.026336 g / cm^3
# Si number density = 20.309583 Si / 1000 Ang^3
#
#
#
# Elastic Constant Matrix: (Units=GPa)
#
#
# Indices 1 2 3 4 5 6 
#
# 1 181.7255 162.7103 298.1794 166.7612 -114.5245 62.3069
# 2 162.7103 276.2001 362.1735 223.8026 -167.3181 62.3353
# 3 298.1794 362.1735 736.5962 386.5916 -317.2557 115.7421
# 4 166.7612 223.8026 386.5916 277.4673 -196.8956 69.4194
# 5 -114.5245 -167.3181 -317.2557 -196.8956 200.4610 -68.1890
# 6 62.3069 62.3353 115.7421 69.4194 -68.1890 47.8760
#
#
#
# Elastic Compliance Matrix: (Units=1/GPa)
#
#
# Indices 1 2 3 4 5 6 
#
# 1 0.027188 -0.002916 -0.009622 -0.006285 -0.015586 -0.021409
# 2 -0.002916 0.012425 -0.002135 -0.005036 0.000789 0.001206
# 3 -0.009622 -0.002135 0.010245 -0.001604 0.009565 0.006483
# 4 -0.006285 -0.005036 -0.001604 0.020784 0.011954 0.005504
# 5 -0.015586 0.000789 0.009565 0.011954 0.031834 0.024139
# 6 -0.021409 0.001206 0.006483 0.005504 0.024139 0.057908
#
#
# Mechanical properties :
#
#
# Convention : Reuss Voigt Hill
#
# Bulk Modulus (GPa) = 48.75350 315.62758 182.19054
# Shear Modulus (GPa) = 25.43658 129.92475 77.68067
#
# Velocity S-wave (km/s) = 3.54283 8.00694 6.19123
# Velocity P-wave (km/s) = 6.38692 15.53148 11.87476
#
# Compressibility (1/GPa) = 0.02051135
#
# Stress axis : x y z
#
# Youngs Moduli (GPa) = 36.78098 80.48593 97.60415
#
# Poissons Ratio (x) = 0.23471 0.93915
# Poissons Ratio (y) = 0.10726 0.20840
# Poissons Ratio (z) = 0.35391 0.17185
#
# Static dielectric constant tensor:
#      x y z
#    x 1.666820 -0.040810 0.005810 
#    y -0.040810 1.701290 -0.027590 
#    z 0.005810 -0.027590 1.622840 
# 
# From -- ./inp_files/273030.got.cif
#   From: 2010.05.17/outbox.cif.g08.bks.cpg/sg2_137_cif.got.tgz:273030.got - 2010.06.03 11:33:40.
