data_PCOD9046382
_publ_section_title
;
Structure prediction by ZEFSAII (Michael W. Deem and Ramdas Pophale) SiO2 
 PCOD9046382
Probable space group: P -1
;
_chemical_formula_sum "Si O2"
_cell_formula_units_Z 16
_cell_length_a 14.469632
_cell_length_b 9.592437
_cell_length_c 8.726736
_cell_angle_alpha 67.701615
_cell_angle_beta 144.024916
_cell_angle_gamma 98.436340
_cell_volume 629.023618
_symmetry_space_group_name_H-M "P -1"
_symmetry_group_IT_number 2
_symmetry_cell_setting 'triclinic'
loop_
_space_group_symop_operation_xyz
x,y,z
-x,-y,-z
loop_
_atom_site_type_symbol
_atom_site_label
_atom_site_fract_x
_atom_site_fract_y
_atom_site_fract_z
Si Si1 0.208079 0.212522 0.073848
Si Si2 0.878651 0.311492 0.974884
Si Si3 0.280356 0.932982 0.082904
Si Si4 0.620347 0.644071 0.993786
Si Si5 0.615424 0.298970 0.080701
Si Si6 0.167108 0.014072 0.570534
Si Si7 0.065673 0.511101 0.325307
Si Si8 0.404229 0.151764 0.648226
O O1 0.250854 0.230574 0.300103
O O2 0.345582 0.253060 0.138752
O O3 0.036504 0.347284 0.762174
O O4 0.220823 0.036702 0.110807
O O5 0.723260 0.247644 0.827840
O O6 0.942703 0.414964 0.141328
O O7 0.018408 0.141579 0.239051
O O8 0.871635 0.405207 0.768504
O O9 0.163419 0.016488 0.748638
O O10 0.456082 0.936151 0.249512
O O11 0.456497 0.716560 0.841221
O O12 0.776604 0.606403 0.333964
O O13 0.620301 0.475188 0.001022
O O14 0.486421 0.266098 0.800465
O O15 0.788793 0.168297 0.341159
O O16 0.330253 0.055851 0.710934
#
# Coordination Sequence:
#
# PCOD9046382 Si02
#       8
#     2   2   2   2   2   2   2   2
#     4  12  25  42  70 100 138 181 224 286 340 402
#     4  11  25  45  70 103 134 183 233 275 341 408
#     4  11  25  41  72 105 134 177 234 283 327 415
#     4  11  25  44  67 102 140 175 233 279 344 402
#     4  10  24  42  71  98 133 186 223 285 336 409
#     4  11  22  45  71  96 140 183 229 272 345 406
#     4  11  26  45  69  96 145 181 217 289 349 401
#     4  11  23  44  69  99 140 179 228 276 346 399
#
# _framework density 25.436249
#
# number of rings (size 3 to 8) (size 9 to 14) (size 15 to 20)
#    0.000    1.000    1.250    5.625    7.000    4.000 
#    0.000    0.000    0.000    0.000    0.000    0.000 
#    0.000    0.000    0.000    0.000    0.000    0.000 
#
# Total GULP energy -89603.346959 kJ/mol
# GULP energy per Si atom -5600.209185 kJ/mol
# Density = 2.537836 g / cm^3
# Si number density = 25.436249 Si / 1000 Ang^3
#
#
#
# Elastic Constant Matrix: (Units=GPa)
#
#
# Indices 1 2 3 4 5 6 
#
# 1 71.4512 43.3073 10.2010 -1.7060 -10.3371 11.5169
# 2 43.3073 143.7998 5.5802 14.5978 -11.2022 -1.1435
# 3 10.2010 5.5802 51.3532 -3.1644 -15.2720 -2.8678
# 4 -1.7060 14.5978 -3.1644 23.6522 1.3093 7.0199
# 5 -10.3371 -11.2022 -15.2720 1.3093 38.6155 -12.0530
# 6 11.5169 -1.1435 -2.8678 7.0199 -12.0530 48.3527
#
#
#
# Elastic Compliance Matrix: (Units=1/GPa)
#
#
# Indices 1 2 3 4 5 6 
#
# 1 0.019487 -0.006480 -0.003072 0.006758 0.000036 -0.005949
# 2 -0.006480 0.009911 0.000788 -0.007722 0.002855 0.003657
# 3 -0.003072 0.000788 0.023259 0.000499 0.010009 0.004552
# 4 0.006758 -0.007722 0.000499 0.050997 -0.005231 -0.010470
# 5 0.000036 0.002855 0.010009 -0.005231 0.033952 0.009875
# 6 -0.005949 0.003657 0.004552 -0.010470 0.009875 0.026437
#
#
# Mechanical properties :
#
#
# Convention : Reuss Voigt Hill
#
# Bulk Modulus (GPa) = 28.46709 42.75347 35.61028
# Shear Modulus (GPa) = 25.86905 35.95845 30.91375
#
# Velocity S-wave (km/s) = 3.19253 3.76396 3.48996
# Velocity P-wave (km/s) = 4.98051 5.97783 5.50181
#
# Compressibility (1/GPa) = 0.03512829
#
# Stress axis : x y z
#
# Youngs Moduli (GPa) = 51.31537 100.90208 42.99384
#
# Poissons Ratio (x) = 0.65387 0.13208
# Poissons Ratio (y) = 0.33254 -0.03387
# Poissons Ratio (z) = 0.15764 -0.07950
#
# Static dielectric constant tensor:
#      x y z
#    x 2.018860 0.007330 0.064310 
#    y 0.007330 1.981130 0.035740 
#    z 0.064310 0.035740 2.085410 
# 
# From -- ./inp_files/244987.got.cif
#   From: 2010.05.17/outbox.cif.g08.bks.cpg/sg2_123_cif.got.tgz:244987.got - 2010.06.03 11:33:40.
