data_PCOD9046997
_publ_section_title
;
Structure prediction by ZEFSAII (Michael W. Deem and Ramdas Pophale) SiO2 
 PCOD9046997
Probable space group: P -1
;
_chemical_formula_sum "Si O2"
_cell_formula_units_Z 16
_cell_length_a 17.719193
_cell_length_b 20.396676
_cell_length_c 9.237950
_cell_angle_alpha 144.564155
_cell_angle_beta 143.786442
_cell_angle_gamma 20.505167
_cell_volume 662.212401
_symmetry_space_group_name_H-M "P -1"
_symmetry_group_IT_number 2
_symmetry_cell_setting 'triclinic'
loop_
_space_group_symop_operation_xyz
x,y,z
-x,-y,-z
loop_
_atom_site_type_symbol
_atom_site_label
_atom_site_fract_x
_atom_site_fract_y
_atom_site_fract_z
Si Si1 0.794483 0.143166 0.647894
Si Si2 0.575558 0.949670 0.862812
Si Si3 0.288092 0.191416 0.608448
Si Si4 0.573385 0.536150 0.555582
Si Si5 0.089008 0.573739 0.926425
Si Si6 0.882146 0.340824 0.193672
Si Si7 0.821501 0.166545 0.147738
Si Si8 0.477234 0.767846 0.365398
O O1 0.643999 0.251285 0.468583
O O2 0.685916 0.133589 0.575298
O O3 0.807496 0.264566 0.940335
O O4 0.052694 0.927741 0.673359
O O5 0.535264 0.851885 0.568841
O O6 0.834712 0.783752 0.950322
O O7 0.401918 0.146273 0.853957
O O8 0.500000 0.000000 0.000000
O O9 0.149474 0.396438 0.696961
O O10 0.117687 0.208776 0.384219
O O11 0.500000 0.000000 0.500000
O O12 0.500000 0.500000 0.500000
O O13 0.703288 0.372989 0.336545
O O14 0.744826 0.494995 0.822818
O O15 0.121641 0.611742 0.891939
O O16 0.696255 0.546234 0.354686
O O17 0.627561 0.218281 0.910712
O O18 0.000000 0.000000 0.000000
#
# Coordination Sequence:
#
# PCOD9046997 Si02
#       8
#     2   2   2   2   2   2   2   2
#     4  11  25  43  73 105 143 187 234 293 368 423
#     4  12  29  48  71 109 149 191 244 306 362 437
#     4  12  26  48  81 104 142 198 246 299 369 437
#     4  12  26  46  69 106 150 189 237 304 365 428
#     4  12  27  47  73 107 149 188 245 302 365 433
#     4  12  22  47  76 107 140 186 245 302 356 436
#     4  10  24  43  70 103 139 188 241 292 350 438
#     4  11  23  46  74 105 146 182 243 297 362 433
#
# _framework density 24.161431
#
# number of rings (size 3 to 8) (size 9 to 14) (size 15 to 20)
#    0.000    0.500    5.000    2.250    7.000    3.000 
#    0.000    0.000    0.000    0.000    0.000    0.000 
#    0.000    0.000    0.000    0.000    0.000    0.000 
#
# Total GULP energy -89455.210439 kJ/mol
# GULP energy per Si atom -5590.950652 kJ/mol
# Density = 2.410644 g / cm^3
# Si number density = 24.161431 Si / 1000 Ang^3
#
#
#
# Elastic Constant Matrix: (Units=GPa)
#
#
# Indices 1 2 3 4 5 6 
#
# 1 64.1586 23.0031 11.0005 -9.6612 -8.6721 14.0566
# 2 23.0031 131.4114 24.2294 -42.1607 -10.6892 3.6257
# 3 11.0005 24.2294 86.5581 -35.4758 9.4153 -7.5091
# 4 -9.6612 -42.1607 -35.4758 60.3075 2.4014 -5.2828
# 5 -8.6721 -10.6892 9.4153 2.4014 42.9136 -3.4718
# 6 14.0566 3.6257 -7.5091 -5.2828 -3.4718 44.2426
#
#
#
# Elastic Compliance Matrix: (Units=1/GPa)
#
#
# Indices 1 2 3 4 5 6 
#
# 1 0.018673 -0.002701 -0.003080 -0.001380 0.003357 -0.006135
# 2 -0.002701 0.010392 0.000192 0.006966 0.001692 0.001004
# 3 -0.003080 0.000192 0.016976 0.010219 -0.004490 0.004712
# 4 -0.001380 0.006966 0.010219 0.027736 -0.001953 0.004761
# 5 0.003357 0.001692 -0.004490 -0.001953 0.025481 -0.000201
# 6 -0.006135 0.001004 0.004712 0.004761 -0.000201 0.025822
#
#
# Mechanical properties :
#
#
# Convention : Reuss Voigt Hill
#
# Bulk Modulus (GPa) = 28.68353 44.28824 36.48589
# Shear Modulus (GPa) = 33.81163 44.41907 39.11535
#
# Velocity S-wave (km/s) = 3.74492 4.29234 4.02794
# Velocity P-wave (km/s) = 5.53142 6.55252 6.06350
#
# Compressibility (1/GPa) = 0.03486322
#
# Stress axis : x y z
#
# Youngs Moduli (GPa) = 53.55285 96.22940 58.90777
#
# Poissons Ratio (x) = 0.25993 0.18144
# Poissons Ratio (y) = 0.14465 -0.01134
# Poissons Ratio (z) = 0.16494 -0.01852
#
# Static dielectric constant tensor:
#      x y z
#    x 2.057180 0.081880 0.025660 
#    y 0.081880 1.968000 0.007140 
#    z 0.025660 0.007140 2.031200 
# 
# From -- ./inp_files/338204.got.cif
#   From: 2010.05.17/outbox.cif.g08.bks.cpg/sg2_170_cif.got.tgz:338204.got - 2010.06.03 11:33:40.
