data_PCOD9046680
_publ_section_title
;
Structure prediction by ZEFSAII (Michael W. Deem and Ramdas Pophale) SiO2 
 PCOD9046680
Probable space group: P -1
;
_chemical_formula_sum "Si O2"
_cell_formula_units_Z 12
_cell_length_a 5.102317
_cell_length_b 15.939835
_cell_length_c 14.641630
_cell_angle_alpha 26.916099
_cell_angle_beta 116.911927
_cell_angle_gamma 122.175519
_cell_volume 455.504546
_symmetry_space_group_name_H-M "P -1"
_symmetry_group_IT_number 2
_symmetry_cell_setting 'triclinic'
loop_
_space_group_symop_operation_xyz
x,y,z
-x,-y,-z
loop_
_atom_site_type_symbol
_atom_site_label
_atom_site_fract_x
_atom_site_fract_y
_atom_site_fract_z
Si Si1 0.184118 0.085484 0.229567
Si Si2 0.797539 0.981946 0.897722
Si Si3 0.690073 0.407694 0.758028
Si Si4 0.747868 0.483133 0.895005
Si Si5 0.716017 0.913392 0.472005
Si Si6 0.321542 0.670435 0.370079
O O1 0.051727 0.998407 0.195409
O O2 0.409470 0.957694 0.413533
O O3 0.438656 0.302931 0.050557
O O4 0.880565 0.044944 0.283028
O O5 0.657132 0.154548 0.727599
O O6 0.592918 0.758767 0.082030
O O7 0.000000 0.000000 0.000000
O O8 0.875765 0.468388 0.824504
O O9 0.592468 0.582463 0.527260
O O10 0.719327 0.292390 0.780536
O O11 0.662930 0.683745 0.678972
O O12 0.000000 0.500000 0.000000
O O13 0.000000 0.000000 0.500000
O O14 0.000000 0.500000 0.500000
#
# Coordination Sequence:
#
# PCOD9046680 Si02
#       6
#     2   2   2   2   2   2
#     4  11  28  48  75 109 144 193 242 296 367 429
#     4  11  23  43  68 102 137 180 226 295 351 424
#     4  10  24  43  66  99 134 183 230 284 356 418
#     4  11  25  47  73 105 145 192 242 304 357 434
#     4  12  26  49  75 104 146 193 243 298 359 426
#     4  11  22  40  67  97 133 177 227 281 347 419
#
# _framework density 26.344415000000001
#
# number of rings (size 3 to 8) (size 9 to 14) (size 15 to 20)
#    0.000    1.000    3.333    2.000    2.333    6.000 
#    0.000    0.000    0.000    0.000    0.000    0.000 
#    0.000    0.000    0.000    0.000    0.000    0.000 
#
# Total GULP energy -66968.951765 kJ/mol
# GULP energy per Si atom -5580.745980 kJ/mol
# Density = 2.628445 g / cm^3
# Si number density = 26.344415 Si / 1000 Ang^3
#
#
#
# Elastic Constant Matrix: (Units=GPa)
#
#
# Indices 1 2 3 4 5 6 
#
# 1 51.2933 4.8605 7.8047 5.5516 -0.9229 11.8692
# 2 4.8605 162.6544 22.3512 27.5575 -11.0448 -3.8711
# 3 7.8047 22.3512 115.5121 -16.6552 12.1322 13.5990
# 4 5.5516 27.5575 -16.6552 49.8316 4.5285 -9.6553
# 5 -0.9229 -11.0448 12.1322 4.5285 38.2097 2.9423
# 6 11.8692 -3.8711 13.5990 -9.6553 2.9423 34.8167
#
#
#
# Elastic Compliance Matrix: (Units=1/GPa)
#
#
# Indices 1 2 3 4 5 6 
#
# 1 0.022270 0.000368 -0.001553 -0.005079 0.002398 -0.008556
# 2 0.000368 0.007704 -0.002704 -0.005561 0.003759 -0.000072
# 3 -0.001553 -0.002704 0.010793 0.005292 -0.004710 -0.002121
# 4 -0.005079 -0.005561 0.005292 0.027549 -0.007237 0.007298
# 5 0.002398 0.003759 -0.004710 -0.007237 0.029907 -0.003094
# 6 -0.008556 -0.000072 -0.002121 0.007298 -0.003094 0.034744
#
#
# Mechanical properties :
#
#
# Convention : Reuss Voigt Hill
#
# Bulk Modulus (GPa) = 30.31312 44.38808 37.35060
# Shear Modulus (GPa) = 32.95091 44.20116 38.57604
#
# Velocity S-wave (km/s) = 3.54047 4.10056 3.83076
# Velocity P-wave (km/s) = 5.31457 6.26939 5.81162
#
# Compressibility (1/GPa) = 0.03298902
#
# Stress axis : x y z
#
# Youngs Moduli (GPa) = 44.90395 129.79976 92.65606
#
# Poissons Ratio (x) = -0.04771 0.14387
# Poissons Ratio (y) = -0.01651 0.25051
# Poissons Ratio (z) = 0.06972 0.35093
#
# Static dielectric constant tensor:
#      x y z
#    x 2.262180 -0.246430 -0.065820 
#    y -0.246430 2.459550 0.285730 
#    z -0.065820 0.285730 2.375340 
# 
# From -- ./inp_files/96840.got.cif
#   From: 2010.05.17/outbox.cif.g08.bks.cpg/sg2_49_cif.got.tgz:96840.got - 2010.06.03 11:33:40.
