data_PCOD9046266
_publ_section_title
;
Structure prediction by ZEFSAII (Michael W. Deem and Ramdas Pophale) SiO2 
 PCOD9046266
Probable space group: P -1
;
_chemical_formula_sum "Si O2"
_cell_formula_units_Z 16
_cell_length_a 11.132045
_cell_length_b 11.135331
_cell_length_c 5.850201
_cell_angle_alpha 91.251011
_cell_angle_beta 111.848077
_cell_angle_gamma 90.321408
_cell_volume 672.863720
_symmetry_space_group_name_H-M "P -1"
_symmetry_group_IT_number 2
_symmetry_cell_setting 'triclinic'
loop_
_space_group_symop_operation_xyz
x,y,z
-x,-y,-z
loop_
_atom_site_type_symbol
_atom_site_label
_atom_site_fract_x
_atom_site_fract_y
_atom_site_fract_z
Si Si1 0.050207 0.766799 0.926042
Si Si2 0.072356 0.513616 0.802232
Si Si3 0.558500 0.421088 0.336413
Si Si4 0.200106 0.173673 0.483884
Si Si5 0.324987 0.371858 0.888397
Si Si6 0.190881 0.968717 0.783119
Si Si7 0.235425 0.774138 0.421541
Si Si8 0.639004 0.010511 0.710217
O O1 0.118407 0.654194 0.845941
O O2 0.094917 0.901139 0.887678
O O3 0.903475 0.757887 0.739385
O O4 0.092652 0.751406 0.217329
O O5 0.189886 0.420939 0.890769
O O6 0.000000 0.500000 0.500000
O O7 0.000000 0.500000 0.000000
O O8 0.500000 0.500000 0.500000
O O9 0.615998 0.515117 0.200776
O O10 0.679253 0.340870 0.486365
O O11 0.437614 0.342865 0.147882
O O12 0.292105 0.265454 0.686733
O O13 0.275138 0.083469 0.370961
O O14 0.135121 0.084616 0.623006
O O15 0.225256 0.863622 0.628618
O O16 0.324027 0.011174 0.002177
O O17 0.312633 0.853185 0.291578
O O18 0.500000 0.000000 0.500000
#
# Coordination Sequence:
#
# PCOD9046266 Si02
#       8
#     2   2   2   2   2   2   2   2
#     4  11  24  44  71 103 144 185 246 299 375 449
#     4  12  28  49  77 114 156 202 254 318 386 455
#     4  11  26  45  73 102 145 194 252 311 378 457
#     4  11  25  43  69 105 141 187 244 305 371 444
#     4  11  27  46  70 110 144 195 252 312 378 455
#     4  10  24  43  68  98 141 191 238 298 382 440
#     4  10  24  42  69  99 134 190 231 302 365 447
#     4  10  25  42  65  98 137 182 240 297 363 440
#
# _framework density 23.778963000000001
#
# number of rings (size 3 to 8) (size 9 to 14) (size 15 to 20)
#    0.000    1.250    1.250    1.875   10.500    9.500 
#    0.000    0.000    0.000    0.000    0.000    0.000 
#    0.000    0.000    0.000    0.000    0.000    0.000 
#
# Total GULP energy -89412.983124 kJ/mol
# GULP energy per Si atom -5588.311445 kJ/mol
# Density = 2.372484 g / cm^3
# Si number density = 23.778963 Si / 1000 Ang^3
#
#
#
# Elastic Constant Matrix: (Units=GPa)
#
#
# Indices 1 2 3 4 5 6 
#
# 1 44.0412 4.1904 41.3456 -2.4367 -1.4842 -0.9458
# 2 4.1904 106.0266 50.1944 1.3333 7.8624 -6.0093
# 3 41.3456 50.1944 179.0369 14.7337 24.0254 -4.3091
# 4 -2.4367 1.3333 14.7337 43.5857 3.9545 1.7311
# 5 -1.4842 7.8624 24.0254 3.9545 27.2624 10.3858
# 6 -0.9458 -6.0093 -4.3091 1.7311 10.3858 28.1886
#
#
#
# Elastic Compliance Matrix: (Units=1/GPa)
#
#
# Indices 1 2 3 4 5 6 
#
# 1 0.032481 0.002389 -0.010102 0.004331 0.010975 -0.004255
# 2 0.002389 0.011224 -0.003606 0.001005 -0.000911 0.002196
# 3 -0.010102 -0.003606 0.010669 -0.003319 -0.010130 0.004459
# 4 0.004331 0.001005 -0.003319 0.024345 -0.000040 -0.001628
# 5 0.010975 -0.000911 -0.010130 -0.000040 0.054670 -0.021514
# 6 -0.004255 0.002196 0.004459 -0.001628 -0.021514 0.044509
#
#
# Mechanical properties :
#
#
# Convention : Reuss Voigt Hill
#
# Bulk Modulus (GPa) = 31.51012 57.84059 44.67536
# Shear Modulus (GPa) = 23.68391 35.36562 29.52476
#
# Velocity S-wave (km/s) = 3.15937 3.86069 3.52751
# Velocity P-wave (km/s) = 5.15644 6.65209 5.95144
#
# Compressibility (1/GPa) = 0.03173583
#
# Stress axis : x y z
#
# Youngs Moduli (GPa) = 30.78744 89.09748 93.72785
#
# Poissons Ratio (x) = -0.21289 0.94687
# Poissons Ratio (y) = -0.07356 0.33798
# Poissons Ratio (z) = 0.31102 0.32129
#
# Static dielectric constant tensor:
#      x y z
#    x 2.229070 -0.160260 0.086310 
#    y -0.160260 2.124880 -0.136040 
#    z 0.086310 -0.136040 2.049380 
# 
# From -- ./inp_files/71483.got.cif
#   From: 2010.05.17/outbox.cif.g08.bks.cpg/sg2_36_cif.got.tgz:71483.got - 2010.06.03 11:33:40.
