data_PCOD9046333
_publ_section_title
;
Structure prediction by ZEFSAII (Michael W. Deem and Ramdas Pophale) SiO2 
 PCOD9046333
Probable space group: P -1
;
_chemical_formula_sum "Si O2"
_cell_formula_units_Z 11
_cell_length_a 11.534138
_cell_length_b 7.029247
_cell_length_c 12.815420
_cell_angle_alpha 53.832298
_cell_angle_beta 146.967719
_cell_angle_gamma 109.725104
_cell_volume 427.049442
_symmetry_space_group_name_H-M "P -1"
_symmetry_group_IT_number 2
_symmetry_cell_setting 'triclinic'
loop_
_space_group_symop_operation_xyz
x,y,z
-x,-y,-z
loop_
_atom_site_type_symbol
_atom_site_label
_atom_site_fract_x
_atom_site_fract_y
_atom_site_fract_z
Si Si1 0.478849 0.231925 0.338377
Si Si2 0.500000 0.500000 0.500000
Si Si3 0.001636 0.276845 0.882838
Si Si4 0.121362 0.317766 0.498395
Si Si5 0.601086 0.230215 0.833427
Si Si6 0.933803 0.048548 0.606673
O O1 0.476354 0.460267 0.341712
O O2 0.692535 0.167517 0.443977
O O3 0.500000 0.000000 0.500000
O O4 0.229853 0.320504 0.073696
O O5 0.568204 0.192816 0.700070
O O6 0.777668 0.454469 0.715282
O O7 0.962610 0.392728 0.698005
O O8 0.000000 0.000000 0.000000
O O9 0.396026 0.213882 0.753531
O O10 0.992915 0.261496 0.518005
O O11 0.079822 0.151509 0.426011
O O12 0.847763 0.099772 0.108262
#
# Coordination Sequence:
#
# PCOD9046333 Si02
#       6
#     2   1   2   2   2   2
#     4  12  26  41  68 105 139 178 234 284 348 407
#     4  10  24  42  70  96 140 178 224 290 338 404
#     4  11  24  42  68 104 136 180 229 284 343 405
#     4  10  24  47  72 100 139 188 230 271 356 408
#     4  11  24  44  68 102 134 185 231 284 345 404
#     4  11  25  48  69 101 144 183 225 290 337 420
#
# _framework density 25.758144000000001
#
# number of rings (size 3 to 8) (size 9 to 14) (size 15 to 20)
#    0.000    1.091    1.818    3.818   10.182    2.909 
#    0.000    0.000    0.000    0.000    0.000    0.000 
#    0.000    0.000    0.000    0.000    0.000    0.000 
#
# Total GULP energy -61399.646874 kJ/mol
# GULP energy per Si atom -5581.786079 kJ/mol
# Density = 2.569952 g / cm^3
# Si number density = 25.758144 Si / 1000 Ang^3
#
#
#
# Elastic Constant Matrix: (Units=GPa)
#
#
# Indices 1 2 3 4 5 6 
#
# 1 218.9483 60.8215 90.2371 6.6722 23.7481 50.4632
# 2 60.8215 123.9628 63.0404 -2.6791 11.8619 14.6353
# 3 90.2371 63.0404 196.6018 37.7866 19.9926 18.6789
# 4 6.6722 -2.6791 37.7866 58.2175 20.9507 1.9827
# 5 23.7481 11.8619 19.9926 20.9507 51.4789 2.6100
# 6 50.4632 14.6353 18.6789 1.9827 2.6100 57.3938
#
#
#
# Elastic Compliance Matrix: (Units=1/GPa)
#
#
# Indices 1 2 3 4 5 6 
#
# 1 0.007473 -0.001453 -0.002550 0.001850 -0.002606 -0.005316
# 2 -0.001453 0.010715 -0.003191 0.003444 -0.001938 -0.000447
# 3 -0.002550 -0.003191 0.008196 -0.005536 0.000954 0.000536
# 4 0.001850 0.003444 -0.005536 0.024080 -0.009241 -0.001115
# 5 -0.002606 -0.001938 0.000954 -0.009241 0.024379 0.001686
# 6 -0.005316 -0.000447 0.000536 -0.001115 0.001686 0.021999
#
#
# Mechanical properties :
#
#
# Convention : Reuss Voigt Hill
#
# Bulk Modulus (GPa) = 83.35743 107.52342 95.44042
# Shear Modulus (GPa) = 43.39167 55.11232 49.25199
#
# Velocity S-wave (km/s) = 4.10882 4.63061 4.37749
# Velocity P-wave (km/s) = 7.41226 8.39191 7.91725
#
# Compressibility (1/GPa) = 0.01199653
#
# Stress axis : x y z
#
# Youngs Moduli (GPa) = 133.81016 93.32324 122.00998
#
# Poissons Ratio (x) = 0.13561 0.31110
# Poissons Ratio (y) = 0.19444 0.38937
# Poissons Ratio (z) = 0.34119 0.29782
#
# Static dielectric constant tensor:
#      x y z
#    x 2.967190 -0.615710 -0.328170 
#    y -0.615710 2.514760 0.114730 
#    z -0.328170 0.114730 2.114250 
# 
# From -- ./inp_files/513916.got.cif
#   From: 2010.05.17/outbox.cif.g08.bks.cpg/sg2_257_cif.got.tgz:513916.got - 2010.06.03 11:33:40.
