data_PCOD9046948
_publ_section_title
;
Structure prediction by ZEFSAII (Michael W. Deem and Ramdas Pophale) SiO2 
 PCOD9046948
Probable space group: P -1
;
_chemical_formula_sum "Si O2"
_cell_formula_units_Z 12
_cell_length_a 10.223308
_cell_length_b 9.369312
_cell_length_c 13.478981
_cell_angle_alpha 112.806048
_cell_angle_beta 136.327850
_cell_angle_gamma 41.084305
_cell_volume 549.435897
_symmetry_space_group_name_H-M "P -1"
_symmetry_group_IT_number 2
_symmetry_cell_setting 'triclinic'
loop_
_space_group_symop_operation_xyz
x,y,z
-x,-y,-z
loop_
_atom_site_type_symbol
_atom_site_label
_atom_site_fract_x
_atom_site_fract_y
_atom_site_fract_z
Si Si1 0.392223 0.722112 0.552509
Si Si2 0.313360 0.797528 0.162733
Si Si3 0.796598 0.672476 0.262263
Si Si4 0.263980 0.936814 0.739666
Si Si5 0.420820 0.225564 0.512266
Si Si6 0.421394 0.426136 0.025063
O O1 0.500000 0.500000 0.500000
O O2 0.434803 0.740148 0.694903
O O3 0.536141 0.761732 0.574887
O O4 0.056832 0.926408 0.406747
O O5 0.538897 0.765320 0.214647
O O6 0.361267 0.819062 0.307667
O O7 0.371037 0.580779 0.124657
O O8 0.000000 0.000000 0.000000
O O9 0.100671 0.473707 0.429656
O O10 0.740283 0.878996 0.244817
O O11 0.812851 0.539274 0.144759
O O12 0.370516 0.825681 0.877692
O O13 0.500000 0.000000 0.500000
O O14 0.500000 0.500000 0.000000
#
# Coordination Sequence:
#
# PCOD9046948 Si02
#       6
#     2   2   2   2   2   2
#     4  11  24  43  69 104 143 184 231 286 358 408
#     4  11  25  44  68 102 141 185 235 289 354 417
#     4  11  24  45  68 104 140 185 236 290 354 408
#     4  11  24  44  70 102 143 184 235 291 346 423
#     4  12  25  42  72 103 143 184 241 289 342 424
#     4  10  24  43  69  96 138 183 229 290 353 409
#
# _framework density 21.840581
#
# number of rings (size 3 to 8) (size 9 to 14) (size 15 to 20)
#    0.000    1.000    1.667    4.000   11.667    0.000 
#    0.000    1.667    0.000    0.000    0.000    0.000 
#    0.000    0.000    0.000    0.000    0.000    0.000 
#
# Total GULP energy -66891.766947 kJ/mol
# GULP energy per Si atom -5574.313912 kJ/mol
# Density = 2.179087 g / cm^3
# Si number density = 21.840581 Si / 1000 Ang^3
#
#
#
# Elastic Constant Matrix: (Units=GPa)
#
#
# Indices 1 2 3 4 5 6 
#
# 1 113.3172 36.2379 32.4460 -27.5368 -4.1707 2.5426
# 2 36.2379 111.0123 26.2159 1.6341 -11.6196 23.5755
# 3 32.4460 26.2159 124.7015 -5.8710 -7.0981 2.0915
# 4 -27.5368 1.6341 -5.8710 44.7854 -0.3400 -6.2289
# 5 -4.1707 -11.6196 -7.0981 -0.3400 31.4168 -3.4676
# 6 2.5426 23.5755 2.0915 -6.2289 -3.4676 36.7845
#
#
#
# Elastic Compliance Matrix: (Units=1/GPa)
#
#
# Indices 1 2 3 4 5 6 
#
# 1 0.012801 -0.004573 -0.002038 0.008266 0.000030 0.003564
# 2 -0.004573 0.013010 -0.001457 -0.004631 0.002893 -0.008451
# 3 -0.002038 -0.001457 0.008921 0.000077 0.001284 0.000702
# 4 0.008266 -0.004631 0.000077 0.028607 0.000516 0.007285
# 5 0.000030 0.002893 0.001284 0.000516 0.033343 0.001301
# 6 0.003564 -0.008451 0.000702 0.007285 0.001301 0.033672
#
#
# Mechanical properties :
#
#
# Convention : Reuss Voigt Hill
#
# Bulk Modulus (GPa) = 53.77476 59.87007 56.82241
# Shear Modulus (GPa) = 32.74641 39.53942 36.14292
#
# Velocity S-wave (km/s) = 3.87633 4.25945 4.07240
# Velocity P-wave (km/s) = 6.68652 7.18766 6.94161
#
# Compressibility (1/GPa) = 0.01859609
#
# Stress axis : x y z
#
# Youngs Moduli (GPa) = 78.12181 76.86136 112.09864
#
# Poissons Ratio (x) = 0.35146 0.22847
# Poissons Ratio (y) = 0.35722 0.16333
# Poissons Ratio (z) = 0.15922 0.11199
#
# Static dielectric constant tensor:
#      x y z
#    x 1.840420 -0.014570 -0.047400 
#    y -0.014570 1.900290 -0.049090 
#    z -0.047400 -0.049090 1.832740 
# 
# From -- ./inp_files/246225.got.cif
#   From: 2010.05.17/outbox.cif.g08.bks.cpg/sg2_124_cif.got.tgz:246225.got - 2010.06.03 11:33:40.
