data_PCOD9046130
_publ_section_title
;
Structure prediction by ZEFSAII (Michael W. Deem and Ramdas Pophale) SiO2 
 PCOD9046130
Probable space group: P -1
;
_chemical_formula_sum "Si O2"
_cell_formula_units_Z 16
_cell_length_a 5.670240
_cell_length_b 8.459262
_cell_length_c 23.757400
_cell_angle_alpha 48.907322
_cell_angle_beta 66.039557
_cell_angle_gamma 52.765372
_cell_volume 683.693126
_symmetry_space_group_name_H-M "P -1"
_symmetry_group_IT_number 2
_symmetry_cell_setting 'triclinic'
loop_
_space_group_symop_operation_xyz
x,y,z
-x,-y,-z
loop_
_atom_site_type_symbol
_atom_site_label
_atom_site_fract_x
_atom_site_fract_y
_atom_site_fract_z
Si Si1 0.626670 0.547470 0.918699
Si Si2 0.815865 0.884482 0.660866
Si Si3 0.545282 0.494884 0.301881
Si Si4 0.306352 0.104007 0.826365
Si Si5 0.432438 0.138938 0.533334
Si Si6 0.226037 0.646408 0.402386
Si Si7 0.779909 0.882346 0.041364
Si Si8 0.336685 0.518239 0.194442
O O1 0.561794 0.469927 0.881598
O O2 0.979471 0.394150 0.929102
O O3 0.490244 0.829259 0.857436
O O4 0.500000 0.500000 0.000000
O O5 0.755942 0.691432 0.745117
O O6 0.168607 0.746824 0.649344
O O7 0.651058 0.953065 0.601329
O O8 0.705620 0.137613 0.643387
O O9 0.608468 0.714919 0.252923
O O10 0.256469 0.574512 0.349859
O O11 0.531221 0.463856 0.243753
O O12 0.354442 0.107634 0.887300
O O13 0.953207 0.224588 0.825695
O O14 0.448916 0.386550 0.468742
O O15 0.098917 0.245705 0.564547
O O16 0.500000 0.000000 0.500000
O O17 0.500000 0.000000 0.000000
O O18 0.000000 0.000000 0.000000
#
# Coordination Sequence:
#
# PCOD9046130 Si02
#       8
#     2   2   2   2   2   2   2   2
#     4  11  23  45  72 103 139 189 241 301 367 443
#     4  11  23  44  67  97 137 180 229 285 356 419
#     4  11  25  44  69  97 136 185 235 297 354 429
#     4  10  24  42  68 100 134 185 234 293 361 434
#     4  11  25  44  68 102 141 181 227 287 354 421
#     4  11  24  41  68 101 134 183 235 285 350 430
#     4  11  25  46  71 106 147 187 241 307 376 444
#     4  10  24  43  67  99 141 179 234 297 360 427
#
# _framework density 23.402314000000001
#
# number of rings (size 3 to 8) (size 9 to 14) (size 15 to 20)
#    0.000    1.250    1.250    3.375    3.500    8.500 
#    2.250    0.000    0.000    0.000    0.000    0.000 
#    0.000    0.000    0.000    0.000    0.000    0.000 
#
# Total GULP energy -89328.625902 kJ/mol
# GULP energy per Si atom -5583.039119 kJ/mol
# Density = 2.334905 g / cm^3
# Si number density = 23.402314 Si / 1000 Ang^3
#
#
#
# Elastic Constant Matrix: (Units=GPa)
#
#
# Indices 1 2 3 4 5 6 
#
# 1 68.7049 47.2596 38.5473 1.8052 20.6088 -6.6948
# 2 47.2596 176.6383 73.5814 -2.2195 9.6058 -5.0450
# 3 38.5473 73.5814 104.7420 0.1324 22.1179 -4.5677
# 4 1.8052 -2.2195 0.1324 68.4121 7.1590 -2.5641
# 5 20.6088 9.6058 22.1179 7.1590 50.0525 -15.6903
# 6 -6.6948 -5.0450 -4.5677 -2.5641 -15.6903 18.1850
#
#
#
# Elastic Compliance Matrix: (Units=1/GPa)
#
#
# Indices 1 2 3 4 5 6 
#
# 1 0.021162 -0.003702 -0.003870 -0.000010 -0.006136 0.000496
# 2 -0.003702 0.008773 -0.005308 0.000177 0.002860 0.002230
# 3 -0.003870 -0.005308 0.015707 0.000340 -0.005529 -0.003675
# 4 -0.000010 0.000177 0.000340 0.014866 -0.002205 0.000325
# 5 -0.006136 0.002860 -0.005529 -0.002205 0.032518 0.024892
# 6 0.000496 0.002230 -0.003675 0.000325 0.024892 0.076392
#
#
# Mechanical properties :
#
#
# Convention : Reuss Voigt Hill
#
# Bulk Modulus (GPa) = 50.29488 74.31798 62.30643
# Shear Modulus (GPa) = 24.77643 40.04303 32.40973
#
# Velocity S-wave (km/s) = 3.25732 4.14100 3.72545
# Velocity P-wave (km/s) = 5.97369 7.39523 6.72214
#
# Compressibility (1/GPa) = 0.01988274
#
# Stress axis : x y z
#
# Youngs Moduli (GPa) = 47.25479 113.98461 63.66566
#
# Poissons Ratio (x) = 0.42197 0.24639
# Poissons Ratio (y) = 0.17494 0.33791
# Poissons Ratio (z) = 0.18288 0.60498
#
# Static dielectric constant tensor:
#      x y z
#    x 1.944020 0.054550 -0.069650 
#    y 0.054550 1.915770 -0.008130 
#    z -0.069650 -0.008130 1.927050 
# 
# From -- ./inp_files/603978.got.cif
#   From: 2010.05.17/outbox.cif.g08.bks.cpg/sg2_302_cif.got.tgz:603978.got - 2010.06.03 11:33:40.
