data_PCOD9046178
_publ_section_title
;
Structure prediction by ZEFSAII (Michael W. Deem and Ramdas Pophale) SiO2 
 PCOD9046178
Probable space group: P -1
;
_chemical_formula_sum "Si O2"
_cell_formula_units_Z 14
_cell_length_a 11.470034
_cell_length_b 14.524922
_cell_length_c 9.951851
_cell_angle_alpha 75.445020
_cell_angle_beta 56.476522
_cell_angle_gamma 30.005040
_cell_volume 579.803892
_symmetry_space_group_name_H-M "P -1"
_symmetry_group_IT_number 2
_symmetry_cell_setting 'triclinic'
loop_
_space_group_symop_operation_xyz
x,y,z
-x,-y,-z
loop_
_atom_site_type_symbol
_atom_site_label
_atom_site_fract_x
_atom_site_fract_y
_atom_site_fract_z
Si Si1 0.831625 0.040131 0.280310
Si Si2 0.833412 0.344218 0.792789
Si Si3 0.582018 0.531944 0.545349
Si Si4 0.775402 0.902467 0.816153
Si Si5 0.496322 0.735690 0.868081
Si Si6 0.676920 0.661169 0.073962
Si Si7 0.804142 0.366549 0.097587
O O1 0.618987 0.247959 0.418995
O O2 0.635221 0.138951 0.231407
O O3 0.939353 0.874555 0.337451
O O4 0.170342 0.884366 0.080931
O O5 0.756522 0.497672 0.740746
O O6 0.500000 0.500000 0.000000
O O7 0.975690 0.272400 0.881125
O O8 0.500000 0.500000 0.500000
O O9 0.471196 0.545469 0.746008
O O10 0.961435 0.309802 0.366701
O O11 0.948302 0.818371 0.878802
O O12 0.622362 0.090561 0.781073
O O13 0.500000 0.000000 0.000000
O O14 0.659936 0.683589 0.913396
O O15 0.658223 0.559918 0.151027
O O16 0.000000 0.500000 0.000000
#
# Coordination Sequence:
#
# PCOD9046178 Si02
#       7
#     2   2   2   2   2   2   2
#     4  10  17  34  55  83 122 148 184 247 294 336
#     4   9  17  29  55  87 116 147 182 232 287 345
#     4  10  21  35  58  89 118 147 191 248 295 338
#     4  11  22  39  58  81 114 156 194 236 291 353
#     4   9  18  31  57  87 116 149 196 233 285 348
#     4  11  21  36  60  86 114 160 199 232 286 348
#     4  10  20  37  58  89 116 144 198 241 285 339
#
# _framework density 24.146096
#
# number of rings (size 3 to 8) (size 9 to 14) (size 15 to 20)
#    0.000    2.000    1.429    5.143    0.000    0.571 
#    0.000    5.714    0.000    4.286    0.000    0.000 
#    0.000    0.000    0.000    0.000    0.000    0.000 
#
# Total GULP energy -78071.762908 kJ/mol
# GULP energy per Si atom -5576.554493 kJ/mol
# Density = 2.409114 g / cm^3
# Si number density = 24.146096 Si / 1000 Ang^3
#
#
#
# Elastic Constant Matrix: (Units=GPa)
#
#
# Indices 1 2 3 4 5 6 
#
# 1 80.8835 32.6516 23.8067 19.5530 13.1416 1.5868
# 2 32.6516 175.7562 28.6077 50.3505 10.6439 26.6181
# 3 23.8067 28.6077 66.0667 29.6303 7.0869 18.9320
# 4 19.5530 50.3505 29.6303 41.7346 8.4438 22.3591
# 5 13.1416 10.6439 7.0869 8.4438 29.7777 8.5843
# 6 1.5868 26.6181 18.9320 22.3591 8.5843 57.2350
#
#
#
# Elastic Compliance Matrix: (Units=1/GPa)
#
#
# Indices 1 2 3 4 5 6 
#
# 1 0.015852 -0.001454 -0.003851 -0.003880 -0.005573 0.003862
# 2 -0.001454 0.008916 0.001751 -0.011188 0.000315 -0.000362
# 3 -0.003851 0.001751 0.023480 -0.015833 0.000664 -0.002389
# 4 -0.003880 -0.011188 -0.015833 0.057282 -0.003505 -0.011304
# 5 -0.005573 0.000315 0.000664 -0.003505 0.038077 -0.004553
# 6 0.003862 -0.000362 -0.002389 -0.011304 -0.004553 0.023422
#
#
# Mechanical properties :
#
#
# Convention : Reuss Voigt Hill
#
# Bulk Modulus (GPa) = 24.30808 54.75982 39.53395
# Shear Modulus (GPa) = 26.61694 41.59217 34.10456
#
# Velocity S-wave (km/s) = 3.32374 4.15483 3.76230
# Velocity P-wave (km/s) = 4.98182 6.76347 5.93983
#
# Compressibility (1/GPa) = 0.04113858
#
# Stress axis : x y z
#
# Youngs Moduli (GPa) = 63.08548 112.16171 42.58959
#
# Poissons Ratio (x) = 0.16308 0.16403
# Poissons Ratio (y) = 0.09172 -0.07457
# Poissons Ratio (z) = 0.24296 -0.19639
#
# Static dielectric constant tensor:
#      x y z
#    x 3.480380 -1.058510 -0.212910 
#    y -1.058510 2.719510 0.252110 
#    z -0.212910 0.252110 2.089680 
# 
# From -- ./inp_files/433929.got.cif
#   From: 2010.05.17/outbox.cif.g08.bks.cpg/sg2_217_cif.got.tgz:433929.got - 2010.06.03 11:33:40.
