data_PCOD9046838
_publ_section_title
;
Structure prediction by ZEFSAII (Michael W. Deem and Ramdas Pophale) SiO2 
 PCOD9046838
Probable space group: P -1
;
_chemical_formula_sum "Si O2"
_cell_formula_units_Z 14
_cell_length_a 8.951325
_cell_length_b 8.922631
_cell_length_c 12.757194
_cell_angle_alpha 122.419691
_cell_angle_beta 97.612254
_cell_angle_gamma 49.761447
_cell_volume 619.362208
_symmetry_space_group_name_H-M "P -1"
_symmetry_group_IT_number 2
_symmetry_cell_setting 'triclinic'
loop_
_space_group_symop_operation_xyz
x,y,z
-x,-y,-z
loop_
_atom_site_type_symbol
_atom_site_label
_atom_site_fract_x
_atom_site_fract_y
_atom_site_fract_z
Si Si1 0.520717 0.056811 0.906554
Si Si2 0.517246 0.233717 0.364506
Si Si3 0.322661 0.556061 0.074746
Si Si4 0.151015 0.119590 0.581698
Si Si5 0.066305 0.043533 0.130421
Si Si6 0.162649 0.456925 0.582466
Si Si7 0.691442 0.363271 0.661382
O O1 0.528505 0.890049 0.764761
O O2 0.729439 0.003856 0.893832
O O3 0.327761 0.343825 0.971247
O O4 0.500000 0.000000 0.000000
O O5 0.362109 0.337663 0.486631
O O6 0.466824 0.448588 0.372490
O O7 0.746017 0.020824 0.351890
O O8 0.384336 0.523165 0.189095
O O9 0.123511 0.835261 0.135665
O O10 0.500000 0.500000 0.000000
O O11 0.205187 0.270095 0.602509
O O12 0.904577 0.295291 0.630392
O O13 0.244204 0.894627 0.428804
O O14 0.917345 0.303474 0.273965
O O15 0.000000 0.000000 0.000000
O O16 0.000000 0.500000 0.500000
#
# Coordination Sequence:
#
# PCOD9046838 Si02
#       7
#     2   2   2   2   2   2   2
#     4  11  23  45  68  99 140 183 232 295 354 419
#     4  12  25  44  72 104 139 183 237 289 352 423
#     4  10  24  43  68  93 139 187 227 282 356 418
#     4  11  26  41  73 103 137 183 231 289 355 417
#     4  11  26  45  71 102 138 189 237 287 357 425
#     4  12  23  47  73  99 143 184 234 292 349 417
#     4  11  23  46  67 102 144 179 228 297 351 414
#
# _framework density 22.603897
#
# number of rings (size 3 to 8) (size 9 to 14) (size 15 to 20)
#    0.000    0.857    4.286    1.714    6.000    3.429 
#    0.000    1.429    0.000    0.000    0.000    0.000 
#    0.000    0.000    0.000    0.000    0.000    0.000 
#
# Total GULP energy -78319.794279 kJ/mol
# GULP energy per Si atom -5594.271020 kJ/mol
# Density = 2.255245 g / cm^3
# Si number density = 22.603897 Si / 1000 Ang^3
#
#
#
# Elastic Constant Matrix: (Units=GPa)
#
#
# Indices 1 2 3 4 5 6 
#
# 1 49.7814 22.2189 33.3436 12.4577 11.4271 11.5444
# 2 22.2189 151.1586 48.8901 9.1925 -1.4078 27.7728
# 3 33.3436 48.8901 157.1100 19.4520 2.5188 12.7436
# 4 12.4577 9.1925 19.4520 39.1807 4.3693 17.6739
# 5 11.4271 -1.4078 2.5188 4.3693 28.6517 -11.2629
# 6 11.5444 27.7728 12.7436 17.6739 -11.2629 35.3354
#
#
#
# Elastic Compliance Matrix: (Units=1/GPa)
#
#
# Indices 1 2 3 4 5 6 
#
# 1 0.030671 -0.000551 -0.005069 0.001089 -0.017428 -0.013859
# 2 -0.000551 0.008782 -0.002299 0.003482 -0.003063 -0.008611
# 3 -0.005069 -0.002299 0.008309 -0.003839 0.003089 0.003372
# 4 0.001089 0.003482 -0.003839 0.040463 -0.016832 -0.027312
# 5 -0.017428 -0.003063 0.003089 -0.016832 0.057224 0.033646
# 6 -0.013859 -0.008611 0.003372 -0.027312 0.033646 0.062765
#
#
# Mechanical properties :
#
#
# Convention : Reuss Voigt Hill
#
# Bulk Modulus (GPa) = 31.32585 62.99501 47.16043
# Shear Modulus (GPa) = 21.30439 37.54005 29.42222
#
# Velocity S-wave (km/s) = 3.07336 4.07969 3.61174
# Velocity P-wave (km/s) = 5.14614 7.07964 6.18887
#
# Compressibility (1/GPa) = 0.03192252
#
# Stress axis : x y z
#
# Youngs Moduli (GPa) = 32.60413 113.86712 120.35621
#
# Poissons Ratio (x) = 0.06274 0.61010
# Poissons Ratio (y) = 0.01796 0.27676
# Poissons Ratio (z) = 0.16528 0.26184
#
# Static dielectric constant tensor:
#      x y z
#    x 1.816550 -0.030910 0.030240 
#    y -0.030910 1.890980 0.031540 
#    z 0.030240 0.031540 1.833290 
# 
# From -- ./inp_files/243098.got.cif
#   From: 2010.05.17/outbox.cif.g08.bks.cpg/sg2_122_cif.got.tgz:243098.got - 2010.06.03 11:33:40.
