data_PCOD9046982
_publ_section_title
;
Structure prediction by ZEFSAII (Michael W. Deem and Ramdas Pophale) SiO2 
 PCOD9046982
Probable space group: P -1
;
_chemical_formula_sum "Si O2"
_cell_formula_units_Z 14
_cell_length_a 10.681739
_cell_length_b 18.455946
_cell_length_c 11.880698
_cell_angle_alpha 149.621624
_cell_angle_beta 132.517097
_cell_angle_gamma 31.587121
_cell_volume 604.784824
_symmetry_space_group_name_H-M "P -1"
_symmetry_group_IT_number 2
_symmetry_cell_setting 'triclinic'
loop_
_space_group_symop_operation_xyz
x,y,z
-x,-y,-z
loop_
_atom_site_type_symbol
_atom_site_label
_atom_site_fract_x
_atom_site_fract_y
_atom_site_fract_z
Si Si1 0.366524 0.474568 0.801162
Si Si2 0.198491 0.836938 0.500592
Si Si3 0.722474 0.704647 0.982792
Si Si4 0.815038 0.981431 0.841256
Si Si5 0.208671 0.281205 0.393759
Si Si6 0.794492 0.854311 0.006593
Si Si7 0.079048 0.224256 0.601050
O O1 0.540787 0.383364 0.677207
O O2 0.366231 0.300760 0.585991
O O3 0.083462 0.687790 0.920805
O O4 0.500000 0.500000 0.000000
O O5 0.073373 0.799460 0.454172
O O6 0.000000 0.000000 0.500000
O O7 0.261941 0.946509 0.744056
O O8 0.789086 0.755618 0.980361
O O9 0.898869 0.459527 0.762368
O O10 0.442449 0.827416 0.997584
O O11 0.763543 0.785907 0.223609
O O12 0.896798 0.783229 0.684508
O O13 0.793935 0.943011 0.646645
O O14 0.000000 0.000000 0.000000
O O15 0.339539 0.131175 0.164272
O O16 0.000000 0.500000 0.500000
#
# Coordination Sequence:
#
# PCOD9046982 Si02
#       7
#     2   2   2   2   2   2   2
#     4  11  22  40  68 101 136 171 220 285 340 402
#     4  12  23  39  67 103 131 171 227 282 338 397
#     4  11  25  46  71  98 137 185 230 284 345 409
#     4  12  27  47  69 101 143 189 229 280 350 416
#     4  10  24  43  70 101 136 180 229 281 342 402
#     4  11  23  45  68 100 137 176 230 281 340 404
#     4  11  25  45  67 101 139 179 231 282 346 410
#
# _framework density 23.148728999999999
#
# number of rings (size 3 to 8) (size 9 to 14) (size 15 to 20)
#    0.000    0.857    2.857    3.857    0.000    8.571 
#    5.143    0.000    0.000    0.000    0.000    0.000 
#    0.000    0.000    0.000    0.000    0.000    0.000 
#
# Total GULP energy -78182.967835 kJ/mol
# GULP energy per Si atom -5584.497703 kJ/mol
# Density = 2.309604 g / cm^3
# Si number density = 23.148729 Si / 1000 Ang^3
#
#
#
# Elastic Constant Matrix: (Units=GPa)
#
#
# Indices 1 2 3 4 5 6 
#
# 1 150.7287 27.6832 36.9961 -8.3511 13.8690 -3.4751
# 2 27.6832 52.0756 4.9529 -9.4104 11.9497 -10.4857
# 3 36.9961 4.9529 149.6000 -40.5347 9.6765 -1.1969
# 4 -8.3511 -9.4104 -40.5347 37.1779 -13.5189 6.8234
# 5 13.8690 11.9497 9.6765 -13.5189 55.9559 0.6458
# 6 -3.4751 -10.4857 -1.1969 6.8234 0.6458 38.1081
#
#
#
# Elastic Compliance Matrix: (Units=1/GPa)
#
#
# Indices 1 2 3 4 5 6 
#
# 1 0.007964 -0.004151 -0.002372 -0.002283 -0.001228 -0.000061
# 2 -0.004151 0.023977 0.001826 0.004935 -0.003278 0.005448
# 3 -0.002372 0.001826 0.010362 0.011994 0.001322 -0.001559
# 4 -0.002283 0.004935 0.011994 0.044983 0.008383 -0.006670
# 5 -0.001228 -0.003278 0.001322 0.008383 0.020705 -0.002824
# 6 -0.000061 0.005448 -0.001559 -0.006670 -0.002824 0.028928
#
#
# Mechanical properties :
#
#
# Convention : Reuss Voigt Hill
#
# Bulk Modulus (GPa) = 30.38698 54.62985 42.50842
# Shear Modulus (GPa) = 31.78965 45.09987 38.44476
#
# Velocity S-wave (km/s) = 3.70980 4.41870 4.07968
# Velocity P-wave (km/s) = 5.61297 7.04869 6.37140
#
# Compressibility (1/GPa) = 0.03290883
#
# Stress axis : x y z
#
# Youngs Moduli (GPa) = 125.56368 41.70683 96.50211
#
# Poissons Ratio (x) = 0.17313 0.22888
# Poissons Ratio (y) = 0.52123 -0.17617
# Poissons Ratio (z) = 0.29781 -0.07614
#
# Static dielectric constant tensor:
#      x y z
#    x 1.856590 0.055100 -0.033860 
#    y 0.055100 2.027610 -0.059660 
#    z -0.033860 -0.059660 1.895350 
# 
# From -- ./inp_files/403606.got.cif
#   From: 2010.05.17/outbox.cif.g08.bks.cpg/sg2_202_cif.got.tgz:403606.got - 2010.06.03 11:33:40.
