data_PCOD9046800
_publ_section_title
;
Structure prediction by ZEFSAII (Michael W. Deem and Ramdas Pophale) SiO2 
 PCOD9046800
Probable space group: P -1
;
_chemical_formula_sum "Si O2"
_cell_formula_units_Z 15
_cell_length_a 5.040360
_cell_length_b 12.472017
_cell_length_c 11.347962
_cell_angle_alpha 90.135565
_cell_angle_beta 78.002281
_cell_angle_gamma 118.307284
_cell_volume 610.499833
_symmetry_space_group_name_H-M "P -1"
_symmetry_group_IT_number 2
_symmetry_cell_setting 'triclinic'
loop_
_space_group_symop_operation_xyz
x,y,z
-x,-y,-z
loop_
_atom_site_type_symbol
_atom_site_label
_atom_site_fract_x
_atom_site_fract_y
_atom_site_fract_z
Si Si1 0.337846 0.134181 0.861600
Si Si2 0.552323 0.965363 0.719333
Si Si3 0.413633 0.598960 0.160452
Si Si4 0.638354 0.434884 0.565833
Si Si5 0.686747 0.803835 0.877167
Si Si6 0.956475 0.644583 0.937048
Si Si7 0.169449 0.151260 0.621795
Si Si8 0.500000 0.000000 0.500000
O O1 0.425209 0.029201 0.821575
O O2 0.612881 0.276672 0.829113
O O3 0.137981 0.138184 0.768275
O O4 0.224632 0.124243 0.005659
O O5 0.808481 0.081897 0.613657
O O6 0.693094 0.890990 0.772156
O O7 0.341347 0.897181 0.629041
O O8 0.391042 0.549267 0.292633
O O9 0.164780 0.489679 0.104705
O O10 0.743979 0.634751 0.069154
O O11 0.500000 0.500000 0.500000
O O12 0.408772 0.289350 0.568429
O O13 0.000000 0.500000 0.500000
O O14 0.874820 0.729237 0.858105
O O15 0.320846 0.708867 0.921029
O O16 0.306302 0.068650 0.563070
#
# Coordination Sequence:
#
# PCOD9046800 Si02
#       8
#     2   2   2   2   2   2   2   1
#     4   9  22  40  66  97 132 170 215 274 329 406
#     4  11  24  42  69  95 134 181 220 277 336 405
#     4   9  22  45  69  93 139 177 225 270 349 399
#     4  11  27  44  69 102 133 176 231 285 329 397
#     4  11  25  41  67 106 137 168 228 273 335 400
#     4  10  24  43  68 102 135 182 215 282 339 405
#     4  10  24  44  69  93 130 183 221 276 346 395
#     4  10  24  44  64  92 132 180 230 270 328 404
#
# _framework density 24.570032999999999
#
# number of rings (size 3 to 8) (size 9 to 14) (size 15 to 20)
#    0.000    1.867    0.000    0.800   14.933    9.600 
#    0.000    0.000    0.000    0.000    0.000    0.000 
#    0.000    0.000    0.000    0.000    0.000    0.000 
#
# Total GULP energy -83640.280043 kJ/mol
# GULP energy per Si atom -5576.018670 kJ/mol
# Density = 2.451411 g / cm^3
# Si number density = 24.570033 Si / 1000 Ang^3
#
#
#
# Elastic Constant Matrix: (Units=GPa)
#
#
# Indices 1 2 3 4 5 6 
#
# 1 92.1886 9.4034 15.7495 -13.1973 6.1341 6.2006
# 2 9.4034 57.4838 37.6938 -7.2795 11.9257 15.8976
# 3 15.7495 37.6938 136.1722 -18.1590 13.0874 -8.3482
# 4 -13.1973 -7.2795 -18.1590 42.2635 -7.5592 -0.3667
# 5 6.1341 11.9257 13.0874 -7.5592 34.3467 -15.1136
# 6 6.2006 15.8976 -8.3482 -0.3667 -15.1136 42.0625
#
#
#
# Elastic Compliance Matrix: (Units=1/GPa)
#
#
# Indices 1 2 3 4 5 6 
#
# 1 0.011757 0.000510 -0.001063 0.002812 -0.002592 -0.003043
# 2 0.000510 0.031814 -0.008631 -0.001261 -0.016877 -0.019887
# 3 -0.001063 -0.008631 0.010415 0.003212 0.002793 0.006517
# 4 0.002812 -0.001261 0.003212 0.026795 0.005962 0.003075
# 5 -0.002592 -0.016877 0.002793 0.005962 0.046238 0.023981
# 6 -0.003043 -0.019887 0.006517 0.003075 0.023981 0.041676
#
#
# Mechanical properties :
#
#
# Convention : Reuss Voigt Hill
#
# Bulk Modulus (GPa) = 28.07639 45.72642 36.90140
# Shear Modulus (GPa) = 25.13362 38.60107 31.86735
#
# Velocity S-wave (km/s) = 3.20181 3.96796 3.60530
# Velocity P-wave (km/s) = 5.01205 6.29635 5.69055
#
# Compressibility (1/GPa) = 0.03561711
#
# Stress axis : x y z
#
# Youngs Moduli (GPa) = 85.05755 31.43278 96.01358
#
# Poissons Ratio (x) = -0.01602 0.10209
# Poissons Ratio (y) = -0.04334 0.82866
# Poissons Ratio (z) = 0.09044 0.27128
#
# Static dielectric constant tensor:
#      x y z
#    x 1.595640 -0.147870 -0.522430 
#    y -0.147870 1.895570 -0.398150 
#    z -0.522430 -0.398150 1.159120 
# 
# From -- ./inp_files/66369.got.cif
#   From: 2010.05.17/outbox.cif.g08.bks.cpg/sg2_34_cif.got.tgz:66369.got - 2010.06.03 11:33:40.
