data_PCOD9046487
_publ_section_title
;
Structure prediction by ZEFSAII (Michael W. Deem and Ramdas Pophale) SiO2 
 PCOD9046487
Probable space group: P -1
;
_chemical_formula_sum "Si O2"
_cell_formula_units_Z 16
_cell_length_a 14.930299
_cell_length_b 14.965610
_cell_length_c 4.854982
_cell_angle_alpha 86.883521
_cell_angle_beta 76.949992
_cell_angle_gamma 142.798350
_cell_volume 586.265126
_symmetry_space_group_name_H-M "P -1"
_symmetry_group_IT_number 2
_symmetry_cell_setting 'triclinic'
loop_
_space_group_symop_operation_xyz
x,y,z
-x,-y,-z
loop_
_atom_site_type_symbol
_atom_site_label
_atom_site_fract_x
_atom_site_fract_y
_atom_site_fract_z
Si Si1 0.103156 0.943146 0.606802
Si Si2 0.709516 0.050694 0.777855
Si Si3 0.653300 0.261995 0.885163
Si Si4 0.676839 0.747298 0.282298
Si Si5 0.793087 0.276443 0.308052
Si Si6 0.746366 0.691054 0.731216
Si Si7 0.356671 0.563332 0.799690
Si Si8 0.988089 0.678536 0.080816
O O1 0.252915 0.021481 0.318075
O O2 0.042140 0.808101 0.843295
O O3 0.944913 0.844595 0.558606
O O4 0.166893 0.070638 0.744176
O O5 0.700554 0.113800 0.523441
O O6 0.877960 0.214634 0.788711
O O7 0.531877 0.908641 0.067935
O O8 0.779046 0.340923 0.539304
O O9 0.644324 0.351293 0.016632
O O10 0.704320 0.237806 0.102240
O O11 0.676326 0.657034 0.486890
O O12 0.301721 0.265234 0.042868
O O13 0.518633 0.677227 0.487720
O O14 0.974736 0.382655 0.101329
O O15 0.677333 0.548446 0.957804
O O16 0.202587 0.455584 0.717976
#
# Coordination Sequence:
#
# PCOD9046487 Si02
#       8
#     2   2   2   2   2   2   2   2
#     4  10  24  42  74 109 140 184 240 290 356 414
#     4  11  23  45  74 105 146 184 237 292 351 419
#     4  12  26  44  75 103 144 183 245 291 346 424
#     4  12  25  49  73 106 138 187 241 296 348 431
#     4  11  25  46  71 107 140 190 237 291 350 412
#     4  11  27  46  74 102 146 183 234 297 364 417
#     4  11  27  50  69 110 144 194 231 297 361 422
#     4  10  25  47  73 105 153 188 232 291 358 424
#
# _framework density 27.291405000000001
#
# number of rings (size 3 to 8) (size 9 to 14) (size 15 to 20)
#    0.000    1.000    2.500    2.250    8.750    3.000 
#    9.000    0.000    0.000    0.000    0.000    0.000 
#    0.000    0.000    0.000    0.000    0.000    0.000 
#
# Total GULP energy -89815.520214 kJ/mol
# GULP energy per Si atom -5613.470013 kJ/mol
# Density = 2.722929 g / cm^3
# Si number density = 27.291405 Si / 1000 Ang^3
#
#
#
# Elastic Constant Matrix: (Units=GPa)
#
#
# Indices 1 2 3 4 5 6 
#
# 1 167.3675 52.9996 52.5090 -4.9554 -15.1204 2.8987
# 2 52.9996 107.2861 14.4440 11.9630 -7.3971 16.9194
# 3 52.5090 14.4440 90.4835 16.4967 -13.4365 17.3816
# 4 -4.9554 11.9630 16.4967 36.7046 3.7137 -5.5953
# 5 -15.1204 -7.3971 -13.4365 3.7137 47.7729 -1.7304
# 6 2.8987 16.9194 17.3816 -5.5953 -1.7304 56.5470
#
#
#
# Elastic Compliance Matrix: (Units=1/GPa)
#
#
# Indices 1 2 3 4 5 6 
#
# 1 0.009983 -0.005374 -0.006927 0.006807 -0.000009 0.003899
# 2 -0.005374 0.013347 0.003754 -0.007799 0.001826 -0.005588
# 3 -0.006927 0.003754 0.018811 -0.012216 0.004353 -0.007626
# 4 0.006807 -0.007799 -0.012216 0.038140 -0.005115 0.009357
# 5 -0.000009 0.001826 0.004353 -0.005115 0.022773 -0.001693
# 6 0.003899 -0.005588 -0.007626 0.009357 -0.001693 0.022375
#
#
# Mechanical properties :
#
#
# Convention : Reuss Voigt Hill
#
# Bulk Modulus (GPa) = 39.92289 67.22692 53.57490
# Shear Modulus (GPa) = 33.14128 44.55054 38.84591
#
# Velocity S-wave (km/s) = 3.48853 4.04468 3.77686
# Velocity P-wave (km/s) = 5.55757 6.81902 6.22036
#
# Compressibility (1/GPa) = 0.02504829
#
# Stress axis : x y z
#
# Youngs Moduli (GPa) = 100.17128 74.92470 53.16139
#
# Poissons Ratio (x) = 0.40261 0.36824
# Poissons Ratio (y) = 0.53827 -0.19958
# Poissons Ratio (z) = 0.69386 -0.28129
#
# Static dielectric constant tensor:
#      x y z
#    x 2.090710 -0.049170 -0.018990 
#    y -0.049170 2.150750 -0.003410 
#    z -0.018990 -0.003410 2.093760 
# 
# From -- ./inp_files/99605.got.cif
#   From: 2010.05.17/outbox.cif.g08.bks.cpg/sg2_50_cif.got.tgz:99605.got - 2010.06.03 11:33:40.
