data_PCOD9046752
_publ_section_title
;
Structure prediction by ZEFSAII (Michael W. Deem and Ramdas Pophale) SiO2 
 PCOD9046752
Probable space group: P -1
;
_chemical_formula_sum "Si O2"
_cell_formula_units_Z 12
_cell_length_a 12.484001
_cell_length_b 7.906119
_cell_length_c 5.310314
_cell_angle_alpha 79.633562
_cell_angle_beta 116.521244
_cell_angle_gamma 117.502590
_cell_volume 415.746938
_symmetry_space_group_name_H-M "P -1"
_symmetry_group_IT_number 2
_symmetry_cell_setting 'triclinic'
loop_
_space_group_symop_operation_xyz
x,y,z
-x,-y,-z
loop_
_atom_site_type_symbol
_atom_site_label
_atom_site_fract_x
_atom_site_fract_y
_atom_site_fract_z
Si Si1 0.914119 0.963705 0.168868
Si Si2 0.350575 0.332923 0.176462
Si Si3 0.693588 0.142418 0.399301
Si Si4 0.796515 0.505363 0.711155
Si Si5 0.082872 0.684169 0.760745
Si Si6 0.516766 0.770678 0.099937
O O1 0.862804 0.128447 0.056972
O O2 0.788627 0.762977 0.095760
O O3 0.000000 0.000000 0.500000
O O4 0.000000 0.000000 0.000000
O O5 0.280677 0.365877 0.353521
O O6 0.451754 0.553510 0.180037
O O7 0.422475 0.225578 0.115521
O O8 0.697360 0.293785 0.569912
O O9 0.845300 0.223775 0.447062
O O10 0.621128 0.911750 0.379372
O O11 0.606565 0.176592 0.076514
O O12 0.924589 0.597963 0.638244
O O13 0.867137 0.466094 0.041993
#
# Coordination Sequence:
#
# PCOD9046752 Si02
#       6
#     2   2   2   2   2   2
#     4  12  28  47  78 110 150 193 246 313 380 440
#     4  11  23  46  67 105 142 187 246 300 362 438
#     4  11  23  44  69 100 137 192 235 301 368 439
#     4  11  25  42  75 102 139 185 244 308 371 434
#     4  11  24  45  69 106 140 182 243 306 374 434
#     4  10  24  43  67  97 149 187 241 300 353 451
#
# _framework density 28.863714000000002
#
# number of rings (size 3 to 8) (size 9 to 14) (size 15 to 20)
#    0.000    1.000    5.000    0.500    4.667    1.333 
#    0.000    3.333    0.000    0.000    0.000    0.000 
#    0.000    0.000    0.000    0.000    0.000    0.000 
#
# Total GULP energy -67026.422103 kJ/mol
# GULP energy per Si atom -5585.535175 kJ/mol
# Density = 2.879802 g / cm^3
# Si number density = 28.863714 Si / 1000 Ang^3
#
#
#
# Elastic Constant Matrix: (Units=GPa)
#
#
# Indices 1 2 3 4 5 6 
#
# 1 176.3540 39.8896 51.1172 9.4238 -8.7456 17.0257
# 2 39.8896 114.4578 38.9971 59.5244 10.3163 11.9611
# 3 51.1172 38.9971 94.0445 20.9151 -11.2733 25.7759
# 4 9.4238 59.5244 20.9151 53.5240 -4.2032 -0.0838
# 5 -8.7456 10.3163 -11.2733 -4.2032 50.8607 2.8243
# 6 17.0257 11.9611 25.7759 -0.0838 2.8243 60.3051
#
#
#
# Elastic Compliance Matrix: (Units=1/GPa)
#
#
# Indices 1 2 3 4 5 6 
#
# 1 0.007323 -0.003986 -0.003111 0.004497 0.001751 -0.000023
# 2 -0.003986 0.027720 -0.003128 -0.029638 -0.009304 -0.002641
# 3 -0.003111 -0.003128 0.016026 -0.001946 0.003798 -0.005532
# 4 0.004497 -0.029638 -0.001946 0.052437 0.010408 0.005026
# 5 0.001751 -0.009304 0.003798 0.010408 0.023627 -0.001364
# 6 -0.000023 -0.002641 -0.005532 0.005026 -0.001364 0.019548
#
#
# Mechanical properties :
#
#
# Convention : Reuss Voigt Hill
#
# Bulk Modulus (GPa) = 32.66102 71.65156 52.15629
# Shear Modulus (GPa) = 28.19505 49.92813 39.06159
#
# Velocity S-wave (km/s) = 3.12882 4.16358 3.68273
# Velocity P-wave (km/s) = 4.93892 6.92762 6.01601
#
# Compressibility (1/GPa) = 0.03061753
#
# Stress axis : x y z
#
# Youngs Moduli (GPa) = 136.56500 36.07568 62.40033
#
# Poissons Ratio (x) = 0.14379 0.19414
# Poissons Ratio (y) = 0.54433 0.19518
# Poissons Ratio (z) = 0.42488 0.11284
#
# Static dielectric constant tensor:
#      x y z
#    x 2.211590 -0.079110 -0.029850 
#    y -0.079110 2.399980 -0.054870 
#    z -0.029850 -0.054870 2.279010 
# 
# From -- ./inp_files/25588.got.cif
#   From: 2010.05.17/outbox.cif.g08.bks.cpg/sg2_13_cif.got.tgz:25588.got - 2010.06.03 11:33:40.
