data_PCOD9046841
_publ_section_title
;
Structure prediction by ZEFSAII (Michael W. Deem and Ramdas Pophale) SiO2 
 PCOD9046841
Probable space group: P -1
;
_chemical_formula_sum "Si O2"
_cell_formula_units_Z 14
_cell_length_a 6.592542
_cell_length_b 11.603864
_cell_length_c 10.824010
_cell_angle_alpha 76.118240
_cell_angle_beta 131.736984
_cell_angle_gamma 108.897220
_cell_volume 584.229949
_symmetry_space_group_name_H-M "P -1"
_symmetry_group_IT_number 2
_symmetry_cell_setting 'triclinic'
loop_
_space_group_symop_operation_xyz
x,y,z
-x,-y,-z
loop_
_atom_site_type_symbol
_atom_site_label
_atom_site_fract_x
_atom_site_fract_y
_atom_site_fract_z
Si Si1 0.865859 0.113790 0.392750
Si Si2 0.172650 0.859361 0.345673
Si Si3 0.249565 0.517350 0.002511
Si Si4 0.263321 0.074805 0.161373
Si Si5 0.302461 0.291706 0.966940
Si Si6 0.323034 0.496355 0.616669
Si Si7 0.601341 0.705979 0.487194
O O1 0.815379 0.161521 0.498121
O O2 0.560481 0.068354 0.224185
O O3 0.088001 0.214411 0.384583
O O4 0.000000 0.000000 0.500000
O O5 0.394088 0.798351 0.378683
O O6 0.869793 0.794314 0.185592
O O7 0.238625 0.003105 0.299750
O O8 0.379752 0.647424 0.959519
O O9 0.511110 0.492040 0.191894
O O10 0.164992 0.406987 0.900964
O O11 0.000000 0.500000 0.000000
O O12 0.268677 0.215507 0.100666
O O13 0.000000 0.000000 0.000000
O O14 0.476801 0.607214 0.564817
O O15 0.369686 0.372649 0.602815
O O16 0.000000 0.500000 0.500000
#
# Coordination Sequence:
#
# PCOD9046841 Si02
#       7
#     2   2   2   2   2   2   2
#     4  12  25  42  73 102 133 177 232 278 336 401
#     4  11  23  47  68  98 139 180 221 282 337 405
#     4  11  24  42  67  96 133 180 222 272 339 399
#     4  10  24  46  68  97 136 178 220 281 343 401
#     4  10  24  43  68  94 139 174 224 276 335 399
#     4  11  25  43  68 104 137 178 226 279 334 396
#     4  11  24  40  72 100 138 175 229 275 336 394
#
# _framework density 23.963169000000001
#
# number of rings (size 3 to 8) (size 9 to 14) (size 15 to 20)
#    0.000    1.143    1.429    3.857    6.000    2.286 
#    0.000    1.429    0.000    0.000    0.000    0.000 
#    0.000    0.000    0.000    0.000    0.000    0.000 
#
# Total GULP energy -78249.999115 kJ/mol
# GULP energy per Si atom -5589.285651 kJ/mol
# Density = 2.390863 g / cm^3
# Si number density = 23.963169 Si / 1000 Ang^3
#
#
#
# Elastic Constant Matrix: (Units=GPa)
#
#
# Indices 1 2 3 4 5 6 
#
# 1 138.0815 62.3127 20.6149 4.4933 16.0066 28.8019
# 2 62.3127 142.4899 22.3397 2.2286 8.0522 37.9826
# 3 20.6149 22.3397 72.1477 4.4899 16.9495 11.6851
# 4 4.4933 2.2286 4.4899 27.7608 11.5689 -0.2542
# 5 16.0066 8.0522 16.9495 11.5689 36.5581 3.0539
# 6 28.8019 37.9826 11.6851 -0.2542 3.0539 55.9650
#
#
#
# Elastic Compliance Matrix: (Units=1/GPa)
#
#
# Indices 1 2 3 4 5 6 
#
# 1 0.009693 -0.003319 -0.000639 0.000039 -0.003026 -0.002437
# 2 -0.003319 0.009946 -0.001440 -0.000240 0.000404 -0.004765
# 3 -0.000639 -0.001440 0.016385 0.000472 -0.007005 -0.001731
# 4 0.000039 -0.000240 0.000472 0.041558 -0.013415 0.000965
# 5 -0.003026 0.000404 -0.007005 -0.013415 0.036022 0.000719
# 6 -0.002437 -0.004765 -0.001731 0.000965 0.000719 0.022683
#
#
# Mechanical properties :
#
#
# Convention : Reuss Voigt Hill
#
# Bulk Modulus (GPa) = 39.63517 62.58372 51.10944
# Shear Modulus (GPa) = 32.15602 40.55359 36.35481
#
# Velocity S-wave (km/s) = 3.66716 4.11826 3.89924
# Velocity P-wave (km/s) = 5.87424 6.98475 6.45343
#
# Compressibility (1/GPa) = 0.02523012
#
# Stress axis : x y z
#
# Youngs Moduli (GPa) = 103.16772 100.54194 61.03012
#
# Poissons Ratio (x) = 0.33366 0.03899
# Poissons Ratio (y) = 0.34237 0.08786
# Poissons Ratio (z) = 0.06591 0.14475
#
# Static dielectric constant tensor:
#      x y z
#    x 1.961230 0.004130 -0.036810 
#    y 0.004130 1.970560 -0.026280 
#    z -0.036810 -0.026280 1.952890 
# 
# From -- ./inp_files/323618.got.cif
#   From: 2010.05.17/outbox.cif.g08.bks.cpg/sg2_162_cif.got.tgz:323618.got - 2010.06.03 11:33:40.
