data_PCOD9046907
_publ_section_title
;
Structure prediction by ZEFSAII (Michael W. Deem and Ramdas Pophale) SiO2 
 PCOD9046907
Probable space group: P -1
;
_chemical_formula_sum "Si O2"
_cell_formula_units_Z 14
_cell_length_a 5.347587
_cell_length_b 8.807120
_cell_length_c 11.981904
_cell_angle_alpha 101.842452
_cell_angle_beta 85.976191
_cell_angle_gamma 93.115407
_cell_volume 550.476029
_symmetry_space_group_name_H-M "P -1"
_symmetry_group_IT_number 2
_symmetry_cell_setting 'triclinic'
loop_
_space_group_symop_operation_xyz
x,y,z
-x,-y,-z
loop_
_atom_site_type_symbol
_atom_site_label
_atom_site_fract_x
_atom_site_fract_y
_atom_site_fract_z
Si Si1 0.871172 0.426950 0.132152
Si Si2 0.437240 0.098828 0.625642
Si Si3 0.674380 0.403201 0.562950
Si Si4 0.290472 0.042845 0.195819
Si Si5 0.894568 0.791564 0.178986
Si Si6 0.394048 0.265962 0.031140
Si Si7 0.027816 0.679237 0.665930
O O1 0.929778 0.609758 0.161769
O O2 0.638280 0.379783 0.052744
O O3 0.785975 0.366565 0.248312
O O4 0.130118 0.346529 0.081132
O O5 0.547564 0.273266 0.625620
O O6 0.161910 0.135175 0.686744
O O7 0.500000 0.000000 0.500000
O O8 0.549179 0.005201 0.710654
O O9 0.500000 0.500000 0.500000
O O10 0.851704 0.313379 0.458196
O O11 0.830312 0.533302 0.645460
O O12 0.421197 0.130963 0.101477
O O13 0.101644 0.167303 0.270513
O O14 0.123217 0.894213 0.137788
O O15 0.662925 0.798355 0.100380
#
# Coordination Sequence:
#
# PCOD9046907 Si02
#       7
#     2   2   2   2   2   2   2
#     4  11  26  47  80 112 149 193 256 312 376 446
#     4  12  28  43  73 107 151 194 250 311 376 447
#     4  11  23  42  72 101 142 198 254 306 374 442
#     4  11  27  45  72 103 154 191 249 304 384 445
#     4  12  27  47  74 111 149 196 248 317 376 443
#     4  11  28  49  80 110 151 200 253 309 377 454
#     4  10  24  43  69 102 144 196 248 311 368 449
#
# _framework density 25.432531999999998
#
# number of rings (size 3 to 8) (size 9 to 14) (size 15 to 20)
#    0.000    0.857    0.000    4.714   18.000    5.143 
#    0.000    0.000    0.000    0.000    0.000    0.000 
#    0.000    0.000    0.000    0.000    0.000    0.000 
#
# Total GULP energy -78455.198655 kJ/mol
# GULP energy per Si atom -5603.942761 kJ/mol
# Density = 2.537465 g / cm^3
# Si number density = 25.432532 Si / 1000 Ang^3
#
#
#
# Elastic Constant Matrix: (Units=GPa)
#
#
# Indices 1 2 3 4 5 6 
#
# 1 70.8785 23.1653 21.5223 9.1984 2.3846 -1.0931
# 2 23.1653 126.3874 39.7186 -11.5071 -20.4779 -7.6164
# 3 21.5223 39.7186 116.2405 11.6025 1.5268 -17.4893
# 4 9.1984 -11.5071 11.6025 49.8655 -1.3117 6.6896
# 5 2.3846 -20.4779 1.5268 -1.3117 36.5522 -7.9305
# 6 -1.0931 -7.6164 -17.4893 6.6896 -7.9305 36.7127
#
#
#
# Elastic Compliance Matrix: (Units=1/GPa)
#
#
# Indices 1 2 3 4 5 6 
#
# 1 0.016225 -0.003344 -0.001652 -0.003319 -0.003218 -0.001088
# 2 -0.003344 0.011225 -0.003507 0.004028 0.007092 0.001356
# 3 -0.001652 -0.003507 0.011258 -0.003829 -0.001383 0.004985
# 4 -0.003319 0.004028 -0.003829 0.023193 0.002426 -0.004789
# 5 -0.003218 0.007092 -0.001383 0.002426 0.033307 0.007469
# 6 -0.001088 0.001356 0.004985 -0.004789 0.007469 0.032348
#
#
# Mechanical properties :
#
#
# Convention : Reuss Voigt Hill
#
# Bulk Modulus (GPa) = 46.07965 53.59098 49.83531
# Shear Modulus (GPa) = 32.93892 39.89941 36.41916
#
# Velocity S-wave (km/s) = 3.60272 3.96515 3.78827
# Velocity P-wave (km/s) = 5.95515 6.48697 6.22674
#
# Compressibility (1/GPa) = 0.02170155
#
# Stress axis : x y z
#
# Youngs Moduli (GPa) = 61.63192 89.08753 88.82927
#
# Poissons Ratio (x) = 0.29791 0.14672
# Poissons Ratio (y) = 0.20610 0.31156
# Poissons Ratio (z) = 0.10180 0.31247
#
# Static dielectric constant tensor:
#      x y z
#    x 2.047640 -0.044690 -0.004920 
#    y -0.044690 1.969230 0.004450 
#    z -0.004920 0.004450 2.029670 
# 
# From -- ./inp_files/360859.got.cif
#   From: 2010.05.17/outbox.cif.g08.bks.cpg/sg2_181_cif.got.tgz:360859.got - 2010.06.03 11:33:40.
