data_PCOD9046084
_publ_section_title
;
Structure prediction by ZEFSAII (Michael W. Deem and Ramdas Pophale) SiO2 
 PCOD9046084
Probable space group: P -1
;
_chemical_formula_sum "Si O2"
_cell_formula_units_Z 12
_cell_length_a 14.914206
_cell_length_b 7.686575
_cell_length_c 5.100096
_cell_angle_alpha 64.635744
_cell_angle_beta 88.360883
_cell_angle_gamma 111.179010
_cell_volume 480.818558
_symmetry_space_group_name_H-M "P -1"
_symmetry_group_IT_number 2
_symmetry_cell_setting 'triclinic'
loop_
_space_group_symop_operation_xyz
x,y,z
-x,-y,-z
loop_
_atom_site_type_symbol
_atom_site_label
_atom_site_fract_x
_atom_site_fract_y
_atom_site_fract_z
Si Si1 0.389475 0.928848 0.158992
Si Si2 0.836766 0.487978 0.289542
Si Si3 0.345144 0.493354 0.533789
Si Si4 0.537988 0.703824 0.679979
Si Si5 0.983322 0.119652 0.170314
Si Si6 0.200361 0.789667 0.011858
O O1 0.339684 0.679010 0.237139
O O2 0.300036 0.968711 0.006772
O O3 0.409918 0.073918 0.324916
O O4 0.500000 0.000000 0.000000
O O5 0.763244 0.603896 0.274177
O O6 0.849569 0.377351 0.630681
O O7 0.934822 0.642221 0.034676
O O8 0.780687 0.311243 0.192763
O O9 0.432882 0.665668 0.590619
O O10 0.391934 0.350439 0.489519
O O11 0.500000 0.500000 0.000000
O O12 0.000000 0.000000 0.500000
O O13 0.877249 0.121717 0.144778
O O14 0.000000 0.000000 0.000000
#
# Coordination Sequence:
#
# PCOD9046084 Si02
#       6
#     2   2   2   2   2   2
#     4  11  22  43  70 103 150 195 254 302 372 452
#     4  11  24  48  76 103 150 195 254 304 382 453
#     4  10  24  42  67 103 142 202 248 306 375 442
#     4  11  22  41  66 101 150 192 250 306 371 442
#     4  12  26  49  75 114 149 187 250 322 383 444
#     4  11  25  47  76 107 144 207 251 304 377 457
#
# _framework density 24.957439999999998
#
# number of rings (size 3 to 8) (size 9 to 14) (size 15 to 20)
#    0.000    1.000    1.667    4.500    2.333    2.667 
#    9.000    0.000    0.000    0.000    0.000    0.000 
#    0.000    0.000    0.000    0.000    0.000    0.000 
#
# Total GULP energy -66861.384980 kJ/mol
# GULP energy per Si atom -5571.782082 kJ/mol
# Density = 2.490064 g / cm^3
# Si number density = 24.957440 Si / 1000 Ang^3
#
#
#
# Elastic Constant Matrix: (Units=GPa)
#
#
# Indices 1 2 3 4 5 6 
#
# 1 168.6509 35.0426 9.4948 15.5861 -3.9217 8.4970
# 2 35.0426 116.6583 9.9675 18.1303 -9.2370 -1.4584
# 3 9.4948 9.9675 116.7466 -4.5706 6.2604 14.4675
# 4 15.5861 18.1303 -4.5706 45.3279 10.0044 -2.4937
# 5 -3.9217 -9.2370 6.2604 10.0044 30.8617 6.1482
# 6 8.4970 -1.4584 14.4675 -2.4937 6.1482 32.0069
#
#
#
# Elastic Compliance Matrix: (Units=1/GPa)
#
#
# Indices 1 2 3 4 5 6 
#
# 1 0.006609 -0.001525 -0.000309 -0.002160 0.001575 -0.002155
# 2 -0.001525 0.010229 -0.001200 -0.004694 0.004600 0.000164
# 3 -0.000309 -0.001200 0.009330 0.001802 -0.002151 -0.003636
# 4 -0.002160 -0.004694 0.001802 0.027689 -0.011812 0.003971
# 5 0.001575 0.004600 -0.002151 -0.011812 0.039799 -0.007802
# 6 -0.002155 0.000164 -0.003636 0.003971 -0.007802 0.035274
#
#
# Mechanical properties :
#
#
# Convention : Reuss Voigt Hill
#
# Bulk Modulus (GPa) = 49.75678 56.78506 53.27092
# Shear Modulus (GPa) = 35.28648 44.80937 40.04793
#
# Velocity S-wave (km/s) = 3.76422 4.24185 4.01015
# Velocity P-wave (km/s) = 6.23477 6.84056 6.54468
#
# Compressibility (1/GPa) = 0.02009776
#
# Stress axis : x y z
#
# Youngs Moduli (GPa) = 151.31942 97.76573 107.18536
#
# Poissons Ratio (x) = 0.14912 0.03314
# Poissons Ratio (y) = 0.23080 0.12862
# Poissons Ratio (z) = 0.04679 0.11732
#
# Static dielectric constant tensor:
#      x y z
#    x 1.863700 0.135380 -0.202090 
#    y 0.135380 1.934910 0.034130 
#    z -0.202090 0.034130 1.972280 
# 
# From -- ./inp_files/86127.got.cif
#   From: 2010.05.17/outbox.cif.g08.bks.cpg/sg2_44_cif.got.tgz:86127.got - 2010.06.03 11:33:40.
