data_PCOD9046848
_publ_section_title
;
Structure prediction by ZEFSAII (Michael W. Deem and Ramdas Pophale) SiO2 
 PCOD9046848
Probable space group: P -1
;
_chemical_formula_sum "Si O2"
_cell_formula_units_Z 16
_cell_length_a 7.000039
_cell_length_b 21.210955
_cell_length_c 8.576085
_cell_angle_alpha 132.011303
_cell_angle_beta 60.188884
_cell_angle_gamma 105.031655
_cell_volume 815.584626
_symmetry_space_group_name_H-M "P -1"
_symmetry_group_IT_number 2
_symmetry_cell_setting 'triclinic'
loop_
_space_group_symop_operation_xyz
x,y,z
-x,-y,-z
loop_
_atom_site_type_symbol
_atom_site_label
_atom_site_fract_x
_atom_site_fract_y
_atom_site_fract_z
Si Si1 0.068841 0.036473 0.697679
Si Si2 0.987656 0.802130 0.577178
Si Si3 0.212555 0.202762 0.002309
Si Si4 0.690470 0.939557 0.743293
Si Si5 0.719313 0.608464 0.787371
Si Si6 0.405534 0.901556 0.495690
Si Si7 0.989882 0.493262 0.744391
Si Si8 0.795423 0.386021 0.901099
O O1 0.286542 0.986659 0.603419
O O2 0.064037 0.137377 0.870735
O O3 0.000000 0.000000 0.500000
O O4 0.879178 0.000036 0.810165
O O5 0.870990 0.797208 0.785343
O O6 0.798845 0.850022 0.621103
O O7 0.206516 0.853544 0.570952
O O8 0.078082 0.708528 0.324288
O O9 0.201387 0.297454 0.096312
O O10 0.461719 0.158702 0.788825
O O11 0.586965 0.921715 0.585361
O O12 0.500000 0.000000 0.000000
O O13 0.804018 0.563613 0.516375
O O14 0.846627 0.549154 0.767805
O O15 0.458478 0.615857 0.945182
O O16 0.833412 0.433769 0.801206
O O17 0.086380 0.558481 0.930562
#
# Coordination Sequence:
#
# PCOD9046848 Si02
#       8
#     2   2   2   2   2   2   2   2
#     4  11  24  40  65  94 125 170 221 261 318 377
#     4  11  25  41  64  99 129 169 219 266 315 382
#     4  12  23  42  66  91 132 168 215 266 316 377
#     4  11  24  43  65  91 132 175 218 265 319 374
#     4  11  23  43  68  95 129 167 211 262 325 383
#     4  11  24  44  65  90 132 172 214 268 318 375
#     4  10  24  43  68  96 126 167 210 261 326 394
#     4  11  22  43  68  94 132 163 210 265 323 382
#
# _framework density 19.617830000000001
#
# number of rings (size 3 to 8) (size 9 to 14) (size 15 to 20)
#    0.000    1.000    3.750    2.625    3.500    2.000 
#    0.000    0.000    0.000    0.000    0.000    0.000 
#    0.000    0.000    0.000    0.000    0.000    0.000 
#
# Total GULP energy -89142.762735 kJ/mol
# GULP energy per Si atom -5571.422671 kJ/mol
# Density = 1.957318 g / cm^3
# Si number density = 19.617830 Si / 1000 Ang^3
#
#
#
# Elastic Constant Matrix: (Units=GPa)
#
#
# Indices 1 2 3 4 5 6 
#
# 1 72.4297 -34.2844 1.0022 -10.2353 7.7758 37.4389
# 2 -34.2844 -210.8870 -151.1993 -64.9743 61.9698 153.9448
# 3 1.0022 -151.1993 25.8668 -48.4050 27.8589 94.4448
# 4 -10.2353 -64.9743 -48.4050 19.9182 23.4252 33.4198
# 5 7.7758 61.9698 27.8589 23.4252 23.9951 -28.4942
# 6 37.4389 153.9448 94.4448 33.4198 -28.4942 -33.5406
#
#
#
# Elastic Compliance Matrix: (Units=1/GPa)
#
#
# Indices 1 2 3 4 5 6 
#
# 1 0.014392 -0.001837 -0.003030 -0.001565 0.001100 -0.003390
# 2 -0.001837 0.006170 -0.003840 -0.005727 0.003130 0.007090
# 3 -0.003030 -0.003840 0.008548 0.000803 0.002378 0.001842
# 4 -0.001565 -0.005727 0.000803 0.027926 -0.005206 0.006477
# 5 0.001100 0.003130 0.002378 -0.005206 0.027810 -0.006524
# 6 -0.003390 0.007090 0.001842 0.006477 -0.006524 0.016127
#
#
# Mechanical properties :
#
#
# Convention : Reuss Voigt Hill
#
# Bulk Modulus (GPa) = 85.49407 -53.50594 15.99406
# Shear Modulus (GPa) = 40.88850 6.86725 23.87788
#
# Velocity S-wave (km/s) = 4.57031 1.87300 3.49256
# Velocity P-wave (km/s) = 8.45723 4.75982 4.94312
#
# Compressibility (1/GPa) = 0.01169672
#
# Stress axis : x y z
#
# Youngs Moduli (GPa) = 69.48332 162.07941 116.99052
#
# Poissons Ratio (x) = 0.29768 0.35445
# Poissons Ratio (y) = 0.12762 0.44924
# Poissons Ratio (z) = 0.21052 0.62238
#
# Static dielectric constant tensor:
#      x y z
#    x 1.625080 -0.020000 0.043030 
#    y -0.020000 1.729590 -0.051310 
#    z 0.043030 -0.051310 1.672600 
# 
# From -- ./inp_files/52255.got.cif
#   From: 2010.05.17/outbox.cif.g08.bks.cpg/sg2_27_cif.got.tgz:52255.got - 2010.06.03 11:33:40.
