data_PCOD9046101
_publ_section_title
;
Structure prediction by ZEFSAII (Michael W. Deem and Ramdas Pophale) SiO2 
 PCOD9046101
Probable space group: P -1
;
_chemical_formula_sum "Si O2"
_cell_formula_units_Z 16
_cell_length_a 17.303672
_cell_length_b 12.629309
_cell_length_c 11.346159
_cell_angle_alpha 109.830668
_cell_angle_beta 137.393354
_cell_angle_gamma 34.510254
_cell_volume 682.084155
_symmetry_space_group_name_H-M "P -1"
_symmetry_group_IT_number 2
_symmetry_cell_setting 'triclinic'
loop_
_space_group_symop_operation_xyz
x,y,z
-x,-y,-z
loop_
_atom_site_type_symbol
_atom_site_label
_atom_site_fract_x
_atom_site_fract_y
_atom_site_fract_z
Si Si1 0.511919 0.737696 0.812484
Si Si2 0.038591 0.838053 0.522712
Si Si3 0.273524 0.241649 0.049298
Si Si4 0.749284 0.324950 0.053857
Si Si5 0.582133 0.250880 0.765766
Si Si6 0.888211 0.847121 0.139317
Si Si7 0.727068 0.664089 0.669684
Si Si8 0.319754 0.771615 0.395370
O O1 0.240271 0.960534 0.662357
O O2 0.607477 0.779968 0.919844
O O3 0.459620 0.738294 0.622716
O O4 0.715656 0.471017 0.001259
O O5 0.075873 0.724913 0.408510
O O6 0.000000 0.000000 0.500000
O O7 0.237395 0.657526 0.787041
O O8 0.377083 0.179872 0.274017
O O9 0.301393 0.083291 0.000255
O O10 0.951878 0.539167 0.810556
O O11 0.526463 0.433824 0.805918
O O12 0.028548 0.019772 0.216960
O O13 0.461292 0.232840 0.592579
O O14 0.704506 0.165320 0.741325
O O15 0.743708 0.074449 0.997905
O O16 0.085326 0.607925 0.180879
O O17 0.500000 0.500000 0.500000
#
# Coordination Sequence:
#
# PCOD9046101 Si02
#       8
#     2   2   2   2   2   2   2   2
#     4  11  24  43  64  95 136 173 213 277 328 391
#     4  11  25  46  64  96 131 174 228 274 320 393
#     4   9  21  45  63  94 137 169 215 278 324 384
#     4  11  26  39  66  99 127 180 213 272 335 391
#     4  12  22  36  69  98 124 176 210 262 344 386
#     4  10  24  42  67  91 133 174 222 268 320 385
#     4   9  22  40  64  98 131 171 211 274 320 391
#     4  11  24  37  62 102 140 165 213 273 340 398
#
# _framework density 23.457515999999998
#
# number of rings (size 3 to 8) (size 9 to 14) (size 15 to 20)
#    0.750    0.750    3.750    0.375    5.250    2.500 
#    4.500    0.625    0.000    0.000    0.000    0.000 
#    0.000    0.000    0.000    0.000    0.000    0.000 
#
# Total GULP energy -89177.497407 kJ/mol
# GULP energy per Si atom -5573.593588 kJ/mol
# Density = 2.340413 g / cm^3
# Si number density = 23.457516 Si / 1000 Ang^3
#
#
#
# Elastic Constant Matrix: (Units=GPa)
#
#
# Indices 1 2 3 4 5 6 
#
# 1 132.3682 14.6831 36.7572 16.4745 11.3817 36.3751
# 2 14.6831 53.6261 9.0839 15.9539 -2.9186 16.7315
# 3 36.7572 9.0839 93.2982 32.6341 -4.2189 9.4084
# 4 16.4745 15.9539 32.6341 38.5139 -4.7499 0.6915
# 5 11.3817 -2.9186 -4.2189 -4.7499 36.3533 5.8198
# 6 36.3751 16.7315 9.4084 0.6915 5.8198 32.0798
#
#
#
# Elastic Compliance Matrix: (Units=1/GPa)
#
#
# Indices 1 2 3 4 5 6 
#
# 1 0.012671 0.002736 -0.002258 -0.004659 -0.002278 -0.014619
# 2 0.002736 0.027768 0.003459 -0.014917 0.002834 -0.018792
# 3 -0.002258 0.003459 0.016817 -0.014430 0.001720 -0.004178
# 4 -0.004659 -0.014917 -0.014430 0.046336 0.002092 0.015917
# 5 -0.002278 0.002834 0.001720 0.002092 0.029695 -0.004832
# 6 -0.014619 -0.018792 -0.004178 0.015917 -0.004832 0.059309
#
#
# Mechanical properties :
#
#
# Convention : Reuss Voigt Hill
#
# Bulk Modulus (GPa) = 15.35334 44.48233 29.91783
# Shear Modulus (GPa) = 24.22118 35.97395 30.09756
#
# Velocity S-wave (km/s) = 3.21683 3.92034 3.58588
# Velocity P-wave (km/s) = 4.51184 6.28460 5.47051
#
# Compressibility (1/GPa) = 0.06513242
#
# Stress axis : x y z
#
# Youngs Moduli (GPa) = 78.91940 36.01293 59.46226
#
# Poissons Ratio (x) = -0.09854 0.13424
# Poissons Ratio (y) = -0.21595 -0.20570
# Poissons Ratio (z) = 0.17817 -0.12458
#
# Static dielectric constant tensor:
#      x y z
#    x 1.919510 -0.053060 0.078580 
#    y -0.053060 1.991220 -0.091960 
#    z 0.078580 -0.091960 1.986930 
# 
# From -- ./inp_files/464699.got.cif
#   From: 2010.05.17/outbox.cif.g08.bks.cpg/sg2_233_cif.got.tgz:464699.got - 2010.06.03 11:33:40.
