data_PCOD9046929
_publ_section_title
;
Structure prediction by ZEFSAII (Michael W. Deem and Ramdas Pophale) SiO2 
 PCOD9046929
Probable space group: P -1
;
_chemical_formula_sum "Si O2"
_cell_formula_units_Z 14
_cell_length_a 8.444755
_cell_length_b 18.886435
_cell_length_c 7.383408
_cell_angle_alpha 139.698729
_cell_angle_beta 124.259067
_cell_angle_gamma 43.824766
_cell_volume 527.211740
_symmetry_space_group_name_H-M "P -1"
_symmetry_group_IT_number 2
_symmetry_cell_setting 'triclinic'
loop_
_space_group_symop_operation_xyz
x,y,z
-x,-y,-z
loop_
_atom_site_type_symbol
_atom_site_label
_atom_site_fract_x
_atom_site_fract_y
_atom_site_fract_z
Si Si1 0.820217 0.358302 0.308222
Si Si2 0.745632 0.649168 0.364211
Si Si3 0.744871 0.194870 0.474116
Si Si4 0.656524 0.460951 0.788985
Si Si5 0.366588 0.166878 0.658605
Si Si6 0.771208 0.919567 0.277830
Si Si7 0.873031 0.921578 0.943316
O O1 0.055515 0.348464 0.398882
O O2 0.274962 0.302132 0.762780
O O3 0.885575 0.213898 0.125544
O O4 0.736472 0.447901 0.608593
O O5 0.500066 0.752621 0.493293
O O6 0.614825 0.428676 0.171989
O O7 0.775217 0.510424 0.093840
O O8 0.959454 0.147235 0.651330
O O9 0.707609 0.320697 0.595767
O O10 0.831191 0.062423 0.160759
O O11 0.310876 0.162503 0.823810
O O12 0.230915 0.113993 0.358291
O O13 0.626351 0.059815 0.559467
O O14 0.740463 0.937694 0.079174
#
# Coordination Sequence:
#
# PCOD9046929 Si02
#       7
#     2   2   2   2   2   2   2
#     4  10  25  45  73  96 140 193 242 287 365 412
#     4  11  23  45  71  99 142 190 234 298 350 428
#     4  12  25  41  71 107 141 183 236 290 366 415
#     4  11  25  48  65 104 143 192 240 290 348 440
#     4  10  24  43  69 107 139 184 237 287 364 414
#     4  11  23  42  68 105 140 184 230 289 362 421
#     4  11  23  45  72 105 144 177 232 307 344 427
#
# _framework density 26.554798000000002
#
# number of rings (size 3 to 8) (size 9 to 14) (size 15 to 20)
#    0.000    1.143    1.429    4.286    4.000    2.857 
#   10.286    0.000    0.000    0.000    0.000    0.000 
#    0.000    0.000    0.000    0.000    0.000    0.000 
#
# Total GULP energy -78398.982281 kJ/mol
# GULP energy per Si atom -5599.927306 kJ/mol
# Density = 2.649436 g / cm^3
# Si number density = 26.554798 Si / 1000 Ang^3
#
#
#
# Elastic Constant Matrix: (Units=GPa)
#
#
# Indices 1 2 3 4 5 6 
#
# 1 61.7813 11.0360 18.7121 15.3040 -0.6716 -4.8642
# 2 11.0360 126.5837 27.2409 18.7427 25.0114 -19.4295
# 3 18.7121 27.2409 99.6704 44.2620 19.7031 10.1600
# 4 15.3040 18.7427 44.2620 35.2493 9.6580 3.7352
# 5 -0.6716 25.0114 19.7031 9.6580 48.7660 5.8928
# 6 -4.8642 -19.4295 10.1600 3.7352 5.8928 53.8611
#
#
#
# Elastic Compliance Matrix: (Units=1/GPa)
#
#
# Indices 1 2 3 4 5 6 
#
# 1 0.018560 -0.000437 -0.000333 -0.008159 0.001997 0.001929
# 2 -0.000437 0.010271 -0.000600 -0.003671 -0.004856 0.004565
# 3 -0.000333 -0.000600 0.023607 -0.027995 -0.003402 -0.002386
# 4 -0.008159 -0.003671 -0.027995 0.069305 -0.000459 -0.001536
# 5 0.001997 -0.004856 -0.003402 -0.000459 0.024928 -0.003625
# 6 0.001929 0.004565 -0.002386 -0.001536 -0.003625 0.021340
#
#
# Mechanical properties :
#
#
# Convention : Reuss Voigt Hill
#
# Bulk Modulus (GPa) = 20.12183 44.66817 32.39500
# Shear Modulus (GPa) = 26.69275 42.97837 34.83556
#
# Velocity S-wave (km/s) = 3.17392 4.02740 3.62586
# Velocity P-wave (km/s) = 4.58537 6.20356 5.45481
#
# Compressibility (1/GPa) = 0.04969727
#
# Stress axis : x y z
#
# Youngs Moduli (GPa) = 53.88022 97.36340 42.35955
#
# Poissons Ratio (x) = 0.04254 0.01411
# Poissons Ratio (y) = 0.02354 0.02543
# Poissons Ratio (z) = 0.01795 0.05844
#
# Static dielectric constant tensor:
#      x y z
#    x 2.165600 -0.011760 0.008820 
#    y -0.011760 2.058270 0.024280 
#    z 0.008820 0.024280 2.032600 
# 
# From -- ./inp_files/226823.got.cif
#   From: 2010.05.17/outbox.cif.g08.bks.cpg/sg2_114_cif.got.tgz:226823.got - 2010.06.03 11:33:40.
