data_PCOD9046829
_publ_section_title
;
Structure prediction by ZEFSAII (Michael W. Deem and Ramdas Pophale) SiO2 
 PCOD9046829
Probable space group: P -1
;
_chemical_formula_sum "Si O2"
_cell_formula_units_Z 16
_cell_length_a 8.028562
_cell_length_b 19.955271
_cell_length_c 8.553995
_cell_angle_alpha 130.797300
_cell_angle_beta 74.342674
_cell_angle_gamma 138.381652
_cell_volume 620.532832
_symmetry_space_group_name_H-M "P -1"
_symmetry_group_IT_number 2
_symmetry_cell_setting 'triclinic'
loop_
_space_group_symop_operation_xyz
x,y,z
-x,-y,-z
loop_
_atom_site_type_symbol
_atom_site_label
_atom_site_fract_x
_atom_site_fract_y
_atom_site_fract_z
Si Si1 0.596591 0.672075 0.356414
Si Si2 0.766653 0.595124 0.392093
Si Si3 0.745026 0.831936 0.269233
Si Si4 0.101546 0.597188 0.480367
Si Si5 0.137725 0.650370 0.143103
Si Si6 0.871745 0.038319 0.156902
Si Si7 0.733231 0.215823 0.006240
Si Si8 0.971542 0.804432 0.923649
O O1 0.542708 0.554954 0.275152
O O2 0.681482 0.722082 0.231884
O O3 0.344810 0.639182 0.400840
O O4 0.873031 0.815006 0.593908
O O5 0.827159 0.523301 0.346991
O O6 0.010637 0.676764 0.323880
O O7 0.790414 0.666031 0.649316
O O8 0.464956 0.774782 0.273332
O O9 0.790530 0.810018 0.052598
O O10 0.000000 0.000000 0.500000
O O11 0.000000 0.500000 0.500000
O O12 0.243642 0.734619 0.748371
O O13 0.116051 0.669437 0.995260
O O14 0.000000 0.500000 0.000000
O O15 0.595116 0.921229 0.149711
O O16 0.811670 0.071335 0.067404
O O17 0.000000 0.000000 0.000000
O O18 0.879049 0.180979 0.945773
#
# Coordination Sequence:
#
# PCOD9046829 Si02
#       8
#     2   2   2   2   2   2   2   2
#     4  11  23  42  69  99 139 178 232 287 348 412
#     4  10  24  47  70 103 140 181 236 287 350 417
#     4  12  26  45  73 102 143 186 236 291 355 418
#     4  11  23  43  67  99 138 184 226 286 350 416
#     4  12  26  48  71 102 144 189 233 292 355 422
#     4  11  20  39  66  99 134 176 226 283 351 415
#     4  11  23  40  68  97 139 179 231 285 352 415
#     4  10  24  43  68 107 137 182 234 291 351 421
#
# _framework density 25.784291
#
# number of rings (size 3 to 8) (size 9 to 14) (size 15 to 20)
#    0.000    1.000    2.500    4.125    1.750    2.500 
#    4.500    5.625    0.000    0.000    0.000    0.000 
#    0.000    0.000    0.000    0.000    0.000    0.000 
#
# Total GULP energy -89272.716264 kJ/mol
# GULP energy per Si atom -5579.544766 kJ/mol
# Density = 2.572560 g / cm^3
# Si number density = 25.784291 Si / 1000 Ang^3
#
#
#
# Elastic Constant Matrix: (Units=GPa)
#
#
# Indices 1 2 3 4 5 6 
#
# 1 134.7938 30.8095 17.5121 -10.6619 4.5586 -4.4427
# 2 30.8095 124.7489 30.4926 -19.8641 6.2961 -7.3648
# 3 17.5121 30.4926 81.8310 -6.2699 -7.7951 20.0858
# 4 -10.6619 -19.8641 -6.2699 50.3047 4.2797 7.4885
# 5 4.5586 6.2961 -7.7951 4.2797 39.9393 -14.6345
# 6 -4.4427 -7.3648 20.0858 7.4885 -14.6345 61.8485
#
#
#
# Elastic Compliance Matrix: (Units=1/GPa)
#
#
# Indices 1 2 3 4 5 6 
#
# 1 0.008041 -0.001435 -0.001320 0.000970 -0.000865 0.000513
# 2 -0.001435 0.009955 -0.003704 0.003113 -0.001930 0.001452
# 3 -0.001320 -0.003704 0.015392 0.000805 0.001740 -0.005220
# 4 0.000970 0.003113 0.000805 0.022284 -0.004112 -0.003492
# 5 -0.000865 -0.001930 0.001740 -0.004112 0.028566 0.006400
# 6 0.000513 0.001452 -0.005220 -0.003492 0.006400 0.020011
#
#
# Mechanical properties :
#
#
# Convention : Reuss Voigt Hill
#
# Bulk Modulus (GPa) = 48.85278 55.44468 52.14873
# Shear Modulus (GPa) = 40.32589 47.92246 44.12417
#
# Velocity S-wave (km/s) = 3.95900 4.31582 4.14125
# Velocity P-wave (km/s) = 6.31554 6.81065 6.56776
#
# Compressibility (1/GPa) = 0.02046966
#
# Stress axis : x y z
#
# Youngs Moduli (GPa) = 124.36059 100.45558 64.96949
#
# Poissons Ratio (x) = 0.14413 0.08578
# Poissons Ratio (y) = 0.17842 0.24065
# Poissons Ratio (z) = 0.16419 0.37209
#
# Static dielectric constant tensor:
#      x y z
#    x 2.076330 -0.098710 -0.048580 
#    y -0.098710 2.086310 0.045530 
#    z -0.048580 0.045530 2.195990 
# 
# From -- ./inp_files/223826.got.cif
#   From: 2010.05.17/outbox.cif.g08.bks.cpg/sg2_112_cif.got.tgz:223826.got - 2010.06.03 11:33:40.
