data_PCOD9046013
_publ_section_title
;
Structure prediction by ZEFSAII (Michael W. Deem and Ramdas Pophale) SiO2 
 PCOD9046013
Probable space group: P -1
;
_chemical_formula_sum "Si O2"
_cell_formula_units_Z 16
_cell_length_a 5.129747
_cell_length_b 15.682336
_cell_length_c 11.779258
_cell_angle_alpha 117.962062
_cell_angle_beta 79.381874
_cell_angle_gamma 127.269164
_cell_volume 659.332869
_symmetry_space_group_name_H-M "P -1"
_symmetry_group_IT_number 2
_symmetry_cell_setting 'triclinic'
loop_
_space_group_symop_operation_xyz
x,y,z
-x,-y,-z
loop_
_atom_site_type_symbol
_atom_site_label
_atom_site_fract_x
_atom_site_fract_y
_atom_site_fract_z
Si Si1 0.621690 0.284485 0.908277
Si Si2 0.614350 0.458962 0.167450
Si Si3 0.049639 0.524256 0.643109
Si Si4 0.893632 0.251881 0.179820
Si Si5 0.868159 0.881204 0.509662
Si Si6 0.840384 0.135241 0.895997
Si Si7 0.442571 0.351076 0.742089
Si Si8 0.684404 0.118259 0.336988
O O1 0.799284 0.222475 0.877639
O O2 0.625544 0.330908 0.812096
O O3 0.222241 0.183565 0.898171
O O4 0.754803 0.394916 0.053507
O O5 0.747396 0.504471 0.312577
O O6 0.662588 0.565495 0.156942
O O7 0.236047 0.347552 0.148415
O O8 0.231142 0.666755 0.737761
O O9 0.000000 0.500000 0.500000
O O10 0.694595 0.435759 0.675344
O O11 0.914554 0.207682 0.273165
O O12 0.717547 0.144532 0.035959
O O13 0.827639 0.778593 0.369920
O O14 0.508431 0.836480 0.556559
O O15 0.113167 0.903783 0.605402
O O16 0.000000 0.000000 0.500000
O O17 0.606549 0.004660 0.778137
#
# Coordination Sequence:
#
# PCOD9046013 Si02
#       8
#     2   2   2   2   2   2   2   2
#     4  11  24  45  71 102 139 176 230 283 342 405
#     4  10  24  44  67 102 137 180 224 288 338 406
#     4  11  24  42  67  98 142 176 228 281 344 404
#     4  10  24  42  66 103 137 177 230 280 339 410
#     4  12  28  48  68 103 138 179 232 282 342 403
#     4  11  23  45  70 103 137 181 224 289 339 396
#     4  11  26  41  70 100 134 187 226 279 343 412
#     4  12  26  44  74  97 138 184 232 281 341 407
#
# _framework density 24.266954999999999
#
# number of rings (size 3 to 8) (size 9 to 14) (size 15 to 20)
#    0.000    1.000    1.250    4.125    8.750    1.500 
#    0.000    3.125    0.000    0.000    0.000    0.000 
#    0.000    0.000    0.000    0.000    0.000    0.000 
#
# Total GULP energy -89501.373876 kJ/mol
# GULP energy per Si atom -5593.835867 kJ/mol
# Density = 2.421172 g / cm^3
# Si number density = 24.266955 Si / 1000 Ang^3
#
#
#
# Elastic Constant Matrix: (Units=GPa)
#
#
# Indices 1 2 3 4 5 6 
#
# 1 75.9105 6.4392 11.1458 -0.7476 14.6060 -14.3702
# 2 6.4392 104.0510 26.9542 -3.6846 1.9703 -13.5908
# 3 11.1458 26.9542 115.4433 -11.7535 10.2357 -11.1120
# 4 -0.7476 -3.6846 -11.7535 48.2497 -7.7550 4.5248
# 5 14.6060 1.9703 10.2357 -7.7550 39.5017 -1.8619
# 6 -14.3702 -13.5908 -11.1120 4.5248 -1.8619 24.7434
#
#
#
# Elastic Compliance Matrix: (Units=1/GPa)
#
#
# Indices 1 2 3 4 5 6 
#
# 1 0.016026 0.000365 -0.000404 -0.001604 -0.005721 0.009189
# 2 0.000365 0.010804 -0.002076 -0.000154 0.000081 0.005248
# 3 -0.000404 -0.002076 0.009766 0.001680 -0.001827 0.002566
# 4 -0.001604 -0.000154 0.001680 0.022168 0.004329 -0.003990
# 5 -0.005721 0.000081 -0.001827 0.004329 0.028621 -0.002736
# 6 0.009189 0.005248 0.002566 -0.003990 -0.002736 0.050311
#
#
# Mechanical properties :
#
#
# Convention : Reuss Voigt Hill
#
# Bulk Modulus (GPa) = 30.89572 42.72034 36.80803
# Shear Modulus (GPa) = 32.74072 39.22334 35.98203
#
# Velocity S-wave (km/s) = 3.67712 4.02472 3.85484
# Velocity P-wave (km/s) = 5.54865 6.26421 5.91726
#
# Compressibility (1/GPa) = 0.03236695
#
# Stress axis : x y z
#
# Youngs Moduli (GPa) = 62.39731 92.55564 102.39701
#
# Poissons Ratio (x) = -0.03375 0.04136
# Poissons Ratio (y) = -0.02275 0.21253
# Poissons Ratio (z) = 0.02521 0.19210
#
# Static dielectric constant tensor:
#      x y z
#    x 2.000680 0.045980 -0.031460 
#    y 0.045980 1.936640 0.011400 
#    z -0.031460 0.011400 1.942370 
# 
# From -- ./inp_files/71290.got.cif
#   From: 2010.05.17/outbox.cif.g08.bks.cpg/sg2_36_cif.got.tgz:71290.got - 2010.06.03 11:33:40.
