data_PCOD9046543
_publ_section_title
;
Structure prediction by ZEFSAII (Michael W. Deem and Ramdas Pophale) SiO2 
 PCOD9046543
Probable space group: P -1
;
_chemical_formula_sum "Si O2"
_cell_formula_units_Z 16
_cell_length_a 5.188758
_cell_length_b 24.113360
_cell_length_c 31.056315
_cell_angle_alpha 10.510829
_cell_angle_beta 97.680290
_cell_angle_gamma 99.633033
_cell_volume 688.461812
_symmetry_space_group_name_H-M "P -1"
_symmetry_group_IT_number 2
_symmetry_cell_setting 'triclinic'
loop_
_space_group_symop_operation_xyz
x,y,z
-x,-y,-z
loop_
_atom_site_type_symbol
_atom_site_label
_atom_site_fract_x
_atom_site_fract_y
_atom_site_fract_z
Si Si1 0.056306 0.076603 0.492846
Si Si2 0.930510 0.232250 0.011156
Si Si3 0.000379 0.413314 0.778379
Si Si4 0.160174 0.736042 0.194627
Si Si5 0.452527 0.151414 0.282183
Si Si6 0.456062 0.258485 0.483117
Si Si7 0.258319 0.833785 0.359312
Si Si8 0.473481 0.425134 0.505825
O O1 0.294740 0.914589 0.635985
O O2 0.141188 0.450113 0.216387
O O3 0.000000 0.000000 0.500000
O O4 0.803432 0.953622 0.612513
O O5 0.709977 0.916277 0.246266
O O6 0.012021 0.276082 0.930221
O O7 0.175374 0.154607 0.102965
O O8 0.787652 0.210407 0.895923
O O9 0.840912 0.695613 0.566450
O O10 0.303176 0.444954 0.744367
O O11 0.364194 0.673108 0.283475
O O12 0.976432 0.393452 0.447814
O O13 0.000000 0.000000 0.000000
O O14 0.452045 0.954229 0.388903
O O15 0.500000 0.500000 0.000000
O O16 0.494994 0.144182 0.619790
O O17 0.267173 0.638679 0.464399
O O18 0.500000 0.500000 0.500000
#
# Coordination Sequence:
#
# PCOD9046543 Si02
#       8
#     2   2   2   2   2   2   2   2
#     4  12  28  50  75 114 152 195 247 303 378 448
#     4  11  26  44  71 100 144 189 238 298 369 431
#     4  11  23  43  71 100 133 187 241 293 349 430
#     4  10  24  43  63  96 136 186 240 299 358 429
#     4  12  26  48  75 112 148 195 246 309 367 445
#     4  11  22  46  69  98 142 180 242 289 353 430
#     4  10  25  42  65  99 137 186 241 292 370 423
#     4  11  26  43  66 102 142 190 241 302 365 434
#
# _framework density 23.240216
#
# number of rings (size 3 to 8) (size 9 to 14) (size 15 to 20)
#    0.000    1.000    3.750    0.750    8.750    3.500 
#    0.000    0.000    0.000    0.000    0.000    0.000 
#    0.000    0.000    0.000    0.000    0.000    0.000 
#
# Total GULP energy -89210.646868 kJ/mol
# GULP energy per Si atom -5575.665429 kJ/mol
# Density = 2.318732 g / cm^3
# Si number density = 23.240216 Si / 1000 Ang^3
#
#
#
# Elastic Constant Matrix: (Units=GPa)
#
#
# Indices 1 2 3 4 5 6 
#
# 1 116.3942 20.9527 36.2158 -3.2908 13.5169 -4.3641
# 2 20.9527 140.4225 27.2226 0.2211 -2.6317 -7.1529
# 3 36.2158 27.2226 106.4719 -2.3467 24.3085 13.8653
# 4 -3.2908 0.2211 -2.3467 26.5156 9.2578 10.0181
# 5 13.5169 -2.6317 24.3085 9.2578 28.2186 4.6741
# 6 -4.3641 -7.1529 13.8653 10.0181 4.6741 35.2695
#
#
#
# Elastic Compliance Matrix: (Units=1/GPa)
#
#
# Indices 1 2 3 4 5 6 
#
# 1 0.010113 -0.000952 -0.002653 0.001426 -0.003473 0.002156
# 2 -0.000952 0.008155 -0.003296 -0.003278 0.004609 0.003152
# 3 -0.002653 -0.003296 0.015564 0.008936 -0.014086 -0.007787
# 4 0.001426 -0.003278 0.008936 0.052897 -0.023403 -0.015925
# 5 -0.003473 0.004609 -0.014086 -0.023403 0.056481 0.005205
# 6 0.002156 0.003152 -0.007787 -0.015925 0.005205 0.036154
#
#
# Mechanical properties :
#
#
# Convention : Reuss Voigt Hill
#
# Bulk Modulus (GPa) = 49.92730 59.11897 54.52314
# Shear Modulus (GPa) = 25.01978 36.59388 30.80683
#
# Velocity S-wave (km/s) = 3.28468 3.97242 3.64481
# Velocity P-wave (km/s) = 5.99293 6.82155 6.42062
#
# Compressibility (1/GPa) = 0.02002912
#
# Stress axis : x y z
#
# Youngs Moduli (GPa) = 98.88474 122.63089 64.24973
#
# Poissons Ratio (x) = 0.11676 0.17045
# Poissons Ratio (y) = 0.09415 0.21178
# Poissons Ratio (z) = 0.26233 0.40421
#
# Static dielectric constant tensor:
#      x y z
#    x 2.059680 -0.015080 -0.090970 
#    y -0.015080 2.117490 -0.136380 
#    z -0.090970 -0.136380 2.074200 
# 
# From -- ./inp_files/622028.got.cif
#   From: 2010.05.17/outbox.cif.g08.bks.cpg/sg2_312_cif.got.tgz:622028.got - 2010.06.03 11:33:40.
