data_PCOD9046235
_publ_section_title
;
Structure prediction by ZEFSAII (Michael W. Deem and Ramdas Pophale) SiO2 
 PCOD9046235
Probable space group: P -1
;
_chemical_formula_sum "Si O2"
_cell_formula_units_Z 16
_cell_length_a 12.638518
_cell_length_b 5.613771
_cell_length_c 10.761162
_cell_angle_alpha 78.519303
_cell_angle_beta 73.293828
_cell_angle_gamma 79.785861
_cell_volume 710.752227
_symmetry_space_group_name_H-M "P -1"
_symmetry_group_IT_number 2
_symmetry_cell_setting 'triclinic'
loop_
_space_group_symop_operation_xyz
x,y,z
-x,-y,-z
loop_
_atom_site_type_symbol
_atom_site_label
_atom_site_fract_x
_atom_site_fract_y
_atom_site_fract_z
Si Si1 0.869660 0.565286 0.026244
Si Si2 0.489789 0.988475 0.355295
Si Si3 0.319928 0.406749 0.745585
Si Si4 0.086619 0.155198 0.519758
Si Si5 0.216664 0.872796 0.059036
Si Si6 0.864181 0.401234 0.653781
Si Si7 0.438864 0.659496 0.895051
Si Si8 0.723517 0.228046 0.496988
O O1 0.807955 0.596180 0.176792
O O2 0.833629 0.323050 0.995285
O O3 0.000000 0.500000 0.000000
O O4 0.835676 0.840566 0.952336
O O5 0.607225 0.839441 0.293647
O O6 0.380195 0.857333 0.386247
O O7 0.500000 0.000000 0.500000
O O8 0.482461 0.220207 0.241683
O O9 0.374693 0.491588 0.844167
O O10 0.326297 0.598361 0.613687
O O11 0.139462 0.306767 0.377359
O O12 0.998298 0.317750 0.620162
O O13 0.191447 0.996860 0.563174
O O14 0.000000 0.000000 0.500000
O O15 0.196261 0.745173 0.209948
O O16 0.345455 0.851257 0.975051
O O17 0.802924 0.355169 0.549475
O O18 0.500000 0.500000 0.000000
#
# Coordination Sequence:
#
# PCOD9046235 Si02
#       8
#     2   2   2   2   2   2   2   2
#     4  11  26  48  75 106 145 199 246 314 383 447
#     4  12  26  46  72 102 146 188 254 310 375 447
#     4  11  26  47  67 105 142 183 256 306 369 454
#     4   9  22  43  63 104 139 185 232 298 362 446
#     4  11  26  47  74 108 148 191 255 307 377 463
#     4  10  24  42  69 105 145 180 242 300 371 446
#     4  11  27  47  72 103 147 198 246 315 378 449
#     4  11  25  39  74  99 141 189 240 303 375 432
#
# _framework density 22.511362999999999
#
# number of rings (size 3 to 8) (size 9 to 14) (size 15 to 20)
#    0.000    1.250    2.500    0.750   10.500    3.500 
#    0.000    0.000    0.000    0.000    0.000    0.000 
#    0.000    0.000    0.000    0.000    0.000    0.000 
#
# Total GULP energy -89242.578468 kJ/mol
# GULP energy per Si atom -5577.661154 kJ/mol
# Density = 2.246013 g / cm^3
# Si number density = 22.511363 Si / 1000 Ang^3
#
#
#
# Elastic Constant Matrix: (Units=GPa)
#
#
# Indices 1 2 3 4 5 6 
#
# 1 79.5634 20.1336 28.6503 -7.5786 -21.7555 -13.3777
# 2 20.1336 68.7525 21.4688 -14.1535 -3.6076 -10.6985
# 3 28.6503 21.4688 129.0220 -21.4507 -18.0149 -5.1614
# 4 -7.5786 -14.1535 -21.4507 40.3267 1.3013 -7.3968
# 5 -21.7555 -3.6076 -18.0149 1.3013 23.6891 -8.4933
# 6 -13.3777 -10.6985 -5.1614 -7.3968 -8.4933 27.0718
#
#
#
# Elastic Compliance Matrix: (Units=1/GPa)
#
#
# Indices 1 2 3 4 5 6 
#
# 1 0.027427 -0.000351 0.001717 0.009865 0.035821 0.027675
# 2 -0.000351 0.018439 -0.000427 0.008013 0.005664 0.010999
# 3 0.001717 -0.000427 0.010656 0.006999 0.012268 0.008473
# 4 0.009865 0.008013 0.006999 0.037365 0.023179 0.026857
# 5 0.035821 0.005664 0.012268 0.023179 0.106238 0.061942
# 6 0.027675 0.010999 0.008473 0.026857 0.061942 0.083348
#
#
# Mechanical properties :
#
#
# Convention : Reuss Voigt Hill
#
# Bulk Modulus (GPa) = 17.12339 46.42702 31.77520
# Shear Modulus (GPa) = 16.60787 32.02322 24.31554
#
# Velocity S-wave (km/s) = 2.71911 3.77574 3.29012
# Velocity P-wave (km/s) = 4.18105 6.29896 5.34594
#
# Compressibility (1/GPa) = 0.05839965
#
# Stress axis : x y z
#
# Youngs Moduli (GPa) = 36.46067 54.23174 93.84335
#
# Poissons Ratio (x) = 0.01903 -0.16111
# Poissons Ratio (y) = 0.01279 0.04009
# Poissons Ratio (z) = -0.06260 0.02317
#
# Static dielectric constant tensor:
#      x y z
#    x 1.593800 -0.260050 0.144810 
#    y -0.260050 1.639130 0.187300 
#    z 0.144810 0.187300 1.754170 
# 
# From -- ./inp_files/410013.got.cif
#   From: 2010.05.17/outbox.cif.g08.bks.cpg/sg2_206_cif.got.tgz:410013.got - 2010.06.03 11:33:40.
