data_PCOD9046528
_publ_section_title
;
Structure prediction by ZEFSAII (Michael W. Deem and Ramdas Pophale) SiO2 
 PCOD9046528
Probable space group: P -1
;
_chemical_formula_sum "Si O2"
_cell_formula_units_Z 16
_cell_length_a 10.655841
_cell_length_b 10.901987
_cell_length_c 14.892838
_cell_angle_alpha 148.228733
_cell_angle_beta 65.380474
_cell_angle_gamma 120.788804
_cell_volume 781.898186
_symmetry_space_group_name_H-M "P -1"
_symmetry_group_IT_number 2
_symmetry_cell_setting 'triclinic'
loop_
_space_group_symop_operation_xyz
x,y,z
-x,-y,-z
loop_
_atom_site_type_symbol
_atom_site_label
_atom_site_fract_x
_atom_site_fract_y
_atom_site_fract_z
Si Si1 0.855866 0.144287 0.231158
Si Si2 0.714937 0.391804 0.723674
Si Si3 0.888357 0.845854 0.511849
Si Si4 0.958378 0.358651 0.150357
Si Si5 0.440134 0.287289 0.958507
Si Si6 0.291609 0.546667 0.435751
Si Si7 0.595841 0.964278 0.634903
Si Si8 0.899498 0.953360 0.781182
O O1 0.898162 0.160055 0.124199
O O2 0.811122 0.380381 0.416632
O O3 0.985332 0.126838 0.243235
O O4 0.711839 0.914250 0.150714
O O5 0.754697 0.374702 0.598097
O O6 0.633916 0.138300 0.642585
O O7 0.865866 0.524399 0.814941
O O8 0.609694 0.561870 0.855492
O O9 0.888981 0.570955 0.321954
O O10 0.934184 0.939714 0.657791
O O11 0.733825 0.885693 0.568775
O O12 0.000000 0.000000 0.500000
O O13 0.915634 0.221629 0.983025
O O14 0.552872 0.134443 0.829563
O O15 0.500000 0.500000 0.000000
O O16 0.255203 0.255490 0.279145
O O17 0.456536 0.721445 0.510941
#
# Coordination Sequence:
#
# PCOD9046528 Si02
#       8
#     2   2   2   2   2   2   2   2
#     4  11  20  39  67 102 133 162 217 287 329 383
#     4  11  19  40  68 101 132 162 226 282 333 387
#     4  12  27  48  65  92 138 183 222 270 323 403
#     4  12  23  42  72 103 132 167 225 280 330 389
#     4   9  20  38  62  94 131 168 208 276 331 375
#     4  11  22  38  67 100 128 174 217 274 348 383
#     4  10  24  43  62  91 138 181 214 272 328 399
#     4  12  24  41  70  99 131 175 222 272 334 393
#
# _framework density 20.463023
#
# number of rings (size 3 to 8) (size 9 to 14) (size 15 to 20)
#    0.000    1.000    5.000    2.625    0.000    1.000 
#    2.250    0.625    0.000    0.000    0.000    0.000 
#    0.000    0.000    0.000    0.000    0.000    0.000 
#
# Total GULP energy -89273.535072 kJ/mol
# GULP energy per Si atom -5579.595942 kJ/mol
# Density = 2.041645 g / cm^3
# Si number density = 20.463023 Si / 1000 Ang^3
#
#
#
# Elastic Constant Matrix: (Units=GPa)
#
#
# Indices 1 2 3 4 5 6 
#
# 1 84.5087 24.3371 51.8426 -0.4966 -25.6893 7.2812
# 2 24.3371 109.0839 42.3146 0.1479 8.4853 5.5012
# 3 51.8426 42.3146 123.2955 -7.0067 -11.5467 -3.0116
# 4 -0.4966 0.1479 -7.0067 27.3514 0.0768 4.5148
# 5 -25.6893 8.4853 -11.5467 0.0768 31.3565 -6.2944
# 6 7.2812 5.5012 -3.0116 4.5148 -6.2944 25.8290
#
#
#
# Elastic Compliance Matrix: (Units=1/GPa)
#
#
# Indices 1 2 3 4 5 6 
#
# 1 0.021974 -0.003460 -0.006656 -0.000978 0.016059 -0.002149
# 2 -0.003460 0.012189 -0.003621 -0.000374 -0.008267 -0.003992
# 3 -0.006656 -0.003621 0.012470 0.002448 0.000894 0.003892
# 4 -0.000978 -0.000374 0.002448 0.038220 -0.001161 -0.006323
# 5 0.016059 -0.008267 0.000894 -0.001161 0.049547 0.009615
# 6 -0.002149 -0.003992 0.003892 -0.006323 0.009615 0.044074
#
#
# Mechanical properties :
#
#
# Convention : Reuss Voigt Hill
#
# Bulk Modulus (GPa) = 52.19787 61.54187 56.86987
# Shear Modulus (GPa) = 23.54779 30.13363 26.84071
#
# Velocity S-wave (km/s) = 3.39595 3.84160 3.62563
# Velocity P-wave (km/s) = 6.39847 7.05812 6.73637
#
# Compressibility (1/GPa) = 0.01915787
#
# Stress axis : x y z
#
# Youngs Moduli (GPa) = 45.50884 82.04248 80.19193
#
# Poissons Ratio (x) = 0.28386 0.53377
# Poissons Ratio (y) = 0.15746 0.29040
# Poissons Ratio (z) = 0.30291 0.29710
#
# Static dielectric constant tensor:
#      x y z
#    x 1.703500 0.007400 -0.037330 
#    y 0.007400 1.727860 0.001970 
#    z -0.037330 0.001970 1.814190 
# 
# From -- ./inp_files/304892.got.cif
#   From: 2010.05.17/outbox.cif.g08.bks.cpg/sg2_153_cif.got.tgz:304892.got - 2010.06.03 11:33:40.
