data_PCOD9046884
_publ_section_title
;
Structure prediction by ZEFSAII (Michael W. Deem and Ramdas Pophale) SiO2 
 PCOD9046884
Probable space group: P -1
;
_chemical_formula_sum "Si O2"
_cell_formula_units_Z 12
_cell_length_a 10.169612
_cell_length_b 12.080694
_cell_length_c 5.037747
_cell_angle_alpha 68.325014
_cell_angle_beta 108.030657
_cell_angle_gamma 117.493109
_cell_volume 502.893832
_symmetry_space_group_name_H-M "P -1"
_symmetry_group_IT_number 2
_symmetry_cell_setting 'triclinic'
loop_
_space_group_symop_operation_xyz
x,y,z
-x,-y,-z
loop_
_atom_site_type_symbol
_atom_site_label
_atom_site_fract_x
_atom_site_fract_y
_atom_site_fract_z
Si Si1 0.086262 0.475198 0.330594
Si Si2 0.006373 0.819756 0.602775
Si Si3 0.614702 0.287405 0.694241
Si Si4 0.523258 0.592206 0.174964
Si Si5 0.290462 0.164904 0.721049
Si Si6 0.212497 0.895416 0.161478
O O1 0.067151 0.329444 0.400499
O O2 0.255729 0.574540 0.415344
O O3 0.000000 0.500000 0.500000
O O4 0.000000 0.500000 0.000000
O O5 0.873704 0.871795 0.467272
O O6 0.074414 0.832421 0.926569
O O7 0.142930 0.885244 0.420285
O O8 0.588062 0.329632 0.943509
O O9 0.436460 0.225891 0.564019
O O10 0.682428 0.183330 0.754558
O O11 0.500000 0.500000 0.500000
O O12 0.681052 0.713436 0.174300
O O13 0.500000 0.500000 0.000000
O O14 0.295664 0.042978 0.987503
#
# Coordination Sequence:
#
# PCOD9046884 Si02
#       6
#     2   2   2   2   2   2
#     4  12  23  44  70 103 138 183 233 292 348 409
#     4  12  25  45  73 104 146 187 234 289 352 421
#     4  10  24  47  73 101 141 181 240 285 352 407
#     4  10  24  43  69 101 138 175 234 286 350 399
#     4  10  26  47  74 105 144 186 236 294 347 423
#     4  12  25  49  70 107 143 191 233 284 357 424
#
# _framework density 23.861895000000001
#
# number of rings (size 3 to 8) (size 9 to 14) (size 15 to 20)
#    1.000    0.000    3.333    2.500    0.000    8.000 
#    0.000    1.667    0.000    0.000    0.000    0.000 
#    0.000    0.000    0.000    0.000    0.000    0.000 
#
# Total GULP energy -66917.926286 kJ/mol
# GULP energy per Si atom -5576.493857 kJ/mol
# Density = 2.380758 g / cm^3
# Si number density = 23.861895 Si / 1000 Ang^3
#
#
#
# Elastic Constant Matrix: (Units=GPa)
#
#
# Indices 1 2 3 4 5 6 
#
# 1 140.3052 16.6215 18.8784 0.4585 -4.0835 -0.2004
# 2 16.6215 141.2835 10.0086 -14.0183 -1.3947 0.6208
# 3 18.8784 10.0086 80.1504 13.2793 -6.3674 -9.4588
# 4 0.4585 -14.0183 13.2793 40.7576 -1.6203 -5.7653
# 5 -4.0835 -1.3947 -6.3674 -1.6203 20.2506 -2.5501
# 6 -0.2004 0.6208 -9.4588 -5.7653 -2.5501 43.5284
#
#
#
# Elastic Compliance Matrix: (Units=1/GPa)
#
#
# Indices 1 2 3 4 5 6 
#
# 1 0.007462 -0.000730 -0.001655 0.000208 0.000921 -0.000233
# 2 -0.000730 0.007555 -0.001252 0.003028 0.000226 0.000031
# 3 -0.001655 -0.001252 0.014432 -0.004557 0.004104 0.002783
# 4 0.000208 0.003028 -0.004557 0.027493 0.001356 0.002688
# 5 0.000921 0.000226 0.004104 0.001356 0.051496 0.004089
# 6 -0.000233 0.000031 0.002783 0.002688 0.004089 0.024172
#
#
# Mechanical properties :
#
#
# Convention : Reuss Voigt Hill
#
# Bulk Modulus (GPa) = 45.09368 50.30623 47.69995
# Shear Modulus (GPa) = 33.94961 41.98938 37.96949
#
# Velocity S-wave (km/s) = 3.77603 4.19941 3.99334
# Velocity P-wave (km/s) = 6.16036 6.68142 6.42617
#
# Compressibility (1/GPa) = 0.02217606
#
# Stress axis : x y z
#
# Youngs Moduli (GPa) = 134.00671 132.36230 69.28940
#
# Poissons Ratio (x) = 0.09661 0.11470
# Poissons Ratio (y) = 0.09781 0.08672
# Poissons Ratio (z) = 0.22182 0.16566
#
# Static dielectric constant tensor:
#      x y z
#    x 2.046820 0.029870 0.049770 
#    y 0.029870 1.938360 -0.020270 
#    z 0.049770 -0.020270 1.931680 
# 
# From -- ./inp_files/24161.got.cif
#   From: 2010.05.17/outbox.cif.g08.bks.cpg/sg2_13_cif.got.tgz:24161.got - 2010.06.03 11:33:40.
