data_PCOD9047081
_publ_section_title
;
Structure prediction by ZEFSAII (Michael W. Deem and Ramdas Pophale) SiO2 
 PCOD9047081
Probable space group: P -1
;
_chemical_formula_sum "Si O2"
_cell_formula_units_Z 14
_cell_length_a 12.803130
_cell_length_b 8.317846
_cell_length_c 8.399125
_cell_angle_alpha 107.820921
_cell_angle_beta 55.438817
_cell_angle_gamma 123.543572
_cell_volume 613.900665
_symmetry_space_group_name_H-M "P -1"
_symmetry_group_IT_number 2
_symmetry_cell_setting 'triclinic'
loop_
_space_group_symop_operation_xyz
x,y,z
-x,-y,-z
loop_
_atom_site_type_symbol
_atom_site_label
_atom_site_fract_x
_atom_site_fract_y
_atom_site_fract_z
Si Si1 0.649080 0.348282 0.716734
Si Si2 0.073995 0.672040 0.614788
Si Si3 0.581154 0.215401 0.066334
Si Si4 0.931943 0.136713 0.047038
Si Si5 0.062444 0.055196 0.638047
Si Si6 0.384670 0.375749 0.422198
Si Si7 0.388001 0.982621 0.729916
O O1 0.761058 0.287693 0.524266
O O2 0.651338 0.511361 0.650661
O O3 0.483463 0.182673 0.798465
O O4 0.677249 0.362477 0.887548
O O5 0.017420 0.662101 0.842191
O O6 0.000000 0.500000 0.500000
O O7 0.057173 0.855386 0.633446
O O8 0.459746 0.268511 0.238130
O O9 0.648775 0.191773 0.167033
O O10 0.500000 0.000000 0.000000
O O11 0.760956 0.028635 0.194296
O O12 0.966496 0.137875 0.832480
O O13 0.000000 0.000000 0.000000
O O14 0.227425 0.219955 0.572142
O O15 0.000000 0.000000 0.500000
O O16 0.500000 0.500000 0.500000
O O17 0.500000 0.000000 0.500000
#
# Coordination Sequence:
#
# PCOD9047081 Si02
#       7
#     2   2   2   2   2   2   2
#     4  11  24  42  71 105 145 187 253 312 372 447
#     4  11  24  47  72 106 149 196 249 313 387 457
#     4  10  24  43  71 106 142 192 245 309 378 444
#     4  10  25  43  75 108 148 196 248 307 392 448
#     4  11  26  48  74 106 153 200 253 312 384 459
#     4  12  27  45  72 110 149 197 255 316 373 453
#     4  11  21  43  78 105 145 189 249 307 375 449
#
# _framework density 22.804995000000002
#
# number of rings (size 3 to 8) (size 9 to 14) (size 15 to 20)
#    0.000    1.143    1.429    3.857   12.000    1.143 
#    2.571    2.857    0.000    0.000    0.000    0.000 
#    0.000    0.000    0.000    0.000    0.000    0.000 
#
# Total GULP energy -78003.885488 kJ/mol
# GULP energy per Si atom -5571.706106 kJ/mol
# Density = 2.275309 g / cm^3
# Si number density = 22.804995 Si / 1000 Ang^3
#
#
#
# Elastic Constant Matrix: (Units=GPa)
#
#
# Indices 1 2 3 4 5 6 
#
# 1 117.7628 32.4832 69.2494 9.5422 -4.7570 -5.1552
# 2 32.4832 85.8895 45.3628 13.0894 2.4334 9.3146
# 3 69.2494 45.3628 177.5075 26.8946 -8.1296 10.9647
# 4 9.5422 13.0894 26.8946 29.9724 -7.0136 8.7226
# 5 -4.7570 2.4334 -8.1296 -7.0136 47.2262 -0.3972
# 6 -5.1552 9.3146 10.9647 8.7226 -0.3972 51.3508
#
#
#
# Elastic Compliance Matrix: (Units=1/GPa)
#
#
# Indices 1 2 3 4 5 6 
#
# 1 0.011721 -0.002637 -0.004101 0.000556 0.000714 0.002442
# 2 -0.002637 0.014558 -0.002132 -0.003510 -0.001920 -0.001869
# 3 -0.004101 -0.002132 0.008636 -0.005125 0.000414 -0.000995
# 4 0.000556 -0.003510 -0.005125 0.042175 0.005573 -0.005334
# 5 0.000714 -0.001920 0.000414 0.005573 0.022241 -0.000443
# 6 0.002442 -0.001869 -0.000995 -0.005334 -0.000443 0.021173
#
#
# Mechanical properties :
#
#
# Convention : Reuss Voigt Hill
#
# Bulk Modulus (GPa) = 58.22681 75.03896 66.63289
# Shear Modulus (GPa) = 34.72944 41.31416 38.02180
#
# Velocity S-wave (km/s) = 3.90665 4.26094 4.08764
# Velocity P-wave (km/s) = 6.77770 7.56198 7.18055
#
# Compressibility (1/GPa) = 0.01717422
#
# Stress axis : x y z
#
# Youngs Moduli (GPa) = 85.31437 68.68913 115.80070
#
# Poissons Ratio (x) = 0.18111 0.47494
# Poissons Ratio (y) = 0.22494 0.24694
# Poissons Ratio (z) = 0.34991 0.14648
#
# Static dielectric constant tensor:
#      x y z
#    x 2.011690 -0.048330 0.234540 
#    y -0.048330 1.822980 -0.049040 
#    z 0.234540 -0.049040 2.006320 
# 
# From -- ./inp_files/244857.got.cif
#   From: 2010.05.17/outbox.cif.g08.bks.cpg/sg2_123_cif.got.tgz:244857.got - 2010.06.03 11:33:40.
