data_PCOD9047611
_publ_section_title
;
Structure prediction by ZEFSAII (Michael W. Deem and Ramdas Pophale) SiO2 
 PCOD9047611
Probable space group: P -1
;
_chemical_formula_sum "Si O2"
_cell_formula_units_Z 16
_cell_length_a 19.192354
_cell_length_b 19.808849
_cell_length_c 8.735773
_cell_angle_alpha 127.199403
_cell_angle_beta 42.067842
_cell_angle_gamma 159.666071
_cell_volume 711.021417
_symmetry_space_group_name_H-M "P -1"
_symmetry_group_IT_number 2
_symmetry_cell_setting 'triclinic'
loop_
_space_group_symop_operation_xyz
x,y,z
-x,-y,-z
loop_
_atom_site_type_symbol
_atom_site_label
_atom_site_fract_x
_atom_site_fract_y
_atom_site_fract_z
Si Si1 0.979720 0.733298 0.805554
Si Si2 0.842066 0.973678 0.570772
Si Si3 0.123878 0.596512 0.139701
Si Si4 0.777782 0.187957 0.227608
Si Si5 0.710091 0.420586 0.598102
Si Si6 0.398014 0.116115 0.438190
Si Si7 0.477462 0.810757 0.116686
Si Si8 0.197757 0.253694 0.661303
O O1 0.024520 0.691336 0.795451
O O2 0.763727 0.545193 0.776873
O O3 0.242358 0.940632 0.566343
O O4 0.924589 0.775075 0.052850
O O5 0.805009 0.997683 0.508160
O O6 0.851314 0.880637 0.399356
O O7 0.578160 0.801660 0.855949
O O8 0.069305 0.167383 0.584083
O O9 0.242643 0.678392 0.228340
O O10 0.908283 0.361147 0.159190
O O11 0.981375 0.578948 0.325025
O O12 0.367074 0.756739 0.854964
O O13 0.500000 0.000000 0.500000
O O14 0.711013 0.053023 0.058609
O O15 0.528893 0.286962 0.562988
O O16 0.590041 0.265598 0.706150
O O17 0.500000 0.500000 0.500000
#
# Coordination Sequence:
#
# PCOD9047611 Si02
#       8
#     2   2   2   2   2   2   2   2
#     4  12  25  42  67  98 135 174 224 273 337 396
#     4  10  24  44  68  96 130 169 220 273 344 392
#     4  11  24  39  65  98 134 183 230 269 320 389
#     4  12  21  37  67  98 128 174 226 269 315 387
#     4  12  22  40  64  99 139 178 222 268 334 392
#     4  11  26  43  64  96 143 177 211 279 338 400
#     4  11  20  38  67  94 132 172 226 279 318 386
#     4  11  24  45  74  99 123 167 230 285 328 396
#
# _framework density 22.502838000000001
#
# number of rings (size 3 to 8) (size 9 to 14) (size 15 to 20)
#    0.000    0.750    5.000    2.250    1.750    5.000 
#    0.000    1.250    0.000    0.000    0.000    0.000 
#    0.000    0.000    0.000    0.000    0.000    0.000 
#
# Total GULP energy -89472.286256 kJ/mol
# GULP energy per Si atom -5592.017891 kJ/mol
# Density = 2.245162 g / cm^3
# Si number density = 22.502838 Si / 1000 Ang^3
#
#
#
# Elastic Constant Matrix: (Units=GPa)
#
#
# Indices 1 2 3 4 5 6 
#
# 1 78.5730 19.5277 20.7058 10.5318 3.1336 25.2749
# 2 19.5277 107.8018 32.0758 12.1689 5.2671 10.9227
# 3 20.7058 32.0758 87.2789 11.1077 2.5929 -13.4687
# 4 10.5318 12.1689 11.1077 42.5822 -0.6290 0.1126
# 5 3.1336 5.2671 2.5929 -0.6290 28.1400 6.0533
# 6 25.2749 10.9227 -13.4687 0.1126 6.0533 32.8569
#
#
#
# Elastic Compliance Matrix: (Units=1/GPa)
#
#
# Indices 1 2 3 4 5 6 
#
# 1 0.021818 0.000932 -0.008409 -0.003375 0.002615 -0.021010
# 2 0.000932 0.011597 -0.005217 -0.002172 -0.000417 -0.006626
# 3 -0.008409 -0.005217 0.018133 -0.001251 -0.003280 0.016244
# 4 -0.003375 -0.002172 -0.001251 0.025273 0.000914 0.002550
# 5 0.002615 -0.000417 -0.003280 0.000914 0.037838 -0.010192
# 6 -0.021010 -0.006626 0.016244 0.002550 -0.010192 0.057327
#
#
# Mechanical properties :
#
#
# Convention : Reuss Voigt Hill
#
# Bulk Modulus (GPa) = 38.22606 46.47471 42.35039
# Shear Modulus (GPa) = 24.26089 34.13878 29.19984
#
# Velocity S-wave (km/s) = 3.28704 3.89921 3.60614
# Velocity P-wave (km/s) = 5.60627 6.40074 6.01663
#
# Compressibility (1/GPa) = 0.02616016
#
# Stress axis : x y z
#
# Youngs Moduli (GPa) = 45.83411 86.23210 55.14806
#
# Poissons Ratio (x) = -0.08035 0.46373
# Poissons Ratio (y) = -0.04271 0.28768
# Poissons Ratio (z) = 0.38541 0.44984
#
# Static dielectric constant tensor:
#      x y z
#    x 1.822310 0.026080 0.005810 
#    y 0.026080 1.896840 0.031190 
#    z 0.005810 0.031190 1.859420 
# 
# From -- ./inp_files/349537.got.cif
#   From: 2010.05.17/outbox.cif.g08.bks.cpg/sg2_175_cif.got.tgz:349537.got - 2010.06.03 11:33:40.
