data_PCOD9047290
_publ_section_title
;
Structure prediction by ZEFSAII (Michael W. Deem and Ramdas Pophale) SiO2 
 PCOD9047290
Probable space group: P -1
;
_chemical_formula_sum "Si O2"
_cell_formula_units_Z 14
_cell_length_a 12.135748
_cell_length_b 7.737861
_cell_length_c 7.928916
_cell_angle_alpha 58.219408
_cell_angle_beta 74.108691
_cell_angle_gamma 73.948555
_cell_volume 600.720602
_symmetry_space_group_name_H-M "P -1"
_symmetry_group_IT_number 2
_symmetry_cell_setting 'triclinic'
loop_
_space_group_symop_operation_xyz
x,y,z
-x,-y,-z
loop_
_atom_site_type_symbol
_atom_site_label
_atom_site_fract_x
_atom_site_fract_y
_atom_site_fract_z
Si Si1 0.325906 0.975855 0.873523
Si Si2 0.928793 0.825934 0.048530
Si Si3 0.371127 0.558092 0.941385
Si Si4 0.603679 0.615946 0.345826
Si Si5 0.130827 0.513735 0.255725
Si Si6 0.749867 0.270419 0.656882
Si Si7 0.885098 0.910196 0.630130
O O1 0.198337 0.112905 0.847656
O O2 0.412487 0.139866 0.752428
O O3 0.648224 0.194408 0.193839
O O4 0.323583 0.837664 0.117609
O O5 0.013325 0.613043 0.158856
O O6 0.899697 0.831797 0.858279
O O7 0.000000 0.000000 0.000000
O O8 0.368640 0.436676 0.832168
O O9 0.500000 0.500000 0.000000
O O10 0.255711 0.518841 0.110441
O O11 0.500000 0.500000 0.500000
O O12 0.698873 0.491723 0.491989
O O13 0.137393 0.671754 0.325289
O O14 0.128574 0.272730 0.396442
O O15 0.781421 0.102783 0.584407
O O16 0.000000 0.000000 0.500000
#
# Coordination Sequence:
#
# PCOD9047290 Si02
#       7
#     2   2   2   2   2   2   2
#     4  10  24  46  69  97 136 177 217 275 333 389
#     4  11  20  43  69  93 133 177 217 267 336 393
#     4  11  24  44  74  98 127 178 224 270 334 396
#     4  12  27  44  70 100 132 175 225 275 331 391
#     4  11  23  44  67  93 136 178 220 269 333 398
#     4  10  24  44  63  98 134 171 224 271 327 389
#     4  11  25  37  62 101 133 172 216 273 325 393
#
# _framework density 23.305342
#
# number of rings (size 3 to 8) (size 9 to 14) (size 15 to 20)
#    0.000    1.143    4.286    3.857    4.000    6.857 
#    0.000    0.000    0.000    0.000    0.000    0.000 
#    0.000    0.000    0.000    0.000    0.000    0.000 
#
# Total GULP energy -78141.490930 kJ/mol
# GULP energy per Si atom -5581.535066 kJ/mol
# Density = 2.325230 g / cm^3
# Si number density = 23.305342 Si / 1000 Ang^3
#
#
#
# Elastic Constant Matrix: (Units=GPa)
#
#
# Indices 1 2 3 4 5 6 
#
# 1 67.4868 -2.4022 14.6907 1.0517 -3.5891 -3.7919
# 2 -2.4022 99.7123 21.1475 -38.6887 -11.4242 6.2470
# 3 14.6907 21.1475 48.2264 -23.2953 0.1371 10.5355
# 4 1.0517 -38.6887 -23.2953 35.3931 10.1789 -10.8272
# 5 -3.5891 -11.4242 0.1371 10.1789 38.0321 -1.4930
# 6 -3.7919 6.2470 10.5355 -10.8272 -1.4930 31.6817
#
#
#
# Elastic Compliance Matrix: (Units=1/GPa)
#
#
# Indices 1 2 3 4 5 6 
#
# 1 0.017265 0.000002 -0.009124 -0.006618 0.003552 0.003006
# 2 0.000002 0.017891 0.002090 0.022059 -0.000408 0.003297
# 3 -0.009124 0.002090 0.037092 0.027832 -0.008000 -0.004705
# 4 -0.006618 0.022059 0.027832 0.078725 -0.014705 0.011814
# 5 0.003552 -0.000408 -0.008000 -0.014705 0.030454 -0.000424
# 6 0.003006 0.003297 -0.004705 0.011814 -0.000424 0.036856
#
#
# Mechanical properties :
#
#
# Convention : Reuss Voigt Hill
#
# Bulk Modulus (GPa) = 17.18652 31.36640 24.27646
# Shear Modulus (GPa) = 19.86163 33.15400 26.50782
#
# Velocity S-wave (km/s) = 2.92247 3.77582 3.37622
# Velocity P-wave (km/s) = 4.33339 5.70063 5.06337
#
# Compressibility (1/GPa) = 0.05818514
#
# Stress axis : x y z
#
# Youngs Moduli (GPa) = 57.92158 55.89357 26.95967
#
# Poissons Ratio (x) = -0.00009 0.24597
# Poissons Ratio (y) = -0.00009 -0.05636
# Poissons Ratio (z) = 0.52845 -0.11684
#
# Static dielectric constant tensor:
#      x y z
#    x 2.093410 0.018850 0.053270 
#    y 0.018850 1.938020 0.055200 
#    z 0.053270 0.055200 1.925560 
# 
# From -- ./inp_files/236642.got.cif
#   From: 2010.05.17/outbox.cif.g08.bks.cpg/sg2_119_cif.got.tgz:236642.got - 2010.06.03 11:33:40.
