data_PCOD9047717
_publ_section_title
;
Structure prediction by ZEFSAII (Michael W. Deem and Ramdas Pophale) SiO2 
 PCOD9047717
Probable space group: P -1
;
_chemical_formula_sum "Si O2"
_cell_formula_units_Z 16
_cell_length_a 11.502505
_cell_length_b 8.917544
_cell_length_c 14.013716
_cell_angle_alpha 83.886551
_cell_angle_beta 30.850707
_cell_angle_gamma 74.269290
_cell_volume 685.913410
_symmetry_space_group_name_H-M "P -1"
_symmetry_group_IT_number 2
_symmetry_cell_setting 'triclinic'
loop_
_space_group_symop_operation_xyz
x,y,z
-x,-y,-z
loop_
_atom_site_type_symbol
_atom_site_label
_atom_site_fract_x
_atom_site_fract_y
_atom_site_fract_z
Si Si1 0.824066 0.946384 0.194063
Si Si2 0.033219 0.335632 0.543754
Si Si3 0.335487 0.925033 0.492651
Si Si4 0.093126 0.443310 0.216546
Si Si5 0.402127 0.159860 0.158310
Si Si6 0.434908 0.560706 0.434700
Si Si7 0.167814 0.913149 0.262344
Si Si8 0.128858 0.574053 0.984016
O O1 0.560441 0.986507 0.329029
O O2 0.773960 0.033756 0.326088
O O3 0.954573 0.752476 0.123739
O O4 0.000000 0.000000 0.000000
O O5 0.299233 0.227397 0.328820
O O6 0.000000 0.500000 0.500000
O O7 0.976768 0.388476 0.688610
O O8 0.847093 0.242294 0.660316
O O9 0.452784 0.735598 0.403344
O O10 0.110819 0.994682 0.574840
O O11 0.275991 0.299951 0.159284
O O12 0.842241 0.413760 0.389657
O O13 0.181390 0.463738 0.048409
O O14 0.300916 0.015938 0.218102
O O15 0.681680 0.118905 0.940854
O O16 0.500000 0.500000 0.500000
O O17 0.618399 0.437383 0.241380
O O18 0.000000 0.500000 0.000000
#
# Coordination Sequence:
#
# PCOD9047717 Si02
#       8
#     2   2   2   2   2   2   2   2
#     4  11  25  43  67 100 139 180 228 282 354 423
#     4  10  24  44  69  98 139 182 236 293 349 413
#     4  11  24  43  67 101 138 180 228 292 346 414
#     4  11  24  43  68 100 137 182 230 286 354 409
#     4  10  24  45  70 102 138 190 238 288 348 419
#     4  12  23  42  71  98 141 181 234 284 348 427
#     4  11  23  44  71 101 142 179 241 291 350 421
#     4  12  24  42  68 100 135 179 231 285 349 419
#
# _framework density 23.326559
#
# number of rings (size 3 to 8) (size 9 to 14) (size 15 to 20)
#    0.000    1.000    3.750    1.875    0.000   10.000 
#    4.500    0.000    0.000    0.000    0.000    0.000 
#    0.000    0.000    0.000    0.000    0.000    0.000 
#
# Total GULP energy -89475.039892 kJ/mol
# GULP energy per Si atom -5592.189993 kJ/mol
# Density = 2.327347 g / cm^3
# Si number density = 23.326559 Si / 1000 Ang^3
#
#
#
# Elastic Constant Matrix: (Units=GPa)
#
#
# Indices 1 2 3 4 5 6 
#
# 1 53.8911 21.7087 21.5454 -3.0453 2.6955 -9.2007
# 2 21.7087 80.4914 21.3363 -9.8831 2.4772 -1.5210
# 3 21.5454 21.3363 136.5384 -11.0916 6.1499 -5.8599
# 4 -3.0453 -9.8831 -11.0916 40.2136 3.5825 4.7932
# 5 2.6955 2.4772 6.1499 3.5825 43.2085 7.0787
# 6 -9.2007 -1.5210 -5.8599 4.7932 7.0787 27.5997
#
#
#
# Elastic Compliance Matrix: (Units=1/GPa)
#
#
# Indices 1 2 3 4 5 6 
#
# 1 0.023077 -0.005495 -0.002454 -0.001007 -0.001927 0.007538
# 2 -0.005495 0.014582 -0.001225 0.003064 -0.000287 -0.001747
# 3 -0.002454 -0.001225 0.008137 0.001765 -0.001220 0.000848
# 4 -0.001007 0.003064 0.001765 0.026671 -0.001932 -0.003928
# 5 -0.001927 -0.000287 -0.001220 -0.001932 0.024749 -0.006929
# 6 0.007538 -0.001747 0.000848 -0.003928 -0.006929 0.041289
#
#
# Mechanical properties :
#
#
# Convention : Reuss Voigt Hill
#
# Bulk Modulus (GPa) = 36.43207 44.45574 40.44390
# Shear Modulus (GPa) = 30.11972 35.95972 33.03972
#
# Velocity S-wave (km/s) = 3.59725 3.93055 3.76759
# Velocity P-wave (km/s) = 5.73636 6.30066 6.02512
#
# Compressibility (1/GPa) = 0.02744835
#
# Stress axis : x y z
#
# Youngs Moduli (GPa) = 43.33276 68.57566 122.88968
#
# Poissons Ratio (x) = 0.37684 0.30161
# Poissons Ratio (y) = 0.23813 0.15051
# Poissons Ratio (z) = 0.10635 0.08399
#
# Static dielectric constant tensor:
#      x y z
#    x 1.887720 0.031220 0.025760 
#    y 0.031220 1.933030 0.019240 
#    z 0.025760 0.019240 1.869460 
# 
# From -- ./inp_files/515490.got.cif
#   From: 2010.05.17/outbox.cif.g08.bks.cpg/sg2_258_cif.got.tgz:515490.got - 2010.06.03 11:33:40.
