data_PCOD9047778
_publ_section_title
;
Structure prediction by ZEFSAII (Michael W. Deem and Ramdas Pophale) SiO2 
 PCOD9047778
Probable space group: P -1
;
_chemical_formula_sum "Si O2"
_cell_formula_units_Z 14
_cell_length_a 7.337695
_cell_length_b 12.660320
_cell_length_c 10.903347
_cell_angle_alpha 58.077634
_cell_angle_beta 73.758782
_cell_angle_gamma 119.220609
_cell_volume 515.957949
_symmetry_space_group_name_H-M "P -1"
_symmetry_group_IT_number 2
_symmetry_cell_setting 'triclinic'
loop_
_space_group_symop_operation_xyz
x,y,z
-x,-y,-z
loop_
_atom_site_type_symbol
_atom_site_label
_atom_site_fract_x
_atom_site_fract_y
_atom_site_fract_z
Si Si1 0.924675 0.180250 0.356945
Si Si2 0.448527 0.779790 0.523383
Si Si3 0.639894 0.435058 0.546750
Si Si4 0.721595 0.908538 0.768733
Si Si5 0.728946 0.462288 0.084775
Si Si6 0.758052 0.185868 0.927002
Si Si7 0.137495 0.157735 0.980565
O O1 0.822811 0.258859 0.391572
O O2 0.157464 0.351142 0.106363
O O3 0.683202 0.979952 0.440849
O O4 0.939078 0.101866 0.523554
O O5 0.477897 0.742823 0.403315
O O6 0.373751 0.612982 0.711135
O O7 0.498525 0.348885 0.762405
O O8 0.046345 0.809982 0.029126
O O9 0.993956 0.624710 0.327152
O O10 0.893052 0.929760 0.833145
O O11 0.555276 0.725241 0.826783
O O12 0.441024 0.839800 0.922437
O O13 0.000000 0.500000 0.000000
O O14 0.500000 0.000000 0.000000
O O15 0.500000 0.500000 0.500000
O O16 0.000000 0.000000 0.000000
#
# Coordination Sequence:
#
# PCOD9047778 Si02
#       7
#     2   2   2   2   2   2   2
#     4   9  19  35  67 110 139 186 238 304 364 433
#     4   9  18  37  67 107 141 185 243 301 361 437
#     4  10  24  44  70 103 145 196 238 304 370 437
#     4  11  23  40  72 107 148 192 243 305 372 442
#     4   9  18  38  67 108 142 182 245 306 365 433
#     4  11  23  43  70 101 140 195 247 300 368 438
#     4  11  25  47  64 107 152 191 248 305 362 447
#
# _framework density 27.133993
#
# number of rings (size 3 to 8) (size 9 to 14) (size 15 to 20)
#    0.000    2.000    1.429    2.571    2.000    1.714 
#    5.143    0.000    0.000   24.857    0.000    0.000 
#    0.000    0.000    0.000    0.143    0.000    0.000 
#
# Total GULP energy -78272.738498 kJ/mol
# GULP energy per Si atom -5590.909893 kJ/mol
# Density = 2.707224 g / cm^3
# Si number density = 27.133993 Si / 1000 Ang^3
#
#
#
# Elastic Constant Matrix: (Units=GPa)
#
#
# Indices 1 2 3 4 5 6 
#
# 1 149.4046 43.7472 69.3342 6.6733 5.9558 -11.2939
# 2 43.7472 104.8921 44.0262 -9.0939 9.6535 -9.8030
# 3 69.3342 44.0262 214.4152 -7.0542 20.0697 9.5886
# 4 6.6733 -9.0939 -7.0542 44.1251 -1.3764 -4.2997
# 5 5.9558 9.6535 20.0697 -1.3764 57.0103 13.0185
# 6 -11.2939 -9.8030 9.5886 -4.2997 13.0185 56.2154
#
#
#
# Elastic Compliance Matrix: (Units=1/GPa)
#
#
# Indices 1 2 3 4 5 6 
#
# 1 0.008828 -0.002695 -0.002440 -0.002129 -0.000015 0.001560
# 2 -0.002695 0.011877 -0.001422 0.002807 -0.001705 0.002382
# 3 -0.002440 -0.001422 0.005953 0.000852 -0.001261 -0.001396
# 4 -0.002129 0.002807 0.000852 0.023866 -0.000395 0.001833
# 5 -0.000015 -0.001705 -0.001261 -0.000395 0.019313 -0.004588
# 6 0.001560 0.002382 -0.001396 0.001833 -0.004588 0.019958
#
#
# Mechanical properties :
#
#
# Convention : Reuss Voigt Hill
#
# Bulk Modulus (GPa) = 73.82735 86.99191 80.40963
# Shear Modulus (GPa) = 46.54400 52.24377 49.39388
#
# Velocity S-wave (km/s) = 4.14616 4.39270 4.27121
# Velocity P-wave (km/s) = 7.08437 7.60641 7.35003
#
# Compressibility (1/GPa) = 0.01354512
#
# Stress axis : x y z
#
# Youngs Moduli (GPa) = 113.27172 84.19324 167.97679
#
# Poissons Ratio (x) = 0.22693 0.40982
# Poissons Ratio (y) = 0.30531 0.23882
# Poissons Ratio (z) = 0.27636 0.11970
#
# Static dielectric constant tensor:
#      x y z
#    x 2.555030 -0.121760 -0.075700 
#    y -0.121760 2.113370 -0.033130 
#    z -0.075700 -0.033130 2.201400 
# 
# From -- ./inp_files/429779.got.cif
#   From: 2010.05.17/outbox.cif.g08.bks.cpg/sg2_215_cif.got.tgz:429779.got - 2010.06.03 11:33:40.
