data_PCOD9047046
_publ_section_title
;
Structure prediction by ZEFSAII (Michael W. Deem and Ramdas Pophale) SiO2 
 PCOD9047046
Probable space group: P -1
;
_chemical_formula_sum "Si O2"
_cell_formula_units_Z 14
_cell_length_a 8.732000
_cell_length_b 18.795754
_cell_length_c 12.737869
_cell_angle_alpha 154.140742
_cell_angle_beta 116.341553
_cell_angle_gamma 46.243170
_cell_volume 542.498656
_symmetry_space_group_name_H-M "P -1"
_symmetry_group_IT_number 2
_symmetry_cell_setting 'triclinic'
loop_
_space_group_symop_operation_xyz
x,y,z
-x,-y,-z
loop_
_atom_site_type_symbol
_atom_site_label
_atom_site_fract_x
_atom_site_fract_y
_atom_site_fract_z
Si Si1 0.578606 0.957696 0.088465
Si Si2 0.756076 0.549795 0.992010
Si Si3 0.514894 0.047204 0.402531
Si Si4 0.702608 0.498739 0.539525
Si Si5 0.920362 0.238775 0.821348
Si Si6 0.971450 0.822965 0.596458
Si Si7 0.113357 0.752586 0.948109
O O1 0.610731 0.748728 0.863953
O O2 0.843160 0.861990 0.030551
O O3 0.500000 0.000000 0.000000
O O4 0.433880 0.158861 0.405936
O O5 0.524521 0.822161 0.329490
O O6 0.795813 0.426696 0.731660
O O7 0.000000 0.500000 0.000000
O O8 0.768547 0.412101 0.906621
O O9 0.302474 0.057169 0.361418
O O10 0.824021 0.825412 0.188460
O O11 0.500000 0.500000 0.500000
O O12 0.948920 0.274337 0.388434
O O13 0.747841 0.455566 0.371881
O O14 0.777736 0.325219 0.004405
O O15 0.000000 0.000000 0.500000
O O16 0.941000 0.033132 0.836038
#
# Coordination Sequence:
#
# PCOD9047046 Si02
#       7
#     2   2   2   2   2   2   2
#     4  11  24  43  66 100 135 177 228 286 344 398
#     4  10  24  43  70  99 139 180 226 278 335 415
#     4  10  25  42  72  95 139 179 225 280 336 408
#     4  12  26  43  71 101 135 185 231 276 347 410
#     4  11  24  46  67 105 136 178 229 278 349 396
#     4  11  23  46  66 100 137 179 232 280 338 411
#     4  11  24  43  68  96 139 173 225 292 332 403
#
# _framework density 25.806516999999999
#
# number of rings (size 3 to 8) (size 9 to 14) (size 15 to 20)
#    0.000    1.143    1.429    3.429   10.000    4.000 
#    0.000    0.000    0.000    0.000    0.000    0.000 
#    0.000    0.000    0.000    0.000    0.000    0.000 
#
# Total GULP energy -78145.628990 kJ/mol
# GULP energy per Si atom -5581.830642 kJ/mol
# Density = 2.574778 g / cm^3
# Si number density = 25.806517 Si / 1000 Ang^3
#
#
#
# Elastic Constant Matrix: (Units=GPa)
#
#
# Indices 1 2 3 4 5 6 
#
# 1 97.4475 33.0370 23.1507 8.4411 10.5901 -1.4821
# 2 33.0370 127.6885 24.5710 -14.6679 5.8321 25.5880
# 3 23.1507 24.5710 100.9069 -28.1080 -2.7218 23.4369
# 4 8.4411 -14.6679 -28.1080 44.0455 23.6331 -3.8020
# 5 10.5901 5.8321 -2.7218 23.6331 52.9889 -6.6150
# 6 -1.4821 25.5880 23.4369 -3.8020 -6.6150 54.5620
#
#
#
# Elastic Compliance Matrix: (Units=1/GPa)
#
#
# Indices 1 2 3 4 5 6 
#
# 1 0.013526 -0.004318 -0.005160 -0.007760 0.001499 0.004250
# 2 -0.004318 0.010841 0.001619 0.007216 -0.004202 -0.005904
# 3 -0.005160 0.001619 0.016290 0.014290 -0.005630 -0.007583
# 4 -0.007760 0.007216 0.014290 0.045668 -0.019998 -0.008975
# 5 0.001499 -0.004202 -0.005630 -0.019998 0.028475 0.006489
# 6 0.004250 -0.005904 -0.007583 -0.008975 0.006489 0.024630
#
#
# Mechanical properties :
#
#
# Convention : Reuss Voigt Hill
#
# Bulk Modulus (GPa) = 40.09984 54.17335 47.13660
# Shear Modulus (GPa) = 30.58817 46.67156 38.62986
#
# Velocity S-wave (km/s) = 3.44654 4.25728 3.87318
# Velocity P-wave (km/s) = 5.60451 6.72336 6.18927
#
# Compressibility (1/GPa) = 0.02493775
#
# Stress axis : x y z
#
# Youngs Moduli (GPa) = 73.93300 92.24042 61.38859
#
# Poissons Ratio (x) = 0.39831 0.31677
# Poissons Ratio (y) = 0.31925 -0.09937
# Poissons Ratio (z) = 0.38150 -0.14931
#
# Static dielectric constant tensor:
#      x y z
#    x 1.665180 -0.446610 0.149610 
#    y -0.446610 1.519820 0.292250 
#    z 0.149610 0.292250 1.791670 
# 
# From -- ./inp_files/206635.got.cif
#   From: 2010.05.17/outbox.cif.g08.bks.cpg/sg2_104_cif.got.tgz:206635.got - 2010.06.03 11:33:40.
