data_PCOD9047143
_publ_section_title
;
Structure prediction by ZEFSAII (Michael W. Deem and Ramdas Pophale) SiO2 
 PCOD9047143
Probable space group: P -1
;
_chemical_formula_sum "Si O2"
_cell_formula_units_Z 15
_cell_length_a 12.289032
_cell_length_b 8.717187
_cell_length_c 9.346041
_cell_angle_alpha 58.713415
_cell_angle_beta 131.875362
_cell_angle_gamma 126.176915
_cell_volume 588.539525
_symmetry_space_group_name_H-M "P -1"
_symmetry_group_IT_number 2
_symmetry_cell_setting 'triclinic'
loop_
_space_group_symop_operation_xyz
x,y,z
-x,-y,-z
loop_
_atom_site_type_symbol
_atom_site_label
_atom_site_fract_x
_atom_site_fract_y
_atom_site_fract_z
Si Si1 0.841433 0.784189 0.916848
Si Si2 0.146325 0.986195 0.929597
Si Si3 0.500000 0.500000 0.000000
Si Si4 0.779987 0.121372 0.540801
Si Si5 0.731864 0.464483 0.474908
Si Si6 0.565189 0.142797 0.718715
Si Si7 0.064165 0.787853 0.666688
Si Si8 0.653566 0.359470 0.966887
O O1 0.709486 0.582481 0.857959
O O2 0.839904 0.815113 0.072846
O O3 0.811703 0.969038 0.744948
O O4 0.005360 0.813795 0.971169
O O5 0.305722 0.952829 0.111311
O O6 0.106723 0.954771 0.743372
O O7 0.615419 0.509053 0.240091
O O8 0.426602 0.640016 0.952852
O O9 0.812691 0.330771 0.532553
O O10 0.879000 0.136846 0.477756
O O11 0.594969 0.015465 0.400711
O O12 0.631250 0.327618 0.581671
O O13 0.879902 0.648785 0.574173
O O14 0.545479 0.214443 0.825172
O O15 0.183099 0.676742 0.861191
#
# Coordination Sequence:
#
# PCOD9047143 Si02
#       8
#     2   2   1   2   2   2   2   2
#     4  11  24  43  72 109 147 181 254 285 363 420
#     4  10  24  43  72 111 137 192 230 307 343 437
#     4  12  28  42  72 104 144 182 250 290 360 410
#     4  12  26  45  71 110 146 195 229 307 358 428
#     4  12  25  48  74 108 141 199 235 303 350 443
#     4  11  25  48  76 102 152 186 248 284 371 420
#     4  11  26  49  76 102 153 188 242 285 378 418
#     4  11  26  46  74 110 140 197 234 305 348 443
#
# _framework density 25.486819000000001
#
# number of rings (size 3 to 8) (size 9 to 14) (size 15 to 20)
#    0.000    0.800    2.667    3.200    3.733    9.067 
#    0.000    0.000    0.000    0.000    0.000    0.000 
#    0.000    0.000    0.000    0.000    0.000    0.000 
#
# Total GULP energy -83843.503118 kJ/mol
# GULP energy per Si atom -5589.566875 kJ/mol
# Density = 2.542881 g / cm^3
# Si number density = 25.486819 Si / 1000 Ang^3
#
#
#
# Elastic Constant Matrix: (Units=GPa)
#
#
# Indices 1 2 3 4 5 6 
#
# 1 71.4612 6.8752 -8.6823 -2.9686 -3.7652 -9.8007
# 2 6.8752 43.7640 -1.4862 -3.2995 -1.1654 6.6608
# 3 -8.6823 -1.4862 83.3436 1.2850 9.9820 12.9683
# 4 -2.9686 -3.2995 1.2850 31.3234 -4.1191 -7.6513
# 5 -3.7652 -1.1654 9.9820 -4.1191 48.0529 7.1598
# 6 -9.8007 6.6608 12.9683 -7.6513 7.1598 39.6114
#
#
#
# Elastic Compliance Matrix: (Units=1/GPa)
#
#
# Indices 1 2 3 4 5 6 
#
# 1 0.015063 -0.002813 0.000757 0.002214 0.000506 0.004288
# 2 -0.002813 0.024192 0.000769 0.001172 0.001049 -0.004979
# 3 0.000757 0.000769 0.013019 -0.001675 -0.002153 -0.004139
# 4 0.002214 0.001172 -0.001675 0.034382 0.002439 0.007100
# 5 0.000506 0.001049 -0.002153 0.002439 0.021956 -0.002844
# 6 0.004288 -0.004979 -0.004139 0.007100 -0.002844 0.030384
#
#
# Mechanical properties :
#
#
# Convention : Reuss Voigt Hill
#
# Bulk Modulus (GPa) = 20.12036 21.33134 20.72585
# Shear Modulus (GPa) = 31.61858 37.25501 34.43680
#
# Velocity S-wave (km/s) = 3.52602 3.82741 3.67980
# Velocity P-wave (km/s) = 4.94860 5.28392 5.11901
#
# Compressibility (1/GPa) = 0.04970089
#
# Stress axis : x y z
#
# Youngs Moduli (GPa) = 66.38798 41.33605 76.81187
#
# Poissons Ratio (x) = 0.11627 -0.05815
# Poissons Ratio (y) = 0.18674 -0.05910
# Poissons Ratio (z) = -0.05026 -0.03180
#
# Static dielectric constant tensor:
#      x y z
#    x 2.047580 0.025340 0.015180 
#    y 0.025340 1.989780 -0.063930 
#    z 0.015180 -0.063930 2.137180 
# 
# From -- ./inp_files/238047.got.cif
#   From: 2010.05.17/outbox.cif.g08.bks.cpg/sg2_120_cif.got.tgz:238047.got - 2010.06.03 11:33:40.
