data_PCOD9047302
_publ_section_title
;
Structure prediction by ZEFSAII (Michael W. Deem and Ramdas Pophale) SiO2 
 PCOD9047302
Probable space group: P -1
;
_chemical_formula_sum "Si O2"
_cell_formula_units_Z 15
_cell_length_a 15.835390
_cell_length_b 9.083498
_cell_length_c 8.446772
_cell_angle_alpha 62.289257
_cell_angle_beta 146.632456
_cell_angle_gamma 114.926227
_cell_volume 590.241363
_symmetry_space_group_name_H-M "P -1"
_symmetry_group_IT_number 2
_symmetry_cell_setting 'triclinic'
loop_
_space_group_symop_operation_xyz
x,y,z
-x,-y,-z
loop_
_atom_site_type_symbol
_atom_site_label
_atom_site_fract_x
_atom_site_fract_y
_atom_site_fract_z
Si Si1 0.689933 0.380157 0.148727
Si Si2 0.500000 0.500000 0.500000
Si Si3 0.286354 0.970263 0.796661
Si Si4 0.465793 0.231692 0.099130
Si Si5 0.132073 0.305666 0.670098
Si Si6 0.027757 0.982259 0.866056
Si Si7 0.399364 0.783299 0.351741
Si Si8 0.902768 0.348819 0.006769
O O1 0.724413 0.196544 0.239409
O O2 0.598566 0.361827 0.179060
O O3 0.840377 0.505104 0.321252
O O4 0.577414 0.455547 0.809875
O O5 0.527765 0.707088 0.483227
O O6 0.132140 0.051352 0.463620
O O7 0.304852 0.908739 0.038316
O O8 0.428798 0.107051 0.955869
O O9 0.537455 0.163051 0.406623
O O10 0.297003 0.284236 0.854666
O O11 0.103235 0.154252 0.824122
O O12 0.992879 0.303942 0.328602
O O13 0.112619 0.813867 0.048980
O O14 0.000000 0.000000 0.000000
O O15 0.275198 0.618503 0.248476
O O16 0.000000 0.500000 0.000000
#
# Coordination Sequence:
#
# PCOD9047302 Si02
#       8
#     2   1   2   2   2   2   2   2
#     4  11  26  44  73 111 151 197 252 303 383 444
#     4  10  24  44  64 108 150 184 240 320 358 438
#     4  11  25  48  70 108 152 197 250 315 370 444
#     4  12  24  46  77 107 148 200 251 311 374 450
#     4  12  25  50  77 104 156 199 250 315 371 449
#     4  12  29  50  74 110 155 201 253 311 382 444
#     4  11  24  46  73 106 148 195 254 300 385 440
#     4  12  27  48  78 109 149 199 257 308 375 454
#
# _framework density 25.413330999999999
#
# number of rings (size 3 to 8) (size 9 to 14) (size 15 to 20)
#    0.000    0.533    4.000    3.200    5.600    3.733 
#    0.000    0.000    0.000    0.000    0.000    0.000 
#    0.000    0.000    0.000    0.000    0.000    0.000 
#
# Total GULP energy -83648.785249 kJ/mol
# GULP energy per Si atom -5576.585683 kJ/mol
# Density = 2.535549 g / cm^3
# Si number density = 25.413331 Si / 1000 Ang^3
#
#
#
# Elastic Constant Matrix: (Units=GPa)
#
#
# Indices 1 2 3 4 5 6 
#
# 1 73.5194 31.4973 7.9284 14.0581 -12.6388 14.0458
# 2 31.4973 131.7601 -0.2384 27.2988 5.5225 12.2010
# 3 7.9284 -0.2384 109.3451 19.5289 1.3705 -2.3050
# 4 14.0581 27.2988 19.5289 34.8178 -0.8615 1.9756
# 5 -12.6388 5.5225 1.3705 -0.8615 26.8632 6.6722
# 6 14.0458 12.2010 -2.3050 1.9756 6.6722 41.9922
#
#
#
# Elastic Compliance Matrix: (Units=1/GPa)
#
#
# Indices 1 2 3 4 5 6 
#
# 1 0.019344 -0.003700 -0.001058 -0.003625 0.011568 -0.007121
# 2 -0.003700 0.010274 0.001678 -0.007564 -0.004017 -0.000661
# 3 -0.001058 0.001678 0.010501 -0.006885 -0.001863 0.001063
# 4 -0.003625 -0.007564 -0.006885 0.039954 0.001245 0.000955
# 5 0.011568 -0.004017 -0.001863 0.001245 0.046162 -0.010198
# 6 -0.007121 -0.000661 0.001063 0.000955 -0.010198 0.028021
#
#
# Mechanical properties :
#
#
# Convention : Reuss Voigt Hill
#
# Bulk Modulus (GPa) = 29.44867 43.66659 36.55763
# Shear Modulus (GPa) = 29.11447 39.09713 34.10580
#
# Velocity S-wave (km/s) = 3.38840 3.92656 3.66737
# Velocity P-wave (km/s) = 5.18858 6.14630 5.68764
#
# Compressibility (1/GPa) = 0.03395739
#
# Stress axis : x y z
#
# Youngs Moduli (GPa) = 51.69690 97.33324 95.22797
#
# Poissons Ratio (x) = 0.36017 0.10078
# Poissons Ratio (y) = 0.19130 -0.15980
# Poissons Ratio (z) = 0.05471 -0.16333
#
# Static dielectric constant tensor:
#      x y z
#    x 2.214430 -0.088800 0.111260 
#    y -0.088800 2.255940 -0.043270 
#    z 0.111260 -0.043270 1.955410 
# 
# From -- ./inp_files/328641.got.cif
#   From: 2010.05.17/outbox.cif.g08.bks.cpg/sg2_165_cif.got.tgz:328641.got - 2010.06.03 11:33:40.
