data_PCOD9047146
_publ_section_title
;
Structure prediction by ZEFSAII (Michael W. Deem and Ramdas Pophale) SiO2 
 PCOD9047146
Probable space group: P -1
;
_chemical_formula_sum "Si O2"
_cell_formula_units_Z 16
_cell_length_a 12.525810
_cell_length_b 17.845589
_cell_length_c 8.382032
_cell_angle_alpha 42.209372
_cell_angle_beta 145.996409
_cell_angle_gamma 136.320947
_cell_volume 673.593251
_symmetry_space_group_name_H-M "P -1"
_symmetry_group_IT_number 2
_symmetry_cell_setting 'triclinic'
loop_
_space_group_symop_operation_xyz
x,y,z
-x,-y,-z
loop_
_atom_site_type_symbol
_atom_site_label
_atom_site_fract_x
_atom_site_fract_y
_atom_site_fract_z
Si Si1 0.667749 0.010212 0.502976
Si Si2 0.864600 0.869561 0.536237
Si Si3 0.498180 0.816120 0.374677
Si Si4 0.582020 0.824740 0.946181
Si Si5 0.438807 0.547633 0.118738
Si Si6 0.876947 0.192560 0.252832
Si Si7 0.912601 0.569852 0.907398
Si Si8 0.282777 0.560041 0.574042
O O1 0.502106 0.929898 0.303124
O O2 0.700124 0.911171 0.816185
O O3 0.590101 0.110142 0.334892
O O4 0.850695 0.082559 0.506423
O O5 0.721717 0.836133 0.560210
O O6 0.035710 0.808854 0.814693
O O7 0.721409 0.841977 0.247581
O O8 0.000000 0.000000 0.500000
O O9 0.426451 0.691972 0.562681
O O10 0.346653 0.802681 0.059670
O O11 0.500264 0.686978 0.017862
O O12 0.306374 0.478502 0.212229
O O13 0.295458 0.511721 0.841741
O O14 0.623392 0.503520 0.349240
O O15 0.037328 0.309077 0.320190
O O16 0.069706 0.571097 0.242474
O O17 0.000000 0.500000 0.000000
#
# Coordination Sequence:
#
# PCOD9047146 Si02
#       8
#     2   2   2   2   2   2   2   2
#     4  11  21  43  66  93 134 172 215 269 334 395
#     4  12  24  40  66  98 131 172 219 267 329 398
#     4  11  21  44  67  96 130 176 217 270 333 401
#     4  11  25  40  69  99 130 178 216 273 335 389
#     4  11  23  47  67  97 136 174 227 277 328 397
#     4  11  23  40  66  94 132 169 216 267 329 389
#     4  11  25  41  68 103 128 175 222 276 330 394
#     4  10  24  43  72  94 133 182 220 275 336 388
#
# _framework density 23.753205999999999
#
# number of rings (size 3 to 8) (size 9 to 14) (size 15 to 20)
#    0.000    1.000    3.750    3.000    3.500    1.000 
#    0.000    0.000    0.000    0.000    0.000    0.000 
#    0.000    0.000    0.000    0.000    0.000    0.000 
#
# Total GULP energy -89154.971368 kJ/mol
# GULP energy per Si atom -5572.185711 kJ/mol
# Density = 2.369914 g / cm^3
# Si number density = 23.753206 Si / 1000 Ang^3
#
#
#
# Elastic Constant Matrix: (Units=GPa)
#
#
# Indices 1 2 3 4 5 6 
#
# 1 118.7884 60.1785 16.1601 -6.5284 9.3231 18.0470
# 2 60.1785 140.3510 28.6761 -18.4236 10.5707 1.7543
# 3 16.1601 28.6761 52.0263 4.3055 4.6976 12.1288
# 4 -6.5284 -18.4236 4.3055 40.3535 -2.9610 4.5904
# 5 9.3231 10.5707 4.6976 -2.9610 40.3300 -2.4943
# 6 18.0470 1.7543 12.1288 4.5904 -2.4943 39.1998
#
#
#
# Elastic Compliance Matrix: (Units=1/GPa)
#
#
# Indices 1 2 3 4 5 6 
#
# 1 0.011853 -0.004965 0.000499 0.000090 -0.001831 -0.005516
# 2 -0.004965 0.010964 -0.005500 0.004412 -0.000579 0.002943
# 3 0.000499 -0.005500 0.024330 -0.004380 -0.002271 -0.007143
# 4 0.000090 0.004412 -0.004380 0.027599 0.001233 -0.002037
# 5 -0.001831 -0.000579 -0.002271 0.001233 0.025916 0.003076
# 6 -0.005516 0.002943 -0.007143 -0.002037 0.003076 0.030563
#
#
# Mechanical properties :
#
#
# Convention : Reuss Voigt Hill
#
# Bulk Modulus (GPa) = 36.74510 57.91056 47.32783
# Shear Modulus (GPa) = 31.20561 37.72008 34.46285
#
# Velocity S-wave (km/s) = 3.62849 3.98929 3.81316
# Velocity P-wave (km/s) = 5.74958 6.75665 6.27336
#
# Compressibility (1/GPa) = 0.02721451
#
# Stress axis : x y z
#
# Youngs Moduli (GPa) = 84.36981 91.21111 41.10115
#
# Poissons Ratio (x) = 0.45289 -0.02051
# Poissons Ratio (y) = 0.41892 0.22604
# Poissons Ratio (z) = -0.04210 0.50163
#
# Static dielectric constant tensor:
#      x y z
#    x 1.162860 0.979610 -0.395770 
#    y 0.979610 0.663180 0.443110 
#    z -0.395770 0.443110 1.783130 
# 
# From -- ./inp_files/273177.got.cif
#   From: 2010.05.17/outbox.cif.g08.bks.cpg/sg2_137_cif.got.tgz:273177.got - 2010.06.03 11:33:40.
