data_PCOD9047475
_publ_section_title
;
Structure prediction by ZEFSAII (Michael W. Deem and Ramdas Pophale) SiO2 
 PCOD9047475
Probable space group: P -1
;
_chemical_formula_sum "Si O2"
_cell_formula_units_Z 12
_cell_length_a 13.500185
_cell_length_b 5.158067
_cell_length_c 14.038638
_cell_angle_alpha 84.055864
_cell_angle_beta 29.342846
_cell_angle_gamma 74.032754
_cell_volume 440.888770
_symmetry_space_group_name_H-M "P -1"
_symmetry_group_IT_number 2
_symmetry_cell_setting 'triclinic'
loop_
_space_group_symop_operation_xyz
x,y,z
-x,-y,-z
loop_
_atom_site_type_symbol
_atom_site_label
_atom_site_fract_x
_atom_site_fract_y
_atom_site_fract_z
Si Si1 0.663162 0.365560 0.510754
Si Si2 0.950395 0.022803 0.928104
Si Si3 0.745994 0.098865 0.857490
Si Si4 0.788103 0.586698 0.105448
Si Si5 0.972273 0.542102 0.351900
Si Si6 0.358516 0.602337 0.258398
O O1 0.422479 0.436506 0.667706
O O2 0.618707 0.284892 0.659387
O O3 0.779026 0.584921 0.432630
O O4 0.839689 0.148524 0.302685
O O5 0.857121 0.352971 0.974454
O O6 0.000000 0.000000 0.000000
O O7 0.767007 0.891256 0.076703
O O8 0.939957 0.214518 0.710092
O O9 0.677370 0.169613 0.802478
O O10 0.835216 0.766221 0.815285
O O11 0.549013 0.315003 0.075751
O O12 0.000000 0.500000 0.000000
O O13 0.851599 0.477368 0.547226
#
# Coordination Sequence:
#
# PCOD9047475 Si02
#       6
#     2   2   2   2   2   2
#     4  10  25  40  66 103 121 174 215 264 311 387
#     4  10  24  44  67  92 128 166 207 269 322 381
#     4  11  22  46  61  95 130 179 201 270 317 367
#     4  10  24  45  68  93 129 166 212 267 324 380
#     4  10  25  38  67  91 134 166 221 258 315 377
#     4   9  24  40  67  95 130 169 222 253 317 382
#
# _framework density 27.217748
#
# number of rings (size 3 to 8) (size 9 to 14) (size 15 to 20)
#    1.000    1.000    0.000    1.000    4.667   12.000 
#    0.000    0.000    0.000    0.000    0.000    0.000 
#    0.000    0.000    0.000    0.000    0.000    0.000 
#
# Total GULP energy -67080.660540 kJ/mol
# GULP energy per Si atom -5590.055045 kJ/mol
# Density = 2.715580 g / cm^3
# Si number density = 27.217748 Si / 1000 Ang^3
#
#
#
# Elastic Constant Matrix: (Units=GPa)
#
#
# Indices 1 2 3 4 5 6 
#
# 1 114.0160 30.6228 49.8491 -8.8480 6.2070 0.5115
# 2 30.6228 142.0325 15.6812 -4.5904 -9.0845 17.3820
# 3 49.8491 15.6812 174.2940 15.2310 2.3522 13.1617
# 4 -8.8480 -4.5904 15.2310 22.9113 4.7930 -3.8017
# 5 6.2070 -9.0845 2.3522 4.7930 58.0242 -8.4712
# 6 0.5115 17.3820 13.1617 -3.8017 -8.4712 38.0339
#
#
#
# Elastic Compliance Matrix: (Units=1/GPa)
#
#
# Indices 1 2 3 4 5 6 
#
# 1 0.011806 -0.002292 -0.004009 0.007560 -0.001696 0.002654
# 2 -0.002292 0.007997 0.000204 -0.000207 0.000996 -0.003493
# 3 -0.004009 0.000204 0.007754 -0.007278 0.000252 -0.003394
# 4 0.007560 -0.000207 -0.007278 0.053342 -0.003935 0.006967
# 5 -0.001696 0.000996 0.000252 -0.003935 0.018350 0.003174
# 6 0.002654 -0.003493 -0.003394 0.006967 0.003174 0.030431
#
#
# Mechanical properties :
#
#
# Convention : Reuss Voigt Hill
#
# Bulk Modulus (GPa) = 65.08143 69.18317 67.13230
# Shear Modulus (GPa) = 34.01509 46.07316 40.04413
#
# Velocity S-wave (km/s) = 3.53900 4.11878 3.83985
# Velocity P-wave (km/s) = 6.37673 6.93489 6.66166
#
# Compressibility (1/GPa) = 0.01536537
#
# Stress axis : x y z
#
# Youngs Moduli (GPa) = 84.70331 125.05120 128.95882
#
# Poissons Ratio (x) = 0.28659 0.51693
# Poissons Ratio (y) = 0.19412 -0.02636
# Poissons Ratio (z) = 0.33953 -0.02556
#
# Static dielectric constant tensor:
#      x y z
#    x 2.381690 -0.173280 -0.011880 
#    y -0.173280 2.279700 -0.061760 
#    z -0.011880 -0.061760 2.165630 
# 
# From -- ./inp_files/524775.got.cif
#   From: 2010.05.17/outbox.cif.g08.bks.cpg/sg2_263_cif.got.tgz:524775.got - 2010.06.03 11:33:40.
