data_PCOD9047664
_publ_section_title
;
Structure prediction by ZEFSAII (Michael W. Deem and Ramdas Pophale) SiO2 
 PCOD9047664
Probable space group: P -1
;
_chemical_formula_sum "Si O2"
_cell_formula_units_Z 16
_cell_length_a 5.425669
_cell_length_b 8.035413
_cell_length_c 20.071966
_cell_angle_alpha 64.882135
_cell_angle_beta 50.618618
_cell_angle_gamma 77.460019
_cell_volume 610.721829
_symmetry_space_group_name_H-M "P -1"
_symmetry_group_IT_number 2
_symmetry_cell_setting 'triclinic'
loop_
_space_group_symop_operation_xyz
x,y,z
-x,-y,-z
loop_
_atom_site_type_symbol
_atom_site_label
_atom_site_fract_x
_atom_site_fract_y
_atom_site_fract_z
Si Si1 0.050562 0.818820 0.150949
Si Si2 0.462775 0.540366 0.290673
Si Si3 0.207681 0.009268 0.220785
Si Si4 0.135789 0.802742 0.939474
Si Si5 0.583146 0.548072 0.123303
Si Si6 0.765875 0.200636 0.346075
Si Si7 0.024958 0.746106 0.412234
Si Si8 0.678990 0.163363 0.512228
O O1 0.321391 0.675616 0.112211
O O2 0.703080 0.722731 0.212773
O O3 0.061695 0.854422 0.222562
O O4 0.058123 0.029463 0.085854
O O5 0.422371 0.482732 0.231069
O O6 0.650655 0.399889 0.323961
O O7 0.154862 0.577893 0.378733
O O8 0.532703 0.086849 0.117291
O O9 0.990111 0.174355 0.247847
O O10 0.193035 0.918967 0.311963
O O11 0.274997 0.634601 0.901418
O O12 0.896214 0.693437 0.049589
O O13 0.877611 0.174659 0.407643
O O14 0.468166 0.046791 0.416188
O O15 0.150391 0.766954 0.461953
O O16 0.647631 0.742427 0.465777
#
# Coordination Sequence:
#
# PCOD9047664 Si02
#       8
#     2   2   2   2   2   2   2   2
#     4  12  23  45  67 102 139 196 234 296 367 427
#     4  12  24  42  69 101 140 186 237 300 358 447
#     4  11  23  43  70  97 135 192 231 297 358 440
#     4  11  25  45  70  99 145 183 239 302 361 435
#     4  11  26  43  67 109 135 185 244 296 364 437
#     4  10  24  44  69 102 136 187 241 295 370 430
#     4  11  23  44  71 100 145 186 244 295 373 436
#     4  10  25  48  69 105 142 193 242 306 369 447
#
# _framework density 26.198505000000001
#
# number of rings (size 3 to 8) (size 9 to 14) (size 15 to 20)
#    0.000    1.000    2.500    3.375    1.750    8.500 
#    2.250    3.125    0.000    0.000    0.000    0.000 
#    0.000    0.000    0.000    0.000    0.000    0.000 
#
# Total GULP energy -89436.985166 kJ/mol
# GULP energy per Si atom -5589.811573 kJ/mol
# Density = 2.613888 g / cm^3
# Si number density = 26.198505 Si / 1000 Ang^3
#
#
#
# Elastic Constant Matrix: (Units=GPa)
#
#
# Indices 1 2 3 4 5 6 
#
# 1 95.4471 29.6566 45.5210 13.3232 8.6271 -12.4993
# 2 29.6566 113.6422 41.7277 11.8926 11.5427 -16.4005
# 3 45.5210 41.7277 92.8950 2.2862 -4.6347 10.0571
# 4 13.3232 11.8926 2.2862 44.9923 -1.1568 -6.7728
# 5 8.6271 11.5427 -4.6347 -1.1568 36.2299 5.8861
# 6 -12.4993 -16.4005 10.0571 -6.7728 5.8861 26.7024
#
#
#
# Elastic Compliance Matrix: (Units=1/GPa)
#
#
# Indices 1 2 3 4 5 6 
#
# 1 0.019857 0.004197 -0.014094 -0.003748 -0.011020 0.018660
# 2 0.004197 0.015819 -0.011543 -0.002440 -0.010472 0.017718
# 3 -0.014094 -0.011543 0.026382 0.002306 0.014753 -0.026290
# 4 -0.003748 -0.002440 0.002306 0.024146 0.002500 0.001452
# 5 -0.011020 -0.010472 0.014753 0.002500 0.039631 -0.025249
# 6 0.018660 0.017718 -0.026290 0.001452 -0.025249 0.072902
#
#
# Mechanical properties :
#
#
# Convention : Reuss Voigt Hill
#
# Bulk Modulus (GPa) = 52.14060 59.53278 55.83669
# Shear Modulus (GPa) = 20.16054 33.92351 27.04202
#
# Velocity S-wave (km/s) = 2.77705 3.60233 3.21627
# Velocity P-wave (km/s) = 5.49800 6.33051 5.92889
#
# Compressibility (1/GPa) = 0.01917891
#
# Stress axis : x y z
#
# Youngs Moduli (GPa) = 50.35938 63.21708 37.90495
#
# Poissons Ratio (x) = -0.26535 0.53422
# Poissons Ratio (y) = -0.21138 0.43754
# Poissons Ratio (z) = 0.70975 0.72971
#
# Static dielectric constant tensor:
#      x y z
#    x 2.072820 -0.054900 -0.002880 
#    y -0.054900 2.183780 0.001780 
#    z -0.002880 0.001780 2.002700 
# 
# From -- ./inp_files/582312.got.cif
#   From: 2010.05.17/outbox.cif.g08.bks.cpg/sg2_292_cif.got.tgz:582312.got - 2010.06.03 11:33:40.
