data_PCOD9047938
_publ_section_title
;
Structure prediction by ZEFSAII (Michael W. Deem and Ramdas Pophale) SiO2 
 PCOD9047938
Probable space group: P -1
;
_chemical_formula_sum "Si O2"
_cell_formula_units_Z 12
_cell_length_a 7.336725
_cell_length_b 8.712028
_cell_length_c 12.274681
_cell_angle_alpha 117.541504
_cell_angle_beta 99.079175
_cell_angle_gamma 127.832544
_cell_volume 426.550579
_symmetry_space_group_name_H-M "P -1"
_symmetry_group_IT_number 2
_symmetry_cell_setting 'triclinic'
loop_
_space_group_symop_operation_xyz
x,y,z
-x,-y,-z
loop_
_atom_site_type_symbol
_atom_site_label
_atom_site_fract_x
_atom_site_fract_y
_atom_site_fract_z
Si Si1 0.463896 0.206398 0.805954
Si Si2 0.822866 0.790213 0.515042
Si Si3 0.718219 0.065897 0.657547
Si Si4 0.997761 0.839725 0.064686
Si Si5 0.928405 0.513793 0.374683
Si Si6 0.233762 0.960435 0.911350
O O1 0.111570 0.971740 0.678438
O O2 0.545495 0.095083 0.709716
O O3 0.680718 0.521178 0.895232
O O4 0.502801 0.216449 0.943265
O O5 0.602022 0.783378 0.526735
O O6 0.000000 0.000000 0.500000
O O7 0.711520 0.518945 0.380526
O O8 0.845471 0.235152 0.611766
O O9 0.939910 0.178606 0.813890
O O10 0.240829 0.948120 0.037773
O O11 0.987124 0.038232 0.120029
O O12 0.852608 0.284383 0.228363
O O13 0.000000 0.500000 0.500000
#
# Coordination Sequence:
#
# PCOD9047938 Si02
#       6
#     2   2   2   2   2   2
#     4  12  23  44  77 100 140 193 222 290 365 400
#     4  10  24  44  71  98 140 185 235 285 342 420
#     4  11  24  44  73 105 139 185 232 292 349 417
#     4  11  24  47  69 107 146 176 240 288 346 428
#     4  11  21  44  69  97 145 179 228 298 334 402
#     4  11  24  43  72 104 142 185 230 297 340 412
#
# _framework density 28.132650999999999
#
# number of rings (size 3 to 8) (size 9 to 14) (size 15 to 20)
#    0.000    1.000    5.000    1.000    0.000    3.333 
#    0.000    2.500    0.000    0.000    0.000    0.000 
#    0.000    0.000    0.000    0.000    0.000    0.000 
#
# Total GULP energy -66989.422710 kJ/mol
# GULP energy per Si atom -5582.451893 kJ/mol
# Density = 2.806862 g / cm^3
# Si number density = 28.132651 Si / 1000 Ang^3
#
#
#
# Elastic Constant Matrix: (Units=GPa)
#
#
# Indices 1 2 3 4 5 6 
#
# 1 146.8560 64.1568 73.5251 4.3194 -51.6891 -25.1051
# 2 64.1568 152.3563 62.1472 1.0848 -30.9255 -10.8100
# 3 73.5251 62.1472 148.0603 13.2446 -52.4449 -9.8659
# 4 4.3194 1.0848 13.2446 54.4234 0.0411 -19.1984
# 5 -51.6891 -30.9255 -52.4449 0.0411 67.3776 -0.9288
# 6 -25.1051 -10.8100 -9.8659 -19.1984 -0.9288 46.5292
#
#
#
# Elastic Compliance Matrix: (Units=1/GPa)
#
#
# Indices 1 2 3 4 5 6 
#
# 1 0.012579 -0.002431 -0.002638 0.002026 0.006571 0.006630
# 2 -0.002431 0.008635 -0.002356 0.000778 0.000271 0.000521
# 3 -0.002638 -0.002356 0.011256 -0.002693 0.005650 -0.000582
# 4 0.002026 0.000778 -0.002693 0.022355 -0.000062 0.009925
# 5 0.006571 0.000271 0.005650 -0.000062 0.024478 0.005270
# 6 0.006630 0.000521 -0.000582 0.009925 0.005270 0.029267
#
#
# Mechanical properties :
#
#
# Convention : Reuss Voigt Hill
#
# Bulk Modulus (GPa) = 56.75450 94.10343 75.42896
# Shear Modulus (GPa) = 38.67196 50.16228 44.41712
#
# Velocity S-wave (km/s) = 3.71162 4.22721 3.97778
# Velocity P-wave (km/s) = 6.21175 7.57287 6.92583
#
# Compressibility (1/GPa) = 0.01761975
#
# Stress axis : x y z
#
# Youngs Moduli (GPa) = 79.49932 115.81086 88.83893
#
# Poissons Ratio (x) = 0.28154 0.23436
# Poissons Ratio (y) = 0.19327 0.20930
# Poissons Ratio (z) = 0.20972 0.27284
#
# Static dielectric constant tensor:
#      x y z
#    x 2.295530 -0.065170 0.159830 
#    y -0.065170 2.264490 -0.135750 
#    z 0.159830 -0.135750 2.410240 
# 
# From -- ./inp_files/377162.got.cif
#   From: 2010.05.17/outbox.cif.g08.bks.cpg/sg2_189_cif.got.tgz:377162.got - 2010.06.03 11:33:40.
