data_PCOD9047284
_publ_section_title
;
Structure prediction by ZEFSAII (Michael W. Deem and Ramdas Pophale) SiO2 
 PCOD9047284
Probable space group: P -1
;
_chemical_formula_sum "Si O2"
_cell_formula_units_Z 12
_cell_length_a 13.218581
_cell_length_b 16.108164
_cell_length_c 19.430039
_cell_angle_alpha 160.200004
_cell_angle_beta 25.616555
_cell_angle_gamma 154.440038
_cell_volume 563.640996
_symmetry_space_group_name_H-M "P -1"
_symmetry_group_IT_number 2
_symmetry_cell_setting 'triclinic'
loop_
_space_group_symop_operation_xyz
x,y,z
-x,-y,-z
loop_
_atom_site_type_symbol
_atom_site_label
_atom_site_fract_x
_atom_site_fract_y
_atom_site_fract_z
Si Si1 0.846600 0.550915 0.822685
Si Si2 0.532476 0.157372 0.887761
Si Si3 0.725204 0.413892 0.633931
Si Si4 0.090536 0.362322 0.642223
Si Si5 0.621102 0.937398 0.234820
Si Si6 0.526476 0.874939 0.813943
O O1 0.796066 0.434017 0.686245
O O2 0.601815 0.346968 0.852437
O O3 0.055476 0.508789 0.708504
O O4 0.848438 0.847266 0.048262
O O5 0.383079 0.970512 0.769222
O O6 0.830179 0.252306 0.759002
O O7 0.487667 0.026907 0.888518
O O8 0.426296 0.394992 0.138457
O O9 0.000000 0.500000 0.500000
O O10 0.581544 0.131928 0.466722
O O11 0.312507 0.582332 0.718627
O O12 0.201502 0.145787 0.381023
O O13 0.500000 0.000000 0.000000
#
# Coordination Sequence:
#
# PCOD9047284 Si02
#       6
#     2   2   2   2   2   2
#     4   9  20  38  62  88 123 167 202 252 315 370
#     4  10  24  44  63  94 129 169 206 260 323 370
#     4  11  24  34  62 101 128 164 205 253 315 381
#     4  10  24  44  66  90 127 168 209 265 315 371
#     4   9  20  39  61  90 126 164 203 250 312 382
#     4  11  26  42  67  94 120 164 221 266 313 372
#
# _framework density 21.290149
#
# number of rings (size 3 to 8) (size 9 to 14) (size 15 to 20)
#    0.000    2.000    0.000    2.000    7.000    6.000 
#    0.000    0.000    0.000    0.000    0.000    0.000 
#    0.000    0.000    0.000    0.000    0.000    0.000 
#
# Total GULP energy -66884.386953 kJ/mol
# GULP energy per Si atom -5573.698913 kJ/mol
# Density = 2.124169 g / cm^3
# Si number density = 21.290149 Si / 1000 Ang^3
#
#
#
# Elastic Constant Matrix: (Units=GPa)
#
#
# Indices 1 2 3 4 5 6 
#
# 1 107.4690 -2.7096 59.1110 -9.7889 6.5224 -24.3519
# 2 -2.7096 65.5629 22.1987 -26.0512 -1.9441 -8.0059
# 3 59.1110 22.1987 142.0990 -13.6584 16.3157 0.8456
# 4 -9.7889 -26.0512 -13.6584 27.6081 3.3894 1.5643
# 5 6.5224 -1.9441 16.3157 3.3894 35.0415 -6.6506
# 6 -24.3519 -8.0059 0.8456 1.5643 -6.6506 36.6443
#
#
#
# Elastic Compliance Matrix: (Units=1/GPa)
#
#
# Indices 1 2 3 4 5 6 
#
# 1 0.018260 0.009483 -0.008530 0.010027 0.002881 0.014498
# 2 0.009483 0.030513 -0.006388 0.027980 0.002546 0.012383
# 3 -0.008530 -0.006388 0.012120 -0.001872 -0.005808 -0.008318
# 4 0.010027 0.027980 -0.001872 0.065213 -0.003983 0.009313
# 5 0.002881 0.002546 -0.005808 -0.003983 0.032891 0.008744
# 6 0.014498 0.012383 -0.008318 0.009313 0.008744 0.041011
#
#
# Mechanical properties :
#
#
# Convention : Reuss Voigt Hill
#
# Bulk Modulus (GPa) = 19.99149 52.48126 36.23637
# Shear Modulus (GPa) = 21.97289 35.62752 28.80020
#
# Velocity S-wave (km/s) = 3.21607 4.09519 3.68196
# Velocity P-wave (km/s) = 4.81676 6.86038 5.92731
#
# Compressibility (1/GPa) = 0.05002129
#
# Stress axis : x y z
#
# Youngs Moduli (GPa) = 54.76539 32.77335 82.50670
#
# Poissons Ratio (x) = -0.31079 0.70382
# Poissons Ratio (y) = -0.51934 0.52706
# Poissons Ratio (z) = 0.46717 0.20936
#
# Static dielectric constant tensor:
#      x y z
#    x 1.897050 -0.038730 0.015170 
#    y -0.038730 1.924680 -0.032890 
#    z 0.015170 -0.032890 1.816830 
# 
# From -- ./inp_files/21208.got.cif
#   From: 2010.05.17/outbox.cif.g08.bks.cpg/sg2_11_cif.got.tgz:21208.got - 2010.06.03 11:33:40.
