data_PCOD9047539
_publ_section_title
;
Structure prediction by ZEFSAII (Michael W. Deem and Ramdas Pophale) SiO2 
 PCOD9047539
Probable space group: P -1
;
_chemical_formula_sum "Si O2"
_cell_formula_units_Z 14
_cell_length_a 20.730760
_cell_length_b 6.498653
_cell_length_c 5.311748
_cell_angle_alpha 101.254205
_cell_angle_beta 76.635135
_cell_angle_gamma 122.027557
_cell_volume 587.968904
_symmetry_space_group_name_H-M "P -1"
_symmetry_group_IT_number 2
_symmetry_cell_setting 'triclinic'
loop_
_space_group_symop_operation_xyz
x,y,z
-x,-y,-z
loop_
_atom_site_type_symbol
_atom_site_label
_atom_site_fract_x
_atom_site_fract_y
_atom_site_fract_z
Si Si1 0.408670 0.843562 0.570414
Si Si2 0.913029 0.786584 0.591181
Si Si3 0.299105 0.048058 0.762314
Si Si4 0.179598 0.994004 0.497929
Si Si5 0.949333 0.426254 0.272908
Si Si6 0.332968 0.536381 0.066502
Si Si7 0.810977 0.407453 0.936923
O O1 0.372640 0.664770 0.321543
O O2 0.500000 0.000000 0.500000
O O3 0.372624 0.021202 0.641427
O O4 0.384412 0.691352 0.816932
O O5 0.850741 0.857861 0.589093
O O6 0.905636 0.575992 0.363851
O O7 0.889077 0.665165 0.862308
O O8 0.000000 0.000000 0.500000
O O9 0.261797 0.119315 0.584172
O O10 0.315860 0.259775 0.997074
O O11 0.234076 0.770474 0.829807
O O12 0.113140 0.856974 0.736075
O O13 0.174547 0.781468 0.279069
O O14 0.000000 0.500000 0.500000
O O15 0.000000 0.500000 0.000000
O O16 0.255639 0.550296 0.106030
#
# Coordination Sequence:
#
# PCOD9047539 Si02
#       7
#     2   2   2   2   2   2   2
#     4  11  26  49  75 116 158 192 243 307 365 447
#     4  11  24  44  70 102 139 194 250 307 380 435
#     4  11  26  44  75 108 147 199 252 306 371 447
#     4  11  24  43  68  97 141 188 243 311 367 441
#     4  11  26  46  66  95 138 183 239 308 373 435
#     4  11  25  45  80 109 151 202 248 295 377 444
#     4  10  24  44  68 101 150 186 255 306 369 434
#
# _framework density 23.810783000000001
#
# number of rings (size 3 to 8) (size 9 to 14) (size 15 to 20)
#    0.000    1.143    2.857    1.286    8.000    4.000 
#    2.571    0.000    0.000    0.000    0.000    0.000 
#    0.000    0.000    0.000    0.000    0.000    0.000 
#
# Total GULP energy -78240.025103 kJ/mol
# GULP energy per Si atom -5588.573222 kJ/mol
# Density = 2.375659 g / cm^3
# Si number density = 23.810783 Si / 1000 Ang^3
#
#
#
# Elastic Constant Matrix: (Units=GPa)
#
#
# Indices 1 2 3 4 5 6 
#
# 1 157.5038 69.3593 62.0412 -1.7537 -17.9211 -10.9787
# 2 69.3593 125.3849 45.4373 -4.9715 -12.3123 -18.7926
# 3 62.0412 45.4373 112.2373 -22.5732 -5.2725 -14.3363
# 4 -1.7537 -4.9715 -22.5732 54.0835 3.0733 -16.4819
# 5 -17.9211 -12.3123 -5.2725 3.0733 35.7008 -1.6328
# 6 -10.9787 -18.7926 -14.3363 -16.4819 -1.6328 27.4591
#
#
#
# Elastic Compliance Matrix: (Units=1/GPa)
#
#
# Indices 1 2 3 4 5 6 
#
# 1 0.010188 -0.004159 -0.004819 -0.003153 0.003102 -0.002997
# 2 -0.004159 0.012129 -0.000890 0.002949 0.002079 0.008067
# 3 -0.004819 -0.000890 0.015236 0.009550 -0.000790 0.011103
# 4 -0.003153 0.002949 0.009550 0.029887 -0.000647 0.023644
# 5 0.003102 0.002079 -0.000790 -0.000647 0.030392 0.003669
# 6 -0.002997 0.008067 0.011103 0.023644 0.003669 0.060947
#
#
# Mechanical properties :
#
#
# Convention : Reuss Voigt Hill
#
# Bulk Modulus (GPa) = 56.12915 83.20018 69.66467
# Shear Modulus (GPa) = 27.10738 38.00123 32.55431
#
# Velocity S-wave (km/s) = 3.37775 3.99929 3.70159
# Velocity P-wave (km/s) = 6.23189 7.50625 6.89856
#
# Compressibility (1/GPa) = 0.01781605
#
# Stress axis : x y z
#
# Youngs Moduli (GPa) = 98.15861 82.44994 65.63579
#
# Poissons Ratio (x) = 0.34289 0.31630
# Poissons Ratio (y) = 0.40821 0.05843
# Poissons Ratio (z) = 0.47302 0.07340
#
# Static dielectric constant tensor:
#      x y z
#    x 1.936050 0.014020 0.068330 
#    y 0.014020 1.938980 -0.042690 
#    z 0.068330 -0.042690 2.041720 
# 
# From -- ./inp_files/102810.got.cif
#   From: 2010.05.17/outbox.cif.g08.bks.cpg/sg2_52_cif.got.tgz:102810.got - 2010.06.03 11:33:40.
