data_PCOD9047696
_publ_section_title
;
Structure prediction by ZEFSAII (Michael W. Deem and Ramdas Pophale) SiO2 
 PCOD9047696
Probable space group: P -1
;
_chemical_formula_sum "Si O2"
_cell_formula_units_Z 16
_cell_length_a 8.252061
_cell_length_b 19.898014
_cell_length_c 11.005647
_cell_angle_alpha 139.449507
_cell_angle_beta 111.677167
_cell_angle_gamma 41.061237
_cell_volume 678.412734
_symmetry_space_group_name_H-M "P -1"
_symmetry_group_IT_number 2
_symmetry_cell_setting 'triclinic'
loop_
_space_group_symop_operation_xyz
x,y,z
-x,-y,-z
loop_
_atom_site_type_symbol
_atom_site_label
_atom_site_fract_x
_atom_site_fract_y
_atom_site_fract_z
Si Si1 0.764886 0.429509 0.108952
Si Si2 0.947829 0.609609 0.530263
Si Si3 0.314058 0.319326 0.101867
Si Si4 0.896124 0.833387 0.982415
Si Si5 0.217632 0.764533 0.331212
Si Si6 0.390178 0.860563 0.315443
Si Si7 0.636546 0.865585 0.600486
Si Si8 0.195268 0.007993 0.064819
O O1 0.471297 0.626165 0.305131
O O2 0.019723 0.393110 0.124396
O O3 0.812439 0.325895 0.089253
O O4 0.801579 0.339551 0.878597
O O5 0.866725 0.746198 0.772934
O O6 0.727922 0.726796 0.519387
O O7 0.000000 0.500000 0.500000
O O8 0.235879 0.467490 0.337551
O O9 0.455073 0.249362 0.913515
O O10 0.518577 0.169904 0.047618
O O11 0.832490 0.948439 0.023635
O O12 0.671000 0.956663 0.194648
O O13 0.323348 0.798736 0.306522
O O14 0.911705 0.947523 0.537190
O O15 0.588721 0.849338 0.428114
O O16 0.835042 0.871900 0.697698
O O17 0.000000 0.000000 0.000000
#
# Coordination Sequence:
#
# PCOD9047696 Si02
#       8
#     2   2   2   2   2   2   2   2
#     4  11  22  43  72 102 141 188 242 288 356 419
#     4  11  21  39  69 105 134 182 243 286 344 425
#     4  12  25  45  71 109 144 189 236 299 355 425
#     4  11  22  44  72  98 136 192 243 286 347 441
#     4  10  24  44  69 108 142 195 231 293 357 435
#     4  11  25  45  74 106 150 183 239 292 365 427
#     4  11  22  44  73 102 136 191 239 287 357 429
#     4  11  25  43  69  99 142 187 233 293 354 416
#
# _framework density 23.584464000000001
#
# number of rings (size 3 to 8) (size 9 to 14) (size 15 to 20)
#    0.000    1.000    3.750    3.000    1.750    4.000 
#    2.250    6.250    0.000    0.000    0.000    0.000 
#    0.000    0.000    0.000    0.000    0.000    0.000 
#
# Total GULP energy -89190.568280 kJ/mol
# GULP energy per Si atom -5574.410517 kJ/mol
# Density = 2.353078 g / cm^3
# Si number density = 23.584464 Si / 1000 Ang^3
#
#
#
# Elastic Constant Matrix: (Units=GPa)
#
#
# Indices 1 2 3 4 5 6 
#
# 1 70.7686 33.9225 28.5290 -9.2500 10.1730 -12.2641
# 2 33.9225 151.9398 39.2363 32.1134 -14.2219 6.7087
# 3 28.5290 39.2363 109.1693 5.9786 -14.4981 18.4981
# 4 -9.2500 32.1134 5.9786 42.7231 12.6792 5.2537
# 5 10.1730 -14.2219 -14.4981 12.6792 28.5328 -6.7374
# 6 -12.2641 6.7087 18.4981 5.2537 -6.7374 26.7873
#
#
#
# Elastic Compliance Matrix: (Units=1/GPa)
#
#
# Indices 1 2 3 4 5 6 
#
# 1 0.043166 -0.018251 -0.015459 0.036413 -0.044591 0.016652
# 2 -0.018251 0.017856 0.004102 -0.025875 0.028163 -0.003503
# 3 -0.015459 0.004102 0.017091 -0.012914 0.019005 -0.012594
# 4 0.036413 -0.025875 -0.012914 0.071146 -0.063554 0.002131
# 5 -0.044591 0.028163 0.019005 -0.063554 0.102316 -0.002394
# 6 0.016652 -0.003503 -0.012594 0.002131 -0.002394 0.053509
#
#
# Mechanical properties :
#
#
# Convention : Reuss Voigt Hill
#
# Bulk Modulus (GPa) = 52.91243 59.47258 56.19250
# Shear Modulus (GPa) = 13.49170 34.95463 24.22316
#
# Velocity S-wave (km/s) = 2.39437 3.85399 3.20829
# Velocity P-wave (km/s) = 5.48890 6.71386 6.13204
#
# Compressibility (1/GPa) = 0.01889915
#
# Stress axis : x y z
#
# Youngs Moduli (GPa) = 23.16639 56.00203 58.51169
#
# Poissons Ratio (x) = 1.02207 0.90451
# Poissons Ratio (y) = 0.42280 -0.24003
# Poissons Ratio (z) = 0.35812 -0.22974
#
# Static dielectric constant tensor:
#      x y z
#    x 2.007260 -0.052580 0.048960 
#    y -0.052580 2.032180 -0.041940 
#    z 0.048960 -0.041940 1.912130 
# 
# From -- ./inp_files/405604.got.cif
#   From: 2010.05.17/outbox.cif.g08.bks.cpg/sg2_203_cif.got.tgz:405604.got - 2010.06.03 11:33:40.
