data_PCOD9047958
_publ_section_title
;
Structure prediction by ZEFSAII (Michael W. Deem and Ramdas Pophale) SiO2 
 PCOD9047958
Probable space group: P -1
;
_chemical_formula_sum "Si O2"
_cell_formula_units_Z 16
_cell_length_a 20.319517
_cell_length_b 9.723147
_cell_length_c 8.230902
_cell_angle_alpha 116.355782
_cell_angle_beta 149.184819
_cell_angle_gamma 62.795209
_cell_volume 736.175411
_symmetry_space_group_name_H-M "P -1"
_symmetry_group_IT_number 2
_symmetry_cell_setting 'triclinic'
loop_
_space_group_symop_operation_xyz
x,y,z
-x,-y,-z
loop_
_atom_site_type_symbol
_atom_site_label
_atom_site_fract_x
_atom_site_fract_y
_atom_site_fract_z
Si Si1 0.555062 0.035435 0.815075
Si Si2 0.625841 0.389423 0.641740
Si Si3 0.301502 0.951753 0.291343
Si Si4 0.025758 0.021004 0.877962
Si Si5 0.380625 0.634323 0.777323
Si Si6 0.912139 0.374420 0.808901
Si Si7 0.129689 0.489890 0.868477
Si Si8 0.810142 0.866391 0.169759
O O1 0.500000 0.000000 0.500000
O O2 0.427854 0.024936 0.647015
O O3 0.593487 0.203733 0.007736
O O4 0.687126 0.912044 0.055072
O O5 0.500000 0.500000 0.500000
O O6 0.646208 0.230751 0.702351
O O7 0.621885 0.355727 0.420778
O O8 0.753586 0.468564 0.969558
O O9 0.236257 0.027907 0.028526
O O10 0.180010 0.976596 0.165570
O O11 0.976295 0.198823 0.809089
O O12 0.942021 0.912622 0.543941
O O13 0.000000 0.000000 0.000000
O O14 0.243523 0.598707 0.542120
O O15 0.500000 0.500000 0.000000
O O16 0.906010 0.390560 0.998611
O O17 0.000000 0.500000 0.000000
O O18 0.171978 0.314546 0.931137
O O19 0.000000 0.500000 0.500000
#
# Coordination Sequence:
#
# PCOD9047958 Si02
#       8
#     2   2   2   2   2   2   2   2
#     4  10  24  44  72 102 135 182 235 285 347 415
#     4  11  26  45  68 105 143 179 232 293 347 412
#     4  11  25  42  71 101 133 178 239 274 348 416
#     4  12  24  44  67  99 140 177 226 288 342 409
#     4  11  26  45  72 102 144 182 231 288 353 415
#     4  11  25  43  68 102 135 176 229 279 341 410
#     4  11  24  45  67  99 138 179 225 282 345 412
#     4  11  23  44  73  94 136 185 228 283 350 411
#
# _framework density 21.73395
#
# number of rings (size 3 to 8) (size 9 to 14) (size 15 to 20)
#    0.000    1.000    1.250    4.875   12.250    2.500 
#    2.250    0.000    0.000    0.000    0.000    0.000 
#    0.000    0.000    0.000    0.000    0.000    0.000 
#
# Total GULP energy -89415.326942 kJ/mol
# GULP energy per Si atom -5588.457934 kJ/mol
# Density = 2.168448 g / cm^3
# Si number density = 21.733950 Si / 1000 Ang^3
#
#
#
# Elastic Constant Matrix: (Units=GPa)
#
#
# Indices 1 2 3 4 5 6 
#
# 1 62.8382 -9.8132 41.5266 -2.9745 34.0673 -3.1400
# 2 -9.8132 93.1979 29.0475 -6.6410 7.9495 -1.0537
# 3 41.5266 29.0475 114.2528 11.1399 40.7641 -0.6380
# 4 -2.9745 -6.6410 11.1399 38.9208 -0.0755 3.6030
# 5 34.0673 7.9495 40.7641 -0.0755 48.6260 -5.4586
# 6 -3.1400 -1.0537 -0.6380 3.6030 -5.4586 41.3912
#
#
#
# Elastic Compliance Matrix: (Units=1/GPa)
#
#
# Indices 1 2 3 4 5 6 
#
# 1 0.031913 0.007774 -0.008181 0.006098 -0.016789 -0.000252
# 2 0.007774 0.013929 -0.005802 0.004619 -0.002843 0.000078
# 3 -0.008181 -0.005802 0.016350 -0.006224 -0.007139 -0.000916
# 4 0.006098 0.004619 -0.006224 0.028917 0.000007 -0.002032
# 5 -0.016789 -0.002843 -0.007139 0.000007 0.039194 0.003712
# 6 -0.000252 0.000078 -0.000916 -0.002032 0.003712 0.024795
#
#
# Mechanical properties :
#
#
# Convention : Reuss Voigt Hill
#
# Bulk Modulus (GPa) = 20.09137 43.53452 31.81295
# Shear Modulus (GPa) = 27.15804 39.75614 33.45709
#
# Velocity S-wave (km/s) = 3.53876 4.28158 3.92777
# Velocity P-wave (km/s) = 5.09523 6.67208 5.93625
#
# Compressibility (1/GPa) = 0.04977262
#
# Stress axis : x y z
#
# Youngs Moduli (GPa) = 31.33557 71.79078 61.16220
#
# Poissons Ratio (x) = -0.55809 0.50038
# Poissons Ratio (y) = -0.24360 0.35488
# Poissons Ratio (z) = 0.25636 0.41655
#
# Static dielectric constant tensor:
#      x y z
#    x 1.698530 0.069840 -0.088410 
#    y 0.069840 1.748510 0.060490 
#    z -0.088410 0.060490 1.733310 
# 
# From -- ./inp_files/343817.got.cif
#   From: 2010.05.17/outbox.cif.g08.bks.cpg/sg2_172_cif.got.tgz:343817.got - 2010.06.03 11:33:40.
