data_PCOD9047883
_publ_section_title
;
Structure prediction by ZEFSAII (Michael W. Deem and Ramdas Pophale) SiO2 
 PCOD9047883
Probable space group: P -1
;
_chemical_formula_sum "Si O2"
_cell_formula_units_Z 14
_cell_length_a 8.756453
_cell_length_b 28.366673
_cell_length_c 5.069282
_cell_angle_alpha 115.650997
_cell_angle_beta 52.267819
_cell_angle_gamma 145.651898
_cell_volume 554.438710
_symmetry_space_group_name_H-M "P -1"
_symmetry_group_IT_number 2
_symmetry_cell_setting 'triclinic'
loop_
_space_group_symop_operation_xyz
x,y,z
-x,-y,-z
loop_
_atom_site_type_symbol
_atom_site_label
_atom_site_fract_x
_atom_site_fract_y
_atom_site_fract_z
Si Si1 0.186498 0.705514 0.484297
Si Si2 0.831955 0.594462 0.107753
Si Si3 0.187006 0.122368 0.536166
Si Si4 0.840435 0.736218 0.950689
Si Si5 0.332896 0.550911 0.873395
Si Si6 0.042957 0.841650 0.506295
Si Si7 0.254081 0.028704 0.996793
O O1 0.529821 0.783508 0.424014
O O2 0.112569 0.658844 0.182765
O O3 0.082205 0.742435 0.627995
O O4 0.964494 0.637619 0.788850
O O5 0.563723 0.576444 0.462451
O O6 0.716596 0.510342 0.038194
O O7 0.319348 0.092652 0.269720
O O8 0.060467 0.124427 0.415934
O O9 0.901279 0.050457 0.860895
O O10 0.508602 0.636086 0.038745
O O11 0.881447 0.788058 0.810058
O O12 0.932316 0.778220 0.238385
O O13 0.000000 0.500000 0.000000
O O14 0.415142 0.917843 0.337185
O O15 0.000000 0.000000 0.000000
#
# Coordination Sequence:
#
# PCOD9047883 Si02
#       7
#     2   2   2   2   2   2   2
#     4  11  23  46  74  97 146 184 235 282 351 411
#     4  10  25  45  69 103 138 190 230 290 342 412
#     4  11  27  43  73 105 136 186 232 285 349 416
#     4  11  25  46  70 103 143 187 227 292 346 412
#     4  10  24  44  71 103 144 181 238 288 348 406
#     4  12  27  46  72 105 144 182 235 284 349 419
#     4  11  26  48  73 103 140 185 229 294 347 413
#
# _framework density 25.250765000000001
#
# number of rings (size 3 to 8) (size 9 to 14) (size 15 to 20)
#    0.000    1.143    1.429    3.000   10.000    6.857 
#    0.000    7.143    0.000    0.000    0.000    0.000 
#    0.000    0.000    0.000    0.000    0.000    0.000 
#
# Total GULP energy -78519.738383 kJ/mol
# GULP energy per Si atom -5608.552742 kJ/mol
# Density = 2.519329 g / cm^3
# Si number density = 25.250765 Si / 1000 Ang^3
#
#
#
# Elastic Constant Matrix: (Units=GPa)
#
#
# Indices 1 2 3 4 5 6 
#
# 1 140.1620 61.9793 37.7154 -24.5210 2.5829 2.8910
# 2 61.9793 148.4520 45.6931 -20.5765 -3.0212 6.5475
# 3 37.7154 45.6931 53.0981 0.3443 5.9094 -7.0707
# 4 -24.5210 -20.5765 0.3443 22.1781 1.4100 6.9784
# 5 2.5829 -3.0212 5.9094 1.4100 39.0032 -4.6268
# 6 2.8910 6.5475 -7.0707 6.9784 -4.6268 55.3768
#
#
#
# Elastic Compliance Matrix: (Units=1/GPa)
#
#
# Indices 1 2 3 4 5 6 
#
# 1 0.012358 -0.000087 -0.009252 0.014927 -0.000406 -0.003731
# 2 -0.000087 0.012245 -0.011326 0.012702 0.001695 -0.004348
# 3 -0.009252 -0.011326 0.036971 -0.023970 -0.003904 0.009237
# 4 0.014927 0.012702 -0.023970 0.078642 -0.001035 -0.015338
# 5 -0.000406 0.001695 -0.003904 -0.001035 0.026625 0.001677
# 6 -0.003731 -0.004348 0.009237 -0.015338 0.001677 0.022020
#
#
# Mechanical properties :
#
#
# Convention : Reuss Voigt Hill
#
# Bulk Modulus (GPa) = 49.39408 70.27642 59.83525
# Shear Modulus (GPa) = 21.10237 36.39991 28.75114
#
# Velocity S-wave (km/s) = 2.89400 3.80088 3.37801
# Velocity P-wave (km/s) = 5.54715 6.86688 6.24199
#
# Compressibility (1/GPa) = 0.02024534
#
# Stress axis : x y z
#
# Youngs Moduli (GPa) = 80.91681 81.66365 27.04786
#
# Poissons Ratio (x) = 0.00707 0.25025
# Poissons Ratio (y) = 0.00701 0.30635
# Poissons Ratio (z) = 0.74865 0.92494
#
# Static dielectric constant tensor:
#      x y z
#    x 1.974310 0.023000 -0.036860 
#    y 0.023000 2.020260 0.054360 
#    z -0.036860 0.054360 1.992450 
# 
# From -- ./inp_files/56490.got.cif
#   From: 2010.05.17/outbox.cif.g08.bks.cpg/sg2_29_cif.got.tgz:56490.got - 2010.06.03 11:33:40.
