data_PCOD9047065
_publ_section_title
;
Structure prediction by ZEFSAII (Michael W. Deem and Ramdas Pophale) SiO2 
 PCOD9047065
Probable space group: P -1
;
_chemical_formula_sum "Si O2"
_cell_formula_units_Z 14
_cell_length_a 9.654815
_cell_length_b 17.609537
_cell_length_c 17.433729
_cell_angle_alpha 16.238829
_cell_angle_beta 131.281571
_cell_angle_gamma 139.314943
_cell_volume 500.991628
_symmetry_space_group_name_H-M "P -1"
_symmetry_group_IT_number 2
_symmetry_cell_setting 'triclinic'
loop_
_space_group_symop_operation_xyz
x,y,z
-x,-y,-z
loop_
_atom_site_type_symbol
_atom_site_label
_atom_site_fract_x
_atom_site_fract_y
_atom_site_fract_z
Si Si1 0.788068 0.816416 0.391276
Si Si2 0.608698 0.785656 0.521868
Si Si3 0.350711 0.099117 0.907896
Si Si4 0.311443 0.772784 0.503121
Si Si5 0.210858 0.539123 0.996781
Si Si6 0.906394 0.608428 0.427977
Si Si7 0.287400 0.410155 0.997954
O O1 0.698656 0.865315 0.392946
O O2 0.615446 0.406901 0.719564
O O3 0.727421 0.921226 0.188541
O O4 0.058511 0.005237 0.308276
O O5 0.339358 0.539602 0.677798
O O6 0.485787 0.364371 0.074817
O O7 0.740911 0.693768 0.712659
O O8 0.205065 0.195047 0.809818
O O9 0.283082 0.747024 0.255284
O O10 0.289268 0.623081 0.720392
O O11 0.125273 0.807769 0.370658
O O12 0.584360 0.065370 0.289152
O O13 0.148681 0.488615 0.936223
O O14 0.000000 0.500000 0.000000
O O15 0.000000 0.500000 0.500000
#
# Coordination Sequence:
#
# PCOD9047065 Si02
#       7
#     2   2   2   2   2   2   2
#     4  11  27  48  76 106 154 199 242 309 372 448
#     4  10  24  44  71 104 149 191 243 299 369 439
#     4  11  28  50  71 115 148 200 245 300 380 447
#     4  10  24  43  75 107 149 189 248 307 369 434
#     4  10  24  43  71 103 148 185 250 294 369 425
#     4  12  26  46  82 112 149 194 251 310 368 437
#     4  12  23  49  77 110 148 197 251 313 367 445
#
# _framework density 27.944579999999998
#
# number of rings (size 3 to 8) (size 9 to 14) (size 15 to 20)
#    0.857    0.286    2.857    1.714    6.000    4.571 
#    0.000    0.000    0.000    0.000    0.000    0.000 
#    0.000    0.000    0.000    0.000    0.000    0.000 
#
# Total GULP energy -78018.727391 kJ/mol
# GULP energy per Si atom -5572.766242 kJ/mol
# Density = 2.788098 g / cm^3
# Si number density = 27.944580 Si / 1000 Ang^3
#
#
#
# Elastic Constant Matrix: (Units=GPa)
#
#
# Indices 1 2 3 4 5 6 
#
# 1 168.3406 55.5765 30.8504 -4.2373 -10.1449 -35.1290
# 2 55.5765 108.7100 40.2112 -20.7435 -23.2361 6.9295
# 3 30.8504 40.2112 103.8297 -25.2502 -7.0054 15.3364
# 4 -4.2373 -20.7435 -25.2502 30.0412 10.0495 -20.5153
# 5 -10.1449 -23.2361 -7.0054 10.0495 53.4080 5.5255
# 6 -35.1290 6.9295 15.3364 -20.5153 5.5255 76.2887
#
#
#
# Elastic Compliance Matrix: (Units=1/GPa)
#
#
# Indices 1 2 3 4 5 6 
#
# 1 0.008601 -0.004230 -0.001543 0.000708 -0.001051 0.004922
# 2 -0.004230 0.014212 -0.002642 0.004219 0.004435 -0.001894
# 3 -0.001543 -0.002642 0.013355 0.009255 -0.001374 -0.000567
# 4 0.000708 0.004219 0.009255 0.056580 -0.008905 0.013943
# 5 -0.001051 0.004435 -0.001374 -0.008905 0.022428 -0.004630
# 6 0.004922 -0.001894 -0.000567 0.013943 -0.004630 0.019745
#
#
# Mechanical properties :
#
#
# Convention : Reuss Voigt Hill
#
# Bulk Modulus (GPa) = 51.71250 70.46184 61.08717
# Shear Modulus (GPa) = 31.60598 48.89707 40.25152
#
# Velocity S-wave (km/s) = 3.36672 4.18758 3.79938
# Velocity P-wave (km/s) = 5.80160 6.97501 6.41519
#
# Compressibility (1/GPa) = 0.01933768
#
# Stress axis : x y z
#
# Youngs Moduli (GPa) = 116.26530 70.36141 74.87925
#
# Poissons Ratio (x) = 0.29760 0.11555
# Poissons Ratio (y) = 0.49176 0.19786
# Poissons Ratio (z) = 0.17942 0.18592
#
# Static dielectric constant tensor:
#      x y z
#    x 3.074060 -0.096090 0.143310 
#    y -0.096090 2.401620 -0.420310 
#    z 0.143310 -0.420310 2.537650 
# 
# From -- ./inp_files/561886.got.cif
#   From: 2010.05.17/outbox.cif.g08.bks.cpg/sg2_281_cif.got.tgz:561886.got - 2010.06.03 11:33:40.
