data_PCOD9047843
_publ_section_title
;
Structure prediction by ZEFSAII (Michael W. Deem and Ramdas Pophale) SiO2 
 PCOD9047843
Probable space group: P -1
;
_chemical_formula_sum "Si O2"
_cell_formula_units_Z 16
_cell_length_a 9.064681
_cell_length_b 15.551526
_cell_length_c 15.592604
_cell_angle_alpha 26.503672
_cell_angle_beta 133.953612
_cell_angle_gamma 129.187981
_cell_volume 705.761950
_symmetry_space_group_name_H-M "P -1"
_symmetry_group_IT_number 2
_symmetry_cell_setting 'triclinic'
loop_
_space_group_symop_operation_xyz
x,y,z
-x,-y,-z
loop_
_atom_site_type_symbol
_atom_site_label
_atom_site_fract_x
_atom_site_fract_y
_atom_site_fract_z
Si Si1 0.142264 0.457397 0.187169
Si Si2 0.802354 0.024685 0.836091
Si Si3 0.838301 0.767006 0.765312
Si Si4 0.201630 0.562169 0.475601
Si Si5 0.536801 0.662281 0.103072
Si Si6 0.415241 0.625250 0.775148
Si Si7 0.954832 0.100942 0.637820
Si Si8 0.269615 0.418668 0.466359
O O1 0.140781 0.265193 0.299826
O O2 0.297663 0.613976 0.063990
O O3 0.221358 0.424599 0.342423
O O4 0.929044 0.563341 0.013991
O O5 0.720869 0.233594 0.640549
O O6 0.873941 0.024078 0.766339
O O7 0.625341 0.868064 0.926474
O O8 0.000000 0.000000 0.000000
O O9 0.601184 0.772831 0.691299
O O10 0.954790 0.936874 0.711820
O O11 0.359082 0.400754 0.709767
O O12 0.153253 0.560885 0.356835
O O13 0.000000 0.500000 0.500000
O O14 0.610933 0.517296 0.188909
O O15 0.208378 0.740768 0.600269
O O16 0.500000 0.500000 0.000000
O O17 0.176211 0.208491 0.643277
O O18 0.500000 0.500000 0.500000
#
# Coordination Sequence:
#
# PCOD9047843 Si02
#       8
#     2   2   2   2   2   2   2   2
#     4  10  24  47  67  97 146 192 240 290 368 438
#     4  12  25  39  71 105 143 189 235 294 360 430
#     4  10  24  44  70  98 139 189 242 302 354 430
#     4  12  22  44  65 102 143 185 240 292 356 423
#     4  11  22  43  67  99 145 187 235 294 358 426
#     4  11  22  43  71 102 140 185 237 310 367 408
#     4  12  25  43  71 111 143 180 256 299 357 444
#     4  12  25  43  70  99 147 195 228 299 365 428
#
# _framework density 22.670532000000001
#
# number of rings (size 3 to 8) (size 9 to 14) (size 15 to 20)
#    0.000    0.750    5.000    1.875    1.750    1.500 
#    0.000    1.250    0.000    0.000    0.000    0.000 
#    0.000    0.000    0.000    0.000    0.000    0.000 
#
# Total GULP energy -89371.909287 kJ/mol
# GULP energy per Si atom -5585.744330 kJ/mol
# Density = 2.261893 g / cm^3
# Si number density = 22.670532 Si / 1000 Ang^3
#
#
#
# Elastic Constant Matrix: (Units=GPa)
#
#
# Indices 1 2 3 4 5 6 
#
# 1 100.8742 54.5766 26.6602 -8.4955 -15.3703 -12.4262
# 2 54.5766 162.0042 35.0932 -16.8691 -13.4000 -22.3584
# 3 26.6602 35.0932 70.3356 0.7395 -18.0132 -10.8575
# 4 -8.4955 -16.8691 0.7395 50.2557 2.6697 -9.4695
# 5 -15.3703 -13.4000 -18.0132 2.6697 29.8240 4.7638
# 6 -12.4262 -22.3584 -10.8575 -9.4695 4.7638 55.4322
#
#
#
# Elastic Compliance Matrix: (Units=1/GPa)
#
#
# Indices 1 2 3 4 5 6 
#
# 1 0.013096 -0.003378 -0.002201 0.001111 0.003640 0.001019
# 2 -0.003378 0.008532 -0.002642 0.002844 -0.000184 0.002668
# 3 -0.002201 -0.002642 0.018875 -0.001821 0.009075 0.001047
# 4 0.001111 0.002844 -0.001821 0.022116 -0.002026 0.004992
# 5 0.003640 -0.000184 0.009075 -0.002026 0.041204 -0.001368
# 6 0.001019 0.002668 0.001047 0.004992 -0.001368 0.020520
#
#
# Mechanical properties :
#
#
# Convention : Reuss Voigt Hill
#
# Bulk Modulus (GPa) = 41.55851 62.87489 52.21670
# Shear Modulus (GPa) = 33.60105 41.56131 37.58118
#
# Velocity S-wave (km/s) = 3.85404 4.28632 4.07592
# Velocity P-wave (km/s) = 6.17869 7.23126 6.72560
#
# Compressibility (1/GPa) = 0.02406246
#
# Stress axis : x y z
#
# Youngs Moduli (GPa) = 76.35760 117.20468 52.98116
#
# Poissons Ratio (x) = 0.39588 0.11660
# Poissons Ratio (y) = 0.25791 0.13996
# Poissons Ratio (z) = 0.16805 0.30962
#
# Static dielectric constant tensor:
#      x y z
#    x 1.913720 0.010130 -0.029270 
#    y 0.010130 1.899440 0.039540 
#    z -0.029270 0.039540 1.886660 
# 
# From -- ./inp_files/505163.got.cif
#   From: 2010.05.17/outbox.cif.g08.bks.cpg/sg2_253_cif.got.tgz:505163.got - 2010.06.03 11:33:40.
