data_PCOD9047206
_publ_section_title
;
Structure prediction by ZEFSAII (Michael W. Deem and Ramdas Pophale) SiO2 
 PCOD9047206
Probable space group: P -1
;
_chemical_formula_sum "Si O2"
_cell_formula_units_Z 16
_cell_length_a 17.568006
_cell_length_b 8.893226
_cell_length_c 5.281420
_cell_angle_alpha 123.459992
_cell_angle_beta 80.655539
_cell_angle_gamma 115.670159
_cell_volume 617.238101
_symmetry_space_group_name_H-M "P -1"
_symmetry_group_IT_number 2
_symmetry_cell_setting 'triclinic'
loop_
_space_group_symop_operation_xyz
x,y,z
-x,-y,-z
loop_
_atom_site_type_symbol
_atom_site_label
_atom_site_fract_x
_atom_site_fract_y
_atom_site_fract_z
Si Si1 0.874079 0.561816 0.421045
Si Si2 0.036410 0.229104 0.946992
Si Si3 0.477893 0.191327 0.404739
Si Si4 0.369731 0.789734 0.309309
Si Si5 0.589251 0.503166 0.262298
Si Si6 0.252744 0.236042 0.307683
Si Si7 0.880029 0.042362 0.523686
Si Si8 0.211867 0.835318 0.678170
O O1 0.915521 0.639743 0.200607
O O2 0.803368 0.643402 0.604831
O O3 0.827571 0.326163 0.233063
O O4 0.941875 0.651226 0.694163
O O5 0.939220 0.124789 0.813710
O O6 0.071969 0.058939 0.768222
O O7 0.557002 0.179790 0.496368
O O8 0.512433 0.304945 0.226863
O O9 0.443041 0.341049 0.692758
O O10 0.405927 0.968835 0.249998
O O11 0.288594 0.799701 0.484571
O O12 0.354182 0.577884 0.005288
O O13 0.649941 0.619904 0.568613
O O14 0.209951 0.121360 0.483834
O O15 0.242549 0.059735 0.961864
O O16 0.860778 0.199193 0.520622
#
# Coordination Sequence:
#
# PCOD9047206 Si02
#       8
#     2   2   2   2   2   2   2   2
#     4  11  26  45  75 102 149 189 252 296 374 420
#     4  10  24  47  74 105 139 199 242 313 354 437
#     4  10  24  44  69 104 136 178 233 292 350 428
#     4  11  25  43  71 102 140 178 234 290 355 426
#     4  11  24  44  74  98 138 185 233 283 359 427
#     4  11  26  45  66 103 145 188 235 298 363 433
#     4  10  24  43  73  97 145 185 248 293 366 422
#     4  12  27  43  68 105 144 186 238 298 363 432
#
# _framework density 25.921925000000002
#
# number of rings (size 3 to 8) (size 9 to 14) (size 15 to 20)
#    0.000    1.250    1.250    2.250    7.000   12.500 
#    0.000    0.000    0.000    0.000    0.000    0.000 
#    0.000    0.000    0.000    0.000    0.000    0.000 
#
# Total GULP energy -89712.708000 kJ/mol
# GULP energy per Si atom -5607.044250 kJ/mol
# Density = 2.586293 g / cm^3
# Si number density = 25.921925 Si / 1000 Ang^3
#
#
#
# Elastic Constant Matrix: (Units=GPa)
#
#
# Indices 1 2 3 4 5 6 
#
# 1 105.0305 54.5821 47.7889 2.9244 -24.9987 -10.6885
# 2 54.5821 114.0439 5.8929 -1.4967 -12.1021 -9.9736
# 3 47.7889 5.8929 89.1332 1.3417 -23.5516 -6.8556
# 4 2.9244 -1.4967 1.3417 20.2157 -11.4825 -2.0649
# 5 -24.9987 -12.1021 -23.5516 -11.4825 39.4631 8.5357
# 6 -10.6885 -9.9736 -6.8556 -2.0649 8.5357 33.9190
#
#
#
# Elastic Compliance Matrix: (Units=1/GPa)
#
#
# Indices 1 2 3 4 5 6 
#
# 1 0.018419 -0.007893 -0.008208 -0.000299 0.004094 0.000776
# 2 -0.007893 0.012723 0.003943 0.002992 0.001737 0.001796
# 3 -0.008208 0.003943 0.017339 0.004709 0.007632 0.000444
# 4 -0.000299 0.002992 0.004709 0.061608 0.021444 0.000091
# 5 0.004094 0.001737 0.007632 0.021444 0.040457 -0.005532
# 6 0.000776 0.001796 0.000444 0.000091 -0.005532 0.031742
#
#
# Mechanical properties :
#
#
# Convention : Reuss Voigt Hill
#
# Bulk Modulus (GPa) = 41.38170 58.30392 49.84281
# Shear Modulus (GPa) = 23.29272 32.04914 27.67093
#
# Velocity S-wave (km/s) = 3.00087 3.52002 3.27076
# Velocity P-wave (km/s) = 5.29203 6.24994 5.79082
#
# Compressibility (1/GPa) = 0.02416527
#
# Stress axis : x y z
#
# Youngs Moduli (GPa) = 54.29152 78.59717 57.67411
#
# Poissons Ratio (x) = 0.62037 0.47337
# Poissons Ratio (y) = 0.42852 -0.22739
# Poissons Ratio (z) = 0.44560 -0.30989
#
# Static dielectric constant tensor:
#      x y z
#    x 1.997510 0.000050 -0.005420 
#    y 0.000050 2.030310 -0.030020 
#    z -0.005420 -0.030020 2.059620 
# 
# From -- ./inp_files/107581.got.cif
#   From: 2010.05.17/outbox.cif.g08.bks.cpg/sg2_54_cif.got.tgz:107581.got - 2010.06.03 11:33:40.
