data_PCOD9047626
_publ_section_title
;
Structure prediction by ZEFSAII (Michael W. Deem and Ramdas Pophale) SiO2 
 PCOD9047626
Probable space group: P -1
;
_chemical_formula_sum "Si O2"
_cell_formula_units_Z 16
_cell_length_a 9.687167
_cell_length_b 18.867109
_cell_length_c 13.399217
_cell_angle_alpha 36.627767
_cell_angle_beta 35.322587
_cell_angle_gamma 34.658199
_cell_volume 738.125146
_symmetry_space_group_name_H-M "P -1"
_symmetry_group_IT_number 2
_symmetry_cell_setting 'triclinic'
loop_
_space_group_symop_operation_xyz
x,y,z
-x,-y,-z
loop_
_atom_site_type_symbol
_atom_site_label
_atom_site_fract_x
_atom_site_fract_y
_atom_site_fract_z
Si Si1 0.168891 0.668166 0.081217
Si Si2 0.363119 0.179643 0.671543
Si Si3 0.826437 0.844649 0.393389
Si Si4 0.564605 0.568276 0.651054
Si Si5 0.786705 0.462990 0.421290
Si Si6 0.951246 0.372569 0.014533
Si Si7 0.744949 0.939055 0.844007
Si Si8 0.222077 0.913271 0.734065
O O1 0.262215 0.552349 0.238559
O O2 0.842381 0.758771 0.183561
O O3 0.282251 0.772893 0.910004
O O4 0.224073 0.614656 0.996570
O O5 0.177750 0.163651 0.714236
O O6 0.444365 0.293152 0.465086
O O7 0.625863 0.042419 0.704843
O O8 0.509737 0.891682 0.549847
O O9 0.018081 0.697620 0.494827
O O10 0.894397 0.957037 0.270931
O O11 0.708195 0.528731 0.503808
O O12 0.258833 0.588380 0.814204
O O13 0.500000 0.500000 0.500000
O O14 0.924101 0.530329 0.195028
O O15 0.170962 0.213109 0.069219
O O16 0.005977 0.935688 0.748524
O O17 0.500000 0.000000 0.000000
#
# Coordination Sequence:
#
# PCOD9047626 Si02
#       8
#     2   2   2   2   2   2   2   2
#     4  11  20  41  69  97 132 172 225 280 334 402
#     4  12  22  40  71 101 130 178 229 279 333 406
#     4  11  25  44  66 101 138 177 231 280 345 407
#     4  12  24  43  70  99 133 175 232 283 337 403
#     4  12  27  46  70  96 140 185 225 283 347 412
#     4  11  24  43  69 101 131 175 227 287 335 403
#     4  11  22  43  70  98 137 178 229 279 341 401
#     4  10  24  44  68  97 138 184 221 284 342 404
#
# _framework density 21.676541
#
# number of rings (size 3 to 8) (size 9 to 14) (size 15 to 20)
#    0.000    0.750    5.000    3.750    3.500    3.000 
#    4.500    0.000    0.000    0.000    0.000    0.000 
#    0.000    0.000    0.000    0.000    0.000    0.000 
#
# Total GULP energy -89435.598259 kJ/mol
# GULP energy per Si atom -5589.724891 kJ/mol
# Density = 2.162720 g / cm^3
# Si number density = 21.676541 Si / 1000 Ang^3
#
#
#
# Elastic Constant Matrix: (Units=GPa)
#
#
# Indices 1 2 3 4 5 6 
#
# 1 54.7413 13.6650 -10.6252 -22.5299 -6.7825 -9.6786
# 2 13.6650 54.2192 -15.4891 -13.7045 2.3013 -16.7537
# 3 -10.6252 -15.4891 48.7884 -4.9953 -11.3584 3.7194
# 4 -22.5299 -13.7045 -4.9953 51.1690 -5.3459 1.8165
# 5 -6.7825 2.3013 -11.3584 -5.3459 26.3822 -6.6126
# 6 -9.6786 -16.7537 3.7194 1.8165 -6.6126 37.9194
#
#
#
# Elastic Compliance Matrix: (Units=1/GPa)
#
#
# Indices 1 2 3 4 5 6 
#
# 1 0.031917 0.002778 0.013518 0.017835 0.020077 0.010695
# 2 0.002778 0.026961 0.011169 0.009960 0.008322 0.012500
# 3 0.013518 0.011169 0.032821 0.014107 0.021557 0.008249
# 4 0.017835 0.009960 0.014107 0.033077 0.018814 0.009266
# 5 0.020077 0.008322 0.021557 0.018814 0.059484 0.016159
# 6 0.010695 0.012500 0.008249 0.009266 0.016159 0.036189
#
#
# Mechanical properties :
#
#
# Convention : Reuss Voigt Hill
#
# Bulk Modulus (GPa) = 6.82004 14.76116 10.79060
# Shear Modulus (GPa) = 23.32148 34.44067 28.88108
#
# Velocity S-wave (km/s) = 3.28363 3.99036 3.65412
# Velocity P-wave (km/s) = 4.18681 5.29671 4.77412
#
# Compressibility (1/GPa) = 0.14662677
#
# Stress axis : x y z
#
# Youngs Moduli (GPa) = 31.33153 37.09097 30.46872
#
# Poissons Ratio (x) = -0.10304 -0.41187
# Poissons Ratio (y) = -0.08704 -0.34030
# Poissons Ratio (z) = -0.42353 -0.41426
#
# Static dielectric constant tensor:
#      x y z
#    x 1.811000 0.025490 0.009950 
#    y 0.025490 1.825430 0.022510 
#    z 0.009950 0.022510 1.827130 
# 
# From -- ./inp_files/402784.got.cif
#   From: 2010.05.17/outbox.cif.g08.bks.cpg/sg2_202_cif.got.tgz:402784.got - 2010.06.03 11:33:40.
