data_PCOD9047465
_publ_section_title
;
Structure prediction by ZEFSAII (Michael W. Deem and Ramdas Pophale) SiO2 
 PCOD9047465
Probable space group: P -1
;
_chemical_formula_sum "Si O2"
_cell_formula_units_Z 16
_cell_length_a 11.348552
_cell_length_b 13.352816
_cell_length_c 11.249116
_cell_angle_alpha 146.534257
_cell_angle_beta 51.343464
_cell_angle_gamma 131.338690
_cell_volume 694.516214
_symmetry_space_group_name_H-M "P -1"
_symmetry_group_IT_number 2
_symmetry_cell_setting 'triclinic'
loop_
_space_group_symop_operation_xyz
x,y,z
-x,-y,-z
loop_
_atom_site_type_symbol
_atom_site_label
_atom_site_fract_x
_atom_site_fract_y
_atom_site_fract_z
Si Si1 0.074837 0.398125 0.083947
Si Si2 0.839898 0.429491 0.450732
Si Si3 0.053842 0.009996 0.838061
Si Si4 0.258937 0.815444 0.375025
Si Si5 0.710868 0.746759 0.759900
Si Si6 0.925074 0.166498 0.734680
Si Si7 0.610823 0.899148 0.765634
Si Si8 0.429900 0.957010 0.723287
O O1 0.913772 0.420574 0.264512
O O2 0.219183 0.592081 0.209670
O O3 0.045285 0.337841 0.904523
O O4 0.098074 0.222459 0.968916
O O5 0.735146 0.570921 0.642702
O O6 0.000000 0.500000 0.500000
O O7 0.190006 0.925974 0.626079
O O8 0.892162 0.876589 0.748071
O O9 0.000000 0.000000 0.000000
O O10 0.150580 0.796504 0.304629
O O11 0.441285 0.932838 0.346742
O O12 0.270709 0.774907 0.634859
O O13 0.626765 0.725504 0.662874
O O14 0.626944 0.875232 0.014724
O O15 0.777402 0.067205 0.815249
O O16 0.000000 0.000000 0.500000
O O17 0.536818 0.864217 0.647589
O O18 0.500000 0.000000 0.000000
#
# Coordination Sequence:
#
# PCOD9047465 Si02
#       8
#     2   2   2   2   2   2   2   2
#     4  12  23  41  72 102 138 191 243 292 347 434
#     4  12  26  44  73 106 136 194 257 288 349 439
#     4  12  24  43  72 103 141 194 248 296 344 428
#     4  11  25  43  69 108 147 182 234 302 373 419
#     4  11  21  42  71 100 139 193 243 288 352 427
#     4  11  20  40  66 103 144 185 231 289 363 427
#     4   9  18  38  66  98 141 180 226 287 360 424
#     4  10  24  44  67 106 150 179 230 310 364 421
#
# _framework density 23.03762
#
# number of rings (size 3 to 8) (size 9 to 14) (size 15 to 20)
#    0.000    1.000    5.000    1.875    0.000    1.500 
#    0.000    2.500    0.000    3.000    0.000    0.000 
#    0.000    0.000    0.000    0.000    0.000    0.000 
#
# Total GULP energy -89354.810028 kJ/mol
# GULP energy per Si atom -5584.675627 kJ/mol
# Density = 2.298519 g / cm^3
# Si number density = 23.037620 Si / 1000 Ang^3
#
#
#
# Elastic Constant Matrix: (Units=GPa)
#
#
# Indices 1 2 3 4 5 6 
#
# 1 62.9055 38.3894 26.4546 7.2275 -1.7309 -7.8664
# 2 38.3894 154.4353 58.7836 10.1417 -4.1138 8.7077
# 3 26.4546 58.7836 106.7513 4.8148 -9.6663 2.0691
# 4 7.2275 10.1417 4.8148 38.5223 3.3403 -12.0010
# 5 -1.7309 -4.1138 -9.6663 3.3403 33.7802 -0.3380
# 6 -7.8664 8.7077 2.0691 -12.0010 -0.3380 51.5582
#
#
#
# Elastic Compliance Matrix: (Units=1/GPa)
#
#
# Indices 1 2 3 4 5 6 
#
# 1 0.020135 -0.004075 -0.002769 -0.001234 -0.000099 0.003584
# 2 -0.004075 0.009261 -0.003958 -0.001948 -0.000046 -0.002481
# 3 -0.002769 -0.003958 0.012527 -0.000364 0.002994 -0.000322
# 4 -0.001234 -0.001948 -0.000364 0.029186 -0.003221 0.006928
# 5 -0.000099 -0.000046 0.002994 -0.003221 0.030761 -0.000676
# 6 0.003584 -0.002481 -0.000322 0.006928 -0.000676 0.021982
#
#
# Mechanical properties :
#
#
# Convention : Reuss Voigt Hill
#
# Bulk Modulus (GPa) = 49.21288 63.48304 56.34796
# Shear Modulus (GPa) = 32.84497 38.13642 35.49069
#
# Velocity S-wave (km/s) = 3.77995 4.07307 3.92925
# Velocity P-wave (km/s) = 6.36074 7.05237 6.71547
#
# Compressibility (1/GPa) = 0.02031989
#
# Stress axis : x y z
#
# Youngs Moduli (GPa) = 49.66416 107.97522 79.82736
#
# Poissons Ratio (x) = 0.44000 0.22101
# Poissons Ratio (y) = 0.20238 0.31597
# Poissons Ratio (z) = 0.13750 0.42739
#
# Static dielectric constant tensor:
#      x y z
#    x 2.028380 -0.035160 0.050260 
#    y -0.035160 1.882910 -0.019170 
#    z 0.050260 -0.019170 1.883510 
# 
# From -- ./inp_files/435149.got.cif
#   From: 2010.05.17/outbox.cif.g08.bks.cpg/sg2_218_cif.got.tgz:435149.got - 2010.06.03 11:33:40.
