data_PCOD9047571
_publ_section_title
;
Structure prediction by ZEFSAII (Michael W. Deem and Ramdas Pophale) SiO2 
 PCOD9047571
Probable space group: P -1
;
_chemical_formula_sum "Si O2"
_cell_formula_units_Z 16
_cell_length_a 6.680387
_cell_length_b 11.122896
_cell_length_c 12.792349
_cell_angle_alpha 123.774976
_cell_angle_beta 108.541984
_cell_angle_gamma 101.717385
_cell_volume 656.330895
_symmetry_space_group_name_H-M "P -1"
_symmetry_group_IT_number 2
_symmetry_cell_setting 'triclinic'
loop_
_space_group_symop_operation_xyz
x,y,z
-x,-y,-z
loop_
_atom_site_type_symbol
_atom_site_label
_atom_site_fract_x
_atom_site_fract_y
_atom_site_fract_z
Si Si1 0.988966 0.334156 0.461080
Si Si2 0.622176 0.226756 0.523814
Si Si3 0.487956 0.495462 0.296483
Si Si4 0.521273 0.254047 0.851897
Si Si5 0.814368 0.124812 0.932413
Si Si6 0.244157 0.022970 0.504254
Si Si7 0.144488 0.204101 0.227061
Si Si8 0.223170 0.375698 0.981323
O O1 0.225048 0.393682 0.601976
O O2 0.036254 0.237999 0.329414
O O3 0.000000 0.500000 0.500000
O O4 0.740540 0.238996 0.437039
O O5 0.647394 0.399676 0.646716
O O6 0.343000 0.102452 0.446081
O O7 0.758701 0.150489 0.576355
O O8 0.395973 0.358495 0.305975
O O9 0.402113 0.417931 0.131365
O O10 0.579770 0.148520 0.895474
O O11 0.441766 0.150389 0.681650
O O12 0.727487 0.445852 0.964728
O O13 0.300363 0.281581 0.865444
O O14 0.808774 0.950967 0.833046
O O15 0.957571 0.184389 0.094095
O O16 0.969205 0.248762 0.925436
O O17 0.000000 0.000000 0.500000
#
# Coordination Sequence:
#
# PCOD9047571 Si02
#       8
#     2   2   2   2   2   2   2   2
#     4  12  26  41  72 107 141 196 239 295 355 427
#     4  11  25  44  70 104 144 190 226 294 367 422
#     4  11  23  46  67 102 150 184 242 293 353 436
#     4  11  24  44  74 102 134 189 231 296 364 424
#     4  10  24  47  71 101 144 186 239 297 345 425
#     4  11  26  48  71 107 144 184 237 301 366 432
#     4  10  24  47  69 104 145 191 240 296 348 418
#     4  10  24  44  68 105 137 182 240 294 354 423
#
# _framework density 24.377946000000001
#
# number of rings (size 3 to 8) (size 9 to 14) (size 15 to 20)
#    0.000    1.250    2.500    1.500    5.250    2.000 
#    6.750    1.875    0.000    0.000    0.000    0.000 
#    0.000    0.000    0.000    0.000    0.000    0.000 
#
# Total GULP energy -89488.370523 kJ/mol
# GULP energy per Si atom -5593.023158 kJ/mol
# Density = 2.432246 g / cm^3
# Si number density = 24.377946 Si / 1000 Ang^3
#
#
#
# Elastic Constant Matrix: (Units=GPa)
#
#
# Indices 1 2 3 4 5 6 
#
# 1 128.8087 54.9695 29.6636 1.3218 -15.4095 0.0036
# 2 54.9695 124.4372 16.3095 10.0486 -9.9328 -4.7421
# 3 29.6636 16.3095 77.2743 -4.8681 -10.3700 -9.7133
# 4 1.3218 10.0486 -4.8681 28.0299 1.3598 -10.3947
# 5 -15.4095 -9.9328 -10.3700 1.3598 25.6128 -2.5588
# 6 0.0036 -4.7421 -9.7133 -10.3947 -2.5588 53.7431
#
#
#
# Elastic Compliance Matrix: (Units=1/GPa)
#
#
# Indices 1 2 3 4 5 6 
#
# 1 0.010562 -0.004041 -0.002805 0.000035 0.003581 -0.000687
# 2 -0.004041 0.010326 -0.000631 -0.003633 0.001527 0.000167
# 3 -0.002805 -0.000631 0.015495 0.004233 0.004494 0.003778
# 4 0.000035 -0.003633 0.004233 0.040837 -0.001013 0.008295
# 5 0.003581 0.001527 0.004494 -0.001013 0.043947 0.002843
# 6 -0.000687 0.000167 0.003778 0.008295 0.002843 0.021044
#
#
# Mechanical properties :
#
#
# Convention : Reuss Voigt Hill
#
# Bulk Modulus (GPa) = 46.66630 59.15615 52.91123
# Shear Modulus (GPa) = 30.43038 36.78232 33.60635
#
# Velocity S-wave (km/s) = 3.53693 3.88859 3.71692
# Velocity P-wave (km/s) = 5.98867 6.66936 6.33816
#
# Compressibility (1/GPa) = 0.02142874
#
# Stress axis : x y z
#
# Youngs Moduli (GPa) = 94.67768 96.84563 64.53492
#
# Poissons Ratio (x) = 0.39138 0.18103
# Poissons Ratio (y) = 0.38262 0.04071
# Poissons Ratio (z) = 0.26559 0.06110
#
# Static dielectric constant tensor:
#      x y z
#    x 1.953900 0.017100 0.057810 
#    y 0.017100 1.954950 0.000600 
#    z 0.057810 0.000600 1.929910 
# 
# From -- ./inp_files/482948.got.cif
#   From: 2010.05.17/outbox.cif.g08.bks.cpg/sg2_242_cif.got.tgz:482948.got - 2010.06.03 11:33:40.
