data_PCOD9047415
_publ_section_title
;
Structure prediction by ZEFSAII (Michael W. Deem and Ramdas Pophale) SiO2 
 PCOD9047415
Probable space group: P -1
;
_chemical_formula_sum "Si O2"
_cell_formula_units_Z 14
_cell_length_a 6.515896
_cell_length_b 14.872115
_cell_length_c 8.314290
_cell_angle_alpha 94.274234
_cell_angle_beta 119.785385
_cell_angle_gamma 67.424747
_cell_volume 638.858538
_symmetry_space_group_name_H-M "P -1"
_symmetry_group_IT_number 2
_symmetry_cell_setting 'triclinic'
loop_
_space_group_symop_operation_xyz
x,y,z
-x,-y,-z
loop_
_atom_site_type_symbol
_atom_site_label
_atom_site_fract_x
_atom_site_fract_y
_atom_site_fract_z
Si Si1 0.882454 0.898954 0.109701
Si Si2 0.560762 0.013532 0.284568
Si Si3 0.530645 0.402476 0.098266
Si Si4 0.111498 0.335067 0.307013
Si Si5 0.545949 0.145354 0.584926
Si Si6 0.814596 0.702946 0.054927
Si Si7 0.755000 0.492880 0.684848
O O1 0.805992 0.808134 0.111886
O O2 0.189456 0.863617 0.229569
O O3 0.749833 0.983328 0.201868
O O4 0.733661 0.939036 0.890121
O O5 0.612442 0.089403 0.431109
O O6 0.585395 0.916544 0.377886
O O7 0.341908 0.450958 0.178432
O O8 0.829201 0.345389 0.249444
O O9 0.500000 0.500000 0.000000
O O10 0.423944 0.322991 0.983857
O O11 0.342497 0.255263 0.485623
O O12 0.113386 0.442843 0.342315
O O13 0.149090 0.305599 0.127363
O O14 0.057836 0.617535 0.219873
O O15 0.500000 0.500000 0.500000
#
# Coordination Sequence:
#
# PCOD9047415 Si02
#       7
#     2   2   2   2   2   2   2
#     4  11  23  44  68  96 131 165 213 267 323 377
#     4  10  24  44  66  98 125 169 215 263 325 379
#     4  11  21  42  65  86 127 172 213 253 309 385
#     4  11  22  41  64  93 127 171 209 260 319 378
#     4  11  23  43  68  95 130 167 215 264 320 379
#     4  11  22  40  65  93 128 168 210 261 324 369
#     4  11  23  39  62  93 129 162 209 267 317 374
#
# _framework density 21.914083999999999
#
# number of rings (size 3 to 8) (size 9 to 14) (size 15 to 20)
#    0.000    1.143    4.286    2.571    0.000    5.143 
#   12.857    0.000    0.000    0.000    0.000    0.000 
#    0.000    0.000    0.000    0.000    0.000    0.000 
#
# Total GULP energy -78245.424707 kJ/mol
# GULP energy per Si atom -5588.958908 kJ/mol
# Density = 2.186421 g / cm^3
# Si number density = 21.914084 Si / 1000 Ang^3
#
#
#
# Elastic Constant Matrix: (Units=GPa)
#
#
# Indices 1 2 3 4 5 6 
#
# 1 41.6817 -4.3562 -6.9799 -6.3914 19.0245 6.4985
# 2 -4.3562 66.0171 9.5623 -16.7760 -8.0952 9.2461
# 3 -6.9799 9.5623 70.0041 -27.7513 20.1856 -0.2950
# 4 -6.3914 -16.7760 -27.7513 42.7917 -4.3846 4.4476
# 5 19.0245 -8.0952 20.1856 -4.3846 30.0705 -1.6846
# 6 6.4985 9.2461 -0.2950 4.4476 -1.6846 26.0625
#
#
#
# Elastic Compliance Matrix: (Units=1/GPa)
#
#
# Indices 1 2 3 4 5 6 
#
# 1 0.070909 0.003254 0.038969 0.033236 -0.066888 -0.028389
# 2 0.003254 0.019537 0.000357 0.009724 0.003866 -0.009148
# 3 0.038969 0.000357 0.045661 0.032179 -0.051534 -0.018149
# 4 0.033236 0.009724 0.032179 0.051890 -0.033699 -0.022406
# 5 -0.066888 0.003866 -0.051534 -0.033699 0.107831 0.027444
# 6 -0.028389 -0.009148 -0.018149 -0.022406 0.027444 0.054085
#
#
# Mechanical properties :
#
#
# Convention : Reuss Voigt Hill
#
# Bulk Modulus (GPa) = 4.51942 19.35058 11.93500
# Shear Modulus (GPa) = 14.77072 31.75005 23.26038
#
# Velocity S-wave (km/s) = 2.59902 3.81050 3.26150
# Velocity P-wave (km/s) = 3.32767 5.31123 4.43185
#
# Compressibility (1/GPa) = 0.22126719
#
# Stress axis : x y z
#
# Youngs Moduli (GPa) = 14.10262 51.18520 21.90054
#
# Poissons Ratio (x) = -0.16658 -0.85343
# Poissons Ratio (y) = -0.04590 -0.00783
# Poissons Ratio (z) = -0.54956 -0.01829
#
# Static dielectric constant tensor:
#      x y z
#    x 1.798480 0.020280 -0.008780 
#    y 0.020280 1.808320 0.031120 
#    z -0.008780 0.031120 1.813910 
# 
# From -- ./inp_files/32242.got.cif
#   From: 2010.05.17/outbox.cif.g08.bks.cpg/sg2_17_cif.got.tgz:32242.got - 2010.06.03 11:33:40.
