data_PCOD9047825
_publ_section_title
;
Structure prediction by ZEFSAII (Michael W. Deem and Ramdas Pophale) SiO2 
 PCOD9047825
Probable space group: P -1
;
_chemical_formula_sum "Si O2"
_cell_formula_units_Z 15
_cell_length_a 12.616506
_cell_length_b 11.682926
_cell_length_c 18.745357
_cell_angle_alpha 33.176155
_cell_angle_beta 25.882544
_cell_angle_gamma 41.795214
_cell_volume 659.689982
_symmetry_space_group_name_H-M "P -1"
_symmetry_group_IT_number 2
_symmetry_cell_setting 'triclinic'
loop_
_space_group_symop_operation_xyz
x,y,z
-x,-y,-z
loop_
_atom_site_type_symbol
_atom_site_label
_atom_site_fract_x
_atom_site_fract_y
_atom_site_fract_z
Si Si1 0.630030 0.552426 0.217695
Si Si2 0.669454 0.796012 0.917892
Si Si3 0.213844 0.039321 0.031626
Si Si4 0.689430 0.591190 0.398370
Si Si5 0.737232 0.142173 0.290383
Si Si6 0.000000 0.000000 0.500000
Si Si7 0.550776 0.037123 0.212447
Si Si8 0.757019 0.386610 0.001572
O O1 0.668992 0.677988 0.055215
O O2 0.371725 0.519809 0.431006
O O3 0.724899 0.323233 0.262827
O O4 0.765833 0.708158 0.109140
O O5 0.441750 0.943495 0.981693
O O6 0.641529 0.605620 0.977320
O O7 0.902018 0.924147 0.679384
O O8 0.243123 0.962164 0.974183
O O9 0.959086 0.990139 0.247497
O O10 0.500000 0.500000 0.500000
O O11 0.619964 0.832704 0.321893
O O12 0.969799 0.568044 0.218226
O O13 0.772275 0.254993 0.133809
O O14 0.500000 0.000000 0.500000
O O15 0.711974 0.996810 0.647707
O O16 0.589922 0.247693 0.122861
#
# Coordination Sequence:
#
# PCOD9047825 Si02
#       8
#     2   2   2   2   2   1   2   2
#     4  11  24  43  70 102 139 181 232 290 344 414
#     4  10  25  46  69 102 141 182 235 288 354 418
#     4  11  23  43  66  99 140 185 227 289 346 419
#     4  12  22  41  74 108 137 184 243 285 350 414
#     4  11  24  43  69 101 137 180 235 290 351 412
#     4  10  24  44  70  96 140 182 234 276 350 422
#     4  11  23  42  71 105 138 186 232 291 349 417
#     4  11  24  43  71 104 143 179 237 293 351 416
#
# _framework density 22.737952
#
# number of rings (size 3 to 8) (size 9 to 14) (size 15 to 20)
#    0.000    1.067    2.667    2.800    3.733    6.400 
#    0.000    5.333    0.000    0.000    0.000    0.000 
#    0.000    0.000    0.000    0.000    0.000    0.000 
#
# Total GULP energy -83507.167555 kJ/mol
# GULP energy per Si atom -5567.144504 kJ/mol
# Density = 2.268620 g / cm^3
# Si number density = 22.737952 Si / 1000 Ang^3
#
#
#
# Elastic Constant Matrix: (Units=GPa)
#
#
# Indices 1 2 3 4 5 6 
#
# 1 51.0246 32.4606 29.1459 4.8844 9.8546 8.0859
# 2 32.4606 129.3268 54.4632 14.0192 -22.6648 15.3781
# 3 29.1459 54.4632 132.6243 30.8371 9.5543 -12.3147
# 4 4.8844 14.0192 30.8371 28.0544 2.0916 -2.1907
# 5 9.8546 -22.6648 9.5543 2.0916 49.5565 1.6388
# 6 8.0859 15.3781 -12.3147 -2.1907 1.6388 26.0031
#
#
#
# Elastic Compliance Matrix: (Units=1/GPa)
#
#
# Indices 1 2 3 4 5 6 
#
# 1 0.028194 -0.006012 -0.004534 0.003113 -0.007394 -0.006630
# 2 -0.006012 0.014936 -0.006233 -0.001113 0.009626 -0.010616
# 3 -0.004534 -0.006233 0.015204 -0.011544 -0.004778 0.011625
# 4 0.003113 -0.001113 -0.011544 0.048285 -0.000885 -0.001653
# 5 -0.007394 0.009626 -0.004778 -0.000885 0.027257 -0.007449
# 6 -0.006630 -0.010616 0.011625 -0.001653 -0.007449 0.052633
#
#
# Mechanical properties :
#
#
# Convention : Reuss Voigt Hill
#
# Bulk Modulus (GPa) = 40.36152 60.56835 50.46493
# Shear Modulus (GPa) = 21.89869 33.84987 27.87428
#
# Velocity S-wave (km/s) = 3.10674 3.86255 3.50507
# Velocity P-wave (km/s) = 5.53700 6.82552 6.21474
#
# Compressibility (1/GPa) = 0.02477608
#
# Stress axis : x y z
#
# Youngs Moduli (GPa) = 35.46896 66.95126 65.77316
#
# Poissons Ratio (x) = 0.40252 0.29820
# Poissons Ratio (y) = 0.21324 0.40996
# Poissons Ratio (z) = 0.16081 0.41731
#
# Static dielectric constant tensor:
#      x y z
#    x 1.974340 -0.028700 0.032330 
#    y -0.028700 1.892060 -0.012820 
#    z 0.032330 -0.012820 1.907380 
# 
# From -- ./inp_files/177653.got.cif
#   From: 2010.05.17/outbox.cif.g08.bks.cpg/sg2_89_cif.got.tgz:177653.got - 2010.06.03 11:33:40.
