data_PCOD9047091
_publ_section_title
;
Structure prediction by ZEFSAII (Michael W. Deem and Ramdas Pophale) SiO2 
 PCOD9047091
Probable space group: P -1
;
_chemical_formula_sum "Si O2"
_cell_formula_units_Z 13
_cell_length_a 9.036692
_cell_length_b 12.294530
_cell_length_c 11.866029
_cell_angle_alpha 63.932871
_cell_angle_beta 126.017581
_cell_angle_gamma 71.954643
_cell_volume 597.018634
_symmetry_space_group_name_H-M "P -1"
_symmetry_group_IT_number 2
_symmetry_cell_setting 'triclinic'
loop_
_space_group_symop_operation_xyz
x,y,z
-x,-y,-z
loop_
_atom_site_type_symbol
_atom_site_label
_atom_site_fract_x
_atom_site_fract_y
_atom_site_fract_z
Si Si1 0.303979 0.099120 0.256540
Si Si2 0.677409 0.793312 0.215388
Si Si3 0.500000 0.500000 0.500000
Si Si4 0.185064 0.496038 0.741047
Si Si5 0.245010 0.396216 0.061749
Si Si6 0.607217 0.448977 0.834596
Si Si7 0.344535 0.847352 0.235031
O O1 0.351285 0.205187 0.170443
O O2 0.500000 0.000000 0.500000
O O3 0.385201 0.945128 0.284179
O O4 0.960350 0.260450 0.061636
O O5 0.804029 0.646488 0.237991
O O6 0.462978 0.818078 0.178589
O O7 0.933968 0.690536 0.465970
O O8 0.500000 0.000000 0.000000
O O9 0.481903 0.495192 0.632503
O O10 0.496710 0.650385 0.442643
O O11 0.480394 0.415081 0.878757
O O12 0.132896 0.514000 0.842255
O O13 0.459486 0.383540 0.219985
O O14 0.000000 0.500000 0.000000
O O15 0.000000 0.000000 0.000000
#
# Coordination Sequence:
#
# PCOD9047091 Si02
#       7
#     2   2   1   2   2   2   2
#     4  11  24  44  69 107 144 185 240 298 353 426
#     4  11  26  42  69 106 144 187 231 298 366 414
#     4  12  24  42  74 106 138 188 240 294 350 424
#     4  11  24  46  67 102 146 184 240 295 354 436
#     4  10  24  43  71  96 138 192 236 289 362 424
#     4  11  24  44  71 102 143 191 238 288 368 416
#     4  12  25  43  71 104 144 183 244 288 351 428
#
# _framework density 21.774865999999999
#
# number of rings (size 3 to 8) (size 9 to 14) (size 15 to 20)
#    0.000    0.923    3.077    2.308   10.769    0.000 
#    2.769    0.769    0.000    0.000    0.000    0.000 
#    0.000    0.000    0.000    0.000    0.000    0.000 
#
# Total GULP energy -72412.336328 kJ/mol
# GULP energy per Si atom -5570.179718 kJ/mol
# Density = 2.172530 g / cm^3
# Si number density = 21.774866 Si / 1000 Ang^3
#
#
#
# Elastic Constant Matrix: (Units=GPa)
#
#
# Indices 1 2 3 4 5 6 
#
# 1 97.0617 26.2487 32.0518 2.8810 -21.8313 -5.3479
# 2 26.2487 161.1085 36.0179 10.9120 -21.6589 20.5516
# 3 32.0518 36.0179 56.2894 1.1970 -23.0129 2.3443
# 4 2.8810 10.9120 1.1970 40.1553 2.1920 -14.6338
# 5 -21.8313 -21.6589 -23.0129 2.1920 41.1643 -1.5048
# 6 -5.3479 20.5516 2.3443 -14.6338 -1.5048 42.2300
#
#
#
# Elastic Compliance Matrix: (Units=1/GPa)
#
#
# Indices 1 2 3 4 5 6 
#
# 1 0.013346 -0.000740 -0.005789 0.000153 0.003537 0.002551
# 2 -0.000740 0.008414 -0.003876 -0.004171 0.001894 -0.005351
# 3 -0.005789 -0.003876 0.027805 0.000073 0.010431 0.000007
# 4 0.000153 -0.004171 0.000073 0.030793 -0.003252 0.012600
# 5 0.003537 0.001894 0.010431 -0.003252 0.033133 -0.000999
# 6 0.002551 -0.005351 0.000007 0.012600 -0.000999 0.030937
#
#
# Mechanical properties :
#
#
# Convention : Reuss Voigt Hill
#
# Bulk Modulus (GPa) = 34.77884 55.89962 45.33923
# Shear Modulus (GPa) = 28.60000 39.38599 33.99299
#
# Velocity S-wave (km/s) = 3.62807 4.25759 3.95538
# Velocity P-wave (km/s) = 5.79286 7.06377 6.45965
#
# Compressibility (1/GPa) = 0.02875311
#
# Stress axis : x y z
#
# Youngs Moduli (GPa) = 74.92746 118.84907 35.96506
#
# Poissons Ratio (x) = 0.08800 0.20820
# Poissons Ratio (y) = 0.05548 0.13942
# Poissons Ratio (z) = 0.43376 0.46072
#
# Static dielectric constant tensor:
#      x y z
#    x 1.790160 0.001740 0.046680 
#    y 0.001740 1.879820 -0.032550 
#    z 0.046680 -0.032550 1.826710 
# 
# From -- ./inp_files/240555.got.cif
#   From: 2010.05.17/outbox.cif.g08.bks.cpg/sg2_121_cif.got.tgz:240555.got - 2010.06.03 11:33:40.
