data_PCOD9047865
_publ_section_title
;
Structure prediction by ZEFSAII (Michael W. Deem and Ramdas Pophale) SiO2 
 PCOD9047865
Probable space group: P -1
;
_chemical_formula_sum "Si O2"
_cell_formula_units_Z 12
_cell_length_a 15.418918
_cell_length_b 6.727420
_cell_length_c 7.344937
_cell_angle_alpha 118.559181
_cell_angle_beta 68.372095
_cell_angle_gamma 72.559412
_cell_volume 505.465046
_symmetry_space_group_name_H-M "P -1"
_symmetry_group_IT_number 2
_symmetry_cell_setting 'triclinic'
loop_
_space_group_symop_operation_xyz
x,y,z
-x,-y,-z
loop_
_atom_site_type_symbol
_atom_site_label
_atom_site_fract_x
_atom_site_fract_y
_atom_site_fract_z
Si Si1 0.783547 0.113072 0.105443
Si Si2 0.033753 0.128146 0.869184
Si Si3 0.780093 0.634221 0.299257
Si Si4 0.184889 0.954995 0.343795
Si Si5 0.434926 0.396015 0.897628
Si Si6 0.401032 0.963764 0.696858
O O1 0.855080 0.995827 0.811971
O O2 0.671897 0.115662 0.172567
O O3 0.859459 0.910131 0.122493
O O4 0.752948 0.418929 0.300282
O O5 0.085226 0.580369 0.953128
O O6 0.094180 0.982321 0.568597
O O7 0.000000 0.000000 0.000000
O O8 0.782493 0.836286 0.529289
O O9 0.687676 0.817509 0.294458
O O10 0.301657 0.647283 0.116763
O O11 0.443239 0.124891 0.842788
O O12 0.495801 0.292586 0.608424
O O13 0.500000 0.500000 0.000000
#
# Coordination Sequence:
#
# PCOD9047865 Si02
#       6
#     2   2   2   2   2   2
#     4  11  25  45  70 106 138 184 231 278 348 409
#     4  10  24  44  71 101 145 182 223 289 338 407
#     4  11  23  46  68 102 145 175 232 287 333 413
#     4  12  24  43  73 104 135 186 235 277 346 416
#     4  11  23  45  73  99 138 181 232 286 343 411
#     4  11  24  45  72  98 143 182 221 298 340 392
#
# _framework density 23.740514999999998
#
# number of rings (size 3 to 8) (size 9 to 14) (size 15 to 20)
#    0.000    1.000    5.000    0.500    0.000    8.000 
#    0.000    1.667    0.000    0.000    0.000    0.000 
#    0.000    0.000    0.000    0.000    0.000    0.000 
#
# Total GULP energy -67015.790588 kJ/mol
# GULP energy per Si atom -5584.649216 kJ/mol
# Density = 2.368648 g / cm^3
# Si number density = 23.740515 Si / 1000 Ang^3
#
#
#
# Elastic Constant Matrix: (Units=GPa)
#
#
# Indices 1 2 3 4 5 6 
#
# 1 93.9363 29.5346 38.3189 9.0610 3.8085 23.5132
# 2 29.5346 115.0881 53.3169 4.8809 -0.5063 10.3923
# 3 38.3189 53.3169 177.1283 5.7127 -12.3463 6.6316
# 4 9.0610 4.8809 5.7127 39.8145 5.9852 -4.9648
# 5 3.8085 -0.5063 -12.3463 5.9852 48.9375 7.3902
# 6 23.5132 10.3923 6.6316 -4.9648 7.3902 63.0157
#
#
#
# Elastic Compliance Matrix: (Units=1/GPa)
#
#
# Indices 1 2 3 4 5 6 
#
# 1 0.013624 -0.001961 -0.002118 -0.003065 -0.000528 -0.004717
# 2 -0.001961 0.010540 -0.002722 -0.000508 -0.000253 -0.000730
# 3 -0.002118 -0.002722 0.007065 -0.000461 0.001940 0.000232
# 4 -0.003065 -0.000508 -0.000461 0.026988 -0.003764 0.003844
# 5 -0.000528 -0.000253 0.001940 -0.003764 0.021849 -0.002824
# 6 -0.004717 -0.000730 0.000232 0.003844 -0.002824 0.018359
#
#
# Mechanical properties :
#
#
# Convention : Reuss Voigt Hill
#
# Bulk Modulus (GPa) = 56.73786 69.83263 63.28524
# Shear Modulus (GPa) = 42.40782 48.01902 45.21342
#
# Velocity S-wave (km/s) = 4.23106 4.50228 4.36877
# Velocity P-wave (km/s) = 6.91521 7.51706 7.22241
#
# Compressibility (1/GPa) = 0.01762492
#
# Stress axis : x y z
#
# Youngs Moduli (GPa) = 73.39993 94.87851 141.54916
#
# Poissons Ratio (x) = 0.18609 0.29984
# Poissons Ratio (y) = 0.14396 0.38532
# Poissons Ratio (z) = 0.15548 0.25827
#
# Static dielectric constant tensor:
#      x y z
#    x 2.015920 0.058870 -0.016420 
#    y 0.058870 1.984400 -0.015100 
#    z -0.016420 -0.015100 1.857620 
# 
# From -- ./inp_files/124957.got.cif
#   From: 2010.05.17/outbox.cif.g08.bks.cpg/sg2_63_cif.got.tgz:124957.got - 2010.06.03 11:33:40.
