data_PCOD9047351
_publ_section_title
;
Structure prediction by ZEFSAII (Michael W. Deem and Ramdas Pophale) SiO2 
 PCOD9047351
Probable space group: P -1
;
_chemical_formula_sum "Si O2"
_cell_formula_units_Z 16
_cell_length_a 19.845843
_cell_length_b 5.356766
_cell_length_c 22.618965
_cell_angle_alpha 66.710257
_cell_angle_beta 21.797570
_cell_angle_gamma 55.308246
_cell_volume 660.747379
_symmetry_space_group_name_H-M "P -1"
_symmetry_group_IT_number 2
_symmetry_cell_setting 'triclinic'
loop_
_space_group_symop_operation_xyz
x,y,z
-x,-y,-z
loop_
_atom_site_type_symbol
_atom_site_label
_atom_site_fract_x
_atom_site_fract_y
_atom_site_fract_z
Si Si1 0.858036 0.305273 0.733204
Si Si2 0.979057 0.015435 0.085907
Si Si3 0.524769 0.645294 0.373901
Si Si4 0.244299 0.627471 0.515930
Si Si5 0.348013 0.633500 0.981941
Si Si6 0.923297 0.724363 0.260692
Si Si7 0.409971 0.920622 0.801625
Si Si8 0.806834 0.992048 0.688798
O O1 0.698103 0.362188 0.912030
O O2 0.840544 0.637750 0.699113
O O3 0.805756 0.137880 0.739919
O O4 0.115178 0.020242 0.571596
O O5 0.747404 0.382554 0.253364
O O6 0.949290 0.751113 0.167163
O O7 0.000000 0.000000 0.000000
O O8 0.195129 0.968657 0.941649
O O9 0.422838 0.479531 0.437847
O O10 0.321007 0.953015 0.548410
O O11 0.587970 0.781236 0.254190
O O12 0.058678 0.587656 0.696736
O O13 0.368403 0.413719 0.376532
O O14 0.121718 0.721436 0.128409
O O15 0.396793 0.875709 0.886367
O O16 0.569952 0.257744 0.824645
O O17 0.000000 0.000000 0.500000
#
# Coordination Sequence:
#
# PCOD9047351 Si02
#       8
#     2   2   2   2   2   2   2   2
#     4  12  26  48  73 107 146 184 238 290 356 422
#     4  11  22  42  64 100 133 180 232 291 352 413
#     4  11  22  43  66  94 133 182 228 283 351 417
#     4  11  23  43  70  97 136 185 231 287 346 423
#     4  11  24  46  71 102 138 183 229 289 358 418
#     4  10  24  44  65  96 138 181 234 287 351 420
#     4  10  24  44  67  99 139 179 231 290 351 421
#     4  12  28  49  75 107 143 189 234 294 354 426
#
# _framework density 24.215004
#
# number of rings (size 3 to 8) (size 9 to 14) (size 15 to 20)
#    0.000    1.000    2.500    3.375    3.500    2.500 
#    4.500    0.000    0.000    0.000    0.000    0.000 
#    0.000    0.000    0.000    0.000    0.000    0.000 
#
# Total GULP energy -89487.371105 kJ/mol
# GULP energy per Si atom -5592.960694 kJ/mol
# Density = 2.415989 g / cm^3
# Si number density = 24.215004 Si / 1000 Ang^3
#
#
#
# Elastic Constant Matrix: (Units=GPa)
#
#
# Indices 1 2 3 4 5 6 
#
# 1 53.4404 11.0324 5.8672 -15.4119 19.5643 -13.0140
# 2 11.0324 111.7945 36.3312 2.4841 4.9803 -18.7764
# 3 5.8672 36.3312 106.5746 0.1499 5.3501 -18.4945
# 4 -15.4119 2.4841 0.1499 40.6668 -11.3074 1.2550
# 5 19.5643 4.9803 5.3501 -11.3074 22.4664 -8.4449
# 6 -13.0140 -18.7764 -18.4945 1.2550 -8.4449 34.3082
#
#
#
# Elastic Compliance Matrix: (Units=1/GPa)
#
#
# Indices 1 2 3 4 5 6 
#
# 1 0.029374 -0.001447 0.000868 0.005283 -0.020731 0.005522
# 2 -0.001447 0.010693 -0.002912 -0.001187 0.000447 0.003887
# 3 0.000868 -0.002912 0.011160 0.000031 -0.001065 0.004488
# 4 0.005283 -0.001187 0.000031 0.029873 0.011896 0.003207
# 5 -0.020731 0.000447 -0.001065 0.011896 0.072137 0.009128
# 6 0.005522 0.003887 0.004488 0.003207 0.009128 0.037919
#
#
# Mechanical properties :
#
#
# Convention : Reuss Voigt Hill
#
# Bulk Modulus (GPa) = 22.60162 42.03012 32.31587
# Shear Modulus (GPa) = 23.48665 34.06017 28.77341
#
# Velocity S-wave (km/s) = 3.11773 3.75450 3.45084
# Velocity P-wave (km/s) = 4.72381 6.01579 5.40852
#
# Compressibility (1/GPa) = 0.04424461
#
# Stress axis : x y z
#
# Youngs Moduli (GPa) = 34.04422 93.51527 89.60311
#
# Poissons Ratio (x) = 0.13533 -0.07775
# Poissons Ratio (y) = 0.04927 0.26092
# Poissons Ratio (z) = -0.02954 0.27231
#
# Static dielectric constant tensor:
#      x y z
#    x 1.994970 -0.012280 0.023510 
#    y -0.012280 1.947520 0.030870 
#    z 0.023510 0.030870 1.948540 
# 
# From -- ./inp_files/39017.got.cif
#   From: 2010.05.17/outbox.cif.g08.bks.cpg/sg2_20_cif.got.tgz:39017.got - 2010.06.03 11:33:40.
