data_PCOD9047667
_publ_section_title
;
Structure prediction by ZEFSAII (Michael W. Deem and Ramdas Pophale) SiO2 
 PCOD9047667
Probable space group: P -1
;
_chemical_formula_sum "Si O2"
_cell_formula_units_Z 16
_cell_length_a 19.074679
_cell_length_b 5.239001
_cell_length_c 9.236216
_cell_angle_alpha 75.880033
_cell_angle_beta 101.623846
_cell_angle_gamma 129.245081
_cell_volume 691.847383
_symmetry_space_group_name_H-M "P -1"
_symmetry_group_IT_number 2
_symmetry_cell_setting 'triclinic'
loop_
_space_group_symop_operation_xyz
x,y,z
-x,-y,-z
loop_
_atom_site_type_symbol
_atom_site_label
_atom_site_fract_x
_atom_site_fract_y
_atom_site_fract_z
Si Si1 0.058003 0.400386 0.467758
Si Si2 0.392225 0.221988 0.472845
Si Si3 0.827411 0.616995 0.257287
Si Si4 0.553188 0.348063 0.056314
Si Si5 0.185370 0.444857 0.067119
Si Si6 0.289616 0.153535 0.155317
Si Si7 0.655930 0.463747 0.362014
Si Si8 0.016797 0.304602 0.146069
O O1 0.143009 0.528987 0.588840
O O2 0.000000 0.500000 0.500000
O O3 0.069709 0.493080 0.291125
O O4 0.000000 0.000000 0.500000
O O5 0.500000 0.500000 0.500000
O O6 0.355121 0.254977 0.303719
O O7 0.344547 0.282734 0.571798
O O8 0.366307 0.856632 0.519357
O O9 0.750176 0.622083 0.295958
O O10 0.918715 0.981699 0.201573
O O11 0.798870 0.447190 0.110715
O O12 0.648493 0.606093 0.982681
O O13 0.500000 0.500000 0.000000
O O14 0.575217 0.320675 0.232812
O O15 0.500000 0.000000 0.000000
O O16 0.218638 0.226535 0.140239
O O17 0.081273 0.243586 0.099379
O O18 0.242389 0.778482 0.139341
O O19 0.000000 0.500000 0.000000
#
# Coordination Sequence:
#
# PCOD9047667 Si02
#       8
#     2   2   2   2   2   2   2   2
#     4  10  24  44  69 102 142 190 242 298 360 426
#     4  12  28  51  76 108 150 194 246 305 383 452
#     4  11  26  49  71 112 152 195 252 302 372 439
#     4  12  25  47  76 108 144 190 244 304 377 444
#     4  12  26  46  75 108 151 196 250 306 366 432
#     4  12  27  47  75 110 149 189 254 306 365 451
#     4  12  27  47  78 110 148 196 241 311 369 440
#     4  11  25  47  77 108 149 205 248 305 364 439
#
# _framework density 23.126487999999998
#
# number of rings (size 3 to 8) (size 9 to 14) (size 15 to 20)
#    0.000    0.500    1.250    6.000    5.250    6.000 
#    0.000    0.000    0.000    0.000    0.000    0.000 
#    0.000    0.000    0.000    0.000    0.000    0.000 
#
# Total GULP energy -89650.203854 kJ/mol
# GULP energy per Si atom -5603.137741 kJ/mol
# Density = 2.307385 g / cm^3
# Si number density = 23.126488 Si / 1000 Ang^3
#
#
#
# Elastic Constant Matrix: (Units=GPa)
#
#
# Indices 1 2 3 4 5 6 
#
# 1 175.3981 28.7878 45.2590 4.6048 8.5666 -4.9785
# 2 28.7878 83.9852 6.0493 6.4587 -2.2581 -0.5653
# 3 45.2590 6.0493 154.8657 20.4230 31.5258 -6.0011
# 4 4.6048 6.4587 20.4230 42.9735 1.3475 -4.4056
# 5 8.5666 -2.2581 31.5258 1.3475 48.2196 -5.2869
# 6 -4.9785 -0.5653 -6.0011 -4.4056 -5.2869 43.3730
#
#
#
# Elastic Compliance Matrix: (Units=1/GPa)
#
#
# Indices 1 2 3 4 5 6 
#
# 1 0.006539 -0.002146 -0.001884 0.000570 0.000011 0.000521
# 2 -0.002146 0.012793 0.000179 -0.001819 0.000900 -0.000130
# 3 -0.001884 0.000179 0.008537 -0.003725 -0.005138 -0.000037
# 4 0.000570 -0.001819 -0.003725 0.025435 0.001793 0.002329
# 5 0.000011 0.000900 -0.005138 0.001793 0.024357 0.002453
# 6 0.000521 -0.000130 -0.000037 0.002329 0.002453 0.023644
#
#
# Mechanical properties :
#
#
# Convention : Reuss Voigt Hill
#
# Bulk Modulus (GPa) = 49.58800 63.82681 56.70740
# Shear Modulus (GPa) = 43.20441 49.19005 46.19723
#
# Velocity S-wave (km/s) = 4.32693 4.61694 4.47429
# Velocity P-wave (km/s) = 6.81555 7.48869 7.16004
#
# Compressibility (1/GPa) = 0.02016617
#
# Stress axis : x y z
#
# Youngs Moduli (GPa) = 152.92780 78.16959 117.14191
#
# Poissons Ratio (x) = 0.16773 0.22075
# Poissons Ratio (y) = 0.32814 -0.02098
# Poissons Ratio (z) = 0.28819 -0.01400
#
# Static dielectric constant tensor:
#      x y z
#    x 1.845040 0.044070 0.023610 
#    y 0.044070 1.866150 0.026680 
#    z 0.023610 0.026680 1.874030 
# 
# From -- ./inp_files/323576.got.cif
#   From: 2010.05.17/outbox.cif.g08.bks.cpg/sg2_162_cif.got.tgz:323576.got - 2010.06.03 11:33:40.
