data_PCOD9047119
_publ_section_title
;
Structure prediction by ZEFSAII (Michael W. Deem and Ramdas Pophale) SiO2 
 PCOD9047119
Probable space group: P -1
;
_chemical_formula_sum "Si O2"
_cell_formula_units_Z 14
_cell_length_a 9.480601
_cell_length_b 7.741654
_cell_length_c 11.285362
_cell_angle_alpha 110.105928
_cell_angle_beta 67.712748
_cell_angle_gamma 67.787669
_cell_volume 583.649052
_symmetry_space_group_name_H-M "P -1"
_symmetry_group_IT_number 2
_symmetry_cell_setting 'triclinic'
loop_
_space_group_symop_operation_xyz
x,y,z
-x,-y,-z
loop_
_atom_site_type_symbol
_atom_site_label
_atom_site_fract_x
_atom_site_fract_y
_atom_site_fract_z
Si Si1 0.031322 0.377214 0.240695
Si Si2 0.047678 0.197813 0.776964
Si Si3 0.330265 0.888474 0.417948
Si Si4 0.349374 0.527056 0.648669
Si Si5 0.680332 0.257266 0.855956
Si Si6 0.257763 0.971563 0.892486
Si Si7 0.659778 0.859960 0.733018
O O1 0.156342 0.341445 0.306366
O O2 0.006308 0.569691 0.208520
O O3 0.827593 0.439911 0.351178
O O4 0.139819 0.143214 0.076394
O O5 0.165046 0.129426 0.843069
O O6 0.859324 0.211969 0.854066
O O7 0.181227 0.997745 0.595013
O O8 0.534503 0.697846 0.360204
O O9 0.281042 0.774027 0.305402
O O10 0.321338 0.088374 0.397390
O O11 0.500000 0.500000 0.500000
O O12 0.264996 0.749224 0.810114
O O13 0.627094 0.083856 0.855227
O O14 0.500000 0.500000 0.000000
O O15 0.476146 0.870278 0.809845
#
# Coordination Sequence:
#
# PCOD9047119 Si02
#       7
#     2   2   2   2   2   2   2
#     4  12  28  44  72 104 140 184 235 286 346 410
#     4  12  25  46  73 102 142 185 230 284 352 410
#     4  10  26  45  71  98 145 177 232 279 351 405
#     4  12  27  45  72 102 138 183 235 286 347 410
#     4  10  24  43  72 101 140 179 232 282 348 406
#     4  12  26  47  72 102 143 180 236 287 346 411
#     4  10  26  44  71 103 138 179 233 280 351 404
#
# _framework density 23.987016000000001
#
# number of rings (size 3 to 8) (size 9 to 14) (size 15 to 20)
#    0.857    0.000    1.429    4.286    8.000    1.714 
#    0.000    0.000    0.000    0.000    0.000    0.000 
#    0.000    0.000    0.000    0.000    0.000    0.000 
#
# Total GULP energy -78375.153887 kJ/mol
# GULP energy per Si atom -5598.225278 kJ/mol
# Density = 2.393242 g / cm^3
# Si number density = 23.987016 Si / 1000 Ang^3
#
#
#
# Elastic Constant Matrix: (Units=GPa)
#
#
# Indices 1 2 3 4 5 6 
#
# 1 158.4276 41.9281 7.5393 -0.2070 -28.5434 -25.2147
# 2 41.9281 105.0743 28.4139 4.6395 0.3108 -38.6596
# 3 7.5393 28.4139 68.8016 7.1011 11.5620 -8.6273
# 4 -0.2070 4.6395 7.1011 37.6379 -1.0912 7.4058
# 5 -28.5434 0.3108 11.5620 -1.0912 25.7326 5.2392
# 6 -25.2147 -38.6596 -8.6273 7.4058 5.2392 47.5284
#
#
#
# Elastic Compliance Matrix: (Units=1/GPa)
#
#
# Indices 1 2 3 4 5 6 
#
# 1 0.009296 -0.003050 -0.001584 0.000881 0.010930 0.000821
# 2 -0.003050 0.016400 -0.003759 -0.003849 -0.004527 0.012138
# 3 -0.001584 -0.003759 0.018528 -0.003574 -0.010426 0.001172
# 4 0.000881 -0.003849 -0.003574 0.029566 0.005622 -0.008538
# 5 0.010930 -0.004527 -0.010426 0.005622 0.057383 -0.006978
# 6 0.000821 0.012138 0.001172 -0.008538 -0.006978 0.033661
#
#
# Mechanical properties :
#
#
# Convention : Reuss Voigt Hill
#
# Bulk Modulus (GPa) = 36.44464 54.22953 45.33709
# Shear Modulus (GPa) = 26.21033 39.14128 32.67581
#
# Velocity S-wave (km/s) = 3.30917 4.04390 3.69484
# Velocity P-wave (km/s) = 5.46144 6.66792 6.09460
#
# Compressibility (1/GPa) = 0.02743888
#
# Stress axis : x y z
#
# Youngs Moduli (GPa) = 107.57797 60.97647 53.97148
#
# Poissons Ratio (x) = 0.18599 0.08547
# Poissons Ratio (y) = 0.32814 0.20285
# Poissons Ratio (z) = 0.17036 0.22918
#
# Static dielectric constant tensor:
#      x y z
#    x 1.881490 -0.009740 0.041250 
#    y -0.009740 1.938560 -0.033490 
#    z 0.041250 -0.033490 1.898390 
# 
# From -- ./inp_files/242484.got.cif
#   From: 2010.05.17/outbox.cif.g08.bks.cpg/sg2_122_cif.got.tgz:242484.got - 2010.06.03 11:33:40.
