data_PCOD9047662
_publ_section_title
;
Structure prediction by ZEFSAII (Michael W. Deem and Ramdas Pophale) SiO2 
 PCOD9047662
Probable space group: P -1
;
_chemical_formula_sum "Si O2"
_cell_formula_units_Z 14
_cell_length_a 9.607473
_cell_length_b 20.400932
_cell_length_c 9.522117
_cell_angle_alpha 133.542065
_cell_angle_beta 44.857386
_cell_angle_gamma 150.373492
_cell_volume 636.463724
_symmetry_space_group_name_H-M "P -1"
_symmetry_group_IT_number 2
_symmetry_cell_setting 'triclinic'
loop_
_space_group_symop_operation_xyz
x,y,z
-x,-y,-z
loop_
_atom_site_type_symbol
_atom_site_label
_atom_site_fract_x
_atom_site_fract_y
_atom_site_fract_z
Si Si1 0.414924 0.530116 0.399775
Si Si2 0.953480 0.970439 0.152859
Si Si3 0.833701 0.271128 0.311415
Si Si4 0.148706 0.887961 0.084707
Si Si5 0.656272 0.150147 0.563170
Si Si6 0.140757 0.450297 0.784159
Si Si7 0.256734 0.181710 0.491432
O O1 0.310081 0.517798 0.614473
O O2 0.602936 0.501123 0.225243
O O3 0.625777 0.678850 0.412826
O O4 0.112058 0.427166 0.378560
O O5 0.613486 0.872426 0.280482
O O6 0.045453 0.905028 0.045945
O O7 0.142801 0.102349 0.309616
O O8 0.000000 0.000000 0.000000
O O9 0.777862 0.194089 0.381411
O O10 0.530538 0.217503 0.408823
O O11 0.940943 0.245821 0.068048
O O12 0.012001 0.897563 0.324146
O O13 0.500000 0.000000 0.000000
O O14 0.903286 0.285721 0.684237
O O15 0.500000 0.000000 0.500000
O O16 0.000000 0.500000 0.000000
#
# Coordination Sequence:
#
# PCOD9047662 Si02
#       7
#     2   2   2   2   2   2   2
#     4  10  25  43  71 104 143 193 240 300 361 437
#     4  12  26  42  71 103 140 186 242 297 365 431
#     4  11  24  45  72 101 146 190 241 294 365 438
#     4  12  25  45  73 102 145 193 235 300 370 431
#     4  11  23  44  70 106 145 189 242 306 365 432
#     4  10  24  44  69 101 151 189 244 303 363 435
#     4  12  25  47  71 105 149 186 242 304 363 438
#
# _framework density 21.996541000000001
#
# number of rings (size 3 to 8) (size 9 to 14) (size 15 to 20)
#    0.000    0.857    2.857    3.429    4.000    4.000 
#    0.000    0.000    0.000    0.000    0.000    0.000 
#    0.000    0.000    0.000    0.000    0.000    0.000 
#
# Total GULP energy -78160.770147 kJ/mol
# GULP energy per Si atom -5582.912153 kJ/mol
# Density = 2.194648 g / cm^3
# Si number density = 21.996541 Si / 1000 Ang^3
#
#
#
# Elastic Constant Matrix: (Units=GPa)
#
#
# Indices 1 2 3 4 5 6 
#
# 1 107.6555 41.2009 55.5578 -7.4081 -13.2292 22.3183
# 2 41.2009 89.6013 28.3695 -5.5854 -0.7642 15.4175
# 3 55.5578 28.3695 141.8155 -4.2999 -18.2930 13.0306
# 4 -7.4081 -5.5854 -4.2999 12.0762 11.3641 -7.8677
# 5 -13.2292 -0.7642 -18.2930 11.3641 38.4569 1.6879
# 6 22.3183 15.4175 13.0306 -7.8677 1.6879 37.8489
#
#
#
# Elastic Compliance Matrix: (Units=1/GPa)
#
#
# Indices 1 2 3 4 5 6 
#
# 1 0.014603 -0.004575 -0.003788 -0.002337 0.004090 -0.006112
# 2 -0.004575 0.014203 -0.001207 0.005789 -0.003519 -0.001312
# 3 -0.003788 -0.001207 0.009398 -0.005181 0.004754 -0.001800
# 4 -0.002337 0.005789 -0.005181 0.150981 -0.049278 0.034386
# 5 0.004090 -0.003519 0.004754 -0.049278 0.044815 -0.014857
# 6 -0.006112 -0.001312 -0.001800 0.034386 -0.014857 0.038989
#
#
# Mechanical properties :
#
#
# Convention : Reuss Voigt Hill
#
# Bulk Modulus (GPa) = 52.44995 65.48097 58.96546
# Shear Modulus (GPa) = 16.75136 31.93935 24.34535
#
# Velocity S-wave (km/s) = 2.76260 3.81467 3.33044
# Velocity P-wave (km/s) = 5.83716 7.01681 6.45399
#
# Compressibility (1/GPa) = 0.01906580
#
# Stress axis : x y z
#
# Youngs Moduli (GPa) = 68.47849 70.40824 106.40493
#
# Poissons Ratio (x) = 0.32211 0.40301
# Poissons Ratio (y) = 0.31328 0.12841
# Poissons Ratio (z) = 0.25936 0.08497
#
# Static dielectric constant tensor:
#      x y z
#    x 1.836400 -0.037190 0.041650 
#    y -0.037190 1.847870 0.015200 
#    z 0.041650 0.015200 1.869170 
# 
# From -- ./inp_files/224007.got.cif
#   From: 2010.05.17/outbox.cif.g08.bks.cpg/sg2_113_cif.got.tgz:224007.got - 2010.06.03 11:33:40.
