data_PCOD9047742
_publ_section_title
;
Structure prediction by ZEFSAII (Michael W. Deem and Ramdas Pophale) SiO2 
 PCOD9047742
Probable space group: P -1
;
_chemical_formula_sum "Si O2"
_cell_formula_units_Z 14
_cell_length_a 13.668467
_cell_length_b 19.639215
_cell_length_c 11.479705
_cell_angle_alpha 145.617770
_cell_angle_beta 21.025613
_cell_angle_gamma 146.374618
_cell_volume 594.076974
_symmetry_space_group_name_H-M "P -1"
_symmetry_group_IT_number 2
_symmetry_cell_setting 'triclinic'
loop_
_space_group_symop_operation_xyz
x,y,z
-x,-y,-z
loop_
_atom_site_type_symbol
_atom_site_label
_atom_site_fract_x
_atom_site_fract_y
_atom_site_fract_z
Si Si1 0.101544 0.711465 0.301809
Si Si2 0.165154 0.136079 0.560606
Si Si3 0.711229 0.016172 0.398108
Si Si4 0.501168 0.614558 0.568520
Si Si5 0.535208 0.392821 0.088961
Si Si6 0.612571 0.171162 0.307568
Si Si7 0.684022 0.411879 0.700874
O O1 0.764356 0.690413 0.638953
O O2 0.240761 0.851232 0.397612
O O3 0.234996 0.664555 0.972573
O O4 0.186378 0.621033 0.174969
O O5 0.250723 0.251772 0.536132
O O6 0.447556 0.137393 0.320655
O O7 0.000000 0.000000 0.500000
O O8 0.926747 0.156915 0.940688
O O9 0.579025 0.912283 0.496573
O O10 0.500000 0.000000 0.500000
O O11 0.000000 0.000000 0.000000
O O12 0.500000 0.500000 0.500000
O O13 0.514345 0.535107 0.324760
O O14 0.553811 0.344901 0.871382
O O15 0.663183 0.315746 0.485522
O O16 0.000000 0.500000 0.500000
O O17 0.500000 0.500000 0.000000
#
# Coordination Sequence:
#
# PCOD9047742 Si02
#       7
#     2   2   2   2   2   2   2
#     4  11  23  41  65  94 129 171 220 280 338 395
#     4  12  27  48  71 101 143 190 235 292 356 419
#     4  12  25  44  69 101 139 182 233 287 343 420
#     4  10  24  44  70 101 135 179 235 290 344 411
#     4  11  23  41  64  96 130 168 217 280 340 400
#     4  12  26  45  70 102 139 185 234 288 356 425
#     4  12  24  41  65  95 131 173 219 277 346 422
#
# _framework density 23.56597
#
# number of rings (size 3 to 8) (size 9 to 14) (size 15 to 20)
#    0.000    0.571    0.000    8.571    0.000    8.000 
#    0.000    0.000    0.000    0.000    0.000    0.000 
#    0.000    0.000    0.000    0.000    0.000    0.000 
#
# Total GULP energy -78229.780407 kJ/mol
# GULP energy per Si atom -5587.841458 kJ/mol
# Density = 2.351233 g / cm^3
# Si number density = 23.565970 Si / 1000 Ang^3
#
#
#
# Elastic Constant Matrix: (Units=GPa)
#
#
# Indices 1 2 3 4 5 6 
#
# 1 80.5999 24.6816 -9.7761 -4.6171 -10.8627 -0.7733
# 2 24.6816 148.5697 15.6723 7.6477 0.0176 12.2743
# 3 -9.7761 15.6723 92.2679 -3.8478 -8.9178 -3.7052
# 4 -4.6171 7.6477 -3.8478 51.4796 7.0007 16.3562
# 5 -10.8627 0.0176 -8.9178 7.0007 32.3267 -2.1704
# 6 -0.7733 12.2743 -3.7052 16.3562 -2.1704 43.8148
#
#
#
# Elastic Compliance Matrix: (Units=1/GPa)
#
#
# Indices 1 2 3 4 5 6 
#
# 1 0.014376 -0.002807 0.002611 0.000761 0.005471 0.001248
# 2 -0.002807 0.007604 -0.001844 -0.000629 -0.001466 -0.002173
# 3 0.002611 -0.001844 0.011914 0.000296 0.004213 0.001669
# 4 0.000761 -0.000629 0.000296 0.023072 -0.005240 -0.008658
# 5 0.005471 -0.001466 0.004213 -0.005240 0.035378 0.004572
# 6 0.001248 -0.002173 0.001669 -0.008658 0.004572 0.027054
#
#
# Mechanical properties :
#
#
# Convention : Reuss Voigt Hill
#
# Bulk Modulus (GPa) = 33.54134 42.51036 38.02585
# Shear Modulus (GPa) = 37.47681 44.91487 41.19584
#
# Velocity S-wave (km/s) = 3.99217 4.37042 4.18557
# Velocity P-wave (km/s) = 5.95935 6.59890 6.28726
#
# Compressibility (1/GPa) = 0.02981395
#
# Stress axis : x y z
#
# Youngs Moduli (GPa) = 69.56045 131.51432 83.93244
#
# Poissons Ratio (x) = 0.36910 -0.21911
# Poissons Ratio (y) = 0.19522 0.15478
# Poissons Ratio (z) = -0.18159 0.24252
#
# Static dielectric constant tensor:
#      x y z
#    x 1.953470 -0.024880 0.051060 
#    y -0.024880 1.896730 0.004190 
#    z 0.051060 0.004190 1.899840 
# 
# From -- ./inp_files/457707.got.cif
#   From: 2010.05.17/outbox.cif.g08.bks.cpg/sg2_229_cif.got.tgz:457707.got - 2010.06.03 11:33:40.
