data_PCOD9047422
_publ_section_title
;
Structure prediction by ZEFSAII (Michael W. Deem and Ramdas Pophale) SiO2 
 PCOD9047422
Probable space group: P -1
;
_chemical_formula_sum "Si O2"
_cell_formula_units_Z 16
_cell_length_a 8.750147
_cell_length_b 7.757445
_cell_length_c 16.086798
_cell_angle_alpha 129.296219
_cell_angle_beta 56.085763
_cell_angle_gamma 124.043180
_cell_volume 664.056323
_symmetry_space_group_name_H-M "P -1"
_symmetry_group_IT_number 2
_symmetry_cell_setting 'triclinic'
loop_
_space_group_symop_operation_xyz
x,y,z
-x,-y,-z
loop_
_atom_site_type_symbol
_atom_site_label
_atom_site_fract_x
_atom_site_fract_y
_atom_site_fract_z
Si Si1 0.783581 0.092687 0.520760
Si Si2 0.072593 0.569881 0.828819
Si Si3 0.918380 0.084710 0.789293
Si Si4 0.764079 0.836848 0.615404
Si Si5 0.700403 0.113975 0.020264
Si Si6 0.568990 0.305983 0.527947
Si Si7 0.695766 0.713259 0.028716
Si Si8 0.775365 0.085382 0.262437
O O1 0.690070 0.277365 0.564592
O O2 0.014264 0.171481 0.459298
O O3 0.753937 0.024350 0.606256
O O4 0.655928 0.846607 0.440837
O O5 0.011885 0.292941 0.760720
O O6 0.886507 0.631994 0.941350
O O7 0.255365 0.666462 0.864913
O O8 0.129454 0.703697 0.766170
O O9 0.739042 0.917938 0.740887
O O10 0.853030 0.187586 0.922133
O O11 0.060346 0.953465 0.740352
O O12 0.618183 0.575394 0.570133
O O13 0.500000 0.000000 0.000000
O O14 0.730664 0.910337 0.006693
O O15 0.638417 0.169248 0.391005
O O16 0.500000 0.500000 0.000000
O O17 0.687759 0.852127 0.159812
#
# Coordination Sequence:
#
# PCOD9047422 Si02
#       8
#     2   2   2   2   2   2   2   2
#     4  10  24  44  66  99 133 175 226 276 338 388
#     4  11  24  43  68  91 139 171 216 284 325 395
#     4  12  24  42  70  99 128 182 221 265 343 394
#     4  11  25  44  70  99 138 173 229 276 336 397
#     4  11  23  43  65 100 135 172 224 274 329 402
#     4  11  24  46  70  96 140 175 220 288 329 399
#     4  11  23  44  66 100 136 174 218 280 329 400
#     4  11  24  43  68  99 129 176 224 264 345 396
#
# _framework density 24.094341
#
# number of rings (size 3 to 8) (size 9 to 14) (size 15 to 20)
#    0.000    1.000    3.750    2.625    5.250    3.000 
#    6.750    0.000    0.000    0.000    0.000    0.000 
#    0.000    0.000    0.000    0.000    0.000    0.000 
#
# Total GULP energy -89508.374436 kJ/mol
# GULP energy per Si atom -5594.273402 kJ/mol
# Density = 2.403950 g / cm^3
# Si number density = 24.094341 Si / 1000 Ang^3
#
#
#
# Elastic Constant Matrix: (Units=GPa)
#
#
# Indices 1 2 3 4 5 6 
#
# 1 95.7459 11.7471 28.4262 -6.5858 26.9194 -4.3188
# 2 11.7471 103.4313 25.9467 5.2509 9.5308 -3.7935
# 3 28.4262 25.9467 81.9001 -4.5324 20.2912 -19.1248
# 4 -6.5858 5.2509 -4.5324 24.1799 3.5369 8.4862
# 5 26.9194 9.5308 20.2912 3.5369 36.1971 -4.6420
# 6 -4.3188 -3.7935 -19.1248 8.4862 -4.6420 37.2114
#
#
#
# Elastic Compliance Matrix: (Units=1/GPa)
#
#
# Indices 1 2 3 4 5 6 
#
# 1 0.014365 -0.000441 -0.002585 0.005779 -0.009974 -0.002268
# 2 -0.000441 0.010739 -0.003339 -0.003020 -0.000336 -0.000026
# 3 -0.002585 -0.003339 0.017482 0.001691 -0.006243 0.007180
# 4 0.005779 -0.003020 0.001691 0.049473 -0.010745 -0.011391
# 5 -0.009974 -0.000336 -0.006243 -0.010745 0.040073 0.003049
# 6 -0.002268 -0.000026 0.007180 -0.011391 0.003049 0.033276
#
#
# Mechanical properties :
#
#
# Convention : Reuss Voigt Hill
#
# Bulk Modulus (GPa) = 33.49341 45.92412 39.70877
# Shear Modulus (GPa) = 26.58298 33.84818 30.21558
#
# Velocity S-wave (km/s) = 3.32518 3.75216 3.54510
# Velocity P-wave (km/s) = 5.35477 6.15411 5.76830
#
# Compressibility (1/GPa) = 0.02985662
#
# Stress axis : x y z
#
# Youngs Moduli (GPa) = 69.61276 93.11584 57.20156
#
# Poissons Ratio (x) = 0.04102 0.14788
# Poissons Ratio (y) = 0.03066 0.19101
# Poissons Ratio (z) = 0.17997 0.31093
#
# Static dielectric constant tensor:
#      x y z
#    x 1.935310 0.030330 -0.000090 
#    y 0.030330 1.902830 0.007490 
#    z -0.000090 0.007490 1.944700 
# 
# From -- ./inp_files/556540.got.cif
#   From: 2010.05.17/outbox.cif.g08.bks.cpg/sg2_279_cif.got.tgz:556540.got - 2010.06.03 11:33:40.
