data_PCOD9047799
_publ_section_title
;
Structure prediction by ZEFSAII (Michael W. Deem and Ramdas Pophale) SiO2 
 PCOD9047799
Probable space group: P -1
;
_chemical_formula_sum "Si O2"
_cell_formula_units_Z 14
_cell_length_a 5.211821
_cell_length_b 19.360814
_cell_length_c 9.029512
_cell_angle_alpha 136.788337
_cell_angle_beta 100.225364
_cell_angle_gamma 101.036590
_cell_volume 539.882161
_symmetry_space_group_name_H-M "P -1"
_symmetry_group_IT_number 2
_symmetry_cell_setting 'triclinic'
loop_
_space_group_symop_operation_xyz
x,y,z
-x,-y,-z
loop_
_atom_site_type_symbol
_atom_site_label
_atom_site_fract_x
_atom_site_fract_y
_atom_site_fract_z
Si Si1 0.764394 0.623026 0.091858
Si Si2 0.762426 0.940572 0.514022
Si Si3 0.317758 0.929874 0.020314
Si Si4 0.408596 0.619458 0.388048
Si Si5 0.177246 0.187184 0.413886
Si Si6 0.717184 0.310775 0.982532
Si Si7 0.952361 0.331409 0.356913
O O1 0.673998 0.490283 0.893242
O O2 0.877128 0.707550 0.376196
O O3 0.499177 0.639234 0.015029
O O4 0.031054 0.668087 0.075107
O O5 0.900456 0.891593 0.575283
O O6 0.490224 0.826849 0.244808
O O7 0.000000 0.000000 0.500000
O O8 0.646886 0.007719 0.719861
O O9 0.284167 0.803903 0.847555
O O10 0.985257 0.887458 0.859813
O O11 0.500000 0.000000 0.000000
O O12 0.487048 0.733144 0.477240
O O13 0.139379 0.596250 0.430018
O O14 0.708225 0.644644 0.550586
O O15 0.879005 0.355577 0.223952
#
# Coordination Sequence:
#
# PCOD9047799 Si02
#       7
#     2   2   2   2   2   2   2
#     4  11  24  45  72 102 142 188 236 299 357 420
#     4  11  26  43  75 107 146 195 238 300 367 428
#     4  11  24  43  70 103 145 195 241 299 360 429
#     4  11  24  45  72 103 139 191 237 296 357 421
#     4  10  24  44  70 106 144 183 247 291 353 438
#     4  11  26  44  68 107 147 180 243 292 356 436
#     4  11  26  42  71 103 147 183 241 291 356 435
#
# _framework density 25.931581999999999
#
# number of rings (size 3 to 8) (size 9 to 14) (size 15 to 20)
#    0.000    1.143    0.000    4.286   10.000    7.429 
#    0.000    7.143    0.000    0.000    0.000    0.000 
#    0.000    0.000    0.000    0.000    0.000    0.000 
#
# Total GULP energy -78241.570309 kJ/mol
# GULP energy per Si atom -5588.683594 kJ/mol
# Density = 2.587256 g / cm^3
# Si number density = 25.931582 Si / 1000 Ang^3
#
#
#
# Elastic Constant Matrix: (Units=GPa)
#
#
# Indices 1 2 3 4 5 6 
#
# 1 140.8732 32.5731 18.3063 -12.8598 5.0403 1.3702
# 2 32.5731 109.9206 14.5885 -3.0345 8.7862 4.3753
# 3 18.3063 14.5885 95.9378 3.1032 -19.7965 -7.9015
# 4 -12.8598 -3.0345 3.1032 51.3854 -1.8639 7.4227
# 5 5.0403 8.7862 -19.7965 -1.8639 33.6056 -3.7843
# 6 1.3702 4.3753 -7.9015 7.4227 -3.7843 46.1256
#
#
#
# Elastic Compliance Matrix: (Units=1/GPa)
#
#
# Indices 1 2 3 4 5 6 
#
# 1 0.008023 -0.001924 -0.001722 0.002055 -0.001693 -0.000820
# 2 -0.001924 0.010336 -0.002147 0.000359 -0.003846 -0.001664
# 3 -0.001722 -0.002147 0.013262 -0.001541 0.008942 0.003508
# 4 0.002055 0.000359 -0.001541 0.020606 -0.000586 -0.003723
# 5 -0.001693 -0.003846 0.008942 -0.000586 0.036821 0.005062
# 6 -0.000820 -0.001664 0.003508 -0.003723 0.005062 0.023478
#
#
# Mechanical properties :
#
#
# Convention : Reuss Voigt Hill
#
# Bulk Modulus (GPa) = 49.91013 53.07418 51.49216
# Shear Modulus (GPa) = 38.22877 44.97425 41.60151
#
# Velocity S-wave (km/s) = 3.84372 4.16906 4.00969
# Velocity P-wave (km/s) = 6.24400 6.60955 6.42938
#
# Compressibility (1/GPa) = 0.02003601
#
# Stress axis : x y z
#
# Youngs Moduli (GPa) = 124.63450 96.74684 75.40172
#
# Poissons Ratio (x) = 0.18618 0.12982
# Poissons Ratio (y) = 0.23985 0.16188
# Poissons Ratio (z) = 0.21459 0.20770
#
# Static dielectric constant tensor:
#      x y z
#    x 2.087260 -0.026230 -0.011430 
#    y -0.026230 2.118690 0.034500 
#    z -0.011430 0.034500 2.041390 
# 
# From -- ./inp_files/90365.got.cif
#   From: 2010.05.17/outbox.cif.g08.bks.cpg/sg2_46_cif.got.tgz:90365.got - 2010.06.03 11:33:40.
