data_PCOD9047815
_publ_section_title
;
Structure prediction by ZEFSAII (Michael W. Deem and Ramdas Pophale) SiO2 
 PCOD9047815
Probable space group: P -1
;
_chemical_formula_sum "Si O2"
_cell_formula_units_Z 15
_cell_length_a 10.954276
_cell_length_b 16.670442
_cell_length_c 12.819471
_cell_angle_alpha 30.994634
_cell_angle_beta 34.641639
_cell_angle_gamma 33.521192
_cell_volume 615.787883
_symmetry_space_group_name_H-M "P -1"
_symmetry_group_IT_number 2
_symmetry_cell_setting 'triclinic'
loop_
_space_group_symop_operation_xyz
x,y,z
-x,-y,-z
loop_
_atom_site_type_symbol
_atom_site_label
_atom_site_fract_x
_atom_site_fract_y
_atom_site_fract_z
Si Si1 0.669117 0.547147 0.578661
Si Si2 0.631691 0.216420 0.915598
Si Si3 0.500000 0.500000 0.500000
Si Si4 0.597868 0.809677 0.690892
Si Si5 0.831410 0.455258 0.798859
Si Si6 0.827380 0.214332 0.254025
Si Si7 0.827855 0.656402 0.020576
Si Si8 0.042293 0.844897 0.419709
O O1 0.762038 0.450278 0.733101
O O2 0.424488 0.711684 0.592058
O O3 0.891301 0.581041 0.350906
O O4 0.603509 0.416342 0.698237
O O5 0.595615 0.187552 0.092589
O O6 0.404563 0.210847 0.026784
O O7 0.872039 0.108091 0.804824
O O8 0.701880 0.577744 0.275392
O O9 0.282076 0.695800 0.462584
O O10 0.676375 0.650607 0.733072
O O11 0.844154 0.779266 0.607968
O O12 0.500000 0.000000 0.500000
O O13 0.790251 0.324330 0.050429
O O14 0.929631 0.014209 0.379613
O O15 0.015735 0.258437 0.135460
O O16 0.000000 0.500000 0.000000
#
# Coordination Sequence:
#
# PCOD9047815 Si02
#       8
#     2   2   1   2   2   2   2   2
#     4  11  23  42  71 101 141 188 231 295 350 417
#     4  11  24  43  69  99 139 186 232 282 357 415
#     4  10  24  44  70  92 144 184 232 278 350 414
#     4  12  25  44  72 104 142 187 234 288 354 425
#     4  11  24  43  69 103 143 185 234 291 356 417
#     4  12  25  42  73 104 141 184 238 292 351 417
#     4  11  22  42  71  96 135 183 231 287 346 415
#     4  11  26  45  68 107 141 186 235 292 348 422
#
# _framework density 24.359037000000001
#
# number of rings (size 3 to 8) (size 9 to 14) (size 15 to 20)
#    0.000    0.800    4.000    2.800    3.733    5.867 
#    0.000    2.667    2.933    0.000    0.000    0.000 
#    0.000    0.000    0.000    0.000    0.000    0.000 
#
# Total GULP energy -83814.020194 kJ/mol
# GULP energy per Si atom -5587.601346 kJ/mol
# Density = 2.430359 g / cm^3
# Si number density = 24.359037 Si / 1000 Ang^3
#
#
#
# Elastic Constant Matrix: (Units=GPa)
#
#
# Indices 1 2 3 4 5 6 
#
# 1 79.4851 32.6215 28.0643 10.4562 -38.7795 1.6324
# 2 32.6215 143.2929 35.7120 2.5402 -16.1409 -4.1494
# 3 28.0643 35.7120 108.6109 25.9757 -4.1658 -8.1583
# 4 10.4562 2.5402 25.9757 47.0064 0.1956 0.8958
# 5 -38.7795 -16.1409 -4.1658 0.1956 48.2625 -0.2017
# 6 1.6324 -4.1494 -8.1583 0.8958 -0.2017 29.2967
#
#
#
# Elastic Compliance Matrix: (Units=1/GPa)
#
#
# Indices 1 2 3 4 5 6 
#
# 1 0.024649 -0.002460 -0.004338 -0.002979 0.018609 -0.002711
# 2 -0.002460 0.008171 -0.002311 0.001369 0.000554 0.000613
# 3 -0.004338 -0.002311 0.012665 -0.005965 -0.003126 0.003602
# 4 -0.002979 0.001369 -0.005965 0.025209 -0.002561 -0.002090
# 5 0.018609 0.000554 -0.003126 -0.002561 0.035592 -0.001506
# 6 -0.002711 0.000613 0.003602 -0.002090 -0.001506 0.035428
#
#
# Mechanical properties :
#
#
# Convention : Reuss Voigt Hill
#
# Bulk Modulus (GPa) = 36.67414 58.24273 47.45843
# Shear Modulus (GPa) = 29.58244 40.57920 35.08082
#
# Velocity S-wave (km/s) = 3.48865 4.08595 3.79906
# Velocity P-wave (km/s) = 5.59607 6.79867 6.22647
#
# Compressibility (1/GPa) = 0.02726717
#
# Stress axis : x y z
#
# Youngs Moduli (GPa) = 40.57014 122.39146 78.95738
#
# Poissons Ratio (x) = 0.30107 0.34249
# Poissons Ratio (y) = 0.09980 0.18247
# Poissons Ratio (z) = 0.17598 0.28285
#
# Static dielectric constant tensor:
#      x y z
#    x 1.879480 0.031160 -0.022430 
#    y 0.031160 1.838150 0.039220 
#    z -0.022430 0.039220 1.836960 
# 
# From -- ./inp_files/523187.got.cif
#   From: 2010.05.17/outbox.cif.g08.bks.cpg/sg2_262_cif.got.tgz:523187.got - 2010.06.03 11:33:40.
