data_PCOD9047999
_publ_section_title
;
Structure prediction by ZEFSAII (Michael W. Deem and Ramdas Pophale) SiO2 
 PCOD9047999
Probable space group: P -1
;
_chemical_formula_sum "Si O2"
_cell_formula_units_Z 14
_cell_length_a 9.800131
_cell_length_b 15.244526
_cell_length_c 7.828282
_cell_angle_alpha 121.584606
_cell_angle_beta 104.979422
_cell_angle_gamma 36.427997
_cell_volume 560.073651
_symmetry_space_group_name_H-M "P -1"
_symmetry_group_IT_number 2
_symmetry_cell_setting 'triclinic'
loop_
_space_group_symop_operation_xyz
x,y,z
-x,-y,-z
loop_
_atom_site_type_symbol
_atom_site_label
_atom_site_fract_x
_atom_site_fract_y
_atom_site_fract_z
Si Si1 0.319297 0.289029 0.836638
Si Si2 0.774568 0.879429 0.220579
Si Si3 0.158317 0.977293 0.342885
Si Si4 0.240819 0.699062 0.056721
Si Si5 0.328769 0.697285 0.691585
Si Si6 0.211489 0.448136 0.301946
Si Si7 0.752124 0.734563 0.588212
O O1 0.255213 0.211415 0.789673
O O2 0.287277 0.314378 0.645960
O O3 0.602395 0.142608 0.814524
O O4 0.190339 0.440861 0.085714
O O5 0.817252 0.946898 0.435058
O O6 0.017999 0.750464 0.056069
O O7 0.501692 0.060051 0.248480
O O8 0.909569 0.140781 0.329049
O O9 0.188886 0.840643 0.275421
O O10 0.500000 0.500000 0.000000
O O11 0.258990 0.721509 0.889351
O O12 0.500000 0.500000 0.500000
O O13 0.518643 0.675972 0.701471
O O14 0.185619 0.359838 0.313163
O O15 0.996720 0.647195 0.512409
#
# Coordination Sequence:
#
# PCOD9047999 Si02
#       7
#     2   2   2   2   2   2   2
#     4  11  25  45  77 105 149 196 249 306 377 445
#     4  11  26  45  75 110 147 190 248 308 375 448
#     4  11  24  50  75 105 155 198 244 317 374 441
#     4  12  27  46  76 112 147 199 251 303 382 452
#     4  12  28  46  75 108 154 196 253 308 373 453
#     4  11  25  46  72 106 147 197 248 308 371 445
#     4  10  24  44  72 105 144 194 241 309 372 436
#
# _framework density 24.996714000000001
#
# number of rings (size 3 to 8) (size 9 to 14) (size 15 to 20)
#    0.000    0.857    1.429    4.714    8.000    8.571 
#    0.000    0.000    0.000    0.000    0.000    0.000 
#    0.000    0.000    0.000    0.000    0.000    0.000 
#
# Total GULP energy -78245.563330 kJ/mol
# GULP energy per Si atom -5588.968809 kJ/mol
# Density = 2.493982 g / cm^3
# Si number density = 24.996714 Si / 1000 Ang^3
#
#
#
# Elastic Constant Matrix: (Units=GPa)
#
#
# Indices 1 2 3 4 5 6 
#
# 1 148.5768 45.1114 21.3152 21.3339 -20.6588 -21.1048
# 2 45.1114 194.6329 26.8830 30.8411 -12.9951 -24.9053
# 3 21.3152 26.8830 74.3437 6.9673 -12.9368 -11.1541
# 4 21.3339 30.8411 6.9673 34.5075 -3.1618 -4.8855
# 5 -20.6588 -12.9951 -12.9368 -3.1618 44.2842 13.5803
# 6 -21.1048 -24.9053 -11.1541 -4.8855 13.5803 30.7436
#
#
#
# Elastic Compliance Matrix: (Units=1/GPa)
#
#
# Indices 1 2 3 4 5 6 
#
# 1 0.008372 -0.000648 -0.000941 -0.003738 0.002150 0.003337
# 2 -0.000648 0.006702 -0.001246 -0.004811 -0.000230 0.003870
# 3 -0.000941 -0.001246 0.015098 -0.000747 0.002796 0.002469
# 4 -0.003738 -0.004811 -0.000747 0.035571 -0.000581 -0.000825
# 5 0.002150 -0.000230 0.002796 -0.000581 0.027314 -0.009853
# 6 0.003337 0.003870 0.002469 -0.000825 -0.009853 0.043070
#
#
# Mechanical properties :
#
#
# Convention : Reuss Voigt Hill
#
# Bulk Modulus (GPa) = 40.81180 67.13030 53.97105
# Shear Modulus (GPa) = 33.34116 43.52330 38.43223
#
# Velocity S-wave (km/s) = 3.65611 4.17725 3.92534
# Velocity P-wave (km/s) = 5.84681 7.08377 6.49481
#
# Compressibility (1/GPa) = 0.02450272
#
# Stress axis : x y z
#
# Youngs Moduli (GPa) = 119.44789 149.20120 66.23223
#
# Poissons Ratio (x) = 0.09662 0.06232
# Poissons Ratio (y) = 0.07735 0.08255
# Poissons Ratio (z) = 0.11240 0.18596
#
# Static dielectric constant tensor:
#      x y z
#    x 2.041620 -0.046660 0.028650 
#    y -0.046660 2.008010 0.131320 
#    z 0.028650 0.131320 2.263570 
# 
# From -- ./inp_files/208754.got.cif
#   From: 2010.05.17/outbox.cif.g08.bks.cpg/sg2_105_cif.got.tgz:208754.got - 2010.06.03 11:33:40.
