data_PCOD9047930
_publ_section_title
;
Structure prediction by ZEFSAII (Michael W. Deem and Ramdas Pophale) SiO2 
 PCOD9047930
Probable space group: P -1
;
_chemical_formula_sum "Si O2"
_cell_formula_units_Z 14
_cell_length_a 8.425942
_cell_length_b 8.767550
_cell_length_c 13.970229
_cell_angle_alpha 130.700855
_cell_angle_beta 58.902809
_cell_angle_gamma 134.305689
_cell_volume 556.368553
_symmetry_space_group_name_H-M "P -1"
_symmetry_group_IT_number 2
_symmetry_cell_setting 'triclinic'
loop_
_space_group_symop_operation_xyz
x,y,z
-x,-y,-z
loop_
_atom_site_type_symbol
_atom_site_label
_atom_site_fract_x
_atom_site_fract_y
_atom_site_fract_z
Si Si1 0.915014 0.689582 0.064810
Si Si2 0.250860 0.597406 0.434214
Si Si3 0.968077 0.808681 0.311741
Si Si4 0.483454 0.150043 0.978936
Si Si5 0.902506 0.802884 0.811020
Si Si6 0.318958 0.013946 0.452597
Si Si7 0.188015 0.697149 0.800666
O O1 0.016931 0.768320 0.172013
O O2 0.696091 0.422894 0.021337
O O3 0.896132 0.915850 0.143875
O O4 0.074138 0.694473 0.936337
O O5 0.230781 0.356687 0.305240
O O6 0.431852 0.745358 0.521151
O O7 0.000000 0.500000 0.500000
O O8 0.325550 0.795319 0.406975
O O9 0.833810 0.936114 0.410184
O O10 0.806263 0.538321 0.295806
O O11 0.184188 0.944203 0.367144
O O12 0.281969 0.188590 0.068453
O O13 0.500000 0.000000 0.000000
O O14 0.415027 0.961969 0.836156
O O15 0.011466 0.674065 0.770893
#
# Coordination Sequence:
#
# PCOD9047930 Si02
#       7
#     2   2   2   2   2   2   2
#     4  11  23  42  69  97 135 177 224 271 339 411
#     4  11  23  46  68 101 132 179 234 281 339 406
#     4  11  21  44  70 101 137 182 223 283 342 398
#     4  11  23  40  66  99 131 176 224 273 340 402
#     4  11  25  43  67  96 141 176 221 287 336 402
#     4  10  24  44  71  96 138 179 228 287 340 392
#     4  11  24  43  64 101 143 173 221 280 334 413
#
# _framework density 25.163176
#
# number of rings (size 3 to 8) (size 9 to 14) (size 15 to 20)
#    0.000    1.143    2.857    3.857    2.000    3.429 
#    2.571    9.286    0.000    0.000    0.000    0.000 
#    0.000    0.000    0.000    0.000    0.000    0.000 
#
# Total GULP energy -78254.467643 kJ/mol
# GULP energy per Si atom -5589.604832 kJ/mol
# Density = 2.510590 g / cm^3
# Si number density = 25.163176 Si / 1000 Ang^3
#
#
#
# Elastic Constant Matrix: (Units=GPa)
#
#
# Indices 1 2 3 4 5 6 
#
# 1 73.5164 21.4843 18.1866 13.0364 25.9029 14.6695
# 2 21.4843 103.6202 40.2058 37.3467 10.0898 25.4691
# 3 18.1866 40.2058 104.7747 33.2065 20.4964 20.0513
# 4 13.0364 37.3467 33.2065 50.1354 6.1356 4.3124
# 5 25.9029 10.0898 20.4964 6.1356 47.0305 21.2910
# 6 14.6695 25.4691 20.0513 4.3124 21.2910 43.1785
#
#
#
# Elastic Compliance Matrix: (Units=1/GPa)
#
#
# Indices 1 2 3 4 5 6 
#
# 1 0.017762 -0.002069 0.000180 -0.002070 -0.009042 -0.000232
# 2 -0.002069 0.016201 -0.001682 -0.010109 0.003750 -0.008912
# 3 0.000180 -0.001682 0.013676 -0.007177 -0.003390 -0.003032
# 4 -0.002070 -0.010109 -0.007177 0.032271 -0.001083 0.007309
# 5 -0.009042 0.003750 -0.003390 -0.001083 0.033351 -0.013903
# 6 -0.000232 -0.008912 -0.003032 0.007309 -0.013903 0.036028
#
#
# Mechanical properties :
#
#
# Convention : Reuss Voigt Hill
#
# Bulk Modulus (GPa) = 24.69290 49.07385 36.88337
# Shear Modulus (GPa) = 29.42382 41.53784 35.48083
#
# Velocity S-wave (km/s) = 3.42324 4.06734 3.75911
# Velocity P-wave (km/s) = 5.04571 6.44998 5.79057
#
# Compressibility (1/GPa) = 0.04049748
#
# Stress axis : x y z
#
# Youngs Moduli (GPa) = 56.30063 61.72508 73.11905
#
# Poissons Ratio (x) = 0.12770 -0.01318
# Poissons Ratio (y) = 0.11648 0.12300
# Poissons Ratio (z) = -0.01015 0.10383
#
# Static dielectric constant tensor:
#      x y z
#    x 2.001490 -0.008220 0.060440 
#    y -0.008220 2.059720 -0.018350 
#    z 0.060440 -0.018350 2.023630 
# 
# From -- ./inp_files/493839.got.cif
#   From: 2010.05.17/outbox.cif.g08.bks.cpg/sg2_247_cif.got.tgz:493839.got - 2010.06.03 11:33:40.
