data_PCOD9047616
_publ_section_title
;
Structure prediction by ZEFSAII (Michael W. Deem and Ramdas Pophale) SiO2 
 PCOD9047616
Probable space group: P -1
;
_chemical_formula_sum "Si O2"
_cell_formula_units_Z 15
_cell_length_a 27.005958
_cell_length_b 11.688146
_cell_length_c 12.031392
_cell_angle_alpha 24.002044
_cell_angle_beta 26.895042
_cell_angle_gamma 27.785039
_cell_volume 646.283523
_symmetry_space_group_name_H-M "P -1"
_symmetry_group_IT_number 2
_symmetry_cell_setting 'triclinic'
loop_
_space_group_symop_operation_xyz
x,y,z
-x,-y,-z
loop_
_atom_site_type_symbol
_atom_site_label
_atom_site_fract_x
_atom_site_fract_y
_atom_site_fract_z
Si Si1 0.586744 0.116132 0.292192
Si Si2 0.217381 0.644322 0.846060
Si Si3 0.487671 0.416960 0.451985
Si Si4 0.879608 0.667282 0.521573
Si Si5 0.742310 0.450729 0.592482
Si Si6 0.897589 0.392145 0.124336
Si Si7 0.055081 0.738466 0.466371
Si Si8 0.500000 0.000000 0.000000
O O1 0.520186 0.323999 0.343114
O O2 0.500000 0.000000 0.500000
O O3 0.684982 0.807737 0.417183
O O4 0.648862 0.292319 0.936498
O O5 0.346721 0.600686 0.584920
O O6 0.144490 0.617632 0.908031
O O7 0.152350 0.974276 0.738465
O O8 0.220586 0.385033 0.156515
O O9 0.543716 0.649101 0.176921
O O10 0.521794 0.125644 0.721403
O O11 0.892805 0.501482 0.525094
O O12 0.000000 0.500000 0.500000
O O13 0.792909 0.426766 0.388287
O O14 0.850158 0.297598 0.596733
O O15 0.002986 0.074810 0.222723
O O16 0.946579 0.658794 0.802162
#
# Coordination Sequence:
#
# PCOD9047616 Si02
#       8
#     2   2   2   2   2   2   2   1
#     4  12  27  49  73 100 142 179 240 300 341 412
#     4  12  24  40  70  99 131 183 220 281 337 424
#     4  11  25  46  72 101 138 183 236 281 361 400
#     4  12  23  42  64 100 142 174 226 269 345 402
#     4  12  27  45  71 103 133 187 233 285 356 403
#     4  12  23  44  68  98 141 174 232 277 341 414
#     4  12  25  42  69  98 142 180 221 286 338 423
#     4  10  24  44  68  96 140 174 228 296 332 414
#
# _framework density 23.209627999999999
#
# number of rings (size 3 to 8) (size 9 to 14) (size 15 to 20)
#    0.000    0.267    2.667    6.400    0.000    8.533 
#    0.000    0.000    0.000    0.000    0.000    0.000 
#    0.000    0.000    0.000    0.000    0.000    0.000 
#
# Total GULP energy -83866.261457 kJ/mol
# GULP energy per Si atom -5591.084097 kJ/mol
# Density = 2.315680 g / cm^3
# Si number density = 23.209628 Si / 1000 Ang^3
#
#
#
# Elastic Constant Matrix: (Units=GPa)
#
#
# Indices 1 2 3 4 5 6 
#
# 1 73.3464 3.1369 10.9348 19.6443 6.4955 17.6044
# 2 3.1369 60.3800 9.0032 11.0258 0.0996 14.8030
# 3 10.9348 9.0032 88.0628 2.0315 24.2343 0.7066
# 4 19.6443 11.0258 2.0315 35.4832 6.2875 14.1717
# 5 6.4955 0.0996 24.2343 6.2875 23.8344 1.8969
# 6 17.6044 14.8030 0.7066 14.1717 1.8969 41.5577
#
#
#
# Elastic Compliance Matrix: (Units=1/GPa)
#
#
# Indices 1 2 3 4 5 6 
#
# 1 0.017282 0.002189 -0.002140 -0.007991 -0.000010 -0.005339
# 2 0.002189 0.019444 -0.003371 -0.005429 0.004672 -0.006158
# 3 -0.002140 -0.003371 0.016677 0.003852 -0.017480 0.001308
# 4 -0.007991 -0.005429 0.003852 0.039121 -0.011434 -0.007565
# 5 -0.000010 0.004672 -0.017480 -0.011434 0.062755 -0.000328
# 6 -0.005339 -0.006158 0.001308 -0.007565 -0.000328 0.031090
#
#
# Mechanical properties :
#
#
# Convention : Reuss Voigt Hill
#
# Bulk Modulus (GPa) = 21.38550 29.77098 25.57824
# Shear Modulus (GPa) = 23.96955 33.42268 28.69612
#
# Velocity S-wave (km/s) = 3.21712 3.79890 3.52005
# Velocity P-wave (km/s) = 4.79936 5.66542 5.25028
#
# Compressibility (1/GPa) = 0.04676065
#
# Stress axis : x y z
#
# Youngs Moduli (GPa) = 57.86401 51.42952 59.96360
#
# Poissons Ratio (x) = -0.11260 0.12830
# Poissons Ratio (y) = -0.12669 0.20212
# Poissons Ratio (z) = 0.12381 0.17335
#
# Static dielectric constant tensor:
#      x y z
#    x 1.866710 -0.051180 -0.023440 
#    y -0.051180 1.886020 0.059350 
#    z -0.023440 0.059350 1.851330 
# 
# From -- ./inp_files/476600.got.cif
#   From: 2010.05.17/outbox.cif.g08.bks.cpg/sg2_239_cif.got.tgz:476600.got - 2010.06.03 11:33:40.
