data_PCOD9047972
_publ_section_title
;
Structure prediction by ZEFSAII (Michael W. Deem and Ramdas Pophale) SiO2 
 PCOD9047972
Probable space group: P -1
;
_chemical_formula_sum "Si O2"
_cell_formula_units_Z 14
_cell_length_a 11.029362
_cell_length_b 9.437020
_cell_length_c 8.594106
_cell_angle_alpha 127.810882
_cell_angle_beta 67.621648
_cell_angle_gamma 128.927561
_cell_volume 549.755225
_symmetry_space_group_name_H-M "P -1"
_symmetry_group_IT_number 2
_symmetry_cell_setting 'triclinic'
loop_
_space_group_symop_operation_xyz
x,y,z
-x,-y,-z
loop_
_atom_site_type_symbol
_atom_site_label
_atom_site_fract_x
_atom_site_fract_y
_atom_site_fract_z
Si Si1 0.381384 0.327665 0.211618
Si Si2 0.111233 0.201026 0.473911
Si Si3 0.825322 0.439512 0.076775
Si Si4 0.642182 0.071470 0.144396
Si Si5 0.452146 0.193850 0.535025
Si Si6 0.726495 0.445863 0.788503
Si Si7 0.152580 0.810556 0.577450
O O1 0.258842 0.214115 0.334413
O O2 0.514850 0.570835 0.351539
O O3 0.287562 0.365184 0.146228
O O4 0.432977 0.174594 0.023639
O O5 0.168049 0.407314 0.689470
O O6 0.005965 0.205417 0.390591
O O7 0.000000 0.000000 0.500000
O O8 0.720715 0.205017 0.040674
O O9 0.760536 0.468987 0.967745
O O10 0.000000 0.500000 0.000000
O O11 0.529607 0.135127 0.320745
O O12 0.779778 0.138914 0.248385
O O13 0.280879 0.006551 0.537429
O O14 0.562058 0.243125 0.668065
O O15 0.848689 0.396996 0.619479
#
# Coordination Sequence:
#
# PCOD9047972 Si02
#       7
#     2   2   2   2   2   2   2
#     4  10  24  44  72 103 135 186 235 281 348 418
#     4  12  26  43  69 104 146 177 234 294 345 411
#     4  12  23  41  68 103 141 183 230 289 347 405
#     4  11  23  42  75 100 138 185 233 285 344 413
#     4   9  22  48  72 100 137 185 236 280 347 414
#     4   9  21  41  71  96 136 177 238 274 345 408
#     4  11  23  45  72  99 142 187 226 289 347 418
#
# _framework density 25.465878
#
# number of rings (size 3 to 8) (size 9 to 14) (size 15 to 20)
#    0.857    0.571    2.857    2.571    4.000    2.286 
#    0.000    3.571    0.000    0.000    0.000    0.000 
#    0.000    0.000    0.000    0.000    0.000    0.000 
#
# Total GULP energy -78500.179393 kJ/mol
# GULP energy per Si atom -5607.155671 kJ/mol
# Density = 2.540792 g / cm^3
# Si number density = 25.465878 Si / 1000 Ang^3
#
#
#
# Elastic Constant Matrix: (Units=GPa)
#
#
# Indices 1 2 3 4 5 6 
#
# 1 125.7653 25.6362 44.0412 -11.1994 11.2564 -5.2888
# 2 25.6362 151.6437 43.4546 5.0395 -3.2537 -12.6515
# 3 44.0412 43.4546 133.2134 14.8543 -7.6816 2.1566
# 4 -11.1994 5.0395 14.8543 51.4060 -8.2752 -1.8323
# 5 11.2564 -3.2537 -7.6816 -8.2752 33.8775 -12.2763
# 6 -5.2888 -12.6515 2.1566 -1.8323 -12.2763 25.3546
#
#
#
# Elastic Compliance Matrix: (Units=1/GPa)
#
#
# Indices 1 2 3 4 5 6 
#
# 1 0.009908 -0.000777 -0.003527 0.002747 -0.003282 0.000588
# 2 -0.000777 0.007851 -0.002280 0.000295 0.002433 0.005149
# 3 -0.003527 -0.002280 0.009905 -0.003222 0.001629 -0.002160
# 4 0.002747 0.000295 -0.003222 0.022064 0.005716 0.005356
# 5 -0.003282 0.002433 0.001629 0.005716 0.039900 0.020123
# 6 0.000588 0.005149 -0.002160 0.005356 0.020123 0.052446
#
#
# Mechanical properties :
#
#
# Convention : Reuss Voigt Hill
#
# Bulk Modulus (GPa) = 68.98791 70.76515 69.87653
# Shear Modulus (GPa) = 31.23531 41.96030 36.59780
#
# Velocity S-wave (km/s) = 3.50602 4.06360 3.79506
# Velocity P-wave (km/s) = 6.59839 7.06156 6.83390
#
# Compressibility (1/GPa) = 0.01449529
#
# Stress axis : x y z
#
# Youngs Moduli (GPa) = 100.92863 127.37075 100.96043
#
# Poissons Ratio (x) = 0.09895 0.35612
# Poissons Ratio (y) = 0.07841 0.23021
# Poissons Ratio (z) = 0.35601 0.29043
#
# Static dielectric constant tensor:
#      x y z
#    x 1.996620 -0.009420 0.016970 
#    y -0.009420 2.080580 0.005110 
#    z 0.016970 0.005110 1.936590 
# 
# From -- ./inp_files/245806.got.cif
#   From: 2010.05.17/outbox.cif.g08.bks.cpg/sg2_123_cif.got.tgz:245806.got - 2010.06.03 11:33:40.
