data_PCOD9047451
_publ_section_title
;
Structure prediction by ZEFSAII (Michael W. Deem and Ramdas Pophale) SiO2 
 PCOD9047451
Probable space group: P -1
;
_chemical_formula_sum "Si O2"
_cell_formula_units_Z 16
_cell_length_a 11.453414
_cell_length_b 12.397271
_cell_length_c 11.481133
_cell_angle_alpha 69.164004
_cell_angle_beta 42.104886
_cell_angle_gamma 103.973493
_cell_volume 604.020789
_symmetry_space_group_name_H-M "P -1"
_symmetry_group_IT_number 2
_symmetry_cell_setting 'triclinic'
loop_
_space_group_symop_operation_xyz
x,y,z
-x,-y,-z
loop_
_atom_site_type_symbol
_atom_site_label
_atom_site_fract_x
_atom_site_fract_y
_atom_site_fract_z
Si Si1 0.560156 0.741258 0.862383
Si Si2 0.882526 0.101473 0.628087
Si Si3 0.521469 0.427682 0.628925
Si Si4 0.094272 0.414333 0.492229
Si Si5 0.670846 0.867125 0.274928
Si Si6 0.978501 0.231376 0.257355
Si Si7 0.639091 0.105628 0.234489
Si Si8 0.775979 0.402467 0.073897
O O1 0.359143 0.646040 0.934110
O O2 0.869148 0.859715 0.539022
O O3 0.623574 0.881896 0.851720
O O4 0.386568 0.558950 0.142294
O O5 0.863453 0.192916 0.703007
O O6 0.010848 0.233862 0.368824
O O7 0.500000 0.500000 0.500000
O O8 0.788970 0.558634 0.475321
O O9 0.464495 0.270778 0.680764
O O10 0.235672 0.313220 0.960062
O O11 0.000000 0.500000 0.500000
O O12 0.712927 0.024281 0.156623
O O13 0.470073 0.731802 0.590212
O O14 0.000000 0.000000 0.000000
O O15 0.657425 0.005281 0.562028
O O16 0.987663 0.372414 0.165884
O O17 0.500000 0.000000 0.500000
O O18 0.881992 0.328452 0.003423
#
# Coordination Sequence:
#
# PCOD9047451 Si02
#       8
#     2   2   2   2   2   2   2   2
#     4  11  23  44  76 105 133 193 246 298 358 439
#     4  11  24  43  78 101 137 188 245 302 355 436
#     4  12  26  48  71 109 151 194 244 302 377 437
#     4  12  28  49  72 110 152 191 243 308 371 438
#     4  11  26  46  68 102 153 194 240 307 370 440
#     4  12  22  45  76 101 143 186 250 299 364 441
#     4  10  24  44  67 102 140 186 249 299 354 438
#     4  11  22  42  74 105 136 189 249 291 368 431
#
# _framework density 26.489155
#
# number of rings (size 3 to 8) (size 9 to 14) (size 15 to 20)
#    0.000    0.750    5.000    2.625    1.750    2.500 
#    9.000    0.000    0.000    0.000    0.000    0.000 
#    0.000    0.000    0.000    0.000    0.000    0.000 
#
# Total GULP energy -89345.790597 kJ/mol
# GULP energy per Si atom -5584.111912 kJ/mol
# Density = 2.642886 g / cm^3
# Si number density = 26.489155 Si / 1000 Ang^3
#
#
#
# Elastic Constant Matrix: (Units=GPa)
#
#
# Indices 1 2 3 4 5 6 
#
# 1 139.0858 38.7817 8.8233 3.5751 -1.0976 34.0521
# 2 38.7817 198.5964 22.6877 -16.5252 -6.9071 10.1765
# 3 8.8233 22.6877 74.0812 -5.2990 7.6676 5.3260
# 4 3.5751 -16.5252 -5.2990 47.5485 -1.0720 -1.8620
# 5 -1.0976 -6.9071 7.6676 -1.0720 36.5275 1.5818
# 6 34.0521 10.1765 5.3260 -1.8620 1.5818 49.9091
#
#
#
# Elastic Compliance Matrix: (Units=1/GPa)
#
#
# Indices 1 2 3 4 5 6 
#
# 1 0.009142 -0.001559 -0.000317 -0.001492 0.000260 -0.005949
# 2 -0.001559 0.005729 -0.001582 0.001968 0.001422 0.000093
# 3 -0.000317 -0.001582 0.014493 0.000981 -0.003285 -0.000867
# 4 -0.001492 0.001968 0.000981 0.022004 0.000710 0.001310
# 5 0.000260 0.001422 -0.003285 0.000710 0.028407 -0.000991
# 6 -0.005949 0.000093 -0.000867 0.001310 -0.000991 0.024249
#
#
# Mechanical properties :
#
#
# Convention : Reuss Voigt Hill
#
# Bulk Modulus (GPa) = 44.54857 61.37211 52.96034
# Shear Modulus (GPa) = 42.22151 49.56173 45.89162
#
# Velocity S-wave (km/s) = 3.99672 4.33022 4.16681
# Velocity P-wave (km/s) = 6.17677 6.94407 6.57163
#
# Compressibility (1/GPa) = 0.02244741
#
# Stress axis : x y z
#
# Youngs Moduli (GPa) = 109.38980 174.55134 68.99667
#
# Poissons Ratio (x) = 0.27215 0.02189
# Poissons Ratio (y) = 0.17055 0.10915
# Poissons Ratio (z) = 0.03470 0.27613
#
# Static dielectric constant tensor:
#      x y z
#    x 2.067820 -0.033480 0.015690 
#    y -0.033480 2.082880 -0.004110 
#    z 0.015690 -0.004110 2.052930 
# 
# From -- ./inp_files/427970.got.cif
#   From: 2010.05.17/outbox.cif.g08.bks.cpg/sg2_214_cif.got.tgz:427970.got - 2010.06.03 11:33:40.
