data_PCOD9047832
_publ_section_title
;
Structure prediction by ZEFSAII (Michael W. Deem and Ramdas Pophale) SiO2 
 PCOD9047832
Probable space group: P -1
;
_chemical_formula_sum "Si O2"
_cell_formula_units_Z 16
_cell_length_a 15.624996
_cell_length_b 15.233270
_cell_length_c 15.455814
_cell_angle_alpha 153.502154
_cell_angle_beta 153.518077
_cell_angle_gamma 44.272359
_cell_volume 661.706598
_symmetry_space_group_name_H-M "P -1"
_symmetry_group_IT_number 2
_symmetry_cell_setting 'triclinic'
loop_
_space_group_symop_operation_xyz
x,y,z
-x,-y,-z
loop_
_atom_site_type_symbol
_atom_site_label
_atom_site_fract_x
_atom_site_fract_y
_atom_site_fract_z
Si Si1 0.187749 0.094542 0.183501
Si Si2 0.408172 0.748259 0.220620
Si Si3 0.823534 0.448922 0.675699
Si Si4 0.689319 0.751742 0.179567
Si Si5 0.596471 0.659490 0.560057
Si Si6 0.011118 0.446715 0.665313
Si Si7 0.733861 0.191810 0.535720
Si Si8 0.299221 0.691312 0.889094
O O1 0.391255 0.271584 0.574848
O O2 0.202269 0.209912 0.206047
O O3 0.242706 0.895034 0.032391
O O4 0.000000 0.000000 0.000000
O O5 0.500000 0.000000 0.500000
O O6 0.217867 0.678722 0.055381
O O7 0.314443 0.610481 0.927870
O O8 0.677896 0.576440 0.643543
O O9 0.732305 0.253267 0.488031
O O10 0.855158 0.385706 0.551345
O O11 0.057572 0.612973 0.063655
O O12 0.875012 0.716181 0.366479
O O13 0.756190 0.971304 0.379284
O O14 0.571015 0.549596 0.828671
O O15 0.523383 0.759271 0.106354
O O16 0.473157 0.802708 0.601987
O O17 0.880909 0.450840 0.466239
#
# Coordination Sequence:
#
# PCOD9047832 Si02
#       8
#     2   2   2   2   2   2   2   2
#     4  11  25  44  73 107 142 194 242 288 363 428
#     4  10  24  44  70  97 148 189 234 297 354 426
#     4  11  26  46  77 103 143 186 244 300 362 436
#     4  12  26  44  76 100 151 187 237 302 360 436
#     4  12  24  49  73 106 146 188 238 303 358 429
#     4  12  25  47  70 111 145 189 245 300 359 433
#     4  11  26  50  71 108 141 193 237 299 373 424
#     4  11  26  44  69 106 141 194 239 294 359 425
#
# _framework density 24.179901000000001
#
# number of rings (size 3 to 8) (size 9 to 14) (size 15 to 20)
#    0.000    0.750    5.000    0.750    8.750    2.500 
#    0.000    0.000    0.000    0.000    0.000    0.000 
#    0.000    0.000    0.000    0.000    0.000    0.000 
#
# Total GULP energy -89498.865349 kJ/mol
# GULP energy per Si atom -5593.679084 kJ/mol
# Density = 2.412487 g / cm^3
# Si number density = 24.179901 Si / 1000 Ang^3
#
#
#
# Elastic Constant Matrix: (Units=GPa)
#
#
# Indices 1 2 3 4 5 6 
#
# 1 100.6178 21.7389 32.7048 1.4268 19.2151 11.2056
# 2 21.7389 122.2670 17.4526 -1.5389 19.3259 12.8027
# 3 32.7048 17.4526 45.0632 -5.7142 12.8392 5.2377
# 4 1.4268 -1.5389 -5.7142 48.7006 6.9189 0.2177
# 5 19.2151 19.3259 12.8392 6.9189 26.3382 6.5374
# 6 11.2056 12.8027 5.2377 0.2177 6.5374 49.8322
#
#
#
# Elastic Compliance Matrix: (Units=1/GPa)
#
#
# Indices 1 2 3 4 5 6 
#
# 1 0.013914 -0.000291 -0.008380 -0.000638 -0.005320 -0.001473
# 2 -0.000291 0.009552 -0.001494 0.000989 -0.005968 -0.001453
# 3 -0.008380 -0.001494 0.032381 0.005423 -0.010039 0.000158
# 4 -0.000638 0.000989 0.005423 0.022484 -0.008907 0.000390
# 5 -0.005320 -0.005968 -0.010039 -0.008907 0.054280 -0.003297
# 6 -0.001473 -0.001453 0.000158 0.000390 -0.003297 0.021186
#
#
# Mechanical properties :
#
#
# Convention : Reuss Voigt Hill
#
# Bulk Modulus (GPa) = 28.15432 45.74894 36.95163
# Shear Modulus (GPa) = 26.88696 38.04428 32.46562
#
# Velocity S-wave (km/s) = 3.33822 3.97089 3.66822
# Velocity P-wave (km/s) = 5.15046 6.32339 5.76682
#
# Compressibility (1/GPa) = 0.03551853
#
# Stress axis : x y z
#
# Youngs Moduli (GPa) = 71.86935 104.69479 30.88248
#
# Poissons Ratio (x) = 0.03044 0.25878
# Poissons Ratio (y) = 0.02090 0.04613
# Poissons Ratio (z) = 0.60224 0.15638
#
# Static dielectric constant tensor:
#      x y z
#    x 1.955840 0.001080 -0.060860 
#    y 0.001080 1.976060 0.006780 
#    z -0.060860 0.006780 2.001370 
# 
# From -- ./inp_files/534655.got.cif
#   From: 2010.05.17/outbox.cif.g08.bks.cpg/sg2_268_cif.got.tgz:534655.got - 2010.06.03 11:33:40.
