data_PCOD9047762
_publ_section_title
;
Structure prediction by ZEFSAII (Michael W. Deem and Ramdas Pophale) SiO2 
 PCOD9047762
Probable space group: P -1
;
_chemical_formula_sum "Si O2"
_cell_formula_units_Z 16
_cell_length_a 16.575824
_cell_length_b 15.497058
_cell_length_c 5.541856
_cell_angle_alpha 67.423977
_cell_angle_beta 101.292734
_cell_angle_gamma 147.878827
_cell_volume 674.245890
_symmetry_space_group_name_H-M "P -1"
_symmetry_group_IT_number 2
_symmetry_cell_setting 'triclinic'
loop_
_space_group_symop_operation_xyz
x,y,z
-x,-y,-z
loop_
_atom_site_type_symbol
_atom_site_label
_atom_site_fract_x
_atom_site_fract_y
_atom_site_fract_z
Si Si1 0.345458 0.607491 0.046592
Si Si2 0.542980 0.988141 0.789976
Si Si3 0.952893 0.701389 0.101275
Si Si4 0.873132 0.148744 0.371680
Si Si5 0.849588 0.710857 0.420026
Si Si6 0.626386 0.782947 0.807226
Si Si7 0.904819 0.323739 0.519655
Si Si8 0.666434 0.713714 0.399711
O O1 0.181935 0.471480 0.961946
O O2 0.446093 0.635378 0.907845
O O3 0.446626 0.797361 0.948007
O O4 0.293347 0.497837 0.368429
O O5 0.731081 0.159081 0.702319
O O6 0.500000 0.000000 0.500000
O O7 0.500000 0.000000 0.000000
O O8 0.891635 0.738384 0.134649
O O9 0.987156 0.661926 0.373736
O O10 0.119828 0.862787 0.894932
O O11 0.888681 0.276543 0.280523
O O12 0.998827 0.187177 0.471236
O O13 0.717978 0.967568 0.611059
O O14 0.802004 0.766687 0.413815
O O15 0.655928 0.752611 0.613459
O O16 0.682700 0.790937 0.082174
O O17 0.000000 0.500000 0.500000
O O18 0.500000 0.500000 0.500000
#
# Coordination Sequence:
#
# PCOD9047762 Si02
#       8
#     2   2   2   2   2   2   2   2
#     4  11  24  46  73 103 147 191 244 300 362 433
#     4  12  30  47  74 112 146 184 245 298 361 429
#     4  10  24  45  74  96 148 191 247 283 377 424
#     4  10  25  45  68 106 138 198 235 297 368 432
#     4  10  24  44  70 102 144 191 242 298 361 434
#     4  12  27  44  75 105 144 191 241 305 363 424
#     4  11  25  46  72 103 147 189 241 299 362 435
#     4  12  26  44  72 107 144 186 249 299 363 427
#
# _framework density 23.730215999999999
#
# number of rings (size 3 to 8) (size 9 to 14) (size 15 to 20)
#    0.000    1.000    2.500    1.875   15.750    1.500 
#    0.000    0.000    0.000    0.000    0.000    0.000 
#    0.000    0.000    0.000    0.000    0.000    0.000 
#
# Total GULP energy -89219.778723 kJ/mol
# GULP energy per Si atom -5576.236170 kJ/mol
# Density = 2.367620 g / cm^3
# Si number density = 23.730216 Si / 1000 Ang^3
#
#
#
# Elastic Constant Matrix: (Units=GPa)
#
#
# Indices 1 2 3 4 5 6 
#
# 1 112.8207 28.8998 38.7143 19.5249 -36.0634 -10.8572
# 2 28.8998 81.2139 23.7213 2.3310 -12.8598 -6.8453
# 3 38.7143 23.7213 113.2162 9.2981 -34.0610 -16.7434
# 4 19.5249 2.3310 9.2981 33.7407 -3.8908 -9.7890
# 5 -36.0634 -12.8598 -34.0610 -3.8908 47.1607 6.7848
# 6 -10.8572 -6.8453 -16.7434 -9.7890 6.7848 39.6812
#
#
#
# Elastic Compliance Matrix: (Units=1/GPa)
#
#
# Indices 1 2 3 4 5 6 
#
# 1 0.013846 -0.003116 -0.001023 -0.006613 0.008492 -0.000264
# 2 -0.003116 0.014018 -0.001801 0.001693 0.000105 0.001205
# 3 -0.001023 -0.001801 0.012211 -0.000931 0.007018 0.003132
# 4 -0.006613 0.001693 -0.000931 0.035356 -0.003414 0.007396
# 5 0.008492 0.000105 0.007018 -0.003414 0.032676 -0.001126
# 6 -0.000264 0.001205 0.003132 0.007396 -0.001126 0.028675
#
#
# Mechanical properties :
#
#
# Convention : Reuss Voigt Hill
#
# Bulk Modulus (GPa) = 35.46665 54.43574 44.95120
# Shear Modulus (GPa) = 31.63357 38.51087 35.07222
#
# Velocity S-wave (km/s) = 3.65506 4.03285 3.84859
# Velocity P-wave (km/s) = 5.72633 6.68389 6.22355
#
# Compressibility (1/GPa) = 0.02819550
#
# Stress axis : x y z
#
# Youngs Moduli (GPa) = 72.22086 71.33868 81.89427
#
# Poissons Ratio (x) = 0.22231 0.08378
# Poissons Ratio (y) = 0.22505 0.14745
# Poissons Ratio (z) = 0.07388 0.12845
#
# Static dielectric constant tensor:
#      x y z
#    x 1.867110 0.145540 0.171800 
#    y 0.145540 1.100930 -0.804300 
#    z 0.171800 -0.804300 1.204630 
# 
# From -- ./inp_files/97737.got.cif
#   From: 2010.05.17/outbox.cif.g08.bks.cpg/sg2_49_cif.got.tgz:97737.got - 2010.06.03 11:33:40.
