data_PCOD9047590
_publ_section_title
;
Structure prediction by ZEFSAII (Michael W. Deem and Ramdas Pophale) SiO2 
 PCOD9047590
Probable space group: P -1
;
_chemical_formula_sum "Si O2"
_cell_formula_units_Z 16
_cell_length_a 12.120685
_cell_length_b 8.189999
_cell_length_c 15.197303
_cell_angle_alpha 76.083765
_cell_angle_beta 144.882575
_cell_angle_gamma 118.409122
_cell_volume 729.634580
_symmetry_space_group_name_H-M "P -1"
_symmetry_group_IT_number 2
_symmetry_cell_setting 'triclinic'
loop_
_space_group_symop_operation_xyz
x,y,z
-x,-y,-z
loop_
_atom_site_type_symbol
_atom_site_label
_atom_site_fract_x
_atom_site_fract_y
_atom_site_fract_z
Si Si1 0.669660 0.617874 0.191982
Si Si2 0.510199 0.639765 0.645723
Si Si3 0.135266 0.051018 0.287689
Si Si4 0.147658 0.942188 0.759931
Si Si5 0.373440 0.902526 0.757965
Si Si6 0.865168 0.275538 0.551870
Si Si7 0.293953 0.238608 0.610625
Si Si8 0.710319 0.769184 0.951941
O O1 0.717508 0.654450 0.323009
O O2 0.427950 0.430902 0.056354
O O3 0.869697 0.594401 0.287157
O O4 0.707645 0.826294 0.160191
O O5 0.285253 0.648245 0.512361
O O6 0.437701 0.414683 0.615627
O O7 0.658094 0.717920 0.821561
O O8 0.652794 0.781958 0.642911
O O9 0.188982 0.927203 0.409501
O O10 0.994085 0.135953 0.233882
O O11 0.965296 0.891507 0.128268
O O12 0.288304 0.867482 0.807828
O O13 0.951616 0.896588 0.568163
O O14 0.204182 0.762870 0.590947
O O15 0.590347 0.889849 0.884747
O O16 0.403185 0.111411 0.725500
#
# Coordination Sequence:
#
# PCOD9047590 Si02
#       8
#     2   2   2   2   2   2   2   2
#     4   9  17  33  57  88 103 138 180 226 280 316
#     4  10  23  36  60  78 107 151 192 216 261 325
#     4  11  22  39  53  81 117 148 179 220 271 323
#     4  10  19  33  60  80 116 136 173 234 282 317
#     4  10  18  36  57  85 107 140 181 227 280 319
#     4  10  19  35  61  84 107 134 187 239 267 309
#     4  10  17  34  57  85 108 139 179 232 270 319
#     4  10  23  35  60  79 112 147 183 221 269 330
#
# _framework density 21.928787
#
# number of rings (size 3 to 8) (size 9 to 14) (size 15 to 20)
#    0.000    2.000    3.750    1.500    1.750    4.500 
#    0.000    0.625    8.250    0.000    0.000    0.000 
#    0.000    0.000    0.000    0.000    0.000    0.000 
#
# Total GULP energy -89313.559386 kJ/mol
# GULP energy per Si atom -5582.097462 kJ/mol
# Density = 2.187888 g / cm^3
# Si number density = 21.928787 Si / 1000 Ang^3
#
#
#
# Elastic Constant Matrix: (Units=GPa)
#
#
# Indices 1 2 3 4 5 6 
#
# 1 64.0791 32.1225 2.6589 4.0719 -2.7238 5.2975
# 2 32.1225 88.8007 9.4784 8.3444 12.9069 5.1675
# 3 2.6589 9.4784 83.6788 3.4122 -5.3850 -2.0623
# 4 4.0719 8.3444 3.4122 24.7363 1.8236 0.9264
# 5 -2.7238 12.9069 -5.3850 1.8236 21.6545 1.2854
# 6 5.2975 5.1675 -2.0623 0.9264 1.2854 29.6620
#
#
#
# Elastic Compliance Matrix: (Units=1/GPa)
#
#
# Indices 1 2 3 4 5 6 
#
# 1 0.020383 -0.008372 0.000801 -0.001140 0.007994 -0.002437
# 2 -0.008372 0.016481 -0.002217 -0.003021 -0.011117 -0.000954
# 3 0.000801 -0.002217 0.012558 -0.001493 0.004613 0.000963
# 4 -0.001140 -0.003021 -0.001493 0.042025 -0.002218 -0.000590
# 5 0.007994 -0.011117 0.004613 -0.002218 0.055234 -0.001495
# 6 -0.002437 -0.000954 0.000963 -0.000590 -0.001495 0.034465
#
#
# Mechanical properties :
#
#
# Convention : Reuss Voigt Hill
#
# Bulk Modulus (GPa) = 33.50315 36.11979 34.81147
# Shear Modulus (GPa) = 23.73405 28.03046 25.88226
#
# Velocity S-wave (km/s) = 3.29344 3.57914 3.43926
# Velocity P-wave (km/s) = 5.45652 5.79547 5.62855
#
# Compressibility (1/GPa) = 0.02984794
#
# Stress axis : x y z
#
# Youngs Moduli (GPa) = 49.06091 60.67505 79.63343
#
# Poissons Ratio (x) = 0.50795 -0.06382
# Poissons Ratio (y) = 0.41072 0.17651
# Poissons Ratio (z) = -0.03932 0.13449
#
# Static dielectric constant tensor:
#      x y z
#    x 1.851520 0.008520 -0.050660 
#    y 0.008520 1.837610 -0.002670 
#    z -0.050660 -0.002670 1.837620 
# 
# From -- ./inp_files/176517.got.cif
#   From: 2010.05.17/outbox.cif.g08.bks.cpg/sg2_89_cif.got.tgz:176517.got - 2010.06.03 11:33:40.
