data_PCOD9047482
_publ_section_title
;
Structure prediction by ZEFSAII (Michael W. Deem and Ramdas Pophale) SiO2 
 PCOD9047482
Probable space group: P -1
;
_chemical_formula_sum "Si O2"
_cell_formula_units_Z 15
_cell_length_a 15.591110
_cell_length_b 12.648526
_cell_length_c 24.789477
_cell_angle_alpha 27.996139
_cell_angle_beta 19.906704
_cell_angle_gamma 36.951747
_cell_volume 766.431439
_symmetry_space_group_name_H-M "P -1"
_symmetry_group_IT_number 2
_symmetry_cell_setting 'triclinic'
loop_
_space_group_symop_operation_xyz
x,y,z
-x,-y,-z
loop_
_atom_site_type_symbol
_atom_site_label
_atom_site_fract_x
_atom_site_fract_y
_atom_site_fract_z
Si Si1 0.884223 0.821863 0.936026
Si Si2 0.953977 0.253223 0.400069
Si Si3 0.373999 0.093976 0.838363
Si Si4 0.751813 0.432187 0.822096
Si Si5 0.066169 0.329343 0.582759
Si Si6 0.667185 0.382732 0.191717
Si Si7 0.265863 0.589972 0.988315
Si Si8 0.000000 0.000000 0.000000
O O1 0.165710 0.785183 0.804192
O O2 0.719191 0.808781 0.094501
O O3 0.769249 0.627430 0.049362
O O4 0.906750 0.072885 0.784679
O O5 0.650226 0.236012 0.593882
O O6 0.115382 0.426130 0.269837
O O7 0.060131 0.364578 0.230474
O O8 0.000000 0.000000 0.500000
O O9 0.168298 0.090410 0.914364
O O10 0.381903 0.826607 0.966083
O O11 0.974058 0.409733 0.658294
O O12 0.540331 0.554227 0.864867
O O13 0.364847 0.321349 0.408503
O O14 0.000000 0.500000 0.500000
O O15 0.717198 0.391135 0.094541
O O16 0.187305 0.813026 0.960807
#
# Coordination Sequence:
#
# PCOD9047482 Si02
#       8
#     2   2   2   2   2   2   2   1
#     4  10  24  44  67  94 133 174 213 272 327 386
#     4  12  24  40  68  97 128 178 220 264 331 385
#     4  11  23  45  67  97 133 173 220 267 327 388
#     4  11  23  45  66  95 136 172 218 276 322 387
#     4  11  23  41  70  98 123 171 222 265 328 385
#     4  11  23  46  64  97 137 169 216 271 326 393
#     4  12  24  44  66  98 135 174 221 270 327 386
#     4  12  24  44  68  96 136 174 216 276 316 396
#
# _framework density 19.571223
#
# number of rings (size 3 to 8) (size 9 to 14) (size 15 to 20)
#    0.000    0.800    5.333    2.400    0.000    2.133 
#    2.400    0.000    0.000    0.000    0.000    0.000 
#    0.000    0.000    0.000    0.000    0.000    0.000 
#
# Total GULP energy -83587.013220 kJ/mol
# GULP energy per Si atom -5572.467548 kJ/mol
# Density = 1.952668 g / cm^3
# Si number density = 19.571223 Si / 1000 Ang^3
#
#
#
# Elastic Constant Matrix: (Units=GPa)
#
#
# Indices 1 2 3 4 5 6 
#
# 1 78.4503 17.5137 24.0673 -4.1769 -2.1611 13.8736
# 2 17.5137 97.2047 23.8190 6.8815 5.6037 15.2494
# 3 24.0673 23.8190 87.5757 18.4893 14.5130 8.8229
# 4 -4.1769 6.8815 18.4893 24.4759 2.2909 -1.9013
# 5 -2.1611 5.6037 14.5130 2.2909 23.3963 4.7567
# 6 13.8736 15.2494 8.8229 -1.9013 4.7567 26.8797
#
#
#
# Elastic Compliance Matrix: (Units=1/GPa)
#
#
# Indices 1 2 3 4 5 6 
#
# 1 0.016536 -0.001333 -0.005957 0.006614 0.006206 -0.006454
# 2 -0.001333 0.012057 -0.001667 -0.002750 -0.000548 -0.005702
# 3 -0.005957 -0.001667 0.018072 -0.013367 -0.009825 -0.001119
# 4 0.006614 -0.002750 -0.013367 0.052999 0.003210 0.005715
# 5 0.006206 -0.000548 -0.009825 0.003210 0.050946 -0.008456
# 6 -0.006454 -0.005702 -0.001119 0.005715 -0.008456 0.046037
#
#
# Mechanical properties :
#
#
# Convention : Reuss Voigt Hill
#
# Bulk Modulus (GPa) = 34.78048 43.78118 39.28083
# Shear Modulus (GPa) = 22.30697 28.13908 25.22302
#
# Velocity S-wave (km/s) = 3.37973 3.79592 3.59385
# Velocity P-wave (km/s) = 5.74804 6.45219 6.11026
#
# Compressibility (1/GPa) = 0.02875176
#
# Stress axis : x y z
#
# Youngs Moduli (GPa) = 60.47255 82.93830 55.33425
#
# Poissons Ratio (x) = 0.11059 0.32960
# Poissons Ratio (y) = 0.08063 0.09224
# Poissons Ratio (z) = 0.36021 0.13825
#
# Static dielectric constant tensor:
#      x y z
#    x 1.662730 -0.002720 0.019080 
#    y -0.002720 1.695910 0.013730 
#    z 0.019080 0.013730 1.679760 
# 
# From -- ./inp_files/37374.got.cif
#   From: 2010.05.17/outbox.cif.g08.bks.cpg/sg2_19_cif.got.tgz:37374.got - 2010.06.03 11:33:40.
