data_PCOD9047476
_publ_section_title
;
Structure prediction by ZEFSAII (Michael W. Deem and Ramdas Pophale) SiO2 
 PCOD9047476
Probable space group: P -1
;
_chemical_formula_sum "Si O2"
_cell_formula_units_Z 14
_cell_length_a 7.448299
_cell_length_b 10.161926
_cell_length_c 13.527073
_cell_angle_alpha 31.548089
_cell_angle_beta 91.523578
_cell_angle_gamma 98.007523
_cell_volume 522.017113
_symmetry_space_group_name_H-M "P -1"
_symmetry_group_IT_number 2
_symmetry_cell_setting 'triclinic'
loop_
_space_group_symop_operation_xyz
x,y,z
-x,-y,-z
loop_
_atom_site_type_symbol
_atom_site_label
_atom_site_fract_x
_atom_site_fract_y
_atom_site_fract_z
Si Si1 0.251882 0.342659 0.582955
Si Si2 0.169638 0.819958 0.827087
Si Si3 0.670427 0.560807 0.805631
Si Si4 0.279680 0.906970 0.567706
Si Si5 0.160070 0.846874 0.214577
Si Si6 0.229050 0.065229 0.274514
Si Si7 0.599760 0.758841 0.148541
O O1 0.229481 0.586148 0.361037
O O2 0.619561 0.622578 0.340234
O O3 0.046886 0.240839 0.692686
O O4 0.287105 0.105273 0.671672
O O5 0.959204 0.841170 0.803356
O O6 0.221216 0.739496 0.769876
O O7 0.213109 0.641860 0.029512
O O8 0.785494 0.822258 0.588892
O O9 0.634930 0.698010 0.821089
O O10 0.503042 0.432849 0.814856
O O11 0.205697 0.834025 0.503285
O O12 0.500000 0.000000 0.500000
O O13 0.282226 0.968270 0.233876
O O14 0.201067 0.079882 0.989263
O O15 0.500000 0.000000 0.000000
#
# Coordination Sequence:
#
# PCOD9047476 Si02
#       7
#     2   2   2   2   2   2   2
#     4  10  24  44  67  94 124 170 218 256 314 376
#     4  11  21  44  67  90 126 170 208 264 311 373
#     4  10  25  40  64  94 128 162 214 253 326 368
#     4  10  25  39  63  96 129 159 209 261 318 377
#     4  10  24  44  67  92 128 169 212 264 311 375
#     4   9  23  43  64  93 127 165 216 255 316 375
#     4  12  25  40  63  96 130 166 209 262 319 375
#
# _framework density 26.819040999999999
#
# number of rings (size 3 to 8) (size 9 to 14) (size 15 to 20)
#    0.857    0.857    1.429    1.286    6.000    2.857 
#    0.000    0.000    0.000    0.000    0.000    0.000 
#    0.000    0.000    0.000    0.000    0.000    0.000 
#
# Total GULP energy -78216.855355 kJ/mol
# GULP energy per Si atom -5586.918240 kJ/mol
# Density = 2.675800 g / cm^3
# Si number density = 26.819041 Si / 1000 Ang^3
#
#
#
# Elastic Constant Matrix: (Units=GPa)
#
#
# Indices 1 2 3 4 5 6 
#
# 1 59.0750 -9.1205 5.0521 11.1432 3.1681 15.7764
# 2 -9.1205 109.4637 19.0218 -6.0259 13.5576 20.9348
# 3 5.0521 19.0218 107.0016 27.5813 13.1556 19.3944
# 4 11.1432 -6.0259 27.5813 42.5891 9.7898 6.6588
# 5 3.1681 13.5576 13.1556 9.7898 34.9354 4.3395
# 6 15.7764 20.9348 19.3944 6.6588 4.3395 32.6917
#
#
#
# Elastic Compliance Matrix: (Units=1/GPa)
#
#
# Indices 1 2 3 4 5 6 
#
# 1 0.021700 0.003961 0.001838 -0.003920 -0.001471 -0.013106
# 2 0.003961 0.012222 -0.001127 0.003934 -0.004631 -0.009256
# 3 0.001838 -0.001127 0.012683 -0.007546 -0.001654 -0.005933
# 4 -0.003920 0.003934 -0.007546 0.031833 -0.007039 -0.001700
# 5 -0.001471 -0.004631 -0.001654 -0.007039 0.032937 0.001718
# 6 -0.013106 -0.009256 -0.005933 -0.001700 0.001718 0.046479
#
#
# Mechanical properties :
#
#
# Convention : Reuss Voigt Hill
#
# Bulk Modulus (GPa) = 17.87286 33.93856 25.90571
# Shear Modulus (GPa) = 29.91170 39.41571 34.66371
#
# Velocity S-wave (km/s) = 3.34326 3.83781 3.59904
# Velocity P-wave (km/s) = 4.64563 5.68512 5.19146
#
# Compressibility (1/GPa) = 0.05595077
#
# Stress axis : x y z
#
# Youngs Moduli (GPa) = 46.08205 81.82191 78.84535
#
# Poissons Ratio (x) = -0.32414 -0.14492
# Poissons Ratio (y) = -0.18255 0.08883
# Poissons Ratio (z) = -0.08470 0.09219
#
# Static dielectric constant tensor:
#      x y z
#    x 2.166370 0.001730 -0.018870 
#    y 0.001730 2.127040 0.004240 
#    z -0.018870 0.004240 2.245030 
# 
# From -- ./inp_files/499743.got.cif
#   From: 2010.05.17/outbox.cif.g08.bks.cpg/sg2_250_cif.got.tgz:499743.got - 2010.06.03 11:33:40.
