data_PCOD9047135
_publ_section_title
;
Structure prediction by ZEFSAII (Michael W. Deem and Ramdas Pophale) SiO2 
 PCOD9047135
Probable space group: P -1
;
_chemical_formula_sum "Si O2"
_cell_formula_units_Z 14
_cell_length_a 13.812235
_cell_length_b 9.243306
_cell_length_c 13.639032
_cell_angle_alpha 38.630181
_cell_angle_beta 27.089523
_cell_angle_gamma 43.830758
_cell_volume 492.979275
_symmetry_space_group_name_H-M "P -1"
_symmetry_group_IT_number 2
_symmetry_cell_setting 'triclinic'
loop_
_space_group_symop_operation_xyz
x,y,z
-x,-y,-z
loop_
_atom_site_type_symbol
_atom_site_label
_atom_site_fract_x
_atom_site_fract_y
_atom_site_fract_z
Si Si1 0.185126 0.662229 0.773394
Si Si2 0.100790 0.060531 0.960327
Si Si3 0.385335 0.549173 0.470761
Si Si4 0.093641 0.167396 0.473169
Si Si5 0.526095 0.731376 0.792217
Si Si6 0.177905 0.405321 0.578579
Si Si7 0.258989 0.949616 0.242431
O O1 0.233182 0.748166 0.571624
O O2 0.365778 0.526837 0.754198
O O3 0.068811 0.854547 0.848862
O O4 0.000000 0.500000 0.000000
O O5 0.955809 0.837508 0.158427
O O6 0.311185 0.898980 0.887152
O O7 0.239191 0.328055 0.687243
O O8 0.500000 0.500000 0.500000
O O9 0.291068 0.154095 0.373636
O O10 0.999076 0.440764 0.408576
O O11 0.869752 0.044021 0.745654
O O12 0.155310 0.120297 0.327916
O O13 0.623238 0.677479 0.626072
O O14 0.500000 0.500000 0.000000
O O15 0.275889 0.667808 0.401327
O O16 0.500000 0.000000 0.000000
#
# Coordination Sequence:
#
# PCOD9047135 Si02
#       7
#     2   2   2   2   2   2   2
#     4  11  24  44  73 107 145 192 252 310 379 450
#     4  12  27  48  78 111 152 206 255 314 388 459
#     4  10  24  43  73 106 149 192 249 315 375 456
#     4  10  25  45  70 110 150 197 254 312 377 453
#     4  12  28  47  77 113 159 203 255 320 387 459
#     4  11  24  49  73 107 150 199 254 312 380 461
#     4  10  24  43  72 106 150 196 246 313 382 453
#
# _framework density 28.398758999999998
#
# number of rings (size 3 to 8) (size 9 to 14) (size 15 to 20)
#    0.000    1.143    1.429    2.571    8.000    3.429 
#    0.000    0.000    0.000    0.000    0.000    0.000 
#    0.000    0.000    0.000    0.000    0.000    0.000 
#
# Total GULP energy -78009.599440 kJ/mol
# GULP energy per Si atom -5572.114246 kJ/mol
# Density = 2.833412 g / cm^3
# Si number density = 28.398759 Si / 1000 Ang^3
#
#
#
# Elastic Constant Matrix: (Units=GPa)
#
#
# Indices 1 2 3 4 5 6 
#
# 1 225.9211 91.2529 80.0978 14.9385 -68.3036 12.3654
# 2 91.2529 166.2403 65.3698 15.1316 -24.6733 14.6218
# 3 80.0978 65.3698 144.7733 -14.6295 -33.1976 -5.6925
# 4 14.9385 15.1316 -14.6295 70.0194 -1.0303 -13.1136
# 5 -68.3036 -24.6733 -33.1976 -1.0303 78.5337 -4.7536
# 6 12.3654 14.6218 -5.6925 -13.1136 -4.7536 72.4751
#
#
#
# Elastic Compliance Matrix: (Units=1/GPa)
#
#
# Indices 1 2 3 4 5 6 
#
# 1 0.007953 -0.002430 -0.002362 -0.001786 0.005068 -0.001043
# 2 -0.002430 0.008898 -0.003199 -0.002485 -0.000832 -0.002136
# 3 -0.002362 -0.003199 0.010529 0.003923 0.001606 0.002690
# 4 -0.001786 -0.002485 0.003923 0.016791 -0.000205 0.004139
# 5 0.005068 -0.000832 0.001606 -0.000205 0.017589 0.000546
# 6 -0.001043 -0.002136 0.002690 0.004139 0.000546 0.015403
#
#
# Mechanical properties :
#
#
# Convention : Reuss Voigt Hill
#
# Bulk Modulus (GPa) = 87.74061 112.26397 100.00229
# Shear Modulus (GPa) = 51.57582 64.21992 57.89787
#
# Velocity S-wave (km/s) = 4.26623 4.76054 4.52015
# Velocity P-wave (km/s) = 7.43173 8.35668 7.90774
#
# Compressibility (1/GPa) = 0.01139723
#
# Stress axis : x y z
#
# Youngs Moduli (GPa) = 125.74203 112.38620 94.97559
#
# Poissons Ratio (x) = 0.27312 0.22432
# Poissons Ratio (y) = 0.30558 0.30384
# Poissons Ratio (z) = 0.29699 0.35954
#
# Static dielectric constant tensor:
#      x y z
#    x 2.102490 0.039160 0.164700 
#    y 0.039160 1.923610 -0.555070 
#    z 0.164700 -0.555070 2.366170 
# 
# From -- ./inp_files/601095.got.cif
#   From: 2010.05.17/outbox.cif.g08.bks.cpg/sg2_301_cif.got.tgz:601095.got - 2010.06.03 11:33:40.
