data_PCOD9047388
_publ_section_title
;
Structure prediction by ZEFSAII (Michael W. Deem and Ramdas Pophale) SiO2 
 PCOD9047388
Probable space group: P -1
;
_chemical_formula_sum "Si O2"
_cell_formula_units_Z 13
_cell_length_a 14.822367
_cell_length_b 10.010738
_cell_length_c 9.061782
_cell_angle_alpha 84.619843
_cell_angle_beta 131.945663
_cell_angle_gamma 58.134672
_cell_volume 600.633066
_symmetry_space_group_name_H-M "P -1"
_symmetry_group_IT_number 2
_symmetry_cell_setting 'triclinic'
loop_
_space_group_symop_operation_xyz
x,y,z
-x,-y,-z
loop_
_atom_site_type_symbol
_atom_site_label
_atom_site_fract_x
_atom_site_fract_y
_atom_site_fract_z
Si Si1 0.609924 0.369289 0.478403
Si Si2 0.167991 0.551846 0.306523
Si Si3 0.523689 0.952689 0.357315
Si Si4 0.500000 0.500000 0.000000
Si Si5 0.870954 0.991496 0.421909
Si Si6 0.087424 0.300731 0.708197
Si Si7 0.172915 0.086799 0.318261
O O1 0.500000 0.500000 0.500000
O O2 0.772138 0.345134 0.637580
O O3 0.490642 0.481081 0.179730
O O4 0.715203 0.130358 0.626560
O O5 0.071090 0.595474 0.349641
O O6 0.359633 0.289999 0.512342
O O7 0.993185 0.689704 0.980954
O O8 0.500000 0.000000 0.500000
O O9 0.662930 0.949368 0.446955
O O10 0.304500 0.144253 0.027471
O O11 0.645676 0.243648 0.168122
O O12 0.888434 0.851170 0.349367
O O13 0.935699 0.887727 0.665797
O O14 0.000000 0.000000 0.500000
O O15 0.000000 0.500000 0.500000
#
# Coordination Sequence:
#
# PCOD9047388 Si02
#       7
#     2   2   2   1   2   2   2
#     4  11  25  44  74 107 145 195 244 311 375 435
#     4  12  26  47  74 106 145 189 255 298 364 453
#     4  12  26  47  73 105 147 191 245 300 363 441
#     4  10  24  44  66 104 144 184 242 300 362 440
#     4  11  26  46  72 105 145 188 242 304 371 433
#     4  12  28  47  77 109 146 197 240 309 379 438
#     4  11  25  45  73 106 143 194 243 303 365 440
#
# _framework density 21.643830999999999
#
# number of rings (size 3 to 8) (size 9 to 14) (size 15 to 20)
#    0.000    0.615    1.538    5.538    6.462    7.385 
#    0.000    0.000    0.000    0.000    0.000    0.000 
#    0.000    0.000    0.000    0.000    0.000    0.000 
#
# Total GULP energy -72492.359601 kJ/mol
# GULP energy per Si atom -5576.335354 kJ/mol
# Density = 2.159457 g / cm^3
# Si number density = 21.643831 Si / 1000 Ang^3
#
#
#
# Elastic Constant Matrix: (Units=GPa)
#
#
# Indices 1 2 3 4 5 6 
#
# 1 116.1294 34.1270 19.8426 11.7139 -12.5463 -12.4321
# 2 34.1270 123.9425 61.0210 -1.8129 -12.3607 -3.3335
# 3 19.8426 61.0210 99.6771 -12.4753 -19.6968 -9.8374
# 4 11.7139 -1.8129 -12.4753 23.5468 5.3810 -3.6282
# 5 -12.5463 -12.3607 -19.6968 5.3810 32.4647 13.3914
# 6 -12.4321 -3.3335 -9.8374 -3.6282 13.3914 51.7936
#
#
#
# Elastic Compliance Matrix: (Units=1/GPa)
#
#
# Indices 1 2 3 4 5 6 
#
# 1 0.010522 -0.002252 -0.000754 -0.006459 0.003454 0.000892
# 2 -0.002252 0.012308 -0.007446 -0.002138 0.000217 -0.001369
# 3 -0.000754 -0.007446 0.016908 0.007872 0.005090 0.001787
# 4 -0.006459 -0.002138 0.007872 0.052855 -0.009786 0.006040
# 5 0.003454 0.000217 0.005090 -0.009786 0.040820 -0.009430
# 6 0.000892 -0.001369 0.001787 0.006040 -0.009430 0.022634
#
#
# Mechanical properties :
#
#
# Convention : Reuss Voigt Hill
#
# Bulk Modulus (GPa) = 53.09467 63.30336 58.19901
# Shear Modulus (GPa) = 27.28826 36.54492 31.91659
#
# Velocity S-wave (km/s) = 3.55461 4.11355 3.84425
# Velocity P-wave (km/s) = 6.43672 7.20229 6.83024
#
# Compressibility (1/GPa) = 0.01883428
#
# Stress axis : x y z
#
# Youngs Moduli (GPa) = 95.04030 81.24862 59.14266
#
# Poissons Ratio (x) = 0.18298 0.04457
# Poissons Ratio (y) = 0.21404 0.44038
# Poissons Ratio (z) = 0.07163 0.60499
#
# Static dielectric constant tensor:
#      x y z
#    x 1.802870 -0.019050 -0.001790 
#    y -0.019050 1.750530 0.025600 
#    z -0.001790 0.025600 1.796560 
# 
# From -- ./inp_files/130859.got.cif
#   From: 2010.05.17/outbox.cif.g08.bks.cpg/sg2_66_cif.got.tgz:130859.got - 2010.06.03 11:33:40.
