data_PCOD9047483
_publ_section_title
;
Structure prediction by ZEFSAII (Michael W. Deem and Ramdas Pophale) SiO2 
 PCOD9047483
Probable space group: P -1
;
_chemical_formula_sum "Si O2"
_cell_formula_units_Z 16
_cell_length_a 28.301746
_cell_length_b 5.292886
_cell_length_c 8.521631
_cell_angle_alpha 69.786122
_cell_angle_beta 47.824286
_cell_angle_gamma 42.590977
_cell_volume 611.413674
_symmetry_space_group_name_H-M "P -1"
_symmetry_group_IT_number 2
_symmetry_cell_setting 'triclinic'
loop_
_space_group_symop_operation_xyz
x,y,z
-x,-y,-z
loop_
_atom_site_type_symbol
_atom_site_label
_atom_site_fract_x
_atom_site_fract_y
_atom_site_fract_z
Si Si1 0.490869 0.517463 0.834502
Si Si2 0.048606 0.645017 0.588095
Si Si3 0.322336 0.179294 0.511076
Si Si4 0.203756 0.195906 0.572941
Si Si5 0.192406 0.135284 0.122035
Si Si6 0.852563 0.099641 0.018940
Si Si7 0.653119 0.417370 0.866685
Si Si8 0.435496 0.949612 0.605531
O O1 0.409071 0.933105 0.843300
O O2 0.592120 0.290018 0.599546
O O3 0.500000 0.500000 0.000000
O O4 0.453239 0.334029 0.920306
O O5 0.114081 0.563152 0.596104
O O6 0.119452 0.277705 0.391938
O O7 0.000000 0.000000 0.500000
O O8 0.964496 0.748574 0.835490
O O9 0.231953 0.290915 0.637572
O O10 0.339493 0.327718 0.296754
O O11 0.353853 0.214890 0.601307
O O12 0.288549 0.937461 0.315928
O O13 0.182718 0.957203 0.736612
O O14 0.175917 0.500087 0.033368
O O15 0.180118 0.975795 0.039260
O O16 0.291783 0.788285 0.051910
O O17 0.500000 0.500000 0.500000
O O18 0.500000 0.000000 0.500000
#
# Coordination Sequence:
#
# PCOD9047483 Si02
#       8
#     2   2   2   2   2   2   2   2
#     4  11  22  44  69  98 133 186 235 283 348 411
#     4   9  21  46  73 102 142 184 233 282 349 422
#     4  11  25  44  70  99 140 185 235 291 348 411
#     4  11  25  43  68 105 143 182 229 295 345 415
#     4  10  25  44  73 104 137 182 232 292 339 416
#     4  11  24  46  71 104 141 183 231 282 358 416
#     4  11  25  42  67 100 139 182 237 285 346 411
#     4  10  24  44  67  95 130 176 227 282 343 403
#
# _framework density 26.168859999999999
#
# number of rings (size 3 to 8) (size 9 to 14) (size 15 to 20)
#    0.000    1.500    1.250    1.875   10.500    1.000 
#    2.250    3.125    0.000    0.000    0.000    0.000 
#    0.000    0.000    0.000    0.000    0.000    0.000 
#
# Total GULP energy -89301.011746 kJ/mol
# GULP energy per Si atom -5581.313234 kJ/mol
# Density = 2.610930 g / cm^3
# Si number density = 26.168860 Si / 1000 Ang^3
#
#
#
# Elastic Constant Matrix: (Units=GPa)
#
#
# Indices 1 2 3 4 5 6 
#
# 1 216.1115 75.8979 47.0158 -5.2765 5.7548 -26.1402
# 2 75.8979 103.2070 14.3295 -17.4204 -3.6262 -17.2325
# 3 47.0158 14.3295 110.1947 -11.0815 -4.9076 -7.0086
# 4 -5.2765 -17.4204 -11.0815 39.6647 0.8824 2.2270
# 5 5.7548 -3.6262 -4.9076 0.8824 32.1957 -4.8863
# 6 -26.1402 -17.2325 -7.0086 2.2270 -4.8863 54.0356
#
#
#
# Elastic Compliance Matrix: (Units=1/GPa)
#
#
# Indices 1 2 3 4 5 6 
#
# 1 0.007146 -0.005073 -0.002592 -0.002037 -0.001974 0.001408
# 2 -0.005073 0.014773 0.001125 0.005926 0.002948 0.002425
# 3 -0.002592 0.001125 0.010467 0.002995 0.002185 0.000536
# 4 -0.002037 0.005926 0.002995 0.028352 0.000740 0.000191
# 5 -0.001974 0.002948 0.002185 0.000740 0.032540 0.003180
# 6 0.001408 0.002425 0.000536 0.000191 0.003180 0.020310
#
#
# Mechanical properties :
#
#
# Convention : Reuss Voigt Hill
#
# Bulk Modulus (GPa) = 51.80134 78.22218 65.01176
# Shear Modulus (GPa) = 37.56411 44.66386 41.11399
#
# Velocity S-wave (km/s) = 3.79284 4.13577 3.96801
# Velocity P-wave (km/s) = 6.24651 7.26377 6.77426
#
# Compressibility (1/GPa) = 0.01930452
#
# Stress axis : x y z
#
# Youngs Moduli (GPa) = 139.93489 67.69236 95.53603
#
# Poissons Ratio (x) = 0.34343 0.24767
# Poissons Ratio (y) = 0.70994 -0.10748
# Poissons Ratio (z) = 0.36278 -0.07616
#
# Static dielectric constant tensor:
#      x y z
#    x 2.163450 0.152310 0.077280 
#    y 0.152310 2.328190 0.103860 
#    z 0.077280 0.103860 2.293190 
# 
# From -- ./inp_files/115969.got.cif
#   From: 2010.05.17/outbox.cif.g08.bks.cpg/sg2_58_cif.got.tgz:115969.got - 2010.06.03 11:33:40.
