data_PCOD9047242
_publ_section_title
;
Structure prediction by ZEFSAII (Michael W. Deem and Ramdas Pophale) SiO2 
 PCOD9047242
Probable space group: P -1
;
_chemical_formula_sum "Si O2"
_cell_formula_units_Z 14
_cell_length_a 9.053660
_cell_length_b 15.767907
_cell_length_c 9.180929
_cell_angle_alpha 141.577364
_cell_angle_beta 52.274505
_cell_angle_gamma 105.745081
_cell_volume 583.704450
_symmetry_space_group_name_H-M "P -1"
_symmetry_group_IT_number 2
_symmetry_cell_setting 'triclinic'
loop_
_space_group_symop_operation_xyz
x,y,z
-x,-y,-z
loop_
_atom_site_type_symbol
_atom_site_label
_atom_site_fract_x
_atom_site_fract_y
_atom_site_fract_z
Si Si1 0.035977 0.993234 0.798438
Si Si2 0.679848 0.025623 0.843414
Si Si3 0.168355 0.194590 0.818508
Si Si4 0.423702 0.369752 0.404180
Si Si5 0.977387 0.522987 0.370110
Si Si6 0.367053 0.465921 0.879408
Si Si7 0.533502 0.270606 0.776792
O O1 0.868251 0.973635 0.772681
O O2 0.046560 0.144332 0.940610
O O3 0.259930 0.858130 0.462556
O O4 0.000000 0.000000 0.000000
O O5 0.746185 0.926428 0.523943
O O6 0.602557 0.201562 0.084693
O O7 0.500000 0.000000 0.000000
O O8 0.352902 0.216404 0.818229
O O9 0.022352 0.356342 0.059720
O O10 0.500000 0.500000 0.500000
O O11 0.318081 0.413993 0.686329
O O12 0.249896 0.368930 0.397519
O O13 0.000000 0.500000 0.500000
O O14 0.163310 0.548628 0.214799
O O15 0.519146 0.318945 0.679510
O O16 0.479671 0.575730 0.937072
#
# Coordination Sequence:
#
# PCOD9047242 Si02
#       7
#     2   2   2   2   2   2   2
#     4  12  26  43  74 104 146 189 243 294 368 427
#     4  12  28  49  74 108 151 192 247 302 368 437
#     4  11  26  49  70 108 147 189 244 303 366 435
#     4  12  28  46  76 107 147 192 247 300 369 434
#     4  11  27  46  76 107 146 191 247 297 364 440
#     4  10  24  46  72 105 148 184 243 296 368 427
#     4  10  24  43  76 100 145 188 242 297 360 425
#
# _framework density 23.984742000000001
#
# number of rings (size 3 to 8) (size 9 to 14) (size 15 to 20)
#    0.000    0.857    0.000    5.571   14.000    1.143 
#    0.000    0.000    0.000    0.000    0.000    0.000 
#    0.000    0.000    0.000    0.000    0.000    0.000 
#
# Total GULP energy -78376.078615 kJ/mol
# GULP energy per Si atom -5598.291330 kJ/mol
# Density = 2.393015 g / cm^3
# Si number density = 23.984742 Si / 1000 Ang^3
#
#
#
# Elastic Constant Matrix: (Units=GPa)
#
#
# Indices 1 2 3 4 5 6 
#
# 1 171.2022 29.8739 26.1835 -11.7223 -1.7648 -14.5202
# 2 29.8739 76.4796 16.7863 -13.8254 17.8216 9.0756
# 3 26.1835 16.7863 68.5892 -11.0066 14.4003 -11.6227
# 4 -11.7223 -13.8254 -11.0066 42.6084 -14.0981 5.9443
# 5 -1.7648 17.8216 14.4003 -14.0981 44.2872 2.4983
# 6 -14.5202 9.0756 -11.6227 5.9443 2.4983 44.3506
#
#
#
# Elastic Compliance Matrix: (Units=1/GPa)
#
#
# Indices 1 2 3 4 5 6 
#
# 1 0.006897 -0.002881 -0.001891 0.000916 0.002222 0.002104
# 2 -0.002881 0.017074 -0.002423 0.003240 -0.004871 -0.005232
# 3 -0.001891 -0.002423 0.017875 0.001055 -0.004842 0.004693
# 4 0.000916 0.003240 0.001055 0.028156 0.007595 -0.004288
# 5 0.002222 -0.004871 -0.004842 0.007595 0.028744 -0.002182
# 6 0.002104 -0.005232 0.004693 -0.004288 -0.002182 0.026235
#
#
# Mechanical properties :
#
#
# Convention : Reuss Voigt Hill
#
# Bulk Modulus (GPa) = 36.42015 51.32872 43.87443
# Shear Modulus (GPa) = 33.66490 42.47772 38.07131
#
# Velocity S-wave (km/s) = 3.75052 4.21293 3.98843
# Velocity P-wave (km/s) = 5.82863 6.71655 6.28828
#
# Compressibility (1/GPa) = 0.02745733
#
# Stress axis : x y z
#
# Youngs Moduli (GPa) = 144.99068 58.56807 55.94341
#
# Poissons Ratio (x) = 0.16873 0.10578
# Poissons Ratio (y) = 0.41771 0.13554
# Poissons Ratio (z) = 0.27414 0.14190
#
# Static dielectric constant tensor:
#      x y z
#    x 1.909460 0.035560 0.009010 
#    y 0.035560 1.948770 -0.007800 
#    z 0.009010 -0.007800 1.961920 
# 
# From -- ./inp_files/209164.got.cif
#   From: 2010.05.17/outbox.cif.g08.bks.cpg/sg2_105_cif.got.tgz:209164.got - 2010.06.03 11:33:40.
