data_PCOD9047208
_publ_section_title
;
Structure prediction by ZEFSAII (Michael W. Deem and Ramdas Pophale) SiO2 
 PCOD9047208
Probable space group: P -1
;
_chemical_formula_sum "Si O2"
_cell_formula_units_Z 13
_cell_length_a 8.454657
_cell_length_b 9.969427
_cell_length_c 9.818909
_cell_angle_alpha 69.728597
_cell_angle_beta 135.670581
_cell_angle_gamma 120.762749
_cell_volume 496.690103
_symmetry_space_group_name_H-M "P -1"
_symmetry_group_IT_number 2
_symmetry_cell_setting 'triclinic'
loop_
_space_group_symop_operation_xyz
x,y,z
-x,-y,-z
loop_
_atom_site_type_symbol
_atom_site_label
_atom_site_fract_x
_atom_site_fract_y
_atom_site_fract_z
Si Si1 0.210594 0.457841 0.824185
Si Si2 0.960224 0.681076 0.522868
Si Si3 0.320861 0.087961 0.370578
Si Si4 0.667342 0.981474 0.309407
Si Si5 0.500000 0.500000 0.500000
Si Si6 0.209690 0.996358 0.923214
Si Si7 0.152481 0.333395 0.122146
O O1 0.096537 0.351301 0.660201
O O2 0.154004 0.608853 0.711686
O O3 0.500000 0.500000 0.000000
O O4 0.095607 0.377170 0.924067
O O5 0.713608 0.588029 0.486767
O O6 0.088855 0.864131 0.568179
O O7 0.348072 0.130393 0.534750
O O8 0.034967 0.977193 0.198698
O O9 0.500000 0.000000 0.500000
O O10 0.083219 0.805908 0.907012
O O11 0.680997 0.931346 0.180591
O O12 0.432823 0.030198 0.151770
O O13 0.281107 0.470304 0.258047
O O14 0.350018 0.249138 0.261973
#
# Coordination Sequence:
#
# PCOD9047208 Si02
#       7
#     2   2   2   2   1   2   2
#     4  11  25  48  70 103 147 188 236 298 347 431
#     4  11  26  43  76 103 140 191 239 289 359 419
#     4  10  24  43  73  99 142 188 226 297 356 419
#     4  11  22  45  69 105 137 183 236 294 354 421
#     4  12  22  48  72 106 140 190 240 292 348 424
#     4   9  23  44  69 102 143 179 236 292 354 421
#     4  10  24  47  69 107 144 182 241 287 362 417
#
# _framework density 26.173259999999999
#
# number of rings (size 3 to 8) (size 9 to 14) (size 15 to 20)
#    0.923    0.615    3.077    0.462    2.154    4.923 
#    5.538    0.000    0.000    0.000    0.000    0.000 
#    0.000    0.000    0.000    0.000    0.000    0.000 
#
# Total GULP energy -72504.891934 kJ/mol
# GULP energy per Si atom -5577.299380 kJ/mol
# Density = 2.611369 g / cm^3
# Si number density = 26.173260 Si / 1000 Ang^3
#
#
#
# Elastic Constant Matrix: (Units=GPa)
#
#
# Indices 1 2 3 4 5 6 
#
# 1 89.8164 9.4705 43.9190 -12.4387 12.9462 0.2396
# 2 9.4705 40.9319 25.9852 -13.7411 6.1104 -10.6435
# 3 43.9190 25.9852 175.8725 -27.5616 -13.9111 5.2949
# 4 -12.4387 -13.7411 -27.5616 35.0482 4.9013 6.9752
# 5 12.9462 6.1104 -13.9111 4.9013 65.6374 -1.2063
# 6 0.2396 -10.6435 5.2949 6.9752 -1.2063 30.1718
#
#
#
# Elastic Compliance Matrix: (Units=1/GPa)
#
#
# Indices 1 2 3 4 5 6 
#
# 1 0.013633 0.000415 -0.003282 0.002975 -0.003649 -0.000219
# 2 0.000415 0.033300 -0.004394 0.008311 -0.004542 0.010412
# 3 -0.003282 -0.004394 0.008062 0.003859 0.002408 -0.003735
# 4 0.002975 0.008311 0.003859 0.037685 -0.003478 -0.006620
# 5 -0.003649 -0.004542 0.002408 -0.003478 0.017139 -0.000507
# 6 -0.000219 0.010412 -0.003735 -0.006620 -0.000507 0.038984
#
#
# Mechanical properties :
#
#
# Convention : Reuss Voigt Hill
#
# Bulk Modulus (GPa) = 24.70703 51.70781 38.20742
# Shear Modulus (GPa) = 28.27807 41.32123 34.79965
#
# Velocity S-wave (km/s) = 3.29054 3.97767 3.65031
# Velocity P-wave (km/s) = 4.88847 6.39489 5.69174
#
# Compressibility (1/GPa) = 0.04047431
#
# Stress axis : x y z
#
# Youngs Moduli (GPa) = 73.34964 30.03031 124.03211
#
# Poissons Ratio (x) = -0.01247 0.40705
# Poissons Ratio (y) = -0.03047 0.54501
# Poissons Ratio (z) = 0.24072 0.13196
#
# Static dielectric constant tensor:
#      x y z
#    x 2.148570 -0.070630 0.021670 
#    y -0.070630 2.103260 -0.003850 
#    z 0.021670 -0.003850 1.999810 
# 
# From -- ./inp_files/178502.got.cif
#   From: 2010.05.17/outbox.cif.g08.bks.cpg/sg2_90_cif.got.tgz:178502.got - 2010.06.03 11:33:40.
