data_PCOD9047425
_publ_section_title
;
Structure prediction by ZEFSAII (Michael W. Deem and Ramdas Pophale) SiO2 
 PCOD9047425
Probable space group: P -1
;
_chemical_formula_sum "Si O2"
_cell_formula_units_Z 16
_cell_length_a 12.353508
_cell_length_b 17.955749
_cell_length_c 7.920638
_cell_angle_alpha 132.243727
_cell_angle_beta 74.770545
_cell_angle_gamma 141.463556
_cell_volume 665.431123
_symmetry_space_group_name_H-M "P -1"
_symmetry_group_IT_number 2
_symmetry_cell_setting 'triclinic'
loop_
_space_group_symop_operation_xyz
x,y,z
-x,-y,-z
loop_
_atom_site_type_symbol
_atom_site_label
_atom_site_fract_x
_atom_site_fract_y
_atom_site_fract_z
Si Si1 0.124571 0.025554 0.354920
Si Si2 0.802871 0.426420 0.935927
Si Si3 0.382769 0.993554 0.431950
Si Si4 0.719590 0.207676 0.156649
Si Si5 0.981468 0.757108 0.252785
Si Si6 0.234787 0.308131 0.213264
Si Si7 0.631560 0.632014 0.375700
Si Si8 0.163679 0.491465 0.567813
O O1 0.093810 0.894730 0.255698
O O2 0.342098 0.242693 0.542235
O O3 0.000000 0.000000 0.500000
O O4 0.986636 0.911508 0.069948
O O5 0.776340 0.451892 0.173376
O O6 0.870957 0.565924 0.993592
O O7 0.578856 0.213681 0.639477
O O8 0.000000 0.500000 0.000000
O O9 0.500000 0.000000 0.500000
O O10 0.200280 0.904202 0.488020
O O11 0.269895 0.843408 0.102859
O O12 0.723232 0.330283 0.305611
O O13 0.916432 0.326808 0.376968
O O14 0.500000 0.000000 0.000000
O O15 0.808140 0.695423 0.316617
O O16 0.394348 0.409218 0.144275
O O17 0.315149 0.323918 0.380119
O O18 0.215437 0.414854 0.387719
#
# Coordination Sequence:
#
# PCOD9047425 Si02
#       8
#     2   2   2   2   2   2   2   2
#     4  10  24  44  66  99 135 173 228 285 339 409
#     4  12  23  42  70  97 139 183 226 281 339 411
#     4  12  24  42  68 103 137 178 233 282 342 413
#     4  11  25  43  67 100 139 183 228 278 344 411
#     4  11  24  43  68 101 137 182 227 282 348 404
#     4  11  23  44  71  98 137 177 232 280 348 406
#     4  10  24  45  69  99 131 182 227 285 340 407
#     4  11  24  43  66 100 138 179 228 282 339 410
#
# _framework density 24.044561999999999
#
# number of rings (size 3 to 8) (size 9 to 14) (size 15 to 20)
#    0.000    1.000    3.750    1.875    0.000   10.000 
#    2.250    0.000    0.000    0.000    0.000    0.000 
#    0.000    0.000    0.000    0.000    0.000    0.000 
#
# Total GULP energy -89321.102565 kJ/mol
# GULP energy per Si atom -5582.568910 kJ/mol
# Density = 2.398984 g / cm^3
# Si number density = 24.044562 Si / 1000 Ang^3
#
#
#
# Elastic Constant Matrix: (Units=GPa)
#
#
# Indices 1 2 3 4 5 6 
#
# 1 77.8041 26.5561 1.5471 10.6400 -18.7346 -12.0410
# 2 26.5561 107.0373 20.8270 35.8205 -15.4011 -13.9620
# 3 1.5471 20.8270 85.8895 13.5731 -7.3259 -9.4867
# 4 10.6400 35.8205 13.5731 51.5051 -8.3257 -4.9143
# 5 -18.7346 -15.4011 -7.3259 -8.3257 26.4067 7.3985
# 6 -12.0410 -13.9620 -9.4867 -4.9143 7.3985 46.4040
#
#
#
# Elastic Compliance Matrix: (Units=1/GPa)
#
#
# Indices 1 2 3 4 5 6 
#
# 1 0.016455 -0.002600 0.001446 -0.000164 0.009894 0.002188
# 2 -0.002600 0.013542 -0.001568 -0.007869 0.002626 0.001827
# 3 0.001446 -0.001568 0.012732 -0.001980 0.002487 0.001900
# 4 -0.000164 -0.007869 -0.001980 0.025886 0.003064 -0.000562
# 5 0.009894 0.002626 0.002487 0.003064 0.049095 -0.003637
# 6 0.002188 0.001827 0.001900 -0.000562 -0.003637 0.023576
#
#
# Mechanical properties :
#
#
# Convention : Reuss Voigt Hill
#
# Bulk Modulus (GPa) = 26.82021 40.95458 33.88740
# Shear Modulus (GPa) = 31.41524 39.64988 35.53256
#
# Velocity S-wave (km/s) = 3.61853 4.06521 3.84836
# Velocity P-wave (km/s) = 5.35135 6.25335 5.81985
#
# Compressibility (1/GPa) = 0.03728531
#
# Stress axis : x y z
#
# Youngs Moduli (GPa) = 60.77211 73.84303 78.54298
#
# Poissons Ratio (x) = 0.19198 -0.11354
# Poissons Ratio (y) = 0.15800 0.12312
# Poissons Ratio (z) = -0.08785 0.11575
#
# Static dielectric constant tensor:
#      x y z
#    x 2.233800 0.084280 0.249900 
#    y 0.084280 2.037200 0.057450 
#    z 0.249900 0.057450 2.267820 
# 
# From -- ./inp_files/279862.got.cif
#   From: 2010.05.17/outbox.cif.g08.bks.cpg/sg2_140_cif.got.tgz:279862.got - 2010.06.03 11:33:40.
