data_PCOD9047535
_publ_section_title
;
Structure prediction by ZEFSAII (Michael W. Deem and Ramdas Pophale) SiO2 
 PCOD9047535
Probable space group: P -1
;
_chemical_formula_sum "Si O2"
_cell_formula_units_Z 14
_cell_length_a 9.388939
_cell_length_b 11.631645
_cell_length_c 8.643057
_cell_angle_alpha 123.261576
_cell_angle_beta 129.986849
_cell_angle_gamma 61.067212
_cell_volume 591.885142
_symmetry_space_group_name_H-M "P -1"
_symmetry_group_IT_number 2
_symmetry_cell_setting 'triclinic'
loop_
_space_group_symop_operation_xyz
x,y,z
-x,-y,-z
loop_
_atom_site_type_symbol
_atom_site_label
_atom_site_fract_x
_atom_site_fract_y
_atom_site_fract_z
Si Si1 0.699212 0.989278 0.543584
Si Si2 0.847804 0.262373 0.867378
Si Si3 0.438839 0.986808 0.120510
Si Si4 0.439686 0.475027 0.261645
Si Si5 0.843313 0.471360 0.490330
Si Si6 0.100968 0.817976 0.797185
Si Si7 0.754691 0.718660 0.858968
O O1 0.737305 0.143085 0.652675
O O2 0.635028 0.921725 0.295338
O O3 0.500000 0.000000 0.500000
O O4 0.889918 0.911135 0.702627
O O5 0.733090 0.410590 0.838077
O O6 0.871403 0.248531 0.060287
O O7 0.056628 0.233809 0.919170
O O8 0.358581 0.152805 0.227029
O O9 0.500000 0.000000 0.000000
O O10 0.267894 0.904719 0.959900
O O11 0.500000 0.500000 0.500000
O O12 0.622245 0.489747 0.298686
O O13 0.372317 0.329046 0.130173
O O14 0.887631 0.302692 0.414488
O O15 0.834347 0.579684 0.706135
O O16 0.000000 0.500000 0.500000
#
# Coordination Sequence:
#
# PCOD9047535 Si02
#       7
#     2   2   2   2   2   2   2
#     4  12  25  45  79 109 152 199 250 318 385 445
#     4  12  23  44  79 108 143 200 255 314 377 452
#     4  12  27  51  79 111 152 201 256 315 380 458
#     4  10  24  44  68 101 144 196 247 302 377 442
#     4  11  24  43  71 107 151 191 245 308 370 451
#     4  12  26  46  72 119 151 189 260 310 377 458
#     4  11  23  50  74 105 152 198 247 313 381 446
#
# _framework density 23.653238000000002
#
# number of rings (size 3 to 8) (size 9 to 14) (size 15 to 20)
#    0.000    0.571    4.286    4.286    2.000    2.286 
#   10.286    0.000    0.000    0.000    0.000    0.000 
#    0.000    0.000    0.000    0.000    0.000    0.000 
#
# Total GULP energy -78153.562673 kJ/mol
# GULP energy per Si atom -5582.397334 kJ/mol
# Density = 2.359940 g / cm^3
# Si number density = 23.653238 Si / 1000 Ang^3
#
#
#
# Elastic Constant Matrix: (Units=GPa)
#
#
# Indices 1 2 3 4 5 6 
#
# 1 121.8995 21.5083 62.3333 -8.5257 40.1036 14.8714
# 2 21.5083 109.1304 41.6522 -3.8180 15.7975 16.4893
# 3 62.3333 41.6522 116.4941 -3.6447 31.7667 13.8438
# 4 -8.5257 -3.8180 -3.6447 57.3262 -0.4653 2.8956
# 5 40.1036 15.7975 31.7667 -0.4653 57.2365 8.7572
# 6 14.8714 16.4893 13.8438 2.8956 8.7572 34.8107
#
#
#
# Elastic Compliance Matrix: (Units=1/GPa)
#
#
# Indices 1 2 3 4 5 6 
#
# 1 0.013241 0.000751 -0.005330 0.001757 -0.006130 -0.002496
# 2 0.000751 0.011174 -0.003630 0.000819 -0.000978 -0.003992
# 3 -0.005330 -0.003630 0.013542 -0.000160 -0.002673 -0.000703
# 4 0.001757 0.000819 -0.000160 0.017861 -0.000865 -0.002343
# 5 -0.006130 -0.000978 -0.002673 -0.000865 0.023783 -0.001766
# 6 -0.002496 -0.003992 -0.000703 -0.002343 -0.001766 0.032603
#
#
# Mechanical properties :
#
#
# Convention : Reuss Voigt Hill
#
# Bulk Modulus (GPa) = 46.43094 66.50128 56.46611
# Shear Modulus (GPa) = 36.81830 44.67671 40.74751
#
# Velocity S-wave (km/s) = 3.94964 4.35077 4.15505
# Velocity P-wave (km/s) = 6.36176 7.30856 6.85153
#
# Compressibility (1/GPa) = 0.02153736
#
# Stress axis : x y z
#
# Youngs Moduli (GPa) = 75.52513 89.49002 73.84699
#
# Poissons Ratio (x) = -0.06719 0.39360
# Poissons Ratio (y) = -0.05670 0.26810
# Poissons Ratio (z) = 0.40255 0.32489
#
# Static dielectric constant tensor:
#      x y z
#    x 1.954250 -0.063860 -0.046700 
#    y -0.063860 1.940420 0.078520 
#    z -0.046700 0.078520 1.955090 
# 
# From -- ./inp_files/190438.got.cif
#   From: 2010.05.17/outbox.cif.g08.bks.cpg/sg2_96_cif.got.tgz:190438.got - 2010.06.03 11:33:40.
