data_PCOD9047329
_publ_section_title
;
Structure prediction by ZEFSAII (Michael W. Deem and Ramdas Pophale) SiO2 
 PCOD9047329
Probable space group: P -1
;
_chemical_formula_sum "Si O2"
_cell_formula_units_Z 16
_cell_length_a 24.736613
_cell_length_b 9.227208
_cell_length_c 18.472344
_cell_angle_alpha 34.324907
_cell_angle_beta 162.312934
_cell_angle_gamma 145.512195
_cell_volume 704.879468
_symmetry_space_group_name_H-M "P -1"
_symmetry_group_IT_number 2
_symmetry_cell_setting 'triclinic'
loop_
_space_group_symop_operation_xyz
x,y,z
-x,-y,-z
loop_
_atom_site_type_symbol
_atom_site_label
_atom_site_fract_x
_atom_site_fract_y
_atom_site_fract_z
Si Si1 0.553623 0.850430 0.702015
Si Si2 0.065885 0.466797 0.269402
Si Si3 0.707208 0.543127 0.722891
Si Si4 0.171249 0.996496 0.669514
Si Si5 0.634027 0.294823 0.053515
Si Si6 0.806886 0.326172 0.804121
Si Si7 0.270243 0.893575 0.450233
Si Si8 0.545171 0.257030 0.114525
O O1 0.436654 0.898514 0.603251
O O2 0.500000 0.000000 0.500000
O O3 0.759964 0.028564 0.896231
O O4 0.557098 0.544546 0.825258
O O5 0.153251 0.216810 0.496420
O O6 0.180189 0.639695 0.279405
O O7 0.114783 0.646499 0.328997
O O8 0.852107 0.390828 0.006643
O O9 0.500000 0.500000 0.500000
O O10 0.686892 0.476105 0.639223
O O11 0.797868 0.837403 0.743874
O O12 0.195091 0.738983 0.762926
O O13 0.351883 0.084648 0.912425
O O14 0.000000 0.000000 0.500000
O O15 0.659500 0.340679 0.152879
O O16 0.500000 0.000000 0.000000
O O17 0.000000 0.500000 0.000000
O O18 0.348089 0.876639 0.636441
O O19 0.500000 0.500000 0.000000
#
# Coordination Sequence:
#
# PCOD9047329 Si02
#       8
#     2   2   2   2   2   2   2   2
#     4  12  23  40  76 109 145 193 249 302 371 440
#     4  11  24  47  68 100 147 189 240 302 374 429
#     4  11  25  42  69 105 138 186 237 306 365 432
#     4  11  26  46  72 102 145 193 244 306 359 439
#     4  10  24  47  74 107 144 199 249 299 372 441
#     4  10  24  44  65 101 145 185 237 305 365 429
#     4  12  23  42  72 106 146 190 243 302 365 439
#     4  11  22  44  74 101 144 193 242 291 365 437
#
# _framework density 22.698915
#
# number of rings (size 3 to 8) (size 9 to 14) (size 15 to 20)
#    0.000    1.000    5.000    1.125    3.500    2.000 
#    4.500    0.625    0.000    0.000    0.000    0.000 
#    0.000    0.000    0.000    0.000    0.000    0.000 
#
# Total GULP energy -89199.031713 kJ/mol
# GULP energy per Si atom -5574.939482 kJ/mol
# Density = 2.264725 g / cm^3
# Si number density = 22.698915 Si / 1000 Ang^3
#
#
#
# Elastic Constant Matrix: (Units=GPa)
#
#
# Indices 1 2 3 4 5 6 
#
# 1 144.7730 23.4845 49.7328 -2.0031 10.6087 -11.6144
# 2 23.4845 87.7390 25.6620 -22.6411 -0.4986 -8.6679
# 3 49.7328 25.6620 103.9864 -0.4664 -15.2914 -4.2729
# 4 -2.0031 -22.6411 -0.4664 40.3086 -3.5085 5.9640
# 5 10.6087 -0.4986 -15.2914 -3.5085 39.2200 -1.0400
# 6 -11.6144 -8.6679 -4.2729 5.9640 -1.0400 40.8173
#
#
#
# Elastic Compliance Matrix: (Units=1/GPa)
#
#
# Indices 1 2 3 4 5 6 
#
# 1 0.009151 -0.001160 -0.004654 -0.000908 -0.004336 0.001893
# 2 -0.001160 0.014785 -0.002990 0.008024 0.000089 0.001326
# 3 -0.004654 -0.002990 0.013504 -0.001168 0.006376 -0.000213
# 4 -0.000908 0.008024 -0.001168 0.029915 0.002489 -0.002984
# 5 -0.004336 0.000089 0.006376 0.002489 0.029375 -0.000163
# 6 0.001893 0.001326 -0.000213 -0.002984 -0.000163 0.025729
#
#
# Mechanical properties :
#
#
# Convention : Reuss Voigt Hill
#
# Bulk Modulus (GPa) = 50.42663 59.36188 54.89426
# Shear Modulus (GPa) = 34.08791 39.91045 36.99918
#
# Velocity S-wave (km/s) = 3.87944 4.19770 4.04170
# Velocity P-wave (km/s) = 6.50618 7.05003 6.78356
#
# Compressibility (1/GPa) = 0.01983079
#
# Stress axis : x y z
#
# Youngs Moduli (GPa) = 109.27238 67.63805 74.05109
#
# Poissons Ratio (x) = 0.07847 0.34466
# Poissons Ratio (y) = 0.12678 0.22142
# Poissons Ratio (z) = 0.50859 0.20225
#
# Static dielectric constant tensor:
#      x y z
#    x 1.790370 0.045030 -0.060880 
#    y 0.045030 1.977040 0.132700 
#    z -0.060880 0.132700 1.901160 
# 
# From -- ./inp_files/579045.got.cif
#   From: 2010.05.17/outbox.cif.g08.bks.cpg/sg2_290_cif.got.tgz:579045.got - 2010.06.03 11:33:40.
