data_PCOD9047755
_publ_section_title
;
Structure prediction by ZEFSAII (Michael W. Deem and Ramdas Pophale) SiO2 
 PCOD9047755
Probable space group: P -1
;
_chemical_formula_sum "Si O2"
_cell_formula_units_Z 15
_cell_length_a 8.587414
_cell_length_b 18.206406
_cell_length_c 4.836722
_cell_angle_alpha 82.407601
_cell_angle_beta 80.156697
_cell_angle_gamma 127.062578
_cell_volume 567.332863
_symmetry_space_group_name_H-M "P -1"
_symmetry_group_IT_number 2
_symmetry_cell_setting 'triclinic'
loop_
_space_group_symop_operation_xyz
x,y,z
-x,-y,-z
loop_
_atom_site_type_symbol
_atom_site_label
_atom_site_fract_x
_atom_site_fract_y
_atom_site_fract_z
Si Si1 0.743320 0.205946 0.604843
Si Si2 0.847664 0.998339 0.349200
Si Si3 0.381434 0.737638 0.879156
Si Si4 0.229663 0.162930 0.921365
Si Si5 0.387402 0.360984 0.572482
Si Si6 0.202186 0.535318 0.261514
Si Si7 0.500000 0.000000 0.500000
Si Si8 0.180836 0.367080 0.145839
O O1 0.723970 0.230679 0.909918
O O2 0.975699 0.269519 0.388491
O O3 0.619222 0.094277 0.632867
O O4 0.646266 0.243074 0.431248
O O5 0.656385 0.980295 0.552229
O O6 0.777183 0.918195 0.184286
O O7 0.000000 0.000000 0.500000
O O8 0.993752 0.104729 0.114891
O O9 0.274982 0.626862 0.013313
O O10 0.612174 0.796600 0.893447
O O11 0.304201 0.252394 0.665915
O O12 0.614025 0.428106 0.598122
O O13 0.366436 0.390729 0.265587
O O14 0.237322 0.361221 0.823373
O O15 0.158718 0.447862 0.149225
O O16 0.000000 0.500000 0.500000
#
# Coordination Sequence:
#
# PCOD9047755 Si02
#       8
#     2   2   2   2   2   2   1   2
#     4  12  26  45  73 108 150 190 251 302 372 445
#     4  11  24  45  71 106 144 198 254 309 375 449
#     4  11  25  48  70 110 146 194 243 307 373 443
#     4  10  24  44  70 101 147 195 245 305 378 445
#     4  11  27  47  73 106 150 192 242 302 375 444
#     4  11  25  48  79 108 147 194 246 312 372 447
#     4  12  26  46  76 112 150 198 254 316 372 444
#     4  12  26  49  73 110 147 195 247 303 371 449
#
# _framework density 26.439506999999999
#
# number of rings (size 3 to 8) (size 9 to 14) (size 15 to 20)
#    0.000    0.800    2.667    3.200    3.733    5.333 
#    2.400    0.000    0.000    0.000    0.000    0.000 
#    0.000    0.000    0.000    0.000    0.000    0.000 
#
# Total GULP energy -84028.810311 kJ/mol
# GULP energy per Si atom -5601.920687 kJ/mol
# Density = 2.637933 g / cm^3
# Si number density = 26.439507 Si / 1000 Ang^3
#
#
#
# Elastic Constant Matrix: (Units=GPa)
#
#
# Indices 1 2 3 4 5 6 
#
# 1 119.8826 40.1000 20.0015 8.5703 -5.4763 -6.0788
# 2 40.1000 125.9919 20.9859 1.0835 -24.2479 -19.5233
# 3 20.0015 20.9859 80.3241 8.1393 -3.3545 1.6197
# 4 8.5703 1.0835 8.1393 32.4432 0.9856 -8.8649
# 5 -5.4763 -24.2479 -3.3545 0.9856 39.3410 4.1059
# 6 -6.0788 -19.5233 1.6197 -8.8649 4.1059 47.8043
#
#
#
# Elastic Compliance Matrix: (Units=1/GPa)
#
#
# Indices 1 2 3 4 5 6 
#
# 1 0.009691 -0.002972 -0.001433 -0.002165 -0.000521 -0.000290
# 2 -0.002972 0.010942 -0.002154 0.001888 0.005680 0.004026
# 3 -0.001433 -0.002154 0.013777 -0.003604 -0.000033 -0.002194
# 4 -0.002165 0.001888 -0.003604 0.034193 -0.001037 0.007048
# 5 -0.000521 0.005680 -0.000033 -0.001037 0.028914 -0.000421
# 6 -0.000290 0.004026 -0.002194 0.007048 -0.000421 0.023944
#
#
# Mechanical properties :
#
#
# Convention : Reuss Voigt Hill
#
# Bulk Modulus (GPa) = 46.96601 54.26372 50.61486
# Shear Modulus (GPa) = 35.29125 40.25845 37.77485
#
# Velocity S-wave (km/s) = 3.65744 3.90636 3.78395
# Velocity P-wave (km/s) = 5.96976 6.39645 6.18678
#
# Compressibility (1/GPa) = 0.02129199
#
# Stress axis : x y z
#
# Youngs Moduli (GPa) = 103.18797 91.38688 72.58291
#
# Poissons Ratio (x) = 0.27162 0.10403
# Poissons Ratio (y) = 0.30669 0.15635
# Poissons Ratio (z) = 0.14789 0.19685
#
# Static dielectric constant tensor:
#      x y z
#    x 2.003200 0.112200 -0.063260 
#    y 0.112200 2.006720 -0.056330 
#    z -0.063260 -0.056330 2.079300 
# 
# From -- ./inp_files/44624.got.cif
#   From: 2010.05.17/outbox.cif.g08.bks.cpg/sg2_23_cif.got.tgz:44624.got - 2010.06.03 11:33:40.
