data_PCOD9047522
_publ_section_title
;
Structure prediction by ZEFSAII (Michael W. Deem and Ramdas Pophale) SiO2 
 PCOD9047522
Probable space group: P -1
;
_chemical_formula_sum "Si O2"
_cell_formula_units_Z 12
_cell_length_a 13.400496
_cell_length_b 15.655408
_cell_length_c 5.940232
_cell_angle_alpha 78.579282
_cell_angle_beta 93.148970
_cell_angle_gamma 153.002183
_cell_volume 533.447627
_symmetry_space_group_name_H-M "P -1"
_symmetry_group_IT_number 2
_symmetry_cell_setting 'triclinic'
loop_
_space_group_symop_operation_xyz
x,y,z
-x,-y,-z
loop_
_atom_site_type_symbol
_atom_site_label
_atom_site_fract_x
_atom_site_fract_y
_atom_site_fract_z
Si Si1 0.218519 0.591499 0.254966
Si Si2 0.052717 0.940351 0.994653
Si Si3 0.393780 0.192151 0.539972
Si Si4 0.590048 0.901854 0.813706
Si Si5 0.558381 0.503356 0.253880
Si Si6 0.273490 0.814600 0.417148
O O1 0.386726 0.650885 0.353498
O O2 0.254037 0.710886 0.327189
O O3 0.956312 0.360162 0.370705
O O4 0.328313 0.691839 0.970818
O O5 0.146094 0.007032 0.718440
O O6 0.831167 0.714193 0.159647
O O7 0.263940 0.062376 0.084644
O O8 0.000000 0.000000 0.000000
O O9 0.391981 0.103349 0.442416
O O10 0.444678 0.319800 0.344730
O O11 0.703642 0.082690 0.793460
O O12 0.500000 0.500000 0.500000
O O13 0.500000 0.500000 0.000000
O O14 0.500000 0.000000 0.500000
#
# Coordination Sequence:
#
# PCOD9047522 Si02
#       6
#     2   2   2   2   2   2
#     4  10  24  44  68 100 140 178 233 289 356 435
#     4  11  24  44  69  95 136 186 235 290 356 422
#     4  11  24  44  68 101 138 183 235 294 356 425
#     4  11  24  42  69 100 138 179 235 293 352 428
#     4  12  27  44  68 101 140 188 243 299 359 427
#     4  11  22  45  69  99 138 181 229 289 362 431
#
# _framework density 22.495180999999999
#
# number of rings (size 3 to 8) (size 9 to 14) (size 15 to 20)
#    0.000    1.000    3.333    2.500    4.667    3.333 
#    3.000    0.000    0.000    0.000    0.000    0.000 
#    0.000    0.000    0.000    0.000    0.000    0.000 
#
# Total GULP energy -66922.808412 kJ/mol
# GULP energy per Si atom -5576.900701 kJ/mol
# Density = 2.244398 g / cm^3
# Si number density = 22.495181 Si / 1000 Ang^3
#
#
#
# Elastic Constant Matrix: (Units=GPa)
#
#
# Indices 1 2 3 4 5 6 
#
# 1 94.9429 11.5295 46.0125 -10.1839 2.2389 1.1514
# 2 11.5295 83.4108 43.5370 -30.2648 -17.1895 11.5491
# 3 46.0125 43.5370 120.5675 -40.3464 -24.7506 5.8380
# 4 -10.1839 -30.2648 -40.3464 45.2675 11.8409 -3.9685
# 5 2.2389 -17.1895 -24.7506 11.8409 36.5802 -16.6000
# 6 1.1514 11.5491 5.8380 -3.9685 -16.6000 34.3300
#
#
#
# Elastic Compliance Matrix: (Units=1/GPa)
#
#
# Indices 1 2 3 4 5 6 
#
# 1 0.013943 0.000272 -0.007103 -0.001625 -0.006145 -0.002510
# 2 0.000272 0.017388 -0.003121 0.008120 0.001822 -0.003508
# 3 -0.007103 -0.003121 0.016968 0.009377 0.009199 0.003935
# 4 -0.001625 0.008120 0.009377 0.035899 -0.001814 -0.000999
# 5 -0.006145 0.001822 0.009199 -0.001814 0.044059 0.019123
# 6 -0.002510 -0.003508 0.003935 -0.000999 0.019123 0.038856
#
#
# Mechanical properties :
#
#
# Convention : Reuss Voigt Hill
#
# Bulk Modulus (GPa) = 35.21899 55.67545 45.44722
# Shear Modulus (GPa) = 25.44766 36.42503 30.93635
#
# Velocity S-wave (km/s) = 3.36705 4.02834 3.71245
# Velocity P-wave (km/s) = 5.55034 6.81472 6.21477
#
# Compressibility (1/GPa) = 0.02839377
#
# Stress axis : x y z
#
# Youngs Moduli (GPa) = 71.72059 57.51075 58.93543
#
# Poissons Ratio (x) = -0.01563 0.41861
# Poissons Ratio (y) = -0.01949 0.18396
# Poissons Ratio (z) = 0.50943 0.17951
#
# Static dielectric constant tensor:
#      x y z
#    x 1.857250 -0.020530 0.059790 
#    y -0.020530 1.834530 0.078900 
#    z 0.059790 0.078900 2.009910 
# 
# From -- ./inp_files/5974.got.cif
#   From: 2010.05.17/outbox.cif.g08.bks.cpg/sg2_3_cif.got.tgz:5974.got - 2010.06.03 11:33:40.
