data_PCOD9047932
_publ_section_title
;
Structure prediction by ZEFSAII (Michael W. Deem and Ramdas Pophale) SiO2 
 PCOD9047932
Probable space group: P -1
;
_chemical_formula_sum "Si O2"
_cell_formula_units_Z 16
_cell_length_a 9.230426
_cell_length_b 8.665848
_cell_length_c 14.756814
_cell_angle_alpha 141.507306
_cell_angle_beta 78.344095
_cell_angle_gamma 100.864209
_cell_volume 718.649133
_symmetry_space_group_name_H-M "P -1"
_symmetry_group_IT_number 2
_symmetry_cell_setting 'triclinic'
loop_
_space_group_symop_operation_xyz
x,y,z
-x,-y,-z
loop_
_atom_site_type_symbol
_atom_site_label
_atom_site_fract_x
_atom_site_fract_y
_atom_site_fract_z
Si Si1 0.826366 0.996549 0.038064
Si Si2 0.647394 0.532259 0.819267
Si Si3 0.844776 0.487064 0.598352
Si Si4 0.095034 0.311768 0.844026
Si Si5 0.275048 0.877586 0.709379
Si Si6 0.671019 0.275480 0.034599
Si Si7 0.096470 0.147554 0.390746
Si Si8 0.387900 0.928582 0.254413
O O1 0.739556 0.067448 0.991571
O O2 0.781809 0.176366 0.207047
O O3 0.759499 0.723023 0.945754
O O4 0.000000 0.000000 0.000000
O O5 0.730713 0.487964 0.694660
O O6 0.492065 0.658861 0.884168
O O7 0.614110 0.287954 0.770554
O O8 0.895275 0.750687 0.668086
O O9 0.989490 0.338958 0.538617
O O10 0.768783 0.334704 0.454582
O O11 0.188497 0.117829 0.799257
O O12 0.216320 0.486355 0.858246
O O13 0.982190 0.126521 0.718623
O O14 0.000000 0.500000 0.000000
O O15 0.449528 0.944234 0.717391
O O16 0.658439 0.191742 0.892573
O O17 0.264860 0.120671 0.385550
#
# Coordination Sequence:
#
# PCOD9047932 Si02
#       8
#     2   2   2   2   2   2   2   2
#     4  12  28  42  72 108 140 181 244 291 346 414
#     4  12  26  46  70 104 145 185 234 288 350 421
#     4  10  26  49  70  98 145 191 230 286 346 422
#     4  11  21  40  72  99 135 182 227 284 348 403
#     4  11  25  47  69 104 142 186 237 283 349 420
#     4  12  24  44  70 106 145 180 230 299 352 401
#     4  10  24  44  71  96 139 186 232 280 355 406
#     4  12  24  44  73 103 140 186 233 292 349 412
#
# _framework density 22.263995999999999
#
# number of rings (size 3 to 8) (size 9 to 14) (size 15 to 20)
#    0.000    0.750    3.750    3.000   10.500    1.500 
#    0.000    0.000    0.000    0.000    0.000    0.000 
#    0.000    0.000    0.000    0.000    0.000    0.000 
#
# Total GULP energy -89528.524531 kJ/mol
# GULP energy per Si atom -5595.532783 kJ/mol
# Density = 2.221332 g / cm^3
# Si number density = 22.263996 Si / 1000 Ang^3
#
#
#
# Elastic Constant Matrix: (Units=GPa)
#
#
# Indices 1 2 3 4 5 6 
#
# 1 164.9009 35.4894 35.9086 -2.8106 -31.3750 31.6340
# 2 35.4894 77.5200 30.3376 -6.2111 -1.4064 23.5683
# 3 35.9086 30.3376 95.9332 -15.8316 -5.1414 16.3301
# 4 -2.8106 -6.2111 -15.8316 41.6164 3.0557 -4.2080
# 5 -31.3750 -1.4064 -5.1414 3.0557 36.6037 -2.0353
# 6 31.6340 23.5683 16.3301 -4.2080 -2.0353 42.2001
#
#
#
# Elastic Compliance Matrix: (Units=1/GPa)
#
#
# Indices 1 2 3 4 5 6 
#
# 1 0.009211 -0.002004 -0.001821 -0.001406 0.007409 -0.004864
# 2 -0.002004 0.017296 -0.003576 0.000542 -0.001979 -0.006815
# 3 -0.001821 -0.003576 0.013144 0.004231 -0.000278 -0.001315
# 4 -0.001406 0.000542 0.004231 0.025980 -0.002671 0.001576
# 5 0.007409 -0.001979 -0.000278 -0.002671 0.033612 -0.002986
# 6 -0.004864 -0.006815 -0.001315 0.001576 -0.002986 0.031671
#
#
# Mechanical properties :
#
#
# Convention : Reuss Voigt Hill
#
# Bulk Modulus (GPa) = 40.24310 60.20282 50.22296
# Shear Modulus (GPa) = 32.46781 39.85861 36.16321
#
# Velocity S-wave (km/s) = 3.82293 4.23575 4.03462
# Velocity P-wave (km/s) = 6.13197 7.14292 6.65666
#
# Compressibility (1/GPa) = 0.02484898
#
# Stress axis : x y z
#
# Youngs Moduli (GPa) = 108.56806 57.81570 76.08228
#
# Poissons Ratio (x) = 0.11584 0.13855
# Poissons Ratio (y) = 0.21753 0.27209
# Poissons Ratio (z) = 0.19770 0.20676
#
# Static dielectric constant tensor:
#      x y z
#    x 1.818770 -0.005180 0.011330 
#    y -0.005180 1.843440 0.019850 
#    z 0.011330 0.019850 1.844880 
# 
# From -- ./inp_files/262636.got.cif
#   From: 2010.05.17/outbox.cif.g08.bks.cpg/sg2_132_cif.got.tgz:262636.got - 2010.06.03 11:33:40.
