data_PCOD9047925
_publ_section_title
;
Structure prediction by ZEFSAII (Michael W. Deem and Ramdas Pophale) SiO2 
 PCOD9047925
Probable space group: P -1
;
_chemical_formula_sum "Si O2"
_cell_formula_units_Z 16
_cell_length_a 8.801874
_cell_length_b 11.606899
_cell_length_c 15.954421
_cell_angle_alpha 47.859208
_cell_angle_beta 130.657516
_cell_angle_gamma 141.920915
_cell_volume 717.758811
_symmetry_space_group_name_H-M "P -1"
_symmetry_group_IT_number 2
_symmetry_cell_setting 'triclinic'
loop_
_space_group_symop_operation_xyz
x,y,z
-x,-y,-z
loop_
_atom_site_type_symbol
_atom_site_label
_atom_site_fract_x
_atom_site_fract_y
_atom_site_fract_z
Si Si1 0.708250 0.122098 0.264207
Si Si2 0.637397 0.789996 0.168569
Si Si3 0.285672 0.076120 0.063017
Si Si4 0.446183 0.597190 0.690990
Si Si5 0.742152 0.175315 0.447789
Si Si6 0.007704 0.009136 0.340377
Si Si7 0.692493 0.670875 0.921892
Si Si8 0.049723 0.560339 0.086666
O O1 0.445169 0.998583 0.175734
O O2 0.688094 0.132904 0.350704
O O3 0.884773 0.349699 0.179663
O O4 0.842594 0.024325 0.339656
O O5 0.663190 0.617243 0.275080
O O6 0.870397 0.973947 0.217440
O O7 0.352788 0.695814 0.143612
O O8 0.637288 0.832134 0.048426
O O9 0.332157 0.169954 0.127954
O O10 0.000000 0.000000 0.000000
O O11 0.242108 0.635868 0.613200
O O12 0.569805 0.609119 0.818079
O O13 0.702682 0.785184 0.647028
O O14 0.967921 0.163364 0.553739
O O15 0.500000 0.000000 0.500000
O O16 0.500000 0.500000 0.000000
O O17 0.941684 0.680637 0.009794
O O18 0.000000 0.500000 0.000000
#
# Coordination Sequence:
#
# PCOD9047925 Si02
#       8
#     2   2   2   2   2   2   2   2
#     4  12  22  44  70  94 134 183 218 270 342 399
#     4  12  25  42  67 105 138 173 218 276 343 405
#     4  12  26  38  63 105 138 172 221 272 338 413
#     4  11  20  43  69  91 131 178 222 275 332 387
#     4  10  24  44  71  93 126 184 234 278 327 384
#     4  11  26  43  65  97 133 176 227 276 329 394
#     4  12  19  37  61  93 129 171 215 263 327 403
#     4  12  21  39  66 100 133 174 214 265 342 411
#
# _framework density 22.291612000000001
#
# number of rings (size 3 to 8) (size 9 to 14) (size 15 to 20)
#    0.000    0.500    7.500    1.125    3.500    1.000 
#    0.000    0.625    0.000    0.000    0.000    0.000 
#    0.000    0.000    0.000    0.000    0.000    0.000 
#
# Total GULP energy -89101.908393 kJ/mol
# GULP energy per Si atom -5568.869275 kJ/mol
# Density = 2.224087 g / cm^3
# Si number density = 22.291612 Si / 1000 Ang^3
#
#
#
# Elastic Constant Matrix: (Units=GPa)
#
#
# Indices 1 2 3 4 5 6 
#
# 1 149.1061 18.8382 63.3206 -7.6709 16.8312 -3.4918
# 2 18.8382 33.2350 13.8097 9.2902 -5.7360 -2.3671
# 3 63.3206 13.8097 119.2956 7.3682 12.2237 7.1517
# 4 -7.6709 9.2902 7.3682 23.5894 -4.9725 0.9758
# 5 16.8312 -5.7360 12.2237 -4.9725 49.4695 -2.3081
# 6 -3.4918 -2.3671 7.1517 0.9758 -2.3081 28.1533
#
#
#
# Elastic Compliance Matrix: (Units=1/GPa)
#
#
# Indices 1 2 3 4 5 6 
#
# 1 0.010201 -0.005806 -0.005031 0.006653 -0.002155 0.001648
# 2 -0.005806 0.039650 -0.001310 -0.016106 0.005462 0.003953
# 3 -0.005031 -0.001310 0.011962 -0.005141 -0.002088 -0.003766
# 4 0.006653 -0.016106 -0.005141 0.053052 0.002432 -0.000863
# 5 -0.002155 0.005462 -0.002088 0.002432 0.022457 0.002479
# 6 0.001648 0.003953 -0.003766 -0.000863 0.002479 0.037246
#
#
# Mechanical properties :
#
#
# Convention : Reuss Voigt Hill
#
# Bulk Modulus (GPa) = 26.65323 54.84154 40.74739
# Shear Modulus (GPa) = 23.65525 33.95367 28.80446
#
# Velocity S-wave (km/s) = 3.26110 3.90700 3.59857
# Velocity P-wave (km/s) = 5.11491 6.70881 5.96533
#
# Compressibility (1/GPa) = 0.03751890
#
# Stress axis : x y z
#
# Youngs Moduli (GPa) = 98.03094 25.22049 83.59798
#
# Poissons Ratio (x) = 0.14642 0.42061
# Poissons Ratio (y) = 0.56913 0.10953
# Poissons Ratio (z) = 0.49322 0.03304
#
# Static dielectric constant tensor:
#      x y z
#    x 1.821850 -0.010230 0.028870 
#    y -0.010230 1.864000 -0.057470 
#    z 0.028870 -0.057470 1.785360 
# 
# From -- ./inp_files/189344.got.cif
#   From: 2010.05.17/outbox.cif.g08.bks.cpg/sg2_95_cif.got.tgz:189344.got - 2010.06.03 11:33:40.
