data_PCOD9047271
_publ_section_title
;
Structure prediction by ZEFSAII (Michael W. Deem and Ramdas Pophale) SiO2 
 PCOD9047271
Probable space group: P -1
;
_chemical_formula_sum "Si O2"
_cell_formula_units_Z 15
_cell_length_a 19.759827
_cell_length_b 11.229350
_cell_length_c 9.535361
_cell_angle_alpha 26.156557
_cell_angle_beta 130.537906
_cell_angle_gamma 139.792068
_cell_volume 597.400707
_symmetry_space_group_name_H-M "P -1"
_symmetry_group_IT_number 2
_symmetry_cell_setting 'triclinic'
loop_
_space_group_symop_operation_xyz
x,y,z
-x,-y,-z
loop_
_atom_site_type_symbol
_atom_site_label
_atom_site_fract_x
_atom_site_fract_y
_atom_site_fract_z
Si Si1 0.092244 0.374141 0.046149
Si Si2 0.582833 0.602841 0.669653
Si Si3 0.500000 0.000000 0.000000
Si Si4 0.748128 0.282714 0.870256
Si Si5 0.037201 0.340607 0.399863
Si Si6 0.133222 0.559262 0.584269
Si Si7 0.735372 0.723210 0.993492
Si Si8 0.637832 0.613334 0.281211
O O1 0.199201 0.621904 0.008111
O O2 0.102302 0.445193 0.820527
O O3 0.054181 0.008404 0.403037
O O4 0.000260 0.417629 0.934846
O O5 0.574290 0.850390 0.297954
O O6 0.680556 0.740370 0.760754
O O7 0.479465 0.473154 0.765026
O O8 0.569149 0.308644 0.873779
O O9 0.848943 0.540266 0.638427
O O10 0.652100 0.340091 0.660245
O O11 0.713134 0.940201 0.122054
O O12 0.050371 0.341254 0.584546
O O13 0.162938 0.920485 0.223841
O O14 0.234841 0.539591 0.708500
O O15 0.667730 0.643654 0.127457
#
# Coordination Sequence:
#
# PCOD9047271 Si02
#       8
#     2   2   1   2   2   2   2   2
#     4  12  26  41  68 101 126 179 226 272 344 407
#     4  11  25  44  74  96 137 177 220 268 326 406
#     4  10  24  44  62 102 128 174 212 268 340 372
#     4  12  25  43  69  98 138 173 221 287 328 392
#     4  12  22  46  66  95 138 173 226 272 342 400
#     4  12  25  43  69  98 138 173 221 287 328 392
#     4  12  24  45  68  99 133 177 226 271 329 391
#     4  12  24  45  68  99 133 177 226 271 329 391
#
# _framework density 25.108772999999999
#
# number of rings (size 3 to 8) (size 9 to 14) (size 15 to 20)
#    0.000    0.267    2.667    6.800    0.000    6.400 
#    0.000    4.000    0.000    0.000    0.000    0.000 
#    0.000    0.000    0.000    0.000    0.000    0.000 
#
# Total GULP energy -83942.984261 kJ/mol
# GULP energy per Si atom -5596.198951 kJ/mol
# Density = 2.505162 g / cm^3
# Si number density = 25.108773 Si / 1000 Ang^3
#
#
#
# Elastic Constant Matrix: (Units=GPa)
#
#
# Indices 1 2 3 4 5 6 
#
# 1 79.8212 8.2364 -6.9184 -6.1130 7.9906 -20.1128
# 2 8.2364 132.8737 25.6658 -1.5779 13.3784 -16.5268
# 3 -6.9184 25.6658 98.8434 -18.0729 15.9969 -16.2412
# 4 -6.1130 -1.5779 -18.0729 39.0761 -6.9518 1.2899
# 5 7.9906 13.3784 15.9969 -6.9518 39.5350 4.9946
# 6 -20.1128 -16.5268 -16.2412 1.2899 4.9946 42.0660
#
#
#
# Elastic Compliance Matrix: (Units=1/GPa)
#
#
# Indices 1 2 3 4 5 6 
#
# 1 0.016235 0.000026 0.004281 0.003171 -0.005729 0.010008
# 2 0.000026 0.008463 -0.001375 -0.000906 -0.002874 0.003176
# 3 0.004281 -0.001375 0.014029 0.005789 -0.006001 0.007458
# 4 0.003171 -0.000906 0.005789 0.029035 0.002145 0.002250
# 5 -0.005729 -0.002874 -0.006001 0.002145 0.031492 -0.009990
# 6 0.010008 0.003176 0.007458 0.002250 -0.009990 0.033802
#
#
# Mechanical properties :
#
#
# Convention : Reuss Voigt Hill
#
# Bulk Modulus (GPa) = 22.42569 40.61178 31.51873
# Shear Modulus (GPa) = 35.19791 43.10572 39.15181
#
# Velocity S-wave (km/s) = 3.74815 4.14787 3.95307
# Velocity P-wave (km/s) = 5.26139 6.25694 5.78064
#
# Compressibility (1/GPa) = 0.04459172
#
# Stress axis : x y z
#
# Youngs Moduli (GPa) = 61.59699 118.15569 71.28264
#
# Poissons Ratio (x) = -0.00308 -0.30516
# Poissons Ratio (y) = -0.00160 0.09798
# Poissons Ratio (z) = -0.26370 0.16241
#
# Static dielectric constant tensor:
#      x y z
#    x 1.647690 -0.008210 0.156400 
#    y -0.008210 1.907230 0.035360 
#    z 0.156400 0.035360 1.825380 
# 
# From -- ./inp_files/343187.got.cif
#   From: 2010.05.17/outbox.cif.g08.bks.cpg/sg2_172_cif.got.tgz:343187.got - 2010.06.03 11:33:40.
