data_PCOD9047121
_publ_section_title
;
Structure prediction by ZEFSAII (Michael W. Deem and Ramdas Pophale) SiO2 
 PCOD9047121
Probable space group: P -1
;
_chemical_formula_sum "Si O2"
_cell_formula_units_Z 16
_cell_length_a 21.797689
_cell_length_b 11.533435
_cell_length_c 15.606891
_cell_angle_alpha 151.464453
_cell_angle_beta 156.426459
_cell_angle_gamma 30.379745
_cell_volume 714.849999
_symmetry_space_group_name_H-M "P -1"
_symmetry_group_IT_number 2
_symmetry_cell_setting 'triclinic'
loop_
_space_group_symop_operation_xyz
x,y,z
-x,-y,-z
loop_
_atom_site_type_symbol
_atom_site_label
_atom_site_fract_x
_atom_site_fract_y
_atom_site_fract_z
Si Si1 0.490193 0.922410 0.073221
Si Si2 0.758950 0.007747 0.702218
Si Si3 0.213697 0.163513 0.185438
Si Si4 0.365994 0.540226 0.553993
Si Si5 0.352453 0.508723 0.220805
Si Si6 0.881847 0.256269 0.768163
Si Si7 0.129426 0.228335 0.486390
Si Si8 0.546396 0.194524 0.859891
O O1 0.415002 0.203772 0.117938
O O2 0.481005 0.429234 0.547072
O O3 0.683687 0.830083 0.279567
O O4 0.413849 0.907555 0.058768
O O5 0.817965 0.920234 0.815186
O O6 0.860709 0.864385 0.659412
O O7 0.598554 0.913142 0.426628
O O8 0.741909 0.307785 0.858762
O O9 0.333064 0.337157 0.444494
O O10 0.304364 0.922451 0.087414
O O11 0.044173 0.325688 0.034286
O O12 0.446197 0.723000 0.825101
O O13 0.202029 0.686958 0.393112
O O14 0.245815 0.625277 0.242328
O O15 0.934098 0.956352 0.655790
O O16 0.000000 0.500000 0.500000
O O17 0.500000 0.500000 0.000000
#
# Coordination Sequence:
#
# PCOD9047121 Si02
#       8
#     2   2   2   2   2   2   2   2
#     4  11  25  44  75 102 134 189 236 293 337 413
#     4  10  24  43  72 103 134 188 233 285 344 422
#     4  12  26  46  69 102 148 182 228 297 353 413
#     4  12  24  45  72 103 137 185 241 279 349 423
#     4  11  23  45  72 100 136 179 245 280 342 423
#     4  11  26  44  69 104 136 188 228 292 358 403
#     4  10  24  44  70 106 144 179 230 291 352 410
#     4  11  24  42  67 100 136 184 235 280 349 417
#
# _framework density 22.38232
#
# number of rings (size 3 to 8) (size 9 to 14) (size 15 to 20)
#    0.000    1.000    2.500    3.000    7.000    3.000 
#    0.000    1.250    0.000    0.000    0.000    0.000 
#    0.000    0.000    0.000    0.000    0.000    0.000 
#
# Total GULP energy -89249.046606 kJ/mol
# GULP energy per Si atom -5578.065413 kJ/mol
# Density = 2.233138 g / cm^3
# Si number density = 22.382320 Si / 1000 Ang^3
#
#
#
# Elastic Constant Matrix: (Units=GPa)
#
#
# Indices 1 2 3 4 5 6 
#
# 1 94.7828 54.0495 41.1091 5.2607 -3.6086 16.6481
# 2 54.0495 153.0713 51.6864 24.7725 1.5210 11.3702
# 3 41.1091 51.6864 88.2442 5.5284 0.5766 5.3076
# 4 5.2607 24.7725 5.5284 29.8318 7.4678 8.1958
# 5 -3.6086 1.5210 0.5766 7.4678 25.9090 5.0068
# 6 16.6481 11.3702 5.3076 8.1958 5.0068 32.1908
#
#
#
# Elastic Compliance Matrix: (Units=1/GPa)
#
#
# Indices 1 2 3 4 5 6 
#
# 1 0.016240 -0.003945 -0.004993 0.002529 0.003294 -0.007338
# 2 -0.003945 0.010392 -0.003822 -0.007694 0.000988 0.000805
# 3 -0.004993 -0.003822 0.015759 0.001136 -0.001393 0.001261
# 4 0.002529 -0.007694 0.001136 0.044149 -0.010321 -0.008413
# 5 0.003294 0.000988 -0.001393 -0.010321 0.043144 -0.005905
# 6 -0.007338 0.000805 0.001261 -0.008413 -0.005905 0.037428
#
#
# Mechanical properties :
#
#
# Convention : Reuss Voigt Hill
#
# Bulk Modulus (GPa) = 59.27594 69.97647 64.62620
# Shear Modulus (GPa) = 25.22006 30.20323 27.71164
#
# Velocity S-wave (km/s) = 3.36040 3.67744 3.52249
# Velocity P-wave (km/s) = 6.44960 7.02591 6.74391
#
# Compressibility (1/GPa) = 0.01687025
#
# Stress axis : x y z
#
# Youngs Moduli (GPa) = 61.57738 96.22818 63.45647
#
# Poissons Ratio (x) = 0.37964 0.31685
# Poissons Ratio (y) = 0.24294 0.24251
# Poissons Ratio (z) = 0.30747 0.36776
#
# Static dielectric constant tensor:
#      x y z
#    x 1.830490 -0.013760 0.016520 
#    y -0.013760 1.904340 -0.034760 
#    z 0.016520 -0.034760 1.875850 
# 
# From -- ./inp_files/541021.got.cif
#   From: 2010.05.17/outbox.cif.g08.bks.cpg/sg2_271_cif.got.tgz:541021.got - 2010.06.03 11:33:40.
