data_PCOD9047360
_publ_section_title
;
Structure prediction by ZEFSAII (Michael W. Deem and Ramdas Pophale) SiO2 
 PCOD9047360
Probable space group: P -1
;
_chemical_formula_sum "Si O2"
_cell_formula_units_Z 16
_cell_length_a 13.979843
_cell_length_b 14.083004
_cell_length_c 8.542503
_cell_angle_alpha 149.254196
_cell_angle_beta 90.701983
_cell_angle_gamma 75.004551
_cell_volume 751.588081
_symmetry_space_group_name_H-M "P -1"
_symmetry_group_IT_number 2
_symmetry_cell_setting 'triclinic'
loop_
_space_group_symop_operation_xyz
x,y,z
-x,-y,-z
loop_
_atom_site_type_symbol
_atom_site_label
_atom_site_fract_x
_atom_site_fract_y
_atom_site_fract_z
Si Si1 0.259732 0.551263 0.067265
Si Si2 0.424576 0.660858 0.855043
Si Si3 0.119048 0.382511 0.909496
Si Si4 0.307027 0.060978 0.227215
Si Si5 0.262537 0.469012 0.619556
Si Si6 0.505020 0.814396 0.349243
Si Si7 0.122215 0.364018 0.245528
Si Si8 0.696044 0.087353 0.299040
O O1 0.287833 0.731755 0.363607
O O2 0.172352 0.535533 0.152547
O O3 0.202977 0.581199 0.938733
O O4 0.374757 0.330306 0.778939
O O5 0.500000 0.500000 0.500000
O O6 0.334005 0.585459 0.762798
O O7 0.481017 0.657498 0.016109
O O8 0.386887 0.897320 0.124824
O O9 0.198529 0.204639 0.532832
O O10 0.118568 0.317541 0.995954
O O11 0.000000 0.500000 0.000000
O O12 0.324056 0.223809 0.341466
O O13 0.312381 0.892646 0.859348
O O14 0.191973 0.472818 0.474095
O O15 0.408621 0.908448 0.610694
O O16 0.500000 0.000000 0.500000
O O17 0.000000 0.500000 0.500000
O O18 0.192079 0.130615 0.986193
#
# Coordination Sequence:
#
# PCOD9047360 Si02
#       8
#     2   2   2   2   2   2   2   2
#     4  11  23  43  67 101 136 176 228 279 338 406
#     4  12  26  40  65 102 140 181 233 271 337 411
#     4  11  24  48  72  95 134 173 226 288 346 405
#     4  10  24  44  66 100 138 178 226 276 346 396
#     4  10  24  44  65  98 138 177 228 278 341 398
#     4  12  25  42  68 101 140 184 225 277 342 408
#     4  11  24  47  73  96 132 177 229 281 347 405
#     4  11  23  42  69 100 138 176 224 280 340 402
#
# _framework density 21.288256000000001
#
# number of rings (size 3 to 8) (size 9 to 14) (size 15 to 20)
#    0.000    1.000    1.250    6.375    8.750    0.500 
#    2.250    2.500    0.000    0.000    0.000    0.000 
#    0.000    0.000    0.000    0.000    0.000    0.000 
#
# Total GULP energy -89079.463894 kJ/mol
# GULP energy per Si atom -5567.466493 kJ/mol
# Density = 2.123980 g / cm^3
# Si number density = 21.288256 Si / 1000 Ang^3
#
#
#
# Elastic Constant Matrix: (Units=GPa)
#
#
# Indices 1 2 3 4 5 6 
#
# 1 93.6909 27.3731 33.5681 5.7929 -0.7484 -14.8524
# 2 27.3731 69.5463 30.6670 -11.4814 -7.6609 -20.2232
# 3 33.5681 30.6670 94.6654 -19.2570 2.9203 -3.3340
# 4 5.7929 -11.4814 -19.2570 38.5745 1.3969 6.5752
# 5 -0.7484 -7.6609 2.9203 1.3969 35.2673 -6.3055
# 6 -14.8524 -20.2232 -3.3340 6.5752 -6.3055 37.0970
#
#
#
# Elastic Compliance Matrix: (Units=1/GPa)
#
#
# Indices 1 2 3 4 5 6 
#
# 1 0.014753 -0.002763 -0.005570 -0.006779 0.001397 0.005339
# 2 -0.002763 0.022462 -0.005703 0.002030 0.007269 0.011502
# 3 -0.005570 -0.005703 0.015988 0.008303 -0.004095 -0.006070
# 4 -0.006779 0.002030 0.008303 0.033031 -0.002991 -0.007224
# 5 0.001397 0.007269 -0.004095 -0.002991 0.032238 0.010164
# 6 0.005339 0.011502 -0.006070 -0.007224 0.010164 0.037826
#
#
# Mechanical properties :
#
#
# Convention : Reuss Voigt Hill
#
# Bulk Modulus (GPa) = 39.79393 49.01321 44.40357
# Shear Modulus (GPa) = 25.94059 33.27405 29.60732
#
# Velocity S-wave (km/s) = 3.49455 3.95780 3.73336
# Velocity P-wave (km/s) = 5.91743 6.63017 6.28391
#
# Compressibility (1/GPa) = 0.02512946
#
# Stress axis : x y z
#
# Youngs Moduli (GPa) = 67.78178 44.52042 62.54733
#
# Poissons Ratio (x) = 0.12303 0.34842
# Poissons Ratio (y) = 0.18730 0.35670
# Poissons Ratio (z) = 0.37757 0.25389
#
# Static dielectric constant tensor:
#      x y z
#    x 1.687530 -0.082040 0.019910 
#    y -0.082040 1.627450 -0.023710 
#    z 0.019910 -0.023710 1.823380 
# 
# From -- ./inp_files/274862.got.cif
#   From: 2010.05.17/outbox.cif.g08.bks.cpg/sg2_138_cif.got.tgz:274862.got - 2010.06.03 11:33:40.
