data_PCOD9047161
_publ_section_title
;
Structure prediction by ZEFSAII (Michael W. Deem and Ramdas Pophale) SiO2 
 PCOD9047161
Probable space group: P -1
;
_chemical_formula_sum "Si O2"
_cell_formula_units_Z 12
_cell_length_a 5.044057
_cell_length_b 15.294452
_cell_length_c 7.181179
_cell_angle_alpha 66.182169
_cell_angle_beta 73.321815
_cell_angle_gamma 100.244418
_cell_volume 457.410924
_symmetry_space_group_name_H-M "P -1"
_symmetry_group_IT_number 2
_symmetry_cell_setting 'triclinic'
loop_
_space_group_symop_operation_xyz
x,y,z
-x,-y,-z
loop_
_atom_site_type_symbol
_atom_site_label
_atom_site_fract_x
_atom_site_fract_y
_atom_site_fract_z
Si Si1 0.000913 0.253308 0.744281
Si Si2 0.234769 0.948288 0.238729
Si Si3 0.174508 0.450761 0.871554
Si Si4 0.960092 0.212481 0.190920
Si Si5 0.319736 0.094527 0.439053
Si Si6 0.632831 0.398725 0.626362
O O1 0.872231 0.172766 0.677031
O O2 0.801049 0.324707 0.723862
O O3 0.341025 0.327280 0.630645
O O4 0.955747 0.185413 0.996952
O O5 0.901378 0.954519 0.304903
O O6 0.332844 0.009499 0.361911
O O7 0.500000 0.000000 0.000000
O O8 0.510386 0.448762 0.779955
O O9 0.180684 0.513684 0.624820
O O10 0.000000 0.500000 0.000000
O O11 0.037355 0.332579 0.056752
O O12 0.634869 0.165788 0.373783
O O13 0.182811 0.168730 0.288176
#
# Coordination Sequence:
#
# PCOD9047161 Si02
#       6
#     2   2   2   2   2   2
#     4  11  24  45  75  97 145 182 225 284 344 400
#     4  11  26  47  73 103 135 187 229 278 351 408
#     4  10  24  43  73 100 140 182 229 277 346 403
#     4  11  24  47  70 103 142 177 227 289 338 404
#     4  11  27  47  68 105 142 174 232 288 333 416
#     4  10  25  47  65 107 139 179 230 283 331 413
#
# _framework density 26.234615999999999
#
# number of rings (size 3 to 8) (size 9 to 14) (size 15 to 20)
#    0.000    1.333    1.667    2.000    4.667   12.000 
#    0.000    8.333    0.000    0.000    0.000    0.000 
#    0.000    0.000    0.000    0.000    0.000    0.000 
#
# Total GULP energy -66907.139513 kJ/mol
# GULP energy per Si atom -5575.594959 kJ/mol
# Density = 2.617490 g / cm^3
# Si number density = 26.234616 Si / 1000 Ang^3
#
#
#
# Elastic Constant Matrix: (Units=GPa)
#
#
# Indices 1 2 3 4 5 6 
#
# 1 176.2606 69.3268 72.4157 -11.3058 3.1477 -14.4732
# 2 69.3268 157.4093 81.7099 1.8083 -4.5063 -26.6642
# 3 72.4157 81.7099 172.0126 3.3414 -35.3617 -16.0910
# 4 -11.3058 1.8083 3.3414 59.0253 -7.1177 -1.6244
# 5 3.1477 -4.5063 -35.3617 -7.1177 54.9549 -9.6730
# 6 -14.4732 -26.6642 -16.0910 -1.6244 -9.6730 47.6531
#
#
#
# Elastic Compliance Matrix: (Units=1/GPa)
#
#
# Indices 1 2 3 4 5 6 
#
# 1 0.007752 -0.002078 -0.002780 0.001431 -0.002245 -0.000154
# 2 -0.002078 0.009677 -0.003571 -0.000502 -0.000854 0.003387
# 3 -0.002780 -0.003571 0.010270 -0.000128 0.006811 0.002004
# 4 0.001431 -0.000502 -0.000128 0.017545 0.002273 0.001170
# 5 -0.002245 -0.000854 0.006811 0.002273 0.024004 0.006090
# 6 -0.000154 0.003387 0.002004 0.001170 0.006090 0.024786
#
#
# Mechanical properties :
#
#
# Convention : Reuss Voigt Hill
#
# Bulk Modulus (GPa) = 92.24027 105.84305 99.04166
# Shear Modulus (GPa) = 43.66555 51.14200 47.40377
#
# Velocity S-wave (km/s) = 4.08416 4.42000 4.25540
# Velocity P-wave (km/s) = 7.58133 8.15358 7.87266
#
# Compressibility (1/GPa) = 0.01084125
#
# Stress axis : x y z
#
# Youngs Moduli (GPa) = 128.99574 103.34125 97.36681
#
# Poissons Ratio (x) = 0.21472 0.27072
# Poissons Ratio (y) = 0.26802 0.34768
# Poissons Ratio (z) = 0.35866 0.36902
#
# Static dielectric constant tensor:
#      x y z
#    x 2.210300 0.029760 0.029210 
#    y 0.029760 2.128010 0.057040 
#    z 0.029210 0.057040 2.163630 
# 
# From -- ./inp_files/134883.got.cif
#   From: 2010.05.17/outbox.cif.g08.bks.cpg/sg2_68_cif.got.tgz:134883.got - 2010.06.03 11:33:40.
