data_PCOD9047150
_publ_section_title
;
Structure prediction by ZEFSAII (Michael W. Deem and Ramdas Pophale) SiO2 
 PCOD9047150
Probable space group: P -1
;
_chemical_formula_sum "Si O2"
_cell_formula_units_Z 16
_cell_length_a 14.865096
_cell_length_b 9.437387
_cell_length_c 9.300921
_cell_angle_alpha 77.921443
_cell_angle_beta 50.177194
_cell_angle_gamma 107.349642
_cell_volume 801.402477
_symmetry_space_group_name_H-M "P -1"
_symmetry_group_IT_number 2
_symmetry_cell_setting 'triclinic'
loop_
_space_group_symop_operation_xyz
x,y,z
-x,-y,-z
loop_
_atom_site_type_symbol
_atom_site_label
_atom_site_fract_x
_atom_site_fract_y
_atom_site_fract_z
Si Si1 0.349381 0.475819 0.171743
Si Si2 0.620416 0.997773 0.199526
Si Si3 0.128630 0.780074 0.599958
Si Si4 0.820232 0.884243 0.058712
Si Si5 0.355301 0.815301 0.141301
Si Si6 0.693544 0.233509 0.341969
Si Si7 0.846621 0.880639 0.370927
Si Si8 0.204902 0.428633 0.021863
O O1 0.365935 0.650091 0.180305
O O2 0.245382 0.304087 0.412627
O O3 0.282061 0.447703 0.088073
O O4 0.500000 0.500000 0.000000
O O5 0.712559 0.921835 0.091380
O O6 0.450766 0.848843 0.400485
O O7 0.660250 0.077610 0.301790
O O8 0.661582 0.153565 0.014692
O O9 0.225825 0.792118 0.368412
O O10 0.174851 0.714728 0.702372
O O11 0.961367 0.650559 0.764544
O O12 0.163211 0.970997 0.569552
O O13 0.799614 0.863089 0.256505
O O14 0.795258 0.711546 0.050147
O O15 0.985527 0.042611 0.824742
O O16 0.500000 0.000000 0.000000
O O17 0.722523 0.391937 0.180459
#
# Coordination Sequence:
#
# PCOD9047150 Si02
#       8
#     2   2   2   2   2   2   2   2
#     4  12  29  45  67  97 141 172 219 279 331 403
#     4  11  24  41  72  93 132 178 225 273 331 392
#     4  11  24  44  71  95 139 175 221 277 326 400
#     4  10  24  43  72  96 132 174 226 270 327 399
#     4  12  26  45  68 100 129 179 223 270 340 394
#     4  11  23  44  67  97 135 174 224 281 328 383
#     4  10  24  46  66 100 134 178 216 273 335 384
#     4  11  27  44  66 103 131 179 221 273 338 391
#
# _framework density 19.964998999999999
#
# number of rings (size 3 to 8) (size 9 to 14) (size 15 to 20)
#    0.000    1.000    3.750    1.125    8.750    3.000 
#    0.000    0.000    0.000    0.000    0.000    0.000 
#    0.000    0.000    0.000    0.000    0.000    0.000 
#
# Total GULP energy -89465.153673 kJ/mol
# GULP energy per Si atom -5591.572105 kJ/mol
# Density = 1.991956 g / cm^3
# Si number density = 19.964999 Si / 1000 Ang^3
#
#
#
# Elastic Constant Matrix: (Units=GPa)
#
#
# Indices 1 2 3 4 5 6 
#
# 1 126.4443 34.1982 54.6541 1.0356 -1.2780 -11.8802
# 2 34.1982 92.6633 71.2796 -2.0445 -7.2652 -15.9353
# 3 54.6541 71.2796 140.5138 -7.2481 11.6468 -21.7246
# 4 1.0356 -2.0445 -7.2481 33.4905 -9.6242 2.7523
# 5 -1.2780 -7.2652 11.6468 -9.6242 21.2752 3.4796
# 6 -11.8802 -15.9353 -21.7246 2.7523 3.4796 36.1066
#
#
#
# Elastic Compliance Matrix: (Units=1/GPa)
#
#
# Indices 1 2 3 4 5 6 
#
# 1 0.009694 -0.000579 -0.003571 -0.000596 0.001965 0.000641
# 2 -0.000579 0.021167 -0.011488 0.003014 0.014750 0.000588
# 3 -0.003571 -0.011488 0.016241 -0.001695 -0.014624 0.005065
# 4 -0.000596 0.003014 -0.001695 0.035417 0.018660 -0.004383
# 5 0.001965 0.014750 -0.014624 0.018660 0.070212 -0.009831
# 6 0.000641 0.000588 0.005065 -0.004383 -0.009831 0.032495
#
#
# Mechanical properties :
#
#
# Convention : Reuss Voigt Hill
#
# Bulk Modulus (GPa) = 63.19356 75.54279 69.36818
# Shear Modulus (GPa) = 22.54492 31.47377 27.00935
#
# Velocity S-wave (km/s) = 3.36404 3.97476 3.68208
# Velocity P-wave (km/s) = 6.84177 7.68015 7.27305
#
# Compressibility (1/GPa) = 0.01582440
#
# Stress axis : x y z
#
# Youngs Moduli (GPa) = 103.15795 47.24380 61.57139
#
# Poissons Ratio (x) = 0.02738 0.21987
# Poissons Ratio (y) = 0.05978 0.70735
# Poissons Ratio (z) = 0.36838 0.54275
#
# Static dielectric constant tensor:
#      x y z
#    x 1.698430 0.022390 0.000570 
#    y 0.022390 1.689300 0.014100 
#    z 0.000570 0.014100 1.677490 
# 
# From -- ./inp_files/205721.got.cif
#   From: 2010.05.17/outbox.cif.g08.bks.cpg/sg2_103_cif.got.tgz:205721.got - 2010.06.03 11:33:40.
