data_PCOD9047784
_publ_section_title
;
Structure prediction by ZEFSAII (Michael W. Deem and Ramdas Pophale) SiO2 
 PCOD9047784
Probable space group: P -1
;
_chemical_formula_sum "Si O2"
_cell_formula_units_Z 14
_cell_length_a 11.402941
_cell_length_b 13.242532
_cell_length_c 11.339507
_cell_angle_alpha 52.266944
_cell_angle_beta 39.883580
_cell_angle_gamma 32.829036
_cell_volume 592.596473
_symmetry_space_group_name_H-M "P -1"
_symmetry_group_IT_number 2
_symmetry_cell_setting 'triclinic'
loop_
_space_group_symop_operation_xyz
x,y,z
-x,-y,-z
loop_
_atom_site_type_symbol
_atom_site_label
_atom_site_fract_x
_atom_site_fract_y
_atom_site_fract_z
Si Si1 0.940690 0.235149 0.664590
Si Si2 0.945706 0.674329 0.888077
Si Si3 0.232008 0.915186 0.475657
Si Si4 0.308087 0.708907 0.947590
Si Si5 0.385656 0.595360 0.716454
Si Si6 0.522993 0.011315 0.129042
Si Si7 0.574124 0.850036 0.641490
O O1 0.662405 0.401052 0.693032
O O2 0.105138 0.285188 0.505066
O O3 0.905355 0.184522 0.856075
O O4 0.100975 0.059059 0.581850
O O5 0.242716 0.577528 0.744976
O O6 0.741974 0.778471 0.860880
O O7 0.785495 0.866329 0.950802
O O8 0.000000 0.500000 0.000000
O O9 0.399779 0.718003 0.546046
O O10 0.436864 0.907765 0.264848
O O11 0.000000 0.000000 0.500000
O O12 0.223960 0.705592 0.885050
O O13 0.473722 0.756526 0.767398
O O14 0.500000 0.500000 0.000000
O O15 0.562336 0.039519 0.209384
O O16 0.500000 0.000000 0.500000
#
# Coordination Sequence:
#
# PCOD9047784 Si02
#       7
#     2   2   2   2   2   2   2
#     4  10  26  45  70 105 143 182 232 295 349 420
#     4  11  26  43  70 100 138 182 230 288 350 411
#     4  11  23  43  67  96 137 181 229 281 344 412
#     4  10  24  44  70 104 138 182 235 292 351 418
#     4  11  25  44  69 104 132 183 232 283 353 411
#     4  10  25  45  66 103 134 182 232 285 345 425
#     4  11  25  46  73 105 143 188 232 289 362 420
#
# _framework density 23.624845000000001
#
# number of rings (size 3 to 8) (size 9 to 14) (size 15 to 20)
#    0.000    1.429    1.429    1.714   10.000    6.286 
#    0.000    0.000    0.000    0.000    0.000    0.000 
#    0.000    0.000    0.000    0.000    0.000    0.000 
#
# Total GULP energy -78060.464323 kJ/mol
# GULP energy per Si atom -5575.747452 kJ/mol
# Density = 2.357107 g / cm^3
# Si number density = 23.624845 Si / 1000 Ang^3
#
#
#
# Elastic Constant Matrix: (Units=GPa)
#
#
# Indices 1 2 3 4 5 6 
#
# 1 73.3513 33.9571 15.7834 -3.0351 5.9723 -1.9197
# 2 33.9571 103.1037 35.5826 -30.4262 -10.2331 -18.7309
# 3 15.7834 35.5826 76.0007 -12.7632 -0.5888 2.5063
# 4 -3.0351 -30.4262 -12.7632 47.5609 1.7662 -0.2313
# 5 5.9723 -10.2331 -0.5888 1.7662 44.4910 -4.6159
# 6 -1.9197 -18.7309 2.5063 -0.2313 -4.6159 34.2411
#
#
#
# Elastic Compliance Matrix: (Units=1/GPa)
#
#
# Indices 1 2 3 4 5 6 
#
# 1 0.017493 -0.007901 -0.000498 -0.003926 -0.004423 -0.003927
# 2 -0.007901 0.020615 -0.006561 0.010739 0.006562 0.012272
# 3 -0.000498 -0.006561 0.016528 0.000247 -0.001759 -0.005062
# 4 -0.003926 0.010739 0.000247 0.027647 0.002543 0.006166
# 5 -0.004423 0.006562 -0.001759 0.002543 0.025169 0.006881
# 6 -0.003927 0.012272 -0.005062 0.006166 0.006881 0.037037
#
#
# Mechanical properties :
#
#
# Convention : Reuss Voigt Hill
#
# Bulk Modulus (GPa) = 40.45974 47.01134 43.73554
# Shear Modulus (GPa) = 27.37505 36.40077 31.88791
#
# Velocity S-wave (km/s) = 3.40772 3.92954 3.67790
# Velocity P-wave (km/s) = 5.71371 6.36637 6.04885
#
# Compressibility (1/GPa) = 0.02471593
#
# Stress axis : x y z
#
# Youngs Moduli (GPa) = 57.16720 48.50740 60.50365
#
# Poissons Ratio (x) = 0.38324 0.03013
# Poissons Ratio (y) = 0.45165 0.39699
# Poissons Ratio (z) = 0.02847 0.31828
#
# Static dielectric constant tensor:
#      x y z
#    x 1.928420 0.010440 0.039980 
#    y 0.010440 2.299850 0.207810 
#    z 0.039980 0.207810 1.940100 
# 
# From -- ./inp_files/432542.got.cif
#   From: 2010.05.17/outbox.cif.g08.bks.cpg/sg2_217_cif.got.tgz:432542.got - 2010.06.03 11:33:40.
