data_PCOD9047041
_publ_section_title
;
Structure prediction by ZEFSAII (Michael W. Deem and Ramdas Pophale) SiO2 
 PCOD9047041
Probable space group: P -1
;
_chemical_formula_sum "Si O2"
_cell_formula_units_Z 16
_cell_length_a 12.785352
_cell_length_b 9.232796
_cell_length_c 12.894007
_cell_angle_alpha 129.048743
_cell_angle_beta 133.872138
_cell_angle_gamma 86.057098
_cell_volume 642.376692
_symmetry_space_group_name_H-M "P -1"
_symmetry_group_IT_number 2
_symmetry_cell_setting 'triclinic'
loop_
_space_group_symop_operation_xyz
x,y,z
-x,-y,-z
loop_
_atom_site_type_symbol
_atom_site_label
_atom_site_fract_x
_atom_site_fract_y
_atom_site_fract_z
Si Si1 0.211734 0.771876 0.257042
Si Si2 0.279178 0.268502 0.227412
Si Si3 0.153027 0.766242 0.592286
Si Si4 0.780495 0.654906 0.220470
Si Si5 0.229249 0.201575 0.391245
Si Si6 0.921298 0.218709 0.223565
Si Si7 0.596283 0.889418 0.254610
Si Si8 0.329225 0.484052 0.145586
O O1 0.332651 0.710814 0.256863
O O2 0.195452 0.952697 0.266501
O O3 0.314337 0.916346 0.501357
O O4 0.000000 0.500000 0.000000
O O5 0.500000 0.500000 0.500000
O O6 0.188525 0.234827 0.260729
O O7 0.232835 0.335314 0.119144
O O8 0.234476 0.016351 0.059176
O O9 0.178504 0.797346 0.747108
O O10 0.993398 0.781999 0.456852
O O11 0.040761 0.479238 0.366740
O O12 0.340354 0.955384 0.737513
O O13 0.700635 0.774502 0.272456
O O14 0.627525 0.357260 0.003818
O O15 0.774993 0.667742 0.097837
O O16 0.454793 0.415562 0.666552
O O17 0.085613 0.205186 0.360423
#
# Coordination Sequence:
#
# PCOD9047041 Si02
#       8
#     2   2   2   2   2   2   2   2
#     4  12  25  41  71 108 143 184 239 301 360 423
#     4  10  24  43  70  98 140 190 231 288 358 429
#     4  11  26  46  72 104 144 190 240 307 349 434
#     4  11  24  46  76 104 145 189 240 300 366 425
#     4  11  24  44  70  99 147 185 231 293 359 431
#     4  11  25  47  68 101 144 189 242 289 367 429
#     4  11  25  43  72 107 144 182 241 296 367 426
#     4  11  24  44  71 108 141 182 242 299 354 428
#
# _framework density 24.907502999999998
#
# number of rings (size 3 to 8) (size 9 to 14) (size 15 to 20)
#    0.000    1.000    1.250    4.125    7.000    1.000 
#    2.250    1.250    0.000    0.000    0.000    0.000 
#    0.000    0.000    0.000    0.000    0.000    0.000 
#
# Total GULP energy -89591.481448 kJ/mol
# GULP energy per Si atom -5599.467591 kJ/mol
# Density = 2.485081 g / cm^3
# Si number density = 24.907503 Si / 1000 Ang^3
#
#
#
# Elastic Constant Matrix: (Units=GPa)
#
#
# Indices 1 2 3 4 5 6 
#
# 1 77.8606 19.6641 25.8909 6.7528 -11.0410 9.3481
# 2 19.6641 83.2987 10.3238 23.6055 7.8194 21.3127
# 3 25.8909 10.3238 107.7898 27.1516 -4.1672 1.6236
# 4 6.7528 23.6055 27.1516 33.8385 -5.8567 0.7775
# 5 -11.0410 7.8194 -4.1672 -5.8567 37.8290 6.1300
# 6 9.3481 21.3127 1.6236 0.7775 6.1300 48.9509
#
#
#
# Elastic Compliance Matrix: (Units=1/GPa)
#
#
# Indices 1 2 3 4 5 6 
#
# 1 0.016172 -0.004751 -0.004344 0.004690 0.006230 -0.001731
# 2 -0.004751 0.019687 0.003222 -0.016350 -0.006548 -0.006692
# 3 -0.004344 0.003222 0.013005 -0.012202 -0.002306 -0.000522
# 4 0.004690 -0.016350 -0.012202 0.051556 0.010661 0.004474
# 5 0.006230 -0.006548 -0.002306 0.010661 0.031386 -0.002362
# 6 -0.001731 -0.006692 -0.000522 0.004474 -0.002362 0.023915
#
#
# Mechanical properties :
#
#
# Convention : Reuss Voigt Hill
#
# Bulk Modulus (GPa) = 26.94085 42.30076 34.62081
# Shear Modulus (GPa) = 27.80262 38.32836 33.06549
#
# Velocity S-wave (km/s) = 3.34463 3.92705 3.64748
# Velocity P-wave (km/s) = 5.07497 6.13044 5.62750
#
# Compressibility (1/GPa) = 0.03711835
#
# Stress axis : x y z
#
# Youngs Moduli (GPa) = 61.83433 50.79389 76.89583
#
# Poissons Ratio (x) = 0.24130 0.33404
# Poissons Ratio (y) = 0.29375 -0.24773
# Poissons Ratio (z) = 0.26861 -0.16364
#
# Static dielectric constant tensor:
#      x y z
#    x 1.939950 0.016180 0.011540 
#    y 0.016180 2.044320 0.029560 
#    z 0.011540 0.029560 1.965510 
# 
# From -- ./inp_files/530165.got.cif
#   From: 2010.05.17/outbox.cif.g08.bks.cpg/sg2_266_cif.got.tgz:530165.got - 2010.06.03 11:33:40.
