data_PCOD9047811
_publ_section_title
;
Structure prediction by ZEFSAII (Michael W. Deem and Ramdas Pophale) SiO2 
 PCOD9047811
Probable space group: P -1
;
_chemical_formula_sum "Si O2"
_cell_formula_units_Z 13
_cell_length_a 8.774829
_cell_length_b 5.624854
_cell_length_c 11.753537
_cell_angle_alpha 72.931785
_cell_angle_beta 118.178997
_cell_angle_gamma 85.205772
_cell_volume 471.542082
_symmetry_space_group_name_H-M "P -1"
_symmetry_group_IT_number 2
_symmetry_cell_setting 'triclinic'
loop_
_space_group_symop_operation_xyz
x,y,z
-x,-y,-z
loop_
_atom_site_type_symbol
_atom_site_label
_atom_site_fract_x
_atom_site_fract_y
_atom_site_fract_z
Si Si1 0.500000 0.000000 0.500000
Si Si2 0.286586 0.909766 0.140333
Si Si3 0.609277 0.462363 0.362007
Si Si4 0.854255 0.807833 0.359695
Si Si5 0.873719 0.904548 0.624644
Si Si6 0.475237 0.744429 0.877890
Si Si7 0.045226 0.727617 0.915145
O O1 0.605187 0.233421 0.479870
O O2 0.302120 0.181363 0.380767
O O3 0.457130 0.730894 0.293811
O O4 0.354524 0.140388 0.078270
O O5 0.119189 0.020863 0.147997
O O6 0.218762 0.770870 0.031422
O O7 0.547687 0.348960 0.243248
O O8 0.787189 0.549367 0.378427
O O9 0.696298 0.009210 0.206511
O O10 0.035796 0.852828 0.366922
O O11 0.855157 0.875661 0.485477
O O12 0.031434 0.697405 0.779488
O O13 0.500000 0.500000 0.000000
O O14 0.000000 0.500000 0.000000
#
# Coordination Sequence:
#
# PCOD9047811 Si02
#       7
#     1   2   2   2   2   2   2
#     4  12  24  48  72 100 142 192 238 304 356 430
#     4  10  24  44  70 110 140 190 239 298 371 419
#     4  11  25  48  73 104 146 186 249 303 361 442
#     4  10  26  49  69 108 144 192 242 303 373 423
#     4  11  25  47  72 104 148 188 245 303 363 436
#     4  11  24  44  74 101 141 190 244 296 361 439
#     4  11  24  45  71 107 148 187 244 299 362 441
#
# _framework density 27.569119000000001
#
# number of rings (size 3 to 8) (size 9 to 14) (size 15 to 20)
#    0.000    1.231    1.538    2.769    8.615    2.462 
#    8.308    0.000    0.000    0.000    0.000    0.000 
#    0.000    0.000    0.000    0.000    0.000    0.000 
#
# Total GULP energy -72466.992154 kJ/mol
# GULP energy per Si atom -5574.384012 kJ/mol
# Density = 2.750637 g / cm^3
# Si number density = 27.569119 Si / 1000 Ang^3
#
#
#
# Elastic Constant Matrix: (Units=GPa)
#
#
# Indices 1 2 3 4 5 6 
#
# 1 159.8348 58.7971 27.0708 9.0808 25.7124 55.0655
# 2 58.7971 118.5955 13.5345 -11.0803 -1.9660 65.9339
# 3 27.0708 13.5345 82.9011 2.3167 -21.4374 35.5244
# 4 9.0808 -11.0803 2.3167 57.6170 13.4298 8.3710
# 5 25.7124 -1.9660 -21.4374 13.4298 43.1580 6.6689
# 6 55.0655 65.9339 35.5244 8.3710 6.6689 74.1006
#
#
#
# Elastic Compliance Matrix: (Units=1/GPa)
#
#
# Indices 1 2 3 4 5 6 
#
# 1 0.010199 -0.004083 -0.004282 -0.000151 -0.008166 -0.001142
# 2 -0.004083 0.023889 0.010843 0.005893 0.010947 -0.025072
# 3 -0.004282 0.010843 0.025146 0.000365 0.018549 -0.020231
# 4 -0.000151 0.005893 0.000365 0.020659 -0.004775 -0.007210
# 5 -0.008166 0.010947 0.018549 -0.004775 0.041671 -0.015775
# 6 -0.001142 -0.025072 -0.020231 -0.007210 -0.015775 0.048585
#
#
# Mechanical properties :
#
#
# Convention : Reuss Voigt Hill
#
# Bulk Modulus (GPa) = 15.57863 62.23734 38.90799
# Shear Modulus (GPa) = 26.79651 52.43704 39.61677
#
# Velocity S-wave (km/s) = 3.12103 4.36595 3.79489
# Velocity P-wave (km/s) = 4.31866 6.93104 5.77452
#
# Compressibility (1/GPa) = 0.06419049
#
# Stress axis : x y z
#
# Youngs Moduli (GPa) = 98.04824 41.85961 39.76699
#
# Poissons Ratio (x) = 0.17090 0.17029
# Poissons Ratio (y) = 0.40029 -0.43118
# Poissons Ratio (z) = 0.41986 -0.45386
#
# Static dielectric constant tensor:
#      x y z
#    x 2.753310 -0.169380 0.372390 
#    y -0.169380 2.255160 -0.026190 
#    z 0.372390 -0.026190 2.552650 
# 
# From -- ./inp_files/360360.got.cif
#   From: 2010.05.17/outbox.cif.g08.bks.cpg/sg2_181_cif.got.tgz:360360.got - 2010.06.03 11:33:40.
