data_PCOD9047493
_publ_section_title
;
Structure prediction by ZEFSAII (Michael W. Deem and Ramdas Pophale) SiO2 
 PCOD9047493
Probable space group: P -1
;
_chemical_formula_sum "Si O2"
_cell_formula_units_Z 16
_cell_length_a 8.908118
_cell_length_b 24.405464
_cell_length_c 5.084753
_cell_angle_alpha 116.170918
_cell_angle_beta 93.846281
_cell_angle_gamma 41.403157
_cell_volume 587.815339
_symmetry_space_group_name_H-M "P -1"
_symmetry_group_IT_number 2
_symmetry_cell_setting 'triclinic'
loop_
_space_group_symop_operation_xyz
x,y,z
-x,-y,-z
loop_
_atom_site_type_symbol
_atom_site_label
_atom_site_fract_x
_atom_site_fract_y
_atom_site_fract_z
Si Si1 0.779963 0.317905 0.170134
Si Si2 0.338764 0.216117 0.489130
Si Si3 0.533930 0.599204 0.202552
Si Si4 0.698880 0.148939 0.792842
Si Si5 0.734505 0.880767 0.529844
Si Si6 0.745100 0.002829 0.626346
Si Si7 0.251287 0.357523 0.421194
Si Si8 0.112589 0.590036 0.801316
O O1 0.560448 0.376490 0.052075
O O2 0.031740 0.209400 0.831831
O O3 0.706739 0.318732 0.452252
O O4 0.787632 0.389102 0.327691
O O5 0.603404 0.149956 0.511729
O O6 0.282511 0.162910 0.327687
O O7 0.256091 0.290477 0.420893
O O8 0.137750 0.298260 0.868850
O O9 0.699198 0.605663 0.288653
O O10 0.697770 0.490780 0.115970
O O11 0.980151 0.082331 0.657636
O O12 0.690051 0.092412 0.866722
O O13 0.504208 0.266683 0.082979
O O14 0.755382 0.946106 0.726713
O O15 0.477149 0.947663 0.485761
O O16 0.987050 0.438990 0.410518
#
# Coordination Sequence:
#
# PCOD9047493 Si02
#       8
#     2   2   2   2   2   2   2   2
#     4  11  26  45  70  99 141 179 225 286 342 399
#     4   9  21  38  62  91 133 172 218 278 337 402
#     4  12  27  43  71 103 136 182 231 282 333 408
#     4   9  19  38  61  92 128 173 217 281 342 396
#     4   9  19  38  64  91 126 177 222 277 339 400
#     4   9  17  36  67  88 127 170 224 281 329 413
#     4  11  24  40  68  94 139 175 225 278 345 402
#     4  10  24  44  67  97 133 182 226 278 338 403
#
# _framework density 27.219432000000001
#
# number of rings (size 3 to 8) (size 9 to 14) (size 15 to 20)
#    0.000    2.000    0.000    2.625   10.500    0.500 
#    0.000    6.250    5.500    0.000    0.000    0.000 
#    0.000    0.000    0.000    0.000    0.000    0.000 
#
# Total GULP energy -89541.954785 kJ/mol
# GULP energy per Si atom -5596.372174 kJ/mol
# Density = 2.715748 g / cm^3
# Si number density = 27.219432 Si / 1000 Ang^3
#
#
#
# Elastic Constant Matrix: (Units=GPa)
#
#
# Indices 1 2 3 4 5 6 
#
# 1 160.9647 44.5800 19.8155 11.7130 23.0862 8.1274
# 2 44.5800 74.8832 8.0704 -1.8187 -1.7612 -17.5457
# 3 19.8155 8.0704 66.6427 2.1284 9.0623 -15.5514
# 4 11.7130 -1.8187 2.1284 27.6825 -8.0779 -13.5561
# 5 23.0862 -1.7612 9.0623 -8.0779 27.0474 3.9170
# 6 8.1274 -17.5457 -15.5514 -13.5561 3.9170 62.6586
#
#
#
# Elastic Compliance Matrix: (Units=1/GPa)
#
#
# Indices 1 2 3 4 5 6 
#
# 1 0.012090 -0.009134 -0.001814 -0.012578 -0.013125 -0.006477
# 2 -0.009134 0.021571 0.000290 0.013300 0.011708 0.009443
# 3 -0.001814 0.000290 0.017320 0.000512 -0.004811 0.005027
# 4 -0.012578 0.013300 0.000512 0.058001 0.026380 0.016382
# 5 -0.013125 0.011708 -0.004811 0.026380 0.057574 0.005895
# 6 -0.006477 0.009443 0.005027 0.016382 0.005895 0.023867
#
#
# Mechanical properties :
#
#
# Convention : Reuss Voigt Hill
#
# Bulk Modulus (GPa) = 33.70704 49.71360 41.71032
# Shear Modulus (GPa) = 22.56029 38.81267 30.68648
#
# Velocity S-wave (km/s) = 2.88206 3.78023 3.36128
# Velocity P-wave (km/s) = 4.84617 6.11205 5.51555
#
# Compressibility (1/GPa) = 0.02966739
#
# Stress axis : x y z
#
# Youngs Moduli (GPa) = 82.71127 46.35758 57.73513
#
# Poissons Ratio (x) = 0.42343 0.10471
# Poissons Ratio (y) = 0.75548 -0.01675
# Poissons Ratio (z) = 0.15001 -0.01345
#
# Static dielectric constant tensor:
#      x y z
#    x 2.142790 0.029060 -0.034720 
#    y 0.029060 2.172790 0.039740 
#    z -0.034720 0.039740 2.183090 
# 
# From -- ./inp_files/39732.got.cif
#   From: 2010.05.17/outbox.cif.g08.bks.cpg/sg2_20_cif.got.tgz:39732.got - 2010.06.03 11:33:40.
