data_PCOD9047869
_publ_section_title
;
Structure prediction by ZEFSAII (Michael W. Deem and Ramdas Pophale) SiO2 
 PCOD9047869
Probable space group: P -1
;
_chemical_formula_sum "Si O2"
_cell_formula_units_Z 16
_cell_length_a 12.433838
_cell_length_b 7.854245
_cell_length_c 14.469012
_cell_angle_alpha 64.420773
_cell_angle_beta 40.202473
_cell_angle_gamma 91.175113
_cell_volume 657.162941
_symmetry_space_group_name_H-M "P -1"
_symmetry_group_IT_number 2
_symmetry_cell_setting 'triclinic'
loop_
_space_group_symop_operation_xyz
x,y,z
-x,-y,-z
loop_
_atom_site_type_symbol
_atom_site_label
_atom_site_fract_x
_atom_site_fract_y
_atom_site_fract_z
Si Si1 0.765152 0.560766 0.095344
Si Si2 0.752282 0.807833 0.710392
Si Si3 0.468561 0.909977 0.764162
Si Si4 0.193754 0.560669 0.301320
Si Si5 0.112541 0.067004 0.812088
Si Si6 0.434981 0.780434 0.529498
Si Si7 0.382295 0.218939 0.989245
Si Si8 0.122929 0.782130 0.153924
O O1 0.692447 0.332830 0.133225
O O2 0.716436 0.454038 0.255981
O O3 0.631027 0.637616 0.118453
O O4 0.993977 0.816199 0.891811
O O5 0.617268 0.879787 0.734848
O O6 0.738394 0.610386 0.705158
O O7 0.668316 0.730108 0.888381
O O8 0.000000 0.000000 0.500000
O O9 0.612799 0.144263 0.551935
O O10 0.310934 0.926403 0.924333
O O11 0.413926 0.775093 0.148020
O O12 0.134094 0.578133 0.231754
O O13 0.000000 0.500000 0.500000
O O14 0.075044 0.245334 0.748274
O O15 0.353642 0.190072 0.633123
O O16 0.000000 0.000000 0.000000
O O17 0.500000 0.000000 0.500000
O O18 0.188698 0.946858 0.161513
#
# Coordination Sequence:
#
# PCOD9047869 Si02
#       8
#     2   2   2   2   2   2   2   2
#     4  10  24  44  73  96 142 188 225 287 357 406
#     4  12  26  45  70 103 140 184 237 289 347 425
#     4  11  22  45  70 100 139 184 235 285 354 415
#     4  12  25  40  66 102 135 180 232 283 349 419
#     4  11  24  47  69 103 139 179 235 291 349 413
#     4  10  24  44  71 102 137 182 235 288 342 425
#     4  11  23  44  69  94 141 182 223 288 355 408
#     4  11  24  42  70  98 138 178 228 291 348 413
#
# _framework density 24.347082
#
# number of rings (size 3 to 8) (size 9 to 14) (size 15 to 20)
#    0.000    1.000    3.750    2.250    3.500    6.500 
#    2.250    0.000    0.000    0.000    0.000    0.000 
#    0.000    0.000    0.000    0.000    0.000    0.000 
#
# Total GULP energy -89310.731238 kJ/mol
# GULP energy per Si atom -5581.920702 kJ/mol
# Density = 2.429167 g / cm^3
# Si number density = 24.347082 Si / 1000 Ang^3
#
#
#
# Elastic Constant Matrix: (Units=GPa)
#
#
# Indices 1 2 3 4 5 6 
#
# 1 85.5711 29.6863 1.2900 0.1090 13.0668 -29.7304
# 2 29.6863 70.1836 13.2785 4.7561 1.2555 -12.6086
# 3 1.2900 13.2785 68.9427 8.1890 12.3714 -11.2721
# 4 0.1090 4.7561 8.1890 39.1266 -7.2183 1.8231
# 5 13.0668 1.2555 12.3714 -7.2183 34.8371 -5.4603
# 6 -29.7304 -12.6086 -11.2721 1.8231 -5.4603 49.8021
#
#
#
# Elastic Compliance Matrix: (Units=1/GPa)
#
#
# Indices 1 2 3 4 5 6 
#
# 1 0.018206 -0.006503 0.003896 -0.001782 -0.006872 0.009416
# 2 -0.006503 0.017725 -0.003707 -0.000819 0.002966 0.000122
# 3 0.003896 -0.003707 0.017955 -0.005015 -0.007997 0.004758
# 4 -0.001782 -0.000819 -0.005015 0.028297 0.007939 -0.002572
# 5 -0.006872 0.002966 -0.007997 0.007939 0.035415 -0.001569
# 6 0.009416 0.000122 0.004758 -0.002572 -0.001569 0.026730
#
#
# Mechanical properties :
#
#
# Convention : Reuss Voigt Hill
#
# Bulk Modulus (GPa) = 24.23799 34.80077 29.51938
# Shear Modulus (GPa) = 29.28990 36.78267 33.03629
#
# Velocity S-wave (km/s) = 3.47221 3.89107 3.68759
# Velocity P-wave (km/s) = 5.10410 5.87468 5.50289
#
# Compressibility (1/GPa) = 0.04125754
#
# Stress axis : x y z
#
# Youngs Moduli (GPa) = 54.92582 56.41900 55.69627
#
# Poissons Ratio (x) = 0.36688 -0.21699
# Poissons Ratio (y) = 0.35717 0.20648
# Poissons Ratio (z) = -0.21399 0.20916
#
# Static dielectric constant tensor:
#      x y z
#    x -6.317860 -8.139790 7.291160 
#    y -8.139790 -5.947940 7.010890 
#    z 7.291160 7.010890 -4.381880 
# 
# From -- ./inp_files/514068.got.cif
#   From: 2010.05.17/outbox.cif.g08.bks.cpg/sg2_258_cif.got.tgz:514068.got - 2010.06.03 11:33:40.
