data_PCOD9047136
_publ_section_title
;
Structure prediction by ZEFSAII (Michael W. Deem and Ramdas Pophale) SiO2 
 PCOD9047136
Probable space group: P -1
;
_chemical_formula_sum "Si O2"
_cell_formula_units_Z 15
_cell_length_a 5.067561
_cell_length_b 22.501084
_cell_length_c 5.306012
_cell_angle_alpha 83.440426
_cell_angle_beta 88.219950
_cell_angle_gamma 103.747605
_cell_volume 582.778205
_symmetry_space_group_name_H-M "P -1"
_symmetry_group_IT_number 2
_symmetry_cell_setting 'triclinic'
loop_
_space_group_symop_operation_xyz
x,y,z
-x,-y,-z
loop_
_atom_site_type_symbol
_atom_site_label
_atom_site_fract_x
_atom_site_fract_y
_atom_site_fract_z
Si Si1 0.000000 0.000000 0.500000
Si Si2 0.001429 0.885568 0.587047
Si Si3 0.631253 0.647245 0.515035
Si Si4 0.950278 0.417095 0.639145
Si Si5 0.243923 0.447539 0.117743
Si Si6 0.534508 0.053316 0.778382
Si Si7 0.728218 0.779650 0.278390
Si Si8 0.710694 0.179487 0.008799
O O1 0.919350 0.932453 0.760132
O O2 0.730035 0.960725 0.373722
O O3 0.193607 0.945471 0.399636
O O4 0.796513 0.837096 0.443962
O O5 0.200399 0.846265 0.719411
O O6 0.363662 0.604446 0.413616
O O7 0.660785 0.615676 0.798609
O O8 0.615003 0.717156 0.466004
O O9 0.904027 0.639906 0.370143
O O10 0.121058 0.459338 0.388259
O O11 0.020703 0.438362 0.910582
O O12 0.500000 0.500000 0.000000
O O13 0.620097 0.119042 0.870435
O O14 0.500000 0.000000 0.000000
O O15 0.529503 0.787310 0.051329
O O16 0.013933 0.780197 0.139507
#
# Coordination Sequence:
#
# PCOD9047136 Si02
#       8
#     1   2   2   2   2   2   2   2
#     4  12  22  40  64  88 120 164 206 272 344 398
#     4  11  26  40  64  95 126 169 221 274 347 410
#     4  10  25  43  70 101 144 186 246 290 361 415
#     4  10  24  43  72 107 144 192 237 297 352 421
#     4  10  24  45  74 111 150 192 241 295 356 422
#     4  11  24  39  61  91 127 159 217 270 344 413
#     4  11  25  46  65  96 129 177 225 281 337 412
#     4  11  25  42  67  93 127 172 218 280 338 414
#
# _framework density 25.738783999999999
#
# number of rings (size 3 to 8) (size 9 to 14) (size 15 to 20)
#    0.800    0.533    2.667    1.600    3.733    3.733 
#    0.000    0.000    0.000    0.000    0.000    0.000 
#    0.000    0.000    0.000    0.000    0.000    0.000 
#
# Total GULP energy -83746.210477 kJ/mol
# GULP energy per Si atom -5583.080698 kJ/mol
# Density = 2.568020 g / cm^3
# Si number density = 25.738784 Si / 1000 Ang^3
#
#
#
# Elastic Constant Matrix: (Units=GPa)
#
#
# Indices 1 2 3 4 5 6 
#
# 1 123.0496 18.7105 46.4504 -1.0896 31.8849 28.3838
# 2 18.7105 94.8802 67.5375 -34.8740 12.8894 9.2833
# 3 46.4504 67.5375 146.5516 -20.3731 26.3332 9.8337
# 4 -1.0896 -34.8740 -20.3731 36.0167 0.8746 1.4148
# 5 31.8849 12.8894 26.3332 0.8746 51.3822 5.2249
# 6 28.3838 9.2833 9.8337 1.4148 5.2249 36.1215
#
#
#
# Elastic Compliance Matrix: (Units=1/GPa)
#
#
# Indices 1 2 3 4 5 6 
#
# 1 0.012490 0.001487 -0.002947 0.000627 -0.005750 -0.008587
# 2 0.001487 0.023680 -0.007953 0.018751 -0.002552 -0.005454
# 3 -0.002947 -0.007953 0.011540 -0.001270 -0.002231 0.001590
# 4 0.000627 0.018751 -0.001270 0.045572 -0.004599 -0.006086
# 5 -0.005750 -0.002552 -0.002231 -0.004599 0.024648 0.002396
# 6 -0.008587 -0.005454 0.001590 -0.006086 0.002396 0.035292
#
#
# Mechanical properties :
#
#
# Convention : Reuss Voigt Hill
#
# Bulk Modulus (GPa) = 34.62209 69.98644 52.30426
# Shear Modulus (GPa) = 27.52146 40.15628 33.83887
#
# Velocity S-wave (km/s) = 3.27350 3.95415 3.62982
# Velocity P-wave (km/s) = 5.26956 6.93521 6.15896
#
# Compressibility (1/GPa) = 0.02888330
#
# Stress axis : x y z
#
# Youngs Moduli (GPa) = 80.06679 42.23009 86.65399
#
# Poissons Ratio (x) = -0.06279 0.25539
# Poissons Ratio (y) = -0.11905 0.68914
# Poissons Ratio (z) = 0.23597 0.33585
#
# Static dielectric constant tensor:
#      x y z
#    x 2.310500 -0.115740 0.011000 
#    y -0.115740 2.100550 -0.246870 
#    z 0.011000 -0.246870 2.386750 
# 
# From -- ./inp_files/14839.got.cif
#   From: 2010.05.17/outbox.cif.g08.bks.cpg/sg2_8_cif.got.tgz:14839.got - 2010.06.03 11:33:40.
