data_PCOD9047741
_publ_section_title
;
Structure prediction by ZEFSAII (Michael W. Deem and Ramdas Pophale) SiO2 
 PCOD9047741
Probable space group: P -1
;
_chemical_formula_sum "Si O2"
_cell_formula_units_Z 14
_cell_length_a 14.829826
_cell_length_b 8.372228
_cell_length_c 14.977879
_cell_angle_alpha 90.086607
_cell_angle_beta 161.208410
_cell_angle_gamma 90.546455
_cell_volume 598.689718
_symmetry_space_group_name_H-M "P -1"
_symmetry_group_IT_number 2
_symmetry_cell_setting 'triclinic'
loop_
_space_group_symop_operation_xyz
x,y,z
-x,-y,-z
loop_
_atom_site_type_symbol
_atom_site_label
_atom_site_fract_x
_atom_site_fract_y
_atom_site_fract_z
Si Si1 0.300426 0.176484 0.343689
Si Si2 0.883508 0.029722 0.488359
Si Si3 0.685350 0.101230 0.981018
Si Si4 0.176831 0.616843 0.101746
Si Si5 0.041527 0.108130 0.908649
Si Si6 0.494346 0.543002 0.230109
Si Si7 0.011278 0.341109 0.718431
O O1 0.600382 0.261818 0.640802
O O2 0.195251 0.166771 0.142833
O O3 0.230629 0.001968 0.318843
O O4 0.067394 0.284332 0.173057
O O5 0.554277 0.995109 0.188833
O O6 0.954882 0.207923 0.590706
O O7 0.000000 0.000000 0.500000
O O8 0.033512 0.910396 0.697797
O O9 0.575117 0.276763 0.860538
O O10 0.749401 0.003379 0.950958
O O11 0.360241 0.524620 0.202917
O O12 0.000000 0.500000 0.000000
O O13 0.963595 0.247042 0.767565
O O14 0.809038 0.489094 0.524167
O O15 0.322980 0.415216 0.009032
#
# Coordination Sequence:
#
# PCOD9047741 Si02
#       7
#     2   2   2   2   2   2   2
#     4  11  25  42  66  95 136 182 254 288 335 393
#     4  11  25  48  76 107 134 173 228 282 344 424
#     4  11  24  44  76 100 140 184 223 282 348 413
#     4  12  26  41  62  95 141 190 233 296 340 393
#     4  10  24  44  70 101 132 191 239 297 336 407
#     4  12  25  45  66 103 139 185 228 275 350 411
#     4  11  25  43  72  98 138 177 226 279 351 409
#
# _framework density 23.384398000000001
#
# number of rings (size 3 to 8) (size 9 to 14) (size 15 to 20)
#    0.000    0.857    1.429    5.143    4.000   10.286 
#    0.000    4.286    0.000    0.000    0.000    0.000 
#    0.000    0.000    0.000    0.000    0.000    0.000 
#
# Total GULP energy -78433.558597 kJ/mol
# GULP energy per Si atom -5602.397043 kJ/mol
# Density = 2.333117 g / cm^3
# Si number density = 23.384398 Si / 1000 Ang^3
#
#
#
# Elastic Constant Matrix: (Units=GPa)
#
#
# Indices 1 2 3 4 5 6 
#
# 1 85.0337 13.7472 -1.3399 11.2612 2.6995 -23.7527
# 2 13.7472 113.4996 24.1711 -1.7297 -2.4647 -9.8648
# 3 -1.3399 24.1711 101.9442 8.9471 12.9911 -3.0055
# 4 11.2612 -1.7297 8.9471 52.4541 7.9444 4.9683
# 5 2.6995 -2.4647 12.9911 7.9444 26.4708 3.9783
# 6 -23.7527 -9.8648 -3.0055 4.9683 3.9783 21.7068
#
#
#
# Elastic Compliance Matrix: (Units=1/GPa)
#
#
# Indices 1 2 3 4 5 6 
#
# 1 0.019486 -0.001021 0.002355 -0.006095 -0.004938 0.023486
# 2 -0.001021 0.009733 -0.002506 0.000467 0.001719 0.002538
# 3 0.002355 -0.002506 0.011545 -0.002055 -0.006221 0.004647
# 4 -0.006095 0.000467 -0.002055 0.022308 -0.003332 -0.011237
# 5 -0.004938 0.001719 -0.006221 -0.003332 0.044427 -0.012864
# 6 0.023486 0.002538 0.004647 -0.011237 -0.012864 0.078494
#
#
# Mechanical properties :
#
#
# Convention : Reuss Voigt Hill
#
# Bulk Modulus (GPa) = 26.02830 41.51491 33.77161
# Shear Modulus (GPa) = 24.85778 37.71961 31.28869
#
# Velocity S-wave (km/s) = 3.26392 4.02060 3.66186
# Velocity P-wave (km/s) = 5.03577 6.27260 5.68790
#
# Compressibility (1/GPa) = 0.03841973
#
# Stress axis : x y z
#
# Youngs Moduli (GPa) = 51.31775 102.74372 86.62063
#
# Poissons Ratio (x) = 0.10486 -0.20397
# Poissons Ratio (y) = 0.05237 0.21710
# Poissons Ratio (z) = -0.12084 0.25751
#
# Static dielectric constant tensor:
#      x y z
#    x 1.867910 -0.008190 -0.016440 
#    y -0.008190 1.931480 -0.012790 
#    z -0.016440 -0.012790 1.853000 
# 
# From -- ./inp_files/528683.got.cif
#   From: 2010.05.17/outbox.cif.g08.bks.cpg/sg2_265_cif.got.tgz:528683.got - 2010.06.03 11:33:40.
