data_PCOD9047588
_publ_section_title
;
Structure prediction by ZEFSAII (Michael W. Deem and Ramdas Pophale) SiO2 
 PCOD9047588
Probable space group: P -1
;
_chemical_formula_sum "Si O2"
_cell_formula_units_Z 14
_cell_length_a 19.520733
_cell_length_b 19.443209
_cell_length_c 8.735185
_cell_angle_alpha 35.291495
_cell_angle_beta 149.498212
_cell_angle_gamma 158.908748
_cell_volume 604.175162
_symmetry_space_group_name_H-M "P -1"
_symmetry_group_IT_number 2
_symmetry_cell_setting 'triclinic'
loop_
_space_group_symop_operation_xyz
x,y,z
-x,-y,-z
loop_
_atom_site_type_symbol
_atom_site_label
_atom_site_fract_x
_atom_site_fract_y
_atom_site_fract_z
Si Si1 0.844781 0.001595 0.238130
Si Si2 0.063502 0.517826 0.832957
Si Si3 0.183371 0.045013 0.365481
Si Si4 0.090494 0.721300 0.770075
Si Si5 0.617899 0.492898 0.353358
Si Si6 0.472964 0.393504 0.781826
Si Si7 0.100372 0.389497 0.870864
O O1 0.850311 0.004726 0.427253
O O2 0.622773 0.798865 0.103796
O O3 0.000000 0.000000 0.500000
O O4 0.931692 0.176808 0.997841
O O5 0.192022 0.513212 0.981042
O O6 0.154693 0.661097 0.886497
O O7 0.993618 0.570045 0.484700
O O8 0.877063 0.311415 0.936906
O O9 0.188999 0.913667 0.553368
O O10 0.421367 0.267382 0.417718
O O11 0.000000 0.000000 0.000000
O O12 0.832389 0.577130 0.550989
O O13 0.667563 0.624118 0.342827
O O14 0.500000 0.500000 0.000000
O O15 0.500000 0.500000 0.500000
O O16 0.725399 0.548091 0.022615
#
# Coordination Sequence:
#
# PCOD9047588 Si02
#       7
#     2   2   2   2   2   2   2
#     4  12  24  40  67 101 133 167 214 277 338 387
#     4  10  24  44  68  88 132 191 215 258 317 394
#     4  12  25  40  66 102 133 166 215 274 340 394
#     4  11  23  45  66  94 136 175 220 264 326 391
#     4  12  24  40  67 103 136 166 211 278 339 389
#     4  12  23  39  68 101 132 166 212 276 339 387
#     4  11  23  45  66  96 133 172 225 264 322 393
#
# _framework density 23.172090000000001
#
# number of rings (size 3 to 8) (size 9 to 14) (size 15 to 20)
#    0.000    0.571    5.714    2.571    2.000    0.000 
#    0.000    8.571    0.000    0.000    0.000    0.000 
#    0.000    0.000    0.000    0.000    0.000    0.000 
#
# Total GULP energy -77946.084137 kJ/mol
# GULP energy per Si atom -5567.577438 kJ/mol
# Density = 2.311935 g / cm^3
# Si number density = 23.172090 Si / 1000 Ang^3
#
#
#
# Elastic Constant Matrix: (Units=GPa)
#
#
# Indices 1 2 3 4 5 6 
#
# 1 84.5614 19.6937 21.3899 -5.4182 3.0313 -11.6120
# 2 19.6937 129.4329 36.9413 -27.1756 1.5808 2.4265
# 3 21.3899 36.9413 132.0896 -39.2677 -5.8376 -3.9686
# 4 -5.4182 -27.1756 -39.2677 30.6211 -4.9017 2.7329
# 5 3.0313 1.5808 -5.8376 -4.9017 37.3057 -6.6530
# 6 -11.6120 2.4265 -3.9686 2.7329 -6.6530 28.4916
#
#
#
# Elastic Compliance Matrix: (Units=1/GPa)
#
#
# Indices 1 2 3 4 5 6 
#
# 1 0.013510 -0.002135 -0.002426 -0.003237 -0.000838 0.005465
# 2 -0.002135 0.009919 0.000188 0.008967 0.000528 -0.002426
# 3 -0.002426 0.000188 0.013347 0.017572 0.004631 0.000250
# 4 -0.003237 0.008967 0.017572 0.064561 0.010514 -0.003373
# 5 -0.000838 0.000528 0.004631 0.010514 0.030076 0.006273
# 6 0.005465 -0.002426 0.000250 -0.003373 0.006273 0.039355
#
#
# Mechanical properties :
#
#
# Convention : Reuss Voigt Hill
#
# Bulk Modulus (GPa) = 35.67586 55.79262 45.73424
# Shear Modulus (GPa) = 26.47507 37.15427 31.81467
#
# Velocity S-wave (km/s) = 3.38382 4.00860 3.70939
# Velocity P-wave (km/s) = 5.54044 6.74944 6.17460
#
# Compressibility (1/GPa) = 0.02803016
#
# Stress axis : x y z
#
# Youngs Moduli (GPa) = 74.02151 100.81680 74.92319
#
# Poissons Ratio (x) = 0.21525 0.18173
# Poissons Ratio (y) = 0.15804 -0.01408
# Poissons Ratio (z) = 0.17955 -0.01895
#
# Static dielectric constant tensor:
#      x y z
#    x 2.008740 0.138190 0.035620 
#    y 0.138190 2.402650 0.283470 
#    z 0.035620 0.283470 1.978970 
# 
# From -- ./inp_files/349673.got.cif
#   From: 2010.05.17/outbox.cif.g08.bks.cpg/sg2_175_cif.got.tgz:349673.got - 2010.06.03 11:33:40.
