data_PCOD9047324
_publ_section_title
;
Structure prediction by ZEFSAII (Michael W. Deem and Ramdas Pophale) SiO2 
 PCOD9047324
Probable space group: P -1
;
_chemical_formula_sum "Si O2"
_cell_formula_units_Z 16
_cell_length_a 22.724111
_cell_length_b 9.800171
_cell_length_c 12.909829
_cell_angle_alpha 43.402279
_cell_angle_beta 34.987249
_cell_angle_gamma 27.370595
_cell_volume 757.891807
_symmetry_space_group_name_H-M "P -1"
_symmetry_group_IT_number 2
_symmetry_cell_setting 'triclinic'
loop_
_space_group_symop_operation_xyz
x,y,z
-x,-y,-z
loop_
_atom_site_type_symbol
_atom_site_label
_atom_site_fract_x
_atom_site_fract_y
_atom_site_fract_z
Si Si1 0.037346 0.314401 0.793684
Si Si2 0.085836 0.805560 0.648027
Si Si3 0.427168 0.803945 0.981094
Si Si4 0.896783 0.908442 0.703229
Si Si5 0.345498 0.632264 0.700931
Si Si6 0.946149 0.354038 0.680933
Si Si7 0.384925 0.330899 0.020291
Si Si8 0.753767 0.587701 0.184810
O O1 0.028172 0.567800 0.661755
O O2 0.959421 0.322264 0.802771
O O3 0.210042 0.986867 0.720088
O O4 0.923879 0.416974 0.994917
O O5 0.216188 0.500816 0.688973
O O6 0.938705 0.890370 0.773120
O O7 0.128381 0.850319 0.454317
O O8 0.044935 0.045530 0.650953
O O9 0.539301 0.694962 0.972020
O O10 0.381233 0.057328 0.835408
O O11 0.500000 0.500000 0.000000
O O12 0.256230 0.990426 0.159084
O O13 0.500000 0.500000 0.500000
O O14 0.288184 0.542970 0.753134
O O15 0.371088 0.501414 0.849959
O O16 0.774336 0.547301 0.792907
O O17 0.000000 0.500000 0.500000
O O18 0.500000 0.000000 0.000000
#
# Coordination Sequence:
#
# PCOD9047324 Si02
#       8
#     2   2   2   2   2   2   2   2
#     4  11  22  43  67  96 134 168 233 267 329 400
#     4  11  23  40  69  95 133 165 235 274 332 383
#     4  11  25  45  67  93 139 179 224 267 345 399
#     4  10  24  44  65 100 128 181 221 277 326 413
#     4  12  26  40  66 105 140 173 217 285 342 390
#     4  12  23  38  72  98 127 182 225 278 329 394
#     4  12  25  42  66  98 137 177 224 278 333 402
#     4  11  23  44  68  97 133 177 224 283 321 403
#
# _framework density 21.111193
#
# number of rings (size 3 to 8) (size 9 to 14) (size 15 to 20)
#    0.000    0.750    5.000    2.625    3.500    3.000 
#    4.500    0.625    0.000    0.000    0.000    0.000 
#    0.000    0.000    0.000    0.000    0.000    0.000 
#
# Total GULP energy -89250.111217 kJ/mol
# GULP energy per Si atom -5578.131951 kJ/mol
# Density = 2.106314 g / cm^3
# Si number density = 21.111193 Si / 1000 Ang^3
#
#
#
# Elastic Constant Matrix: (Units=GPa)
#
#
# Indices 1 2 3 4 5 6 
#
# 1 163.4737 63.4758 38.7015 -19.5938 4.4956 -21.0010
# 2 63.4758 160.9434 41.6523 -6.3566 1.1561 -12.3532
# 3 38.7015 41.6523 76.6592 -11.3580 -15.3414 -21.7140
# 4 -19.5938 -6.3566 -11.3580 18.9970 -7.7497 6.2154
# 5 4.4956 1.1561 -15.3414 -7.7497 31.3444 -0.8647
# 6 -21.0010 -12.3532 -21.7140 6.2154 -0.8647 41.9647
#
#
#
# Elastic Compliance Matrix: (Units=1/GPa)
#
#
# Indices 1 2 3 4 5 6 
#
# 1 0.008453 -0.002562 -0.001491 0.006292 -0.000243 0.001768
# 2 -0.002562 0.008219 -0.004528 -0.003610 -0.003065 -0.000734
# 3 -0.001491 -0.004528 0.024166 0.015225 0.016208 0.008504
# 4 0.006292 -0.003610 0.015225 0.077942 0.025924 -0.001046
# 5 -0.000243 -0.003065 0.016208 0.025924 0.046518 0.004482
# 6 0.001768 -0.000734 0.008504 -0.001046 0.004482 0.029146
#
#
# Mechanical properties :
#
#
# Convention : Reuss Voigt Hill
#
# Bulk Modulus (GPa) = 42.23911 76.52615 59.38263
# Shear Modulus (GPa) = 22.77917 35.61098 29.19508
#
# Velocity S-wave (km/s) = 3.28839 4.11156 3.72280
# Velocity P-wave (km/s) = 5.87106 7.67253 6.83144
#
# Compressibility (1/GPa) = 0.02367474
#
# Stress axis : x y z
#
# Youngs Moduli (GPa) = 118.30170 121.67149 41.37985
#
# Poissons Ratio (x) = 0.31172 0.06171
# Poissons Ratio (y) = 0.30309 0.18739
# Poissons Ratio (z) = 0.17642 0.55099
#
# Static dielectric constant tensor:
#      x y z
#    x 1.750560 0.038050 0.078720 
#    y 0.038050 1.864990 0.185250 
#    z 0.078720 0.185250 2.671810 
# 
# From -- ./inp_files/469828.got.cif
#   From: 2010.05.17/outbox.cif.g08.bks.cpg/sg2_235_cif.got.tgz:469828.got - 2010.06.03 11:33:40.
