data_PCOD9047456
_publ_section_title
;
Structure prediction by ZEFSAII (Michael W. Deem and Ramdas Pophale) SiO2 
 PCOD9047456
Probable space group: P -1
;
_chemical_formula_sum "Si O2"
_cell_formula_units_Z 16
_cell_length_a 6.394472
_cell_length_b 15.649321
_cell_length_c 8.755697
_cell_angle_alpha 131.659773
_cell_angle_beta 94.197754
_cell_angle_gamma 97.308855
_cell_volume 634.391719
_symmetry_space_group_name_H-M "P -1"
_symmetry_group_IT_number 2
_symmetry_cell_setting 'triclinic'
loop_
_space_group_symop_operation_xyz
x,y,z
-x,-y,-z
loop_
_atom_site_type_symbol
_atom_site_label
_atom_site_fract_x
_atom_site_fract_y
_atom_site_fract_z
Si Si1 0.008778 0.693431 0.751260
Si Si2 0.669264 0.182871 0.852248
Si Si3 0.096196 0.343013 0.762179
Si Si4 0.313336 0.304688 0.031491
Si Si5 0.314034 0.707606 0.500806
Si Si6 0.362554 0.454535 0.626922
Si Si7 0.466236 0.969119 0.786793
Si Si8 0.075046 0.909637 0.506727
O O1 0.835968 0.751970 0.901416
O O2 0.839819 0.578179 0.539238
O O3 0.157871 0.734653 0.660632
O O4 0.181955 0.710411 0.917118
O O5 0.780784 0.152797 0.670908
O O6 0.631876 0.064303 0.810139
O O7 0.441458 0.216162 0.858899
O O8 0.259131 0.427621 0.758206
O O9 0.856128 0.353787 0.712192
O O10 0.088373 0.203997 0.566682
O O11 0.176522 0.354665 0.954447
O O12 0.491450 0.416610 0.230011
O O13 0.470705 0.629650 0.475272
O O14 0.460625 0.832177 0.604228
O O15 0.229217 0.975302 0.724190
O O16 0.500000 0.000000 0.000000
O O17 0.000000 0.000000 0.500000
#
# Coordination Sequence:
#
# PCOD9047456 Si02
#       8
#     2   2   2   2   2   2   2   2
#     4  11  24  46  67 101 138 182 235 284 344 417
#     4  12  26  45  70 102 143 183 229 288 355 416
#     4  10  24  44  67 103 135 179 233 284 348 422
#     4  12  26  45  69 103 138 186 234 287 348 417
#     4  10  24  46  68 102 138 182 228 292 350 406
#     4  11  26  44  71  99 141 183 236 290 346 412
#     4  11  24  44  72 102 136 184 227 287 350 417
#     4  11  25  46  71 104 142 186 231 289 351 422
#
# _framework density 25.221012000000002
#
# number of rings (size 3 to 8) (size 9 to 14) (size 15 to 20)
#    0.000    1.000    2.500    2.625    5.250    3.500 
#    0.000    1.875    0.000    0.000    0.000    0.000 
#    0.000    0.000    0.000    0.000    0.000    0.000 
#
# Total GULP energy -89381.569424 kJ/mol
# GULP energy per Si atom -5586.348089 kJ/mol
# Density = 2.516361 g / cm^3
# Si number density = 25.221012 Si / 1000 Ang^3
#
#
#
# Elastic Constant Matrix: (Units=GPa)
#
#
# Indices 1 2 3 4 5 6 
#
# 1 115.2948 50.6012 46.0200 0.8556 6.3166 -9.6023
# 2 50.6012 93.3187 18.1353 -3.1887 -11.0065 -0.6773
# 3 46.0200 18.1353 95.1521 -16.2054 27.5552 -10.3763
# 4 0.8556 -3.1887 -16.2054 36.9525 -0.5553 -2.1010
# 5 6.3166 -11.0065 27.5552 -0.5553 54.7748 -5.9311
# 6 -9.6023 -0.6773 -10.3763 -2.1010 -5.9311 45.0203
#
#
#
# Elastic Compliance Matrix: (Units=1/GPa)
#
#
# Indices 1 2 3 4 5 6 
#
# 1 0.014102 -0.006546 -0.006082 -0.003477 0.000232 0.001376
# 2 -0.006546 0.014921 -0.000742 0.001132 0.004056 -0.000756
# 3 -0.006082 -0.000742 0.017418 0.007711 -0.007913 0.002024
# 4 -0.003477 0.001132 0.007711 0.030702 -0.002709 0.002129
# 5 0.000232 0.004056 -0.007913 -0.002709 0.023129 0.001207
# 6 0.001376 -0.000756 0.002024 0.002129 0.001207 0.023219
#
#
# Mechanical properties :
#
#
# Convention : Reuss Voigt Hill
#
# Bulk Modulus (GPa) = 50.75963 59.25319 55.00641
# Shear Modulus (GPa) = 31.88821 39.95013 35.91917
#
# Velocity S-wave (km/s) = 3.55963 3.98427 3.77792
# Velocity P-wave (km/s) = 6.08804 6.68659 6.39432
#
# Compressibility (1/GPa) = 0.01970070
#
# Stress axis : x y z
#
# Youngs Moduli (GPa) = 70.91386 67.01815 57.41232
#
# Poissons Ratio (x) = 0.43870 0.34917
# Poissons Ratio (y) = 0.46421 0.04261
# Poissons Ratio (z) = 0.43128 0.04974
#
# Static dielectric constant tensor:
#      x y z
#    x 2.017880 0.013790 0.003220 
#    y 0.013790 1.964580 0.019010 
#    z 0.003220 0.019010 2.024460 
# 
# From -- ./inp_files/139581.got.cif
#   From: 2010.05.17/outbox.cif.g08.bks.cpg/sg2_70_cif.got.tgz:139581.got - 2010.06.03 11:33:40.
