data_PCOD9047413
_publ_section_title
;
Structure prediction by ZEFSAII (Michael W. Deem and Ramdas Pophale) SiO2 
 PCOD9047413
Probable space group: P -1
;
_chemical_formula_sum "Si O2"
_cell_formula_units_Z 16
_cell_length_a 15.807044
_cell_length_b 9.748094
_cell_length_c 12.424541
_cell_angle_alpha 43.472782
_cell_angle_beta 114.936055
_cell_angle_gamma 142.536660
_cell_volume 744.645858
_symmetry_space_group_name_H-M "P -1"
_symmetry_group_IT_number 2
_symmetry_cell_setting 'triclinic'
loop_
_space_group_symop_operation_xyz
x,y,z
-x,-y,-z
loop_
_atom_site_type_symbol
_atom_site_label
_atom_site_fract_x
_atom_site_fract_y
_atom_site_fract_z
Si Si1 0.221912 0.259999 0.180771
Si Si2 0.626960 0.665266 0.390123
Si Si3 0.553033 0.862393 0.075289
Si Si4 0.134438 0.388527 0.876540
Si Si5 0.065241 0.651553 0.329083
Si Si6 0.296879 0.796713 0.240245
Si Si7 0.533757 0.008439 0.390772
Si Si8 0.848582 0.833822 0.559687
O O1 0.392387 0.506367 0.162005
O O2 0.141330 0.107055 0.341341
O O3 0.177551 0.017785 0.210009
O O4 0.185243 0.405719 0.014739
O O5 0.500000 0.500000 0.500000
O O6 0.632135 0.872480 0.205138
O O7 0.778765 0.879391 0.415801
O O8 0.554296 0.349761 0.472178
O O9 0.500000 0.000000 0.000000
O O10 0.659502 0.997522 0.953868
O O11 0.291565 0.670923 0.732216
O O12 0.053201 0.458164 0.757581
O O13 0.000000 0.000000 0.000000
O O14 0.159581 0.635940 0.331511
O O15 0.000000 0.500000 0.500000
O O16 0.266994 0.539498 0.309002
O O17 0.442423 0.011268 0.267704
O O18 0.500000 0.000000 0.500000
O O19 0.000000 0.000000 0.500000
#
# Coordination Sequence:
#
# PCOD9047413 Si02
#       8
#     2   2   2   2   2   2   2   2
#     4  11  23  43  70  90 133 185 214 277 341 396
#     4  11  25  41  69 100 130 179 227 277 334 402
#     4  12  23  45  69  99 136 171 234 283 334 396
#     4  10  24  44  66  97 139 183 220 277 350 402
#     4  11  25  43  65 101 138 171 226 279 339 404
#     4  11  24  42  66  99 133 174 220 283 331 402
#     4  11  24  42  70  99 134 177 230 277 332 408
#     4  11  24  44  66 100 136 173 223 278 340 409
#
# _framework density 21.486722
#
# number of rings (size 3 to 8) (size 9 to 14) (size 15 to 20)
#    0.000    1.000    3.750    2.250    3.500    7.500 
#    0.000    1.250    0.000    0.000    0.000    0.000 
#    0.000    0.000    0.000    0.000    0.000    0.000 
#
# Total GULP energy -89106.317739 kJ/mol
# GULP energy per Si atom -5569.144859 kJ/mol
# Density = 2.143782 g / cm^3
# Si number density = 21.486722 Si / 1000 Ang^3
#
#
#
# Elastic Constant Matrix: (Units=GPa)
#
#
# Indices 1 2 3 4 5 6 
#
# 1 88.3438 42.6657 35.9096 15.8527 -1.1445 6.1783
# 2 42.6657 89.3391 22.1771 13.8326 1.9272 6.0699
# 3 35.9096 22.1771 89.5198 24.0691 -6.6054 6.1198
# 4 15.8527 13.8326 24.0691 40.3983 7.3159 1.5792
# 5 -1.1445 1.9272 -6.6054 7.3159 36.3904 5.0876
# 6 6.1783 6.0699 6.1198 1.5792 5.0876 52.1620
#
#
#
# Elastic Compliance Matrix: (Units=1/GPa)
#
#
# Indices 1 2 3 4 5 6 
#
# 1 0.016677 -0.006545 -0.004542 -0.001657 0.000474 -0.000677
# 2 -0.006545 0.014825 -0.000470 -0.002099 -0.000546 -0.000778
# 3 -0.004542 -0.000470 0.015758 -0.008222 0.004599 -0.001456
# 4 -0.001657 -0.002099 -0.008222 0.032445 -0.008126 0.001215
# 5 0.000474 -0.000546 0.004599 -0.008126 0.030447 -0.003256
# 6 -0.000677 -0.000778 -0.001456 0.001215 -0.003256 0.019793
#
#
# Mechanical properties :
#
#
# Convention : Reuss Voigt Hill
#
# Bulk Modulus (GPa) = 41.41220 52.07859 46.74540
# Shear Modulus (GPa) = 31.03505 36.88682 33.96094
#
# Velocity S-wave (km/s) = 3.80463 4.14783 3.97993
# Velocity P-wave (km/s) = 6.21414 6.87238 6.55153
#
# Compressibility (1/GPa) = 0.02414747
#
# Stress axis : x y z
#
# Youngs Moduli (GPa) = 59.96253 67.45277 63.45827
#
# Poissons Ratio (x) = 0.44146 0.28821
# Poissons Ratio (y) = 0.39244 0.02984
# Poissons Ratio (z) = 0.27233 0.03171
#
# Static dielectric constant tensor:
#      x y z
#    x 1.702700 0.057700 0.017420 
#    y 0.057700 1.696110 0.022910 
#    z 0.017420 0.022910 1.869610 
# 
# From -- ./inp_files/256345.got.cif
#   From: 2010.05.17/outbox.cif.g08.bks.cpg/sg2_129_cif.got.tgz:256345.got - 2010.06.03 11:33:40.
