data_PCOD9047445
_publ_section_title
;
Structure prediction by ZEFSAII (Michael W. Deem and Ramdas Pophale) SiO2 
 PCOD9047445
Probable space group: P -1
;
_chemical_formula_sum "Si O2"
_cell_formula_units_Z 14
_cell_length_a 5.437316
_cell_length_b 11.886898
_cell_length_c 17.385539
_cell_angle_alpha 31.828782
_cell_angle_beta 68.876681
_cell_angle_gamma 72.579436
_cell_volume 552.735506
_symmetry_space_group_name_H-M "P -1"
_symmetry_group_IT_number 2
_symmetry_cell_setting 'triclinic'
loop_
_space_group_symop_operation_xyz
x,y,z
-x,-y,-z
loop_
_atom_site_type_symbol
_atom_site_label
_atom_site_fract_x
_atom_site_fract_y
_atom_site_fract_z
Si Si1 0.870735 0.162745 0.804450
Si Si2 0.504603 0.713705 0.980125
Si Si3 0.048211 0.560203 0.653300
Si Si4 0.358207 0.267134 0.877829
Si Si5 0.704091 0.288113 0.153603
Si Si6 0.116442 0.926375 0.314876
Si Si7 0.278648 0.126154 0.405057
O O1 0.007194 0.344746 0.734260
O O2 0.559346 0.214565 0.817408
O O3 0.971400 0.169368 0.702139
O O4 0.864552 0.918288 0.977539
O O5 0.290089 0.674400 0.960867
O O6 0.621944 0.942139 0.810457
O O7 0.471937 0.731254 0.064196
O O8 0.713056 0.521661 0.055405
O O9 0.794058 0.666243 0.658056
O O10 0.232227 0.491565 0.742464
O O11 0.155726 0.743215 0.478496
O O12 0.419125 0.197872 0.268337
O O13 0.908092 0.106308 0.258227
O O14 0.500000 0.000000 0.500000
O O15 0.000000 0.000000 0.500000
#
# Coordination Sequence:
#
# PCOD9047445 Si02
#       7
#     2   2   2   2   2   2   2
#     4  10  24  44  67 101 143 193 248 303 370 452
#     4  10  24  44  69 101 141 199 245 305 371 447
#     4  12  25  42  74 102 146 189 243 314 375 445
#     4  10  24  44  70 101 141 189 252 307 374 445
#     4  11  24  44  71 100 146 194 249 304 374 449
#     4  11  24  43  69 104 146 188 246 307 374 447
#     4  12  28  48  77 115 154 194 248 316 383 452
#
# _framework density 25.328569999999999
#
# number of rings (size 3 to 8) (size 9 to 14) (size 15 to 20)
#    0.000    1.143    1.429    3.000    4.000   12.000 
#    0.000    0.000    0.000    0.000    0.000    0.000 
#    0.000    0.000    0.000    0.000    0.000    0.000 
#
# Total GULP energy -78345.095559 kJ/mol
# GULP energy per Si atom -5596.078254 kJ/mol
# Density = 2.527092 g / cm^3
# Si number density = 25.328570 Si / 1000 Ang^3
#
#
#
# Elastic Constant Matrix: (Units=GPa)
#
#
# Indices 1 2 3 4 5 6 
#
# 1 74.9440 13.2590 53.6097 -1.2426 11.0742 7.2033
# 2 13.2590 98.6185 27.6167 -0.7075 5.9318 3.9817
# 3 53.6097 27.6167 185.1894 4.3205 15.6137 0.1824
# 4 -1.2426 -0.7075 4.3205 33.4125 2.8147 -3.7401
# 5 11.0742 5.9318 15.6137 2.8147 48.4116 -10.5711
# 6 7.2033 3.9817 0.1824 -3.7401 -10.5711 35.3057
#
#
#
# Elastic Compliance Matrix: (Units=1/GPa)
#
#
# Indices 1 2 3 4 5 6 
#
# 1 0.017855 -0.000659 -0.004796 0.001064 -0.003497 -0.004478
# 2 -0.000659 0.010720 -0.001325 0.000311 -0.001048 -0.001348
# 3 -0.004796 -0.001325 0.007076 -0.000970 -0.000803 0.000748
# 4 0.001064 0.000311 -0.000970 0.030494 -0.001166 0.002634
# 5 -0.003497 -0.001048 -0.000803 -0.001166 0.023610 0.007781
# 6 -0.004478 -0.001348 0.000748 0.002634 0.007781 0.031995
#
#
# Mechanical properties :
#
#
# Convention : Reuss Voigt Hill
#
# Bulk Modulus (GPa) = 45.27016 60.85806 53.06411
# Shear Modulus (GPa) = 35.04508 41.04373 38.04441
#
# Velocity S-wave (km/s) = 3.72374 4.02985 3.87981
# Velocity P-wave (km/s) = 6.03326 6.76258 6.40831
#
# Compressibility (1/GPa) = 0.02208961
#
# Stress axis : x y z
#
# Youngs Moduli (GPa) = 56.00519 93.28767 141.33167
#
# Poissons Ratio (x) = 0.06145 0.67787
# Poissons Ratio (y) = 0.03689 0.18733
# Poissons Ratio (z) = 0.26862 0.12365
#
# Static dielectric constant tensor:
#      x y z
#    x 2.012020 0.022410 -0.030740 
#    y 0.022410 2.054690 0.013710 
#    z -0.030740 0.013710 1.994480 
# 
# From -- ./inp_files/549367.got.cif
#   From: 2010.05.17/outbox.cif.g08.bks.cpg/sg2_275_cif.got.tgz:549367.got - 2010.06.03 11:33:40.
