data_PCOD9047879
_publ_section_title
;
Structure prediction by ZEFSAII (Michael W. Deem and Ramdas Pophale) SiO2 
 PCOD9047879
Probable space group: P -1
;
_chemical_formula_sum "Si O2"
_cell_formula_units_Z 14
_cell_length_a 9.460643
_cell_length_b 7.621285
_cell_length_c 9.396913
_cell_angle_alpha 108.662440
_cell_angle_beta 91.940916
_cell_angle_gamma 69.437369
_cell_volume 598.657391
_symmetry_space_group_name_H-M "P -1"
_symmetry_group_IT_number 2
_symmetry_cell_setting 'triclinic'
loop_
_space_group_symop_operation_xyz
x,y,z
-x,-y,-z
loop_
_atom_site_type_symbol
_atom_site_label
_atom_site_fract_x
_atom_site_fract_y
_atom_site_fract_z
Si Si1 0.833418 0.035681 0.551293
Si Si2 0.594560 0.597532 0.323912
Si Si3 0.410952 0.775323 0.614436
Si Si4 0.912631 0.594293 0.378325
Si Si5 0.661319 0.002066 0.049848
Si Si6 0.325008 0.729899 0.131344
Si Si7 0.859876 0.550381 0.902219
O O1 0.821669 0.826151 0.461429
O O2 0.726461 0.206304 0.490420
O O3 0.789109 0.101346 0.727217
O O4 0.000000 0.000000 0.500000
O O5 0.541055 0.752562 0.496519
O O6 0.549187 0.416686 0.335371
O O7 0.776482 0.525794 0.299439
O O8 0.489528 0.675609 0.201015
O O9 0.351572 0.954351 0.770617
O O10 0.000000 0.500000 0.500000
O O11 0.052243 0.546989 0.262702
O O12 0.781534 0.787789 0.958768
O O13 0.682850 0.176190 0.000328
O O14 0.500000 0.000000 0.000000
O O15 0.262922 0.549357 0.088280
O O16 0.000000 0.500000 0.000000
#
# Coordination Sequence:
#
# PCOD9047879 Si02
#       7
#     2   2   2   2   2   2   2
#     4  11  22  44  72 102 141 187 239 304 363 431
#     4  10  25  46  77 104 140 191 247 310 363 430
#     4  10  24  44  71 103 140 188 247 295 366 429
#     4  12  26  44  76 106 146 185 251 307 370 429
#     4  12  29  46  76 107 153 197 248 296 369 453
#     4  11  27  49  75 107 150 196 247 301 373 442
#     4  12  29  51  73 112 154 194 244 307 375 442
#
# _framework density 23.385664999999999
#
# number of rings (size 3 to 8) (size 9 to 14) (size 15 to 20)
#    0.000    0.857    1.429    3.429   14.000    2.857 
#    0.000    0.000    0.000    0.000    0.000    0.000 
#    0.000    0.000    0.000    0.000    0.000    0.000 
#
# Total GULP energy -78267.942164 kJ/mol
# GULP energy per Si atom -5590.567297 kJ/mol
# Density = 2.333244 g / cm^3
# Si number density = 23.385665 Si / 1000 Ang^3
#
#
#
# Elastic Constant Matrix: (Units=GPa)
#
#
# Indices 1 2 3 4 5 6 
#
# 1 143.5902 33.0682 29.5650 -12.6675 -9.5428 -6.5852
# 2 33.0682 108.9794 27.3482 -6.2969 -2.7736 -9.3424
# 3 29.5650 27.3482 128.2972 -1.9940 -12.5743 2.6486
# 4 -12.6675 -6.2969 -1.9940 37.2234 -8.9161 -0.3394
# 5 -9.5428 -2.7736 -12.5743 -8.9161 31.1326 5.8835
# 6 -6.5852 -9.3424 2.6486 -0.3394 5.8835 37.3997
#
#
#
# Elastic Compliance Matrix: (Units=1/GPa)
#
#
# Indices 1 2 3 4 5 6 
#
# 1 0.008104 -0.001866 -0.001185 0.003001 0.002573 0.000667
# 2 -0.001866 0.010473 -0.001902 0.000908 -0.000625 0.002529
# 3 -0.001185 -0.001902 0.008871 0.000589 0.003572 -0.001868
# 4 0.003001 0.000908 0.000589 0.030481 0.010081 -0.000596
# 5 0.002573 -0.000625 0.003572 0.010081 0.038296 -0.005889
# 6 0.000667 0.002529 -0.001868 -0.000596 -0.005889 0.028541
#
#
# Mechanical properties :
#
#
# Convention : Reuss Voigt Hill
#
# Bulk Modulus (GPa) = 57.00276 62.31442 59.65859
# Shear Modulus (GPa) = 35.58277 40.54349 38.06313
#
# Velocity S-wave (km/s) = 3.90495 4.16828 4.03876
# Velocity P-wave (km/s) = 6.69026 7.06189 6.87859
#
# Compressibility (1/GPa) = 0.01754301
#
# Stress axis : x y z
#
# Youngs Moduli (GPa) = 123.39245 95.48571 112.73146
#
# Poissons Ratio (x) = 0.17814 0.13357
# Poissons Ratio (y) = 0.23021 0.21439
# Poissons Ratio (z) = 0.14620 0.18159
#
# Static dielectric constant tensor:
#      x y z
#    x 1.932450 -0.007130 -0.036620 
#    y -0.007130 1.914820 -0.014380 
#    z -0.036620 -0.014380 1.917500 
# 
# From -- ./inp_files/159726.got.cif
#   From: 2010.05.17/outbox.cif.g08.bks.cpg/sg2_80_cif.got.tgz:159726.got - 2010.06.03 11:33:40.
