data_PCOD9047443
_publ_section_title
;
Structure prediction by ZEFSAII (Michael W. Deem and Ramdas Pophale) SiO2 
 PCOD9047443
Probable space group: P -1
;
_chemical_formula_sum "Si O2"
_cell_formula_units_Z 16
_cell_length_a 9.313779
_cell_length_b 7.826243
_cell_length_c 14.186873
_cell_angle_alpha 124.105409
_cell_angle_beta 99.956352
_cell_angle_gamma 113.183589
_cell_volume 673.670377
_symmetry_space_group_name_H-M "P -1"
_symmetry_group_IT_number 2
_symmetry_cell_setting 'triclinic'
loop_
_space_group_symop_operation_xyz
x,y,z
-x,-y,-z
loop_
_atom_site_type_symbol
_atom_site_label
_atom_site_fract_x
_atom_site_fract_y
_atom_site_fract_z
Si Si1 0.438121 0.083633 0.664032
Si Si2 0.082776 0.163245 0.462667
Si Si3 0.321021 0.743701 0.725126
Si Si4 0.639235 0.495011 0.946763
Si Si5 0.989503 0.983618 0.797944
Si Si6 0.268175 0.908135 0.114978
Si Si7 0.939072 0.326715 0.171677
Si Si8 0.749663 0.086306 0.604593
O O1 0.598749 0.072021 0.643253
O O2 0.347272 0.922984 0.698177
O O3 0.296069 0.946918 0.521789
O O4 0.537644 0.378367 0.798821
O O5 0.168490 0.453982 0.584616
O O6 0.972393 0.047487 0.316454
O O7 0.249847 0.155220 0.452883
O O8 0.000000 0.000000 0.500000
O O9 0.238298 0.778683 0.818179
O O10 0.525164 0.834099 0.795373
O O11 0.825506 0.778644 0.059326
O O12 0.500000 0.500000 0.000000
O O13 0.699319 0.309981 0.926377
O O14 0.841056 0.040489 0.808100
O O15 0.940753 0.738978 0.777931
O O16 0.138367 0.809101 0.978767
O O17 0.059659 0.635750 0.270268
#
# Coordination Sequence:
#
# PCOD9047443 Si02
#       8
#     2   2   2   2   2   2   2   2
#     4  10  24  44  67 101 135 183 225 284 347 419
#     4  12  26  42  69 101 137 180 234 288 351 412
#     4  11  25  44  70  98 140 177 232 293 351 409
#     4  11  24  42  72 101 143 179 231 285 351 410
#     4  12  26  44  71 101 142 190 234 287 348 413
#     4  11  25  46  70 101 141 184 234 286 349 418
#     4  12  25  44  72 103 141 184 236 288 346 409
#     4  11  24  43  70  98 141 180 233 286 345 413
#
# _framework density 23.750489000000002
#
# number of rings (size 3 to 8) (size 9 to 14) (size 15 to 20)
#    0.000    0.750    1.250    6.375    3.500    6.000 
#    0.000    0.000    0.000    0.000    0.000    0.000 
#    0.000    0.000    0.000    0.000    0.000    0.000 
#
# Total GULP energy -89426.976160 kJ/mol
# GULP energy per Si atom -5589.186010 kJ/mol
# Density = 2.369643 g / cm^3
# Si number density = 23.750489 Si / 1000 Ang^3
#
#
#
# Elastic Constant Matrix: (Units=GPa)
#
#
# Indices 1 2 3 4 5 6 
#
# 1 112.1289 4.0574 21.1491 -4.6289 -4.7558 6.7047
# 2 4.0574 47.6196 17.1606 -4.7237 -2.3607 -2.6907
# 3 21.1491 17.1606 141.8695 -14.8470 -13.9030 10.5584
# 4 -4.6289 -4.7237 -14.8470 37.6964 7.4189 -2.6035
# 5 -4.7558 -2.3607 -13.9030 7.4189 35.6929 3.2666
# 6 6.7047 -2.6907 10.5584 -2.6035 3.2666 30.5338
#
#
#
# Elastic Compliance Matrix: (Units=1/GPa)
#
#
# Indices 1 2 3 4 5 6 
#
# 1 0.009295 -0.000423 -0.001078 0.000369 0.000875 -0.001768
# 2 -0.000423 0.022372 -0.002708 0.001972 -0.000335 0.003205
# 3 -0.001078 -0.002708 0.008239 0.002029 0.002736 -0.002970
# 4 0.000369 0.001972 0.002029 0.028817 -0.005240 0.002409
# 5 0.000875 -0.000335 0.002736 -0.005240 0.030715 -0.004901
# 6 -0.001768 0.003205 -0.002970 0.002409 -0.004901 0.035178
#
#
# Mechanical properties :
#
#
# Convention : Reuss Voigt Hill
#
# Bulk Modulus (GPa) = 31.75981 42.92802 37.34391
# Shear Modulus (GPa) = 32.56692 38.06802 35.31747
#
# Velocity S-wave (km/s) = 3.70700 4.00788 3.86037
# Velocity P-wave (km/s) = 5.63239 6.28739 5.96888
#
# Compressibility (1/GPa) = 0.03148634
#
# Stress axis : x y z
#
# Youngs Moduli (GPa) = 107.58348 44.69917 121.37891
#
# Poissons Ratio (x) = 0.01892 0.13091
# Poissons Ratio (y) = 0.04553 0.32869
# Poissons Ratio (z) = 0.11603 0.12104
#
# Static dielectric constant tensor:
#      x y z
#    x 1.944280 -0.069300 0.004980 
#    y -0.069300 1.966870 0.020750 
#    z 0.004980 0.020750 2.004420 
# 
# From -- ./inp_files/494385.got.cif
#   From: 2010.05.17/outbox.cif.g08.bks.cpg/sg2_248_cif.got.tgz:494385.got - 2010.06.03 11:33:40.
