data_PCOD9047442
_publ_section_title
;
Structure prediction by ZEFSAII (Michael W. Deem and Ramdas Pophale) SiO2 
 PCOD9047442
Probable space group: P -1
;
_chemical_formula_sum "Si O2"
_cell_formula_units_Z 16
_cell_length_a 14.504964
_cell_length_b 8.440548
_cell_length_c 11.227486
_cell_angle_alpha 140.801515
_cell_angle_beta 117.763607
_cell_angle_gamma 86.708858
_cell_volume 645.607563
_symmetry_space_group_name_H-M "P -1"
_symmetry_group_IT_number 2
_symmetry_cell_setting 'triclinic'
loop_
_space_group_symop_operation_xyz
x,y,z
-x,-y,-z
loop_
_atom_site_type_symbol
_atom_site_label
_atom_site_fract_x
_atom_site_fract_y
_atom_site_fract_z
Si Si1 0.095970 0.506312 0.969661
Si Si2 0.699361 0.515302 0.779773
Si Si3 0.928117 0.750601 0.707929
Si Si4 0.287662 0.184760 0.402956
Si Si5 0.544229 0.961401 0.210818
Si Si6 0.053101 0.388985 0.610667
Si Si7 0.681150 0.011983 0.936531
Si Si8 0.472502 0.582196 0.179743
O O1 0.182044 0.434009 0.053364
O O2 0.181140 0.849013 0.176809
O O3 0.049818 0.325213 0.711934
O O4 0.000000 0.500000 0.000000
O O5 0.712130 0.817802 0.924605
O O6 0.590232 0.347693 0.712883
O O7 0.653534 0.282135 0.508223
O O8 0.785987 0.655229 0.571458
O O9 0.968968 0.832989 0.641024
O O10 0.959980 0.502906 0.607203
O O11 0.000000 0.000000 0.000000
O O12 0.353385 0.167170 0.314003
O O13 0.387716 0.311922 0.640928
O O14 0.472747 0.743842 0.154904
O O15 0.437886 0.982000 0.092630
O O16 0.595799 0.775455 0.075720
O O17 0.193888 0.668746 0.828019
#
# Coordination Sequence:
#
# PCOD9047442 Si02
#       8
#     2   2   2   2   2   2   2   2
#     4  11  25  44  71 101 141 186 233 293 345 413
#     4  12  25  43  67 102 141 180 232 287 349 410
#     4  11  21  41  75  95 131 178 242 286 346 410
#     4  11  22  41  71  94 133 187 227 285 356 412
#     4  11  23  42  68 100 136 179 235 283 350 416
#     4  10  24  44  67 101 133 187 238 283 348 428
#     4  11  23  41  67 100 142 181 225 293 348 419
#     4  11  23  43  70  98 134 184 226 286 352 421
#
# _framework density 24.782858999999998
#
# number of rings (size 3 to 8) (size 9 to 14) (size 15 to 20)
#    0.000    1.000    5.000    3.000    3.500    1.500 
#    2.250    0.625    0.000    0.000    0.000    0.000 
#    0.000    0.000    0.000    0.000    0.000    0.000 
#
# Total GULP energy -89544.946326 kJ/mol
# GULP energy per Si atom -5596.559145 kJ/mol
# Density = 2.472645 g / cm^3
# Si number density = 24.782859 Si / 1000 Ang^3
#
#
#
# Elastic Constant Matrix: (Units=GPa)
#
#
# Indices 1 2 3 4 5 6 
#
# 1 85.8933 49.9137 39.5796 -17.1294 -14.1172 -6.7734
# 2 49.9137 120.8233 42.8346 -19.7967 2.9150 -17.3769
# 3 39.5796 42.8346 103.7809 -18.1288 -23.0883 2.4338
# 4 -17.1294 -19.7967 -18.1288 34.2900 -9.5362 4.8577
# 5 -14.1172 2.9150 -23.0883 -9.5362 35.1427 -9.9476
# 6 -6.7734 -17.3769 2.4338 4.8577 -9.9476 49.0793
#
#
#
# Elastic Compliance Matrix: (Units=1/GPa)
#
#
# Indices 1 2 3 4 5 6 
#
# 1 0.019159 -0.006192 -0.001156 0.007945 0.010108 0.001771
# 2 -0.006192 0.012894 -0.004207 0.000209 -0.005475 0.002789
# 3 -0.001156 -0.004207 0.016341 0.009339 0.012939 -0.000761
# 4 0.007945 0.000209 0.009339 0.044060 0.021463 0.000696
# 5 0.010108 -0.005475 0.012939 0.021463 0.049179 0.006658
# 6 0.001771 0.002789 -0.000761 0.000696 0.006658 0.022925
#
#
# Mechanical properties :
#
#
# Convention : Reuss Voigt Hill
#
# Bulk Modulus (GPa) = 39.55335 63.90592 51.72964
# Shear Modulus (GPa) = 25.49773 35.58038 30.53905
#
# Velocity S-wave (km/s) = 3.21104 3.79315 3.51417
# Velocity P-wave (km/s) = 5.45365 6.71017 6.11427
#
# Compressibility (1/GPa) = 0.02528231
#
# Stress axis : x y z
#
# Youngs Moduli (GPa) = 52.19542 77.55820 61.19665
#
# Poissons Ratio (x) = 0.48027 0.07074
# Poissons Ratio (y) = 0.32321 0.25746
# Poissons Ratio (z) = 0.06034 0.32629
#
# Static dielectric constant tensor:
#      x y z
#    x 1.918930 0.021810 -0.036080 
#    y 0.021810 1.955240 0.014640 
#    z -0.036080 0.014640 2.017500 
# 
# From -- ./inp_files/448387.got.cif
#   From: 2010.05.17/outbox.cif.g08.bks.cpg/sg2_225_cif.got.tgz:448387.got - 2010.06.03 11:33:40.
