data_PCOD9047532
_publ_section_title
;
Structure prediction by ZEFSAII (Michael W. Deem and Ramdas Pophale) SiO2 
 PCOD9047532
Probable space group: P -1
;
_chemical_formula_sum "Si O2"
_cell_formula_units_Z 16
_cell_length_a 8.556573
_cell_length_b 22.858608
_cell_length_c 5.240361
_cell_angle_alpha 80.918708
_cell_angle_beta 120.449980
_cell_angle_gamma 128.910955
_cell_volume 667.581105
_symmetry_space_group_name_H-M "P -1"
_symmetry_group_IT_number 2
_symmetry_cell_setting 'triclinic'
loop_
_space_group_symop_operation_xyz
x,y,z
-x,-y,-z
loop_
_atom_site_type_symbol
_atom_site_label
_atom_site_fract_x
_atom_site_fract_y
_atom_site_fract_z
Si Si1 0.739443 0.837344 0.580403
Si Si2 0.925240 0.252902 0.414935
Si Si3 0.896487 0.328578 0.835524
Si Si4 0.721427 0.045925 0.960402
Si Si5 0.522669 0.105334 0.435811
Si Si6 0.242578 0.592863 0.078549
Si Si7 0.365785 0.259026 0.931784
Si Si8 0.615679 0.501190 0.843348
O O1 0.598328 0.866250 0.532878
O O2 0.650689 0.795118 0.263200
O O3 0.702648 0.783120 0.822229
O O4 0.020563 0.906951 0.739992
O O5 0.915125 0.286299 0.116758
O O6 0.689504 0.163661 0.306202
O O7 0.161491 0.263328 0.664544
O O8 0.896055 0.292602 0.599481
O O9 0.131395 0.416433 0.990916
O O10 0.726661 0.350557 0.720463
O O11 0.699211 0.103316 0.754986
O O12 0.672386 0.981403 0.770745
O O13 0.500000 0.000000 0.000000
O O14 0.360697 0.658647 0.903896
O O15 0.406728 0.572477 0.168755
O O16 0.000000 0.500000 0.000000
O O17 0.500000 0.500000 0.500000
O O18 0.500000 0.500000 0.000000
#
# Coordination Sequence:
#
# PCOD9047532 Si02
#       8
#     2   2   2   2   2   2   2   2
#     4  12  27  47  74 106 143 187 241 287 358 415
#     4  12  24  44  71  99 138 181 235 286 350 413
#     4  11  24  41  66  97 130 179 226 283 347 409
#     4  11  26  47  72 105 144 188 236 287 360 422
#     4  11  26  45  71 104 143 187 233 296 348 427
#     4  10  24  44  68 101 142 180 236 293 354 422
#     4  12  25  46  70 104 140 185 240 294 346 429
#     4  11  23  42  64  94 130 177 224 280 349 410
#
# _framework density 23.967127999999999
#
# number of rings (size 3 to 8) (size 9 to 14) (size 15 to 20)
#    0.000    0.750    1.250    5.625    5.250    2.500 
#    0.000    6.875    0.000    0.000    0.000    0.000 
#    0.000    0.000    0.000    0.000    0.000    0.000 
#
# Total GULP energy -89183.458728 kJ/mol
# GULP energy per Si atom -5573.966171 kJ/mol
# Density = 2.391258 g / cm^3
# Si number density = 23.967128 Si / 1000 Ang^3
#
#
#
# Elastic Constant Matrix: (Units=GPa)
#
#
# Indices 1 2 3 4 5 6 
#
# 1 115.2001 45.8494 35.6242 -7.4453 -6.2472 -21.4687
# 2 45.8494 99.2743 24.2359 -9.3699 8.8565 -2.9819
# 3 35.6242 24.2359 82.7488 -6.2079 -19.3453 -9.9886
# 4 -7.4453 -9.3699 -6.2079 28.1459 14.3976 8.3148
# 5 -6.2472 8.8565 -19.3453 14.3976 36.4865 2.7959
# 6 -21.4687 -2.9819 -9.9886 8.3148 2.7959 56.3408
#
#
#
# Elastic Compliance Matrix: (Units=1/GPa)
#
#
# Indices 1 2 3 4 5 6 
#
# 1 0.012450 -0.005211 -0.002970 -0.001332 0.002038 0.004037
# 2 -0.005211 0.015133 -0.004205 0.008648 -0.010000 -0.002710
# 3 -0.002970 -0.004205 0.017103 -0.004735 0.011309 0.001816
# 4 -0.001332 0.008648 -0.004735 0.051819 -0.024725 -0.007310
# 5 0.002038 -0.010000 0.011309 -0.024725 0.045658 0.003636
# 6 0.004037 -0.002710 0.001816 -0.007310 0.003636 0.020364
#
#
# Mechanical properties :
#
#
# Convention : Reuss Voigt Hill
#
# Bulk Modulus (GPa) = 50.21549 56.51583 53.36566
# Shear Modulus (GPa) = 25.78166 36.96223 31.37194
#
# Velocity S-wave (km/s) = 3.28336 3.93135 3.62188
# Velocity P-wave (km/s) = 5.94737 6.65125 6.30913
#
# Compressibility (1/GPa) = 0.01991417
#
# Stress axis : x y z
#
# Youngs Moduli (GPa) = 80.32335 66.07907 58.47034
#
# Poissons Ratio (x) = 0.34435 0.17363
# Poissons Ratio (y) = 0.41858 0.24587
# Poissons Ratio (z) = 0.23852 0.27787
#
# Static dielectric constant tensor:
#      x y z
#    x 2.092270 0.103320 0.073860 
#    y 0.103320 1.978890 0.025640 
#    z 0.073860 0.025640 1.881990 
# 
# From -- ./inp_files/52978.got.cif
#   From: 2010.05.17/outbox.cif.g08.bks.cpg/sg2_27_cif.got.tgz:52978.got - 2010.06.03 11:33:40.
