data_PCOD9047507
_publ_section_title
;
Structure prediction by ZEFSAII (Michael W. Deem and Ramdas Pophale) SiO2 
 PCOD9047507
Probable space group: P -1
;
_chemical_formula_sum "Si O2"
_cell_formula_units_Z 16
_cell_length_a 19.759197
_cell_length_b 16.863471
_cell_length_c 12.074115
_cell_angle_alpha 147.119066
_cell_angle_beta 43.850438
_cell_angle_gamma 159.710085
_cell_volume 708.519853
_symmetry_space_group_name_H-M "P -1"
_symmetry_group_IT_number 2
_symmetry_cell_setting 'triclinic'
loop_
_space_group_symop_operation_xyz
x,y,z
-x,-y,-z
loop_
_atom_site_type_symbol
_atom_site_label
_atom_site_fract_x
_atom_site_fract_y
_atom_site_fract_z
Si Si1 0.748187 0.805741 0.064384
Si Si2 0.330213 0.613798 0.270800
Si Si3 0.011963 0.753399 0.911851
Si Si4 0.538290 0.830476 0.681719
Si Si5 0.297872 0.877774 0.716045
Si Si6 0.902455 0.123313 0.487904
Si Si7 0.077048 0.091312 0.390264
Si Si8 0.656757 0.135807 0.127596
O O1 0.843605 0.982083 0.042853
O O2 0.852093 0.021904 0.300608
O O3 0.500000 0.500000 0.000000
O O4 0.773141 0.665775 0.887705
O O5 0.302195 0.709611 0.499758
O O6 0.217846 0.523188 0.186415
O O7 0.563882 0.889423 0.278209
O O8 0.080265 0.675379 0.738507
O O9 0.048846 0.890513 0.141140
O O10 0.317939 0.459130 0.527115
O O11 0.486706 0.909373 0.765742
O O12 0.702080 0.941755 0.560117
O O13 0.630373 0.010384 0.899748
O O14 0.396492 0.034173 0.903416
O O15 0.948914 0.034099 0.395103
O O16 0.106804 0.493530 0.700336
O O17 0.000000 0.000000 0.500000
#
# Coordination Sequence:
#
# PCOD9047507 Si02
#       8
#     2   2   2   2   2   2   2   2
#     4  12  24  43  74 101 139 178 234 280 346 419
#     4  11  25  44  66  99 137 178 228 281 344 412
#     4  12  25  44  69  99 137 184 225 281 348 408
#     4  10  24  44  70  96 138 180 234 289 344 406
#     4  11  26  42  66  99 139 178 227 282 350 406
#     4  11  24  44  73 103 132 188 232 286 347 411
#     4  11  27  44  68 105 139 178 238 288 344 412
#     4  10  24  44  67  99 137 179 235 282 344 417
#
# _framework density 22.582288999999999
#
# number of rings (size 3 to 8) (size 9 to 14) (size 15 to 20)
#    0.000    1.000    2.500    2.625    8.750    1.500 
#    0.000    0.000    0.000    0.000    0.000    0.000 
#    0.000    0.000    0.000    0.000    0.000    0.000 
#
# Total GULP energy -89539.181610 kJ/mol
# GULP energy per Si atom -5596.198851 kJ/mol
# Density = 2.253089 g / cm^3
# Si number density = 22.582289 Si / 1000 Ang^3
#
#
#
# Elastic Constant Matrix: (Units=GPa)
#
#
# Indices 1 2 3 4 5 6 
#
# 1 58.3353 15.4864 21.3180 -16.5383 8.1334 2.5962
# 2 15.4864 97.9509 22.6484 -23.6137 1.1649 15.9782
# 3 21.3180 22.6484 108.9095 -22.8539 13.2112 9.4386
# 4 -16.5383 -23.6137 -22.8539 33.0814 6.2956 -0.0739
# 5 8.1334 1.1649 13.2112 6.2956 38.7309 -4.6334
# 6 2.5962 15.9782 9.4386 -0.0739 -4.6334 30.2214
#
#
#
# Elastic Compliance Matrix: (Units=1/GPa)
#
#
# Indices 1 2 3 4 5 6 
#
# 1 0.021723 0.000039 -0.000830 0.011539 -0.006465 -0.002590
# 2 0.000039 0.014119 0.000488 0.011057 -0.003366 -0.008109
# 3 -0.000830 0.000488 0.012485 0.009743 -0.006284 -0.005026
# 4 0.011539 0.011057 0.009743 0.053689 -0.016271 -0.012243
# 5 -0.006465 -0.003366 -0.006284 -0.016271 0.033184 0.009346
# 6 -0.002590 -0.008109 -0.005026 -0.012243 0.009346 0.040572
#
#
# Mechanical properties :
#
#
# Convention : Reuss Voigt Hill
#
# Bulk Modulus (GPa) = 20.95560 42.67792 31.81676
# Shear Modulus (GPa) = 26.00276 34.12294 30.06285
#
# Velocity S-wave (km/s) = 3.39701 3.89144 3.65260
# Velocity P-wave (km/s) = 4.96850 6.25547 5.64876
#
# Compressibility (1/GPa) = 0.04771995
#
# Stress axis : x y z
#
# Youngs Moduli (GPa) = 46.03332 70.82780 80.09389
#
# Poissons Ratio (x) = -0.00273 0.06648
# Poissons Ratio (y) = -0.00177 -0.03907
# Poissons Ratio (z) = 0.03821 -0.03455
#
# Static dielectric constant tensor:
#      x y z
#    x 1.852370 0.011660 -0.018530 
#    y 0.011660 1.835280 0.020260 
#    z -0.018530 0.020260 1.823340 
# 
# From -- ./inp_files/398222.got.cif
#   From: 2010.05.17/outbox.cif.g08.bks.cpg/sg2_200_cif.got.tgz:398222.got - 2010.06.03 11:33:40.
