data_PCOD9047226
_publ_section_title
;
Structure prediction by ZEFSAII (Michael W. Deem and Ramdas Pophale) SiO2 
 PCOD9047226
Probable space group: P -1
;
_chemical_formula_sum "Si O2"
_cell_formula_units_Z 14
_cell_length_a 12.931498
_cell_length_b 9.349869
_cell_length_c 11.702213
_cell_angle_alpha 53.876323
_cell_angle_beta 130.546534
_cell_angle_gamma 146.790591
_cell_volume 585.305673
_symmetry_space_group_name_H-M "P -1"
_symmetry_group_IT_number 2
_symmetry_cell_setting 'triclinic'
loop_
_space_group_symop_operation_xyz
x,y,z
-x,-y,-z
loop_
_atom_site_type_symbol
_atom_site_label
_atom_site_fract_x
_atom_site_fract_y
_atom_site_fract_z
Si Si1 0.463659 0.051085 0.826066
Si Si2 0.339784 0.006936 0.375756
Si Si3 0.160451 0.701108 0.167976
Si Si4 0.812337 0.750080 0.411952
Si Si5 0.599887 0.590884 0.688097
Si Si6 0.010869 0.814697 0.817046
Si Si7 0.098921 0.730882 0.549656
O O1 0.619145 0.114123 0.817717
O O2 0.526657 0.315008 0.766604
O O3 0.241404 0.820626 0.717640
O O4 0.500000 0.000000 0.000000
O O5 0.182066 0.786739 0.272519
O O6 0.264821 0.972338 0.467436
O O7 0.500000 0.000000 0.500000
O O8 0.397521 0.268410 0.267099
O O9 0.052317 0.408940 0.205568
O O10 0.055643 0.754363 0.994387
O O11 0.617461 0.541707 0.450829
O O12 0.903716 0.659107 0.472731
O O13 0.000000 0.000000 0.500000
O O14 0.806345 0.892504 0.240103
O O15 0.826794 0.772421 0.724302
O O16 0.000000 0.500000 0.500000
#
# Coordination Sequence:
#
# PCOD9047226 Si02
#       7
#     2   2   2   2   2   2   2
#     4  11  24  47  73 104 143 190 240 291 351 428
#     4  12  25  45  70 104 145 181 230 298 354 418
#     4  10  24  43  74  99 140 187 233 284 363 417
#     4  12  25  42  71 100 137 183 237 285 347 421
#     4  11  25  45  71 100 143 183 233 290 352 417
#     4  10  24  47  69 104 134 187 236 287 348 429
#     4  12  27  44  69 108 143 183 236 297 355 417
#
# _framework density 23.919124
#
# number of rings (size 3 to 8) (size 9 to 14) (size 15 to 20)
#    0.000    0.857    4.286    1.714    4.000    4.000 
#    2.571    1.429    0.000    0.000    0.000    0.000 
#    0.000    0.000    0.000    0.000    0.000    0.000 
#
# Total GULP energy -78006.646554 kJ/mol
# GULP energy per Si atom -5571.903325 kJ/mol
# Density = 2.386468 g / cm^3
# Si number density = 23.919124 Si / 1000 Ang^3
#
#
#
# Elastic Constant Matrix: (Units=GPa)
#
#
# Indices 1 2 3 4 5 6 
#
# 1 147.7009 20.5381 61.1986 1.7958 28.6261 7.8716
# 2 20.5381 90.1702 34.9774 10.9627 9.5014 -13.0817
# 3 61.1986 34.9774 134.6737 7.0489 -4.7820 -14.4894
# 4 1.7958 10.9627 7.0489 26.8347 -5.5764 3.6324
# 5 28.6261 9.5014 -4.7820 -5.5764 35.4931 4.0741
# 6 7.8716 -13.0817 -14.4894 3.6324 4.0741 68.3049
#
#
#
# Elastic Compliance Matrix: (Units=1/GPa)
#
#
# Indices 1 2 3 4 5 6 
#
# 1 0.011033 0.000628 -0.005638 -0.001330 -0.009841 -0.001690
# 2 0.000628 0.014132 -0.003553 -0.006497 -0.006086 0.002589
# 3 -0.005638 -0.003553 0.011365 -0.000010 0.006801 0.001975
# 4 -0.001330 -0.006497 -0.000010 0.042616 0.009960 -0.003954
# 5 -0.009841 -0.006086 0.006801 0.009960 0.040397 -0.001528
# 6 -0.001690 0.002589 0.001975 -0.003954 -0.001528 0.016051
#
#
# Mechanical properties :
#
#
# Convention : Reuss Voigt Hill
#
# Bulk Modulus (GPa) = 51.53937 67.33032 59.43485
# Shear Modulus (GPa) = 31.40917 43.18191 37.29554
#
# Velocity S-wave (km/s) = 3.62766 4.25353 3.95300
# Velocity P-wave (km/s) = 6.25625 7.23420 6.76292
#
# Compressibility (1/GPa) = 0.01940264
#
# Stress axis : x y z
#
# Youngs Moduli (GPa) = 90.63924 70.75986 87.99120
#
# Poissons Ratio (x) = -0.04441 0.49610
# Poissons Ratio (y) = -0.05689 0.31264
# Poissons Ratio (z) = 0.51103 0.25142
#
# Static dielectric constant tensor:
#      x y z
#    x 1.784230 0.315820 -0.034800 
#    y 0.315820 3.002930 -0.316480 
#    z -0.034800 -0.316480 2.033300 
# 
# From -- ./inp_files/295261.got.cif
#   From: 2010.05.17/outbox.cif.g08.bks.cpg/sg2_148_cif.got.tgz:295261.got - 2010.06.03 11:33:40.
