data_PCOD9047964
_publ_section_title
;
Structure prediction by ZEFSAII (Michael W. Deem and Ramdas Pophale) SiO2 
 PCOD9047964
Probable space group: P -1
;
_chemical_formula_sum "Si O2"
_cell_formula_units_Z 13
_cell_length_a 10.871292
_cell_length_b 9.466990
_cell_length_c 8.800008
_cell_angle_alpha 134.138723
_cell_angle_beta 124.297494
_cell_angle_gamma 81.244838
_cell_volume 490.910762
_symmetry_space_group_name_H-M "P -1"
_symmetry_group_IT_number 2
_symmetry_cell_setting 'triclinic'
loop_
_space_group_symop_operation_xyz
x,y,z
-x,-y,-z
loop_
_atom_site_type_symbol
_atom_site_label
_atom_site_fract_x
_atom_site_fract_y
_atom_site_fract_z
Si Si1 0.321062 0.938556 0.268231
Si Si2 0.909091 0.836509 0.110679
Si Si3 0.807502 0.526124 0.550473
Si Si4 0.323767 0.940447 0.908507
Si Si5 0.795771 0.737253 0.412079
Si Si6 0.500000 0.500000 0.500000
Si Si7 0.727372 0.462413 0.890814
O O1 0.232102 0.722542 0.142928
O O2 0.500000 0.000000 0.500000
O O3 0.275712 0.131830 0.433088
O O4 0.319903 0.914926 0.068875
O O5 0.736823 0.868081 0.019505
O O6 0.917542 0.738531 0.879164
O O7 0.887108 0.647426 0.068336
O O8 0.051033 0.065972 0.405498
O O9 0.803497 0.292950 0.411521
O O10 0.843114 0.586794 0.445123
O O11 0.625302 0.494518 0.448242
O O12 0.500000 0.000000 0.000000
O O13 0.682713 0.586779 0.090725
O O14 0.597308 0.401901 0.618975
#
# Coordination Sequence:
#
# PCOD9047964 Si02
#       7
#     2   2   2   2   2   1   2
#     4  12  29  44  72 113 144 187 250 302 364 436
#     4  11  27  47  74 106 148 196 245 291 365 446
#     4  11  23  43  73 104 147 186 236 306 352 428
#     4  12  27  46  75 111 144 195 246 297 367 438
#     4  12  26  48  73 107 149 195 241 301 365 432
#     4  10  24  44  72 102 140 190 238 292 378 416
#     4  11  26  48  71 107 147 192 240 309 365 428
#
# _framework density 26.481390999999999
#
# number of rings (size 3 to 8) (size 9 to 14) (size 15 to 20)
#    0.000    0.615    3.077    3.692   10.769    3.692 
#    0.000    0.769    0.000    0.000    0.000    0.000 
#    0.000    0.000    0.000    0.000    0.000    0.000 
#
# Total GULP energy -72571.681911 kJ/mol
# GULP energy per Si atom -5582.437070 kJ/mol
# Density = 2.642112 g / cm^3
# Si number density = 26.481391 Si / 1000 Ang^3
#
#
#
# Elastic Constant Matrix: (Units=GPa)
#
#
# Indices 1 2 3 4 5 6 
#
# 1 80.6642 32.9524 -0.3420 -8.3312 2.3514 -1.8418
# 2 32.9524 162.1152 35.2893 21.1767 -2.4304 16.0857
# 3 -0.3420 35.2893 92.6487 -4.8113 -20.9970 -5.8573
# 4 -8.3312 21.1767 -4.8113 44.2747 4.5925 -2.6281
# 5 2.3514 -2.4304 -20.9970 4.5925 33.1985 -0.3588
# 6 -1.8418 16.0857 -5.8573 -2.6281 -0.3588 44.6348
#
#
#
# Elastic Compliance Matrix: (Units=1/GPa)
#
#
# Indices 1 2 3 4 5 6 
#
# 1 0.014873 -0.004460 0.002026 0.005403 -0.000816 0.002799
# 2 -0.004460 0.009210 -0.004333 -0.005876 -0.000985 -0.004426
# 3 0.002026 -0.004333 0.014790 0.003412 0.008463 0.003855
# 4 0.005403 -0.005876 0.003412 0.027291 -0.002383 0.004376
# 5 -0.000816 -0.000985 0.008463 -0.002383 0.035807 0.001579
# 6 0.002799 -0.004426 0.003855 0.004376 0.001579 0.024891
#
#
# Mechanical properties :
#
#
# Convention : Reuss Voigt Hill
#
# Bulk Modulus (GPa) = 39.46194 52.35862 45.91028
# Shear Modulus (GPa) = 33.59267 42.25681 37.92474
#
# Velocity S-wave (km/s) = 3.56552 3.99898 3.78845
# Velocity P-wave (km/s) = 5.64665 6.41383 6.04243
#
# Compressibility (1/GPa) = 0.02534087
#
# Stress axis : x y z
#
# Youngs Moduli (GPa) = 67.23435 108.57675 67.61248
#
# Poissons Ratio (x) = 0.48425 -0.13701
# Poissons Ratio (y) = 0.29987 0.29295
# Poissons Ratio (z) = -0.13624 0.47043
#
# Static dielectric constant tensor:
#      x y z
#    x 1.823430 0.327510 0.093780 
#    y 0.327510 1.801510 0.093830 
#    z 0.093780 0.093830 1.745160 
# 
# From -- ./inp_files/246199.got.cif
#   From: 2010.05.17/outbox.cif.g08.bks.cpg/sg2_124_cif.got.tgz:246199.got - 2010.06.03 11:33:40.
