data_PCOD9047613
_publ_section_title
;
Structure prediction by ZEFSAII (Michael W. Deem and Ramdas Pophale) SiO2 
 PCOD9047613
Probable space group: P -1
;
_chemical_formula_sum "Si O2"
_cell_formula_units_Z 13
_cell_length_a 14.918745
_cell_length_b 8.704009
_cell_length_c 15.800330
_cell_angle_alpha 54.891288
_cell_angle_beta 18.118703
_cell_angle_gamma 49.698971
_cell_volume 479.787298
_symmetry_space_group_name_H-M "P -1"
_symmetry_group_IT_number 2
_symmetry_cell_setting 'triclinic'
loop_
_space_group_symop_operation_xyz
x,y,z
-x,-y,-z
loop_
_atom_site_type_symbol
_atom_site_label
_atom_site_fract_x
_atom_site_fract_y
_atom_site_fract_z
Si Si1 0.302199 0.188725 0.558507
Si Si2 0.000000 0.500000 0.000000
Si Si3 0.208773 0.775229 0.611053
Si Si4 0.615690 0.001021 0.160861
Si Si5 0.279475 0.373130 0.229598
Si Si6 0.714613 0.421767 0.114380
Si Si7 0.238944 0.216206 0.136806
O O1 0.435594 0.117347 0.367806
O O2 0.411942 0.373805 0.416220
O O3 0.500000 0.000000 0.500000
O O4 0.945302 0.270580 0.884886
O O5 0.113690 0.616088 0.938145
O O6 0.186002 0.578664 0.734085
O O7 0.025471 0.818067 0.672207
O O8 0.548727 0.789798 0.292165
O O9 0.975634 0.945554 0.831451
O O10 0.439753 0.146389 0.195822
O O11 0.158816 0.346789 0.253943
O O12 0.000000 0.500000 0.500000
O O13 0.500000 0.500000 0.000000
O O14 0.636438 0.648164 0.077936
O O15 0.500000 0.000000 0.000000
#
# Coordination Sequence:
#
# PCOD9047613 Si02
#       7
#     2   1   2   2   2   2   2
#     4  12  24  44  71 101 141 183 230 292 362 419
#     4  10  24  44  68  96 138 170 230 288 346 398
#     4  11  25  43  69 102 132 182 227 285 338 418
#     4  12  24  43  67  99 136 175 233 276 347 410
#     4  12  26  45  69  99 138 183 230 288 344 408
#     4  11  25  44  69 105 136 183 238 290 347 425
#     4  11  25  48  72 103 145 192 237 290 350 424
#
# _framework density 27.095341000000001
#
# number of rings (size 3 to 8) (size 9 to 14) (size 15 to 20)
#    0.000    0.615    1.538    6.000    0.000    8.000 
#    0.000    0.000    0.000    0.000    0.000    0.000 
#    0.000    0.000    0.000    0.000    0.000    0.000 
#
# Total GULP energy -72672.950272 kJ/mol
# GULP energy per Si atom -5590.226944 kJ/mol
# Density = 2.703367 g / cm^3
# Si number density = 27.095341 Si / 1000 Ang^3
#
#
#
# Elastic Constant Matrix: (Units=GPa)
#
#
# Indices 1 2 3 4 5 6 
#
# 1 187.1622 21.4424 46.8289 -1.3593 38.4325 9.9361
# 2 21.4424 91.2054 20.7957 -2.4925 11.6359 -10.7953
# 3 46.8289 20.7957 196.0425 4.8268 0.3685 16.3439
# 4 -1.3593 -2.4925 4.8268 53.9193 18.7801 17.6796
# 5 38.4325 11.6359 0.3685 18.7801 48.8973 7.2673
# 6 9.9361 -10.7953 16.3439 17.6796 7.2673 65.6748
#
#
#
# Elastic Compliance Matrix: (Units=1/GPa)
#
#
# Indices 1 2 3 4 5 6 
#
# 1 0.007216 -0.000505 -0.001661 0.002839 -0.006510 -0.000805
# 2 -0.000505 0.012137 -0.001394 0.000973 -0.003228 0.002514
# 3 -0.001661 -0.001394 0.005781 -0.000912 0.002153 -0.001410
# 4 0.002839 0.000973 -0.000912 0.024341 -0.011005 -0.005377
# 5 -0.006510 -0.003228 0.002153 -0.011005 0.030622 -0.000507
# 6 -0.000805 0.002514 -0.001410 -0.005377 -0.000507 0.017616
#
#
# Mechanical properties :
#
#
# Convention : Reuss Voigt Hill
#
# Bulk Modulus (GPa) = 55.51063 72.50487 64.00775
# Shear Modulus (GPa) = 45.11062 59.38781 52.24921
#
# Velocity S-wave (km/s) = 4.08473 4.68675 4.39606
# Velocity P-wave (km/s) = 6.54051 7.49031 7.03147
#
# Compressibility (1/GPa) = 0.01801457
#
# Stress axis : x y z
#
# Youngs Moduli (GPa) = 138.57139 82.39361 172.96713
#
# Poissons Ratio (x) = 0.04162 0.28725
# Poissons Ratio (y) = 0.07000 0.24116
# Poissons Ratio (z) = 0.23013 0.11488
#
# Static dielectric constant tensor:
#      x y z
#    x 2.098580 0.099630 -0.010070 
#    y 0.099630 2.064440 0.068040 
#    z -0.010070 0.068040 2.028850 
# 
# From -- ./inp_files/366067.got.cif
#   From: 2010.05.17/outbox.cif.g08.bks.cpg/sg2_184_cif.got.tgz:366067.got - 2010.06.03 11:33:40.
