data_PCOD9047862
_publ_section_title
;
Structure prediction by ZEFSAII (Michael W. Deem and Ramdas Pophale) SiO2 
 PCOD9047862
Probable space group: P -1
;
_chemical_formula_sum "Si O2"
_cell_formula_units_Z 12
_cell_length_a 10.556846
_cell_length_b 15.109034
_cell_length_c 4.842500
_cell_angle_alpha 121.174711
_cell_angle_beta 118.425125
_cell_angle_gamma 43.372245
_cell_volume 447.249355
_symmetry_space_group_name_H-M "P -1"
_symmetry_group_IT_number 2
_symmetry_cell_setting 'triclinic'
loop_
_space_group_symop_operation_xyz
x,y,z
-x,-y,-z
loop_
_atom_site_type_symbol
_atom_site_label
_atom_site_fract_x
_atom_site_fract_y
_atom_site_fract_z
Si Si1 0.730698 0.211118 0.099344
Si Si2 0.693604 0.903076 0.207936
Si Si3 0.882737 0.644602 0.257576
Si Si4 0.250406 0.566781 0.381837
Si Si5 0.143010 0.053765 0.033034
Si Si6 0.351430 0.386549 0.688254
O O1 0.686367 0.345077 0.387212
O O2 0.556819 0.264671 0.808244
O O3 0.928551 0.132167 0.019590
O O4 0.766011 0.101226 0.170262
O O5 0.721292 0.772332 0.120508
O O6 0.730845 0.953893 0.602813
O O7 0.843743 0.877479 0.103558
O O8 0.500000 0.000000 0.000000
O O9 0.041099 0.659546 0.444080
O O10 0.791624 0.640777 0.431892
O O11 0.000000 0.500000 0.000000
O O12 0.272119 0.515132 0.011918
O O13 0.349990 0.435007 0.463447
#
# Coordination Sequence:
#
# PCOD9047862 Si02
#       6
#     2   2   2   2   2   2
#     4  11  25  47  70 104 145 182 235 282 352 422
#     4  12  26  49  73 104 141 186 238 288 348 419
#     4  10  24  44  71 101 139 182 233 291 345 406
#     4  11  24  43  70 101 142 182 230 287 351 407
#     4  11  28  44  73 102 140 190 226 292 348 415
#     4  11  25  42  70 105 137 184 232 287 345 417
#
# _framework density 26.830667999999999
#
# number of rings (size 3 to 8) (size 9 to 14) (size 15 to 20)
#    0.000    1.000    1.667    3.000    4.667   12.000 
#    0.000    0.000    0.000    0.000    0.000    0.000 
#    0.000    0.000    0.000    0.000    0.000    0.000 
#
# Total GULP energy -67274.378497 kJ/mol
# GULP energy per Si atom -5606.198208 kJ/mol
# Density = 2.676960 g / cm^3
# Si number density = 26.830668 Si / 1000 Ang^3
#
#
#
# Elastic Constant Matrix: (Units=GPa)
#
#
# Indices 1 2 3 4 5 6 
#
# 1 141.7162 32.2305 40.1458 1.2008 5.1870 2.7085
# 2 32.2305 154.4751 18.7430 -4.2342 8.8345 14.6492
# 3 40.1458 18.7430 81.2530 -5.5991 -10.3653 17.7096
# 4 1.2008 -4.2342 -5.5991 34.0633 0.4321 12.0494
# 5 5.1870 8.8345 -10.3653 0.4321 32.9647 -11.6930
# 6 2.7085 14.6492 17.7096 12.0494 -11.6930 42.1328
#
#
#
# Elastic Compliance Matrix: (Units=1/GPa)
#
#
# Indices 1 2 3 4 5 6 
#
# 1 0.008781 -0.001390 -0.004819 -0.001963 -0.001786 0.002010
# 2 -0.001390 0.007441 -0.000445 0.002322 -0.003329 -0.003899
# 3 -0.004819 -0.000445 0.017233 0.005501 0.003618 -0.007348
# 4 -0.001963 0.002322 0.005501 0.035755 -0.004150 -0.014371
# 5 -0.001786 -0.003329 0.003618 -0.004150 0.036640 0.011107
# 6 0.002010 -0.003899 -0.007348 -0.014371 0.011107 0.035242
#
#
# Mechanical properties :
#
#
# Convention : Reuss Voigt Hill
#
# Bulk Modulus (GPa) = 49.63231 62.18700 55.90965
# Shear Modulus (GPa) = 31.03349 40.92050 35.97700
#
# Velocity S-wave (km/s) = 3.40463 3.90954 3.66579
# Velocity P-wave (km/s) = 5.83043 6.60358 6.22901
#
# Compressibility (1/GPa) = 0.02014817
#
# Stress axis : x y z
#
# Youngs Moduli (GPa) = 113.87944 134.38643 58.02799
#
# Poissons Ratio (x) = 0.18676 0.27965
# Poissons Ratio (y) = 0.15826 0.02580
# Poissons Ratio (z) = 0.54882 0.05976
#
# Static dielectric constant tensor:
#      x y z
#    x 2.065350 -0.055750 0.078520 
#    y -0.055750 2.121650 0.009240 
#    z 0.078520 0.009240 2.092970 
# 
# From -- ./inp_files/76798.got.cif
#   From: 2010.05.17/outbox.cif.g08.bks.cpg/sg2_39_cif.got.tgz:76798.got - 2010.06.03 11:33:40.
