data_PCOD9047800
_publ_section_title
;
Structure prediction by ZEFSAII (Michael W. Deem and Ramdas Pophale) SiO2 
 PCOD9047800
Probable space group: P -1
;
_chemical_formula_sum "Si O2"
_cell_formula_units_Z 16
_cell_length_a 15.417857
_cell_length_b 8.690438
_cell_length_c 12.620495
_cell_angle_alpha 127.032630
_cell_angle_beta 129.835452
_cell_angle_gamma 29.658015
_cell_volume 637.878082
_symmetry_space_group_name_H-M "P -1"
_symmetry_group_IT_number 2
_symmetry_cell_setting 'triclinic'
loop_
_space_group_symop_operation_xyz
x,y,z
-x,-y,-z
loop_
_atom_site_type_symbol
_atom_site_label
_atom_site_fract_x
_atom_site_fract_y
_atom_site_fract_z
Si Si1 0.105854 0.153035 0.452774
Si Si2 0.616868 0.045772 0.562153
Si Si3 0.529307 0.456598 0.192211
Si Si4 0.258497 0.902383 0.005260
Si Si5 0.921761 0.236256 0.776548
Si Si6 0.558146 0.924009 0.749373
Si Si7 0.348979 0.099875 0.850826
Si Si8 0.005939 0.613184 0.313386
O O1 0.298801 0.927797 0.452420
O O2 0.091108 0.148698 0.565391
O O3 0.000000 0.500000 0.500000
O O4 0.031721 0.052402 0.306281
O O5 0.491930 0.963927 0.596316
O O6 0.797752 0.727566 0.633640
O O7 0.487896 0.338481 0.660669
O O8 0.658800 0.294088 0.121800
O O9 0.591661 0.198961 0.205821
O O10 0.332637 0.690682 0.077829
O O11 0.043314 0.180705 0.935805
O O12 0.341624 0.005523 0.126625
O O13 0.968467 0.278157 0.719158
O O14 0.706131 0.567226 0.755932
O O15 0.383691 0.138490 0.778147
O O16 0.132070 0.377183 0.818717
O O17 0.500000 0.000000 0.000000
#
# Coordination Sequence:
#
# PCOD9047800 Si02
#       8
#     2   2   2   2   2   2   2   2
#     4  10  24  44  70 106 148 192 238 304 371 442
#     4  11  26  47  72 112 147 194 250 309 371 429
#     4  11  25  44  72 102 150 190 248 308 361 443
#     4  11  26  48  71 107 151 203 242 302 385 442
#     4  12  25  44  75 112 145 195 253 308 366 446
#     4  12  26  46  79 108 154 192 251 310 365 446
#     4  12  24  46  75 106 145 201 246 299 370 447
#     4  11  24  46  72 107 153 194 243 304 380 441
#
# _framework density 25.083162000000002
#
# number of rings (size 3 to 8) (size 9 to 14) (size 15 to 20)
#    0.000    0.750    3.750    2.250    1.750   11.000 
#    0.000    1.875    0.000    0.000    0.000    0.000 
#    0.000    0.000    0.000    0.000    0.000    0.000 
#
# Total GULP energy -89515.245533 kJ/mol
# GULP energy per Si atom -5594.702846 kJ/mol
# Density = 2.502607 g / cm^3
# Si number density = 25.083162 Si / 1000 Ang^3
#
#
#
# Elastic Constant Matrix: (Units=GPa)
#
#
# Indices 1 2 3 4 5 6 
#
# 1 69.6961 20.0229 36.3932 6.9925 13.7884 -21.9092
# 2 20.0229 111.5527 66.4165 -17.5020 14.7536 11.4424
# 3 36.3932 66.4165 157.5757 5.3058 8.8281 -15.4492
# 4 6.9925 -17.5020 5.3058 44.2378 -9.0567 -1.1711
# 5 13.7884 14.7536 8.8281 -9.0567 43.1620 -0.0486
# 6 -21.9092 11.4424 -15.4492 -1.1711 -0.0486 28.8978
#
#
#
# Elastic Compliance Matrix: (Units=1/GPa)
#
#
# Indices 1 2 3 4 5 6 
#
# 1 0.025428 -0.006910 -0.000176 -0.007656 -0.007308 0.021598
# 2 -0.006910 0.017926 -0.007803 0.008581 -0.000542 -0.016161
# 3 -0.000176 -0.007803 0.010667 -0.004181 -0.000326 0.008489
# 4 -0.007656 0.008581 -0.004181 0.028748 0.006388 -0.010262
# 5 -0.007308 -0.000542 -0.000326 0.006388 0.027089 -0.005196
# 6 0.021598 -0.016161 0.008489 -0.010262 -0.005196 0.061493
#
#
# Mechanical properties :
#
#
# Convention : Reuss Voigt Hill
#
# Bulk Modulus (GPa) = 41.24651 64.94329 53.09490
# Shear Modulus (GPa) = 23.89951 37.65899 30.77925
#
# Velocity S-wave (km/s) = 3.09011 3.87895 3.50678
# Velocity P-wave (km/s) = 5.40475 6.78300 6.13271
#
# Compressibility (1/GPa) = 0.02424447
#
# Stress axis : x y z
#
# Youngs Moduli (GPa) = 39.32667 55.78452 93.74752
#
# Poissons Ratio (x) = 0.38545 0.01647
# Poissons Ratio (y) = 0.27173 0.73151
# Poissons Ratio (z) = 0.00691 0.43528
#
# Static dielectric constant tensor:
#      x y z
#    x 2.083940 -0.014470 0.006750 
#    y -0.014470 2.052330 -0.017410 
#    z 0.006750 -0.017410 1.997930 
# 
# From -- ./inp_files/530151.got.cif
#   From: 2010.05.17/outbox.cif.g08.bks.cpg/sg2_266_cif.got.tgz:530151.got - 2010.06.03 11:33:40.
