data_PCOD9047901
_publ_section_title
;
Structure prediction by ZEFSAII (Michael W. Deem and Ramdas Pophale) SiO2 
 PCOD9047901
Probable space group: P -1
;
_chemical_formula_sum "Si O2"
_cell_formula_units_Z 12
_cell_length_a 5.278679
_cell_length_b 9.774587
_cell_length_c 15.706572
_cell_angle_alpha 114.101965
_cell_angle_beta 137.726510
_cell_angle_gamma 68.188769
_cell_volume 494.426632
_symmetry_space_group_name_H-M "P -1"
_symmetry_group_IT_number 2
_symmetry_cell_setting 'triclinic'
loop_
_space_group_symop_operation_xyz
x,y,z
-x,-y,-z
loop_
_atom_site_type_symbol
_atom_site_label
_atom_site_fract_x
_atom_site_fract_y
_atom_site_fract_z
Si Si1 0.718552 0.837106 0.501971
Si Si2 0.464871 0.708773 0.577817
Si Si3 0.556738 0.021559 0.920388
Si Si4 0.387885 0.294780 0.198541
Si Si5 0.279511 0.402956 0.688213
Si Si6 0.429428 0.663267 0.067725
O O1 0.692915 0.758207 0.567095
O O2 0.532245 0.724190 0.362535
O O3 0.500000 0.000000 0.500000
O O4 0.130609 0.838514 0.560900
O O5 0.701058 0.678828 0.716118
O O6 0.168121 0.594184 0.443259
O O7 0.406981 0.874842 0.804458
O O8 0.411361 0.191515 0.899019
O O9 0.500000 0.000000 0.000000
O O10 0.000000 0.000000 0.000000
O O11 0.600388 0.435058 0.261104
O O12 0.023714 0.303490 0.048683
O O13 0.407052 0.353482 0.801351
O O14 0.500000 0.500000 0.000000
#
# Coordination Sequence:
#
# PCOD9047901 Si02
#       6
#     2   2   2   2   2   2
#     4  10  24  44  71 105 145 185 234 292 354 418
#     4  10  25  44  72 101 140 188 236 286 353 421
#     4  10  24  46  68 101 140 184 231 287 351 418
#     4  11  24  47  70 105 143 189 236 294 354 423
#     4  10  25  44  71 104 141 186 236 288 354 418
#     4  11  25  45  75 106 143 187 240 295 356 421
#
# _framework density 24.27054
#
# number of rings (size 3 to 8) (size 9 to 14) (size 15 to 20)
#    1.000    0.667    0.000    2.500    4.667    6.000 
#    3.000    0.000    0.000    0.000    0.000    0.000 
#    0.000    0.000    0.000    0.000    0.000    0.000 
#
# Total GULP energy -67018.318836 kJ/mol
# GULP energy per Si atom -5584.859903 kJ/mol
# Density = 2.421530 g / cm^3
# Si number density = 24.270540 Si / 1000 Ang^3
#
#
#
# Elastic Constant Matrix: (Units=GPa)
#
#
# Indices 1 2 3 4 5 6 
#
# 1 110.1768 57.9975 60.8027 -1.9140 -34.2537 8.8367
# 2 57.9975 229.2333 72.9539 19.0093 -28.6014 11.5061
# 3 60.8027 72.9539 157.7623 4.2292 -36.3734 7.8087
# 4 -1.9140 19.0093 4.2292 45.4331 4.7392 -6.5395
# 5 -34.2537 -28.6014 -36.3734 4.7392 60.8018 -10.9616
# 6 8.8367 11.5061 7.8087 -6.5395 -10.9616 35.1583
#
#
#
# Elastic Compliance Matrix: (Units=1/GPa)
#
#
# Indices 1 2 3 4 5 6 
#
# 1 0.013290 -0.001838 -0.003238 0.001100 0.004527 -0.000404
# 2 -0.001838 0.005711 -0.001655 -0.002568 0.000623 -0.001323
# 3 -0.003238 -0.001655 0.009020 -0.000562 0.002863 0.000140
# 4 0.001100 -0.002568 -0.000562 0.024044 -0.001980 0.004544
# 5 0.004527 0.000623 0.002863 -0.001980 0.021969 0.004504
# 6 -0.000404 -0.001323 0.000140 0.004544 0.004504 0.031196
#
#
# Mechanical properties :
#
#
# Convention : Reuss Voigt Hill
#
# Bulk Modulus (GPa) = 68.68336 97.85339 83.26837
# Shear Modulus (GPa) = 40.47172 48.63987 44.55580
#
# Velocity S-wave (km/s) = 4.08796 4.48154 4.28927
# Velocity P-wave (km/s) = 7.11635 8.19660 7.67550
#
# Compressibility (1/GPa) = 0.01455957
#
# Stress axis : x y z
#
# Youngs Moduli (GPa) = 75.24725 175.09732 110.86748
#
# Poissons Ratio (x) = 0.32184 0.35896
# Poissons Ratio (y) = 0.13831 0.18345
# Poissons Ratio (z) = 0.24363 0.28972
#
# Static dielectric constant tensor:
#      x y z
#    x 1.978390 -0.101270 0.073820 
#    y -0.101270 1.988530 -0.014350 
#    z 0.073820 -0.014350 2.003440 
# 
# From -- ./inp_files/480699.got.cif
#   From: 2010.05.17/outbox.cif.g08.bks.cpg/sg2_241_cif.got.tgz:480699.got - 2010.06.03 11:33:40.
