data_PCOD9047540
_publ_section_title
;
Structure prediction by ZEFSAII (Michael W. Deem and Ramdas Pophale) SiO2 
 PCOD9047540
Probable space group: P -1
;
_chemical_formula_sum "Si O2"
_cell_formula_units_Z 12
_cell_length_a 9.629716
_cell_length_b 10.088442
_cell_length_c 11.831449
_cell_angle_alpha 99.166812
_cell_angle_beta 68.697183
_cell_angle_gamma 152.082877
_cell_volume 465.651915
_symmetry_space_group_name_H-M "P -1"
_symmetry_group_IT_number 2
_symmetry_cell_setting 'triclinic'
loop_
_space_group_symop_operation_xyz
x,y,z
-x,-y,-z
loop_
_atom_site_type_symbol
_atom_site_label
_atom_site_fract_x
_atom_site_fract_y
_atom_site_fract_z
Si Si1 0.170550 0.655617 0.089893
Si Si2 0.804397 0.559847 0.352345
Si Si3 0.224120 0.504612 0.247046
Si Si4 0.149073 0.174896 0.863685
Si Si5 0.479403 0.842455 0.420126
Si Si6 0.638109 0.772092 0.751773
O O1 0.277450 0.610688 0.122767
O O2 0.914851 0.527389 0.231712
O O3 0.000000 0.500000 0.000000
O O4 0.500000 0.000000 0.000000
O O5 0.658346 0.382216 0.486046
O O6 0.493447 0.384415 0.355677
O O7 0.150680 0.924661 0.310022
O O8 0.503816 0.627164 0.223088
O O9 0.255663 0.652871 0.347551
O O10 0.866745 0.142939 0.308096
O O11 0.278400 0.434125 0.869808
O O12 0.894373 0.947823 0.804075
O O13 0.000000 0.000000 0.000000
O O14 0.500000 0.000000 0.500000
#
# Coordination Sequence:
#
# PCOD9047540 Si02
#       6
#     2   2   2   2   2   2
#     4  12  27  42  70 107 149 181 236 300 368 433
#     4  11  24  45  72 102 145 189 233 296 370 413
#     4  12  27  46  74 110 141 190 247 294 358 430
#     4  11  25  47  73  99 146 194 242 290 353 425
#     4  12  25  47  74 106 149 187 243 295 359 437
#     4  10  24  44  68 102 134 187 240 281 352 425
#
# _framework density 25.770322
#
# number of rings (size 3 to 8) (size 9 to 14) (size 15 to 20)
#    0.000    0.667    1.667    5.000    9.333    0.000 
#    0.000   16.667    0.000    0.000    0.000    0.000 
#    0.000    0.000    0.000    0.000    0.000    0.000 
#
# Total GULP energy -66967.728108 kJ/mol
# GULP energy per Si atom -5580.644009 kJ/mol
# Density = 2.571167 g / cm^3
# Si number density = 25.770322 Si / 1000 Ang^3
#
#
#
# Elastic Constant Matrix: (Units=GPa)
#
#
# Indices 1 2 3 4 5 6 
#
# 1 85.1949 27.6026 42.4374 3.2077 27.9240 16.4677
# 2 27.6026 234.0506 66.9422 -15.0327 25.9165 19.8313
# 3 42.4374 66.9422 153.9249 -15.1900 56.6413 2.7130
# 4 3.2077 -15.0327 -15.1900 51.7583 2.2548 7.4160
# 5 27.9240 25.9165 56.6413 2.2548 41.8713 4.0309
# 6 16.4677 19.8313 2.7130 7.4160 4.0309 44.8921
#
#
#
# Elastic Compliance Matrix: (Units=1/GPa)
#
#
# Indices 1 2 3 4 5 6 
#
# 1 0.016166 -0.000232 -0.001130 -0.000318 -0.008617 -0.004933
# 2 -0.000232 0.005151 -0.001885 0.001296 -0.000336 -0.002260
# 3 -0.001130 -0.001885 0.014893 0.004522 -0.018593 0.001269
# 4 -0.000318 0.001296 0.004522 0.021898 -0.007532 -0.003670
# 5 -0.008617 -0.000336 -0.018593 -0.007532 0.055326 0.000710
# 6 -0.004933 -0.002260 0.001269 -0.003670 0.000710 0.025550
#
#
# Mechanical properties :
#
#
# Convention : Reuss Voigt Hill
#
# Bulk Modulus (GPa) = 33.65006 83.01497 58.33252
# Shear Modulus (GPa) = 32.17884 50.11688 41.14786
#
# Velocity S-wave (km/s) = 3.53750 4.41472 4.00023
# Velocity P-wave (km/s) = 5.45630 7.63346 6.63479
#
# Compressibility (1/GPa) = 0.02971763
#
# Stress axis : x y z
#
# Youngs Moduli (GPa) = 61.86009 194.13758 67.14354
#
# Poissons Ratio (x) = 0.04497 0.07584
# Poissons Ratio (y) = 0.01433 0.12656
# Poissons Ratio (z) = 0.06988 0.36593
#
# Static dielectric constant tensor:
#      x y z
#    x 2.404090 -0.032120 -0.191060 
#    y -0.032120 1.986940 0.002790 
#    z -0.191060 0.002790 2.109780 
# 
# From -- ./inp_files/424728.got.cif
#   From: 2010.05.17/outbox.cif.g08.bks.cpg/sg2_213_cif.got.tgz:424728.got - 2010.06.03 11:33:40.
