data_PCOD9047818
_publ_section_title
;
Structure prediction by ZEFSAII (Michael W. Deem and Ramdas Pophale) SiO2 
 PCOD9047818
Probable space group: P -1
;
_chemical_formula_sum "Si O2"
_cell_formula_units_Z 16
_cell_length_a 11.607635
_cell_length_b 8.489712
_cell_length_c 15.031893
_cell_angle_alpha 47.333651
_cell_angle_beta 49.291451
_cell_angle_gamma 40.990093
_cell_volume 683.409472
_symmetry_space_group_name_H-M "P -1"
_symmetry_group_IT_number 2
_symmetry_cell_setting 'triclinic'
loop_
_space_group_symop_operation_xyz
x,y,z
-x,-y,-z
loop_
_atom_site_type_symbol
_atom_site_label
_atom_site_fract_x
_atom_site_fract_y
_atom_site_fract_z
Si Si1 0.583565 0.539401 0.647684
Si Si2 0.905833 0.345726 0.061130
Si Si3 0.239855 0.985714 0.744192
Si Si4 0.304419 0.057297 0.303725
Si Si5 0.108849 0.532485 0.354830
Si Si6 0.444306 0.167985 0.877410
Si Si7 0.356571 0.341209 0.621430
Si Si8 0.993328 0.322843 0.214774
O O1 0.729212 0.467491 0.679024
O O2 0.530311 0.334049 0.757026
O O3 0.662858 0.547337 0.509886
O O4 0.398325 0.820584 0.653868
O O5 0.764915 0.611816 0.083798
O O6 0.016802 0.193832 0.154370
O O7 0.805201 0.218345 0.120273
O O8 0.976185 0.445959 0.909411
O O9 0.313704 0.120743 0.715484
O O10 0.046471 0.216119 0.715067
O O11 0.203252 0.291892 0.332671
O O12 0.145666 0.124959 0.285597
O O13 0.468336 0.031029 0.171562
O O14 0.433122 0.798169 0.397616
O O15 0.000000 0.500000 0.500000
O O16 0.500000 0.000000 0.000000
O O17 0.204819 0.550494 0.686655
#
# Coordination Sequence:
#
# PCOD9047818 Si02
#       8
#     2   2   2   2   2   2   2   2
#     4  11  25  44  69 100 137 183 222 275 350 401
#     4  10  24  44  70  95 134 186 227 274 346 394
#     4  11  23  42  67  98 131 179 224 273 334 404
#     4  12  24  41  70 100 132 180 222 280 336 398
#     4  12  23  43  68 100 137 179 223 277 341 404
#     4  11  24  47  71  98 137 179 230 282 335 404
#     4  12  23  44  66  99 141 173 221 283 340 407
#     4  11  23  44  65  97 138 175 230 281 330 404
#
# _framework density 23.412025
#
# number of rings (size 3 to 8) (size 9 to 14) (size 15 to 20)
#    0.000    0.750    6.250    1.125    1.750    1.000 
#    2.250    2.500    0.000    0.000    0.000    0.000 
#    0.000    0.000    0.000    0.000    0.000    0.000 
#
# Total GULP energy -89283.206304 kJ/mol
# GULP energy per Si atom -5580.200394 kJ/mol
# Density = 2.335874 g / cm^3
# Si number density = 23.412025 Si / 1000 Ang^3
#
#
#
# Elastic Constant Matrix: (Units=GPa)
#
#
# Indices 1 2 3 4 5 6 
#
# 1 110.9076 30.8480 4.3455 -4.0690 10.7781 -14.2419
# 2 30.8480 131.3329 27.5952 19.8100 9.1555 -27.4411
# 3 4.3455 27.5952 73.7568 24.1344 6.8212 0.7216
# 4 -4.0690 19.8100 24.1344 28.1109 -0.8627 2.6926
# 5 10.7781 9.1555 6.8212 -0.8627 39.6917 -5.4971
# 6 -14.2419 -27.4411 0.7216 2.6926 -5.4971 38.8954
#
#
#
# Elastic Compliance Matrix: (Units=1/GPa)
#
#
# Indices 1 2 3 4 5 6 
#
# 1 0.010201 -0.002308 -0.000740 0.003528 -0.001809 0.001621
# 2 -0.002308 0.011282 -0.001567 -0.007689 -0.000827 0.007559
# 3 -0.000740 -0.001567 0.019718 -0.015928 -0.003326 -0.001110
# 4 0.003528 -0.007689 -0.015928 0.055981 0.003775 -0.007179
# 5 -0.001809 -0.000827 -0.003326 0.003775 0.026855 0.002350
# 6 0.001621 0.007559 -0.001110 -0.007179 0.002350 0.032486
#
#
# Mechanical properties :
#
#
# Convention : Reuss Voigt Hill
#
# Bulk Modulus (GPa) = 31.27778 49.06385 40.17082
# Shear Modulus (GPa) = 28.34295 38.22018 33.28156
#
# Velocity S-wave (km/s) = 3.48316 4.04481 3.77445
# Velocity P-wave (km/s) = 5.43740 6.54340 6.01587
#
# Compressibility (1/GPa) = 0.03197158
#
# Stress axis : x y z
#
# Youngs Moduli (GPa) = 98.03162 88.63348 50.71482
#
# Poissons Ratio (x) = 0.20455 0.03755
# Poissons Ratio (y) = 0.22623 0.07945
# Poissons Ratio (z) = 0.07259 0.13886
#
# Static dielectric constant tensor:
#      x y z
#    x 1.933590 0.074080 -0.056280 
#    y 0.074080 1.775580 0.112310 
#    z -0.056280 0.112310 1.796190 
# 
# From -- ./inp_files/515025.got.cif
#   From: 2010.05.17/outbox.cif.g08.bks.cpg/sg2_258_cif.got.tgz:515025.got - 2010.06.03 11:33:40.
