data_PCOD9047047
_publ_section_title
;
Structure prediction by ZEFSAII (Michael W. Deem and Ramdas Pophale) SiO2 
 PCOD9047047
Probable space group: P -1
;
_chemical_formula_sum "Si O2"
_cell_formula_units_Z 16
_cell_length_a 9.625297
_cell_length_b 5.328353
_cell_length_c 18.337116
_cell_angle_alpha 114.451725
_cell_angle_beta 57.035658
_cell_angle_gamma 97.936031
_cell_volume 713.588909
_symmetry_space_group_name_H-M "P -1"
_symmetry_group_IT_number 2
_symmetry_cell_setting 'triclinic'
loop_
_space_group_symop_operation_xyz
x,y,z
-x,-y,-z
loop_
_atom_site_type_symbol
_atom_site_label
_atom_site_fract_x
_atom_site_fract_y
_atom_site_fract_z
Si Si1 0.895842 0.793994 0.551811
Si Si2 0.934945 0.877171 0.718386
Si Si3 0.190200 0.528656 0.183001
Si Si4 0.075436 0.721453 0.849701
Si Si5 0.266234 0.162594 0.659157
Si Si6 0.895772 0.249979 0.989032
Si Si7 0.468325 0.684822 0.959696
Si Si8 0.588580 0.768481 0.532154
O O1 0.723652 0.745736 0.555269
O O2 0.000000 0.500000 0.500000
O O3 0.000000 0.000000 0.500000
O O4 0.880115 0.887823 0.650935
O O5 0.122759 0.958026 0.681513
O O6 0.822584 0.159731 0.806083
O O7 0.915742 0.596429 0.735192
O O8 0.375132 0.441082 0.148042
O O9 0.108960 0.380029 0.119714
O O10 0.198097 0.468446 0.748435
O O11 0.134832 0.807403 0.922796
O O12 0.015199 0.035708 0.878243
O O13 0.307817 0.173642 0.562845
O O14 0.440148 0.011948 0.622818
O O15 0.713788 0.320651 0.018501
O O16 0.000000 0.500000 0.000000
O O17 0.500000 0.500000 0.000000
O O18 0.500000 0.000000 0.000000
O O19 0.500000 0.500000 0.500000
#
# Coordination Sequence:
#
# PCOD9047047 Si02
#       8
#     2   2   2   2   2   2   2   2
#     4  12  25  45  72 103 144 188 239 302 362 431
#     4  11  24  44  70 101 140 187 243 293 361 434
#     4  11  24  44  70 104 136 191 241 291 365 435
#     4  10  24  43  70  99 140 188 237 296 360 432
#     4  10  24  44  71 100 145 189 242 297 367 434
#     4  11  25  44  72 107 140 190 244 295 367 436
#     4  12  25  46  73 103 147 188 238 302 363 435
#     4  11  25  44  72 109 141 193 242 296 368 438
#
# _framework density 22.421870999999999
#
# number of rings (size 3 to 8) (size 9 to 14) (size 15 to 20)
#    0.000    1.000    2.500    3.000   12.250    1.000 
#    2.250    0.000    0.000    0.000    0.000    0.000 
#    0.000    0.000    0.000    0.000    0.000    0.000 
#
# Total GULP energy -89076.933503 kJ/mol
# GULP energy per Si atom -5567.308344 kJ/mol
# Density = 2.237084 g / cm^3
# Si number density = 22.421871 Si / 1000 Ang^3
#
#
#
# Elastic Constant Matrix: (Units=GPa)
#
#
# Indices 1 2 3 4 5 6 
#
# 1 217.5589 50.9561 68.5455 4.4671 -11.7623 -17.0686
# 2 50.9561 93.1369 30.0388 6.4497 -9.5488 -10.1101
# 3 68.5455 30.0388 95.5544 13.2413 -18.8767 -5.7617
# 4 4.4671 6.4497 13.2413 48.1287 -9.0252 0.1726
# 5 -11.7623 -9.5488 -18.8767 -9.0252 46.4002 -0.1116
# 6 -17.0686 -10.1101 -5.7617 0.1726 -0.1116 37.7490
#
#
#
# Elastic Compliance Matrix: (Units=1/GPa)
#
#
# Indices 1 2 3 4 5 6 
#
# 1 0.006470 -0.002134 -0.004024 0.000732 -0.000290 0.001735
# 2 -0.002134 0.012986 -0.002089 -0.000762 0.001139 0.002201
# 3 -0.004024 -0.002089 0.015218 -0.002744 0.004207 -0.000031
# 4 0.000732 -0.000762 -0.002744 0.022173 0.003224 -0.000384
# 5 -0.000290 0.001139 0.004207 0.003224 0.024053 0.000873
# 6 0.001735 0.002201 -0.000031 -0.000384 0.000873 0.027865
#
#
# Mechanical properties :
#
#
# Convention : Reuss Voigt Hill
#
# Bulk Modulus (GPa) = 55.00174 78.37014 66.68594
# Shear Modulus (GPa) = 38.07554 43.56958 40.82256
#
# Velocity S-wave (km/s) = 4.12532 4.41293 4.27155
# Velocity P-wave (km/s) = 6.87566 7.80984 7.35759
#
# Compressibility (1/GPa) = 0.01818124
#
# Stress axis : x y z
#
# Youngs Moduli (GPa) = 154.57050 77.00400 65.71135
#
# Poissons Ratio (x) = 0.16430 0.26443
# Poissons Ratio (y) = 0.32980 0.13724
# Poissons Ratio (z) = 0.62202 0.16082
#
# Static dielectric constant tensor:
#      x y z
#    x 2.892370 0.682400 3.261220 
#    y 0.682400 2.494420 2.382510 
#    z 3.261220 2.382510 12.392840 
# 
# From -- ./inp_files/585852.got.cif
#   From: 2010.05.17/outbox.cif.g08.bks.cpg/sg2_293_cif.got.tgz:585852.got - 2010.06.03 11:33:40.
