data_PCOD9047893
_publ_section_title
;
Structure prediction by ZEFSAII (Michael W. Deem and Ramdas Pophale) SiO2 
 PCOD9047893
Probable space group: P -1
;
_chemical_formula_sum "Si O2"
_cell_formula_units_Z 16
_cell_length_a 8.576135
_cell_length_b 17.075092
_cell_length_c 16.484498
_cell_angle_alpha 31.332249
_cell_angle_beta 40.823457
_cell_angle_gamma 33.351645
_cell_volume 682.175345
_symmetry_space_group_name_H-M "P -1"
_symmetry_group_IT_number 2
_symmetry_cell_setting 'triclinic'
loop_
_space_group_symop_operation_xyz
x,y,z
-x,-y,-z
loop_
_atom_site_type_symbol
_atom_site_label
_atom_site_fract_x
_atom_site_fract_y
_atom_site_fract_z
Si Si1 0.336853 0.519315 0.628670
Si Si2 0.738420 0.863339 0.591089
Si Si3 0.903845 0.027705 0.106774
Si Si4 0.402675 0.020387 0.247835
Si Si5 0.652956 0.612048 0.544846
Si Si6 0.382149 0.702354 0.890417
Si Si7 0.230801 0.817390 0.667023
Si Si8 0.503420 0.851986 0.073987
O O1 0.500000 0.500000 0.500000
O O2 0.524079 0.514068 0.635464
O O3 0.286982 0.357356 0.800013
O O4 0.046517 0.715939 0.565267
O O5 0.631554 0.737801 0.773762
O O6 0.500000 0.000000 0.500000
O O7 0.775195 0.001627 0.506516
O O8 0.638528 0.006271 0.229401
O O9 0.801482 0.214877 0.028168
O O10 0.187562 0.886033 0.169895
O O11 0.000000 0.000000 0.000000
O O12 0.060409 0.154271 0.275755
O O13 0.506262 0.810860 0.384673
O O14 0.446965 0.100152 0.077357
O O15 0.515043 0.659936 0.647714
O O16 0.000000 0.500000 0.500000
O O17 0.223149 0.803190 0.780047
O O18 0.500000 0.500000 0.000000
O O19 0.500000 0.000000 0.000000
#
# Coordination Sequence:
#
# PCOD9047893 Si02
#       8
#     2   2   2   2   2   2   2   2
#     4  12  28  45  74 111 147 193 254 306 374 448
#     4  10  25  46  73 104 148 192 249 304 377 443
#     4  10  24  44  71 104 146 197 239 304 381 437
#     4  11  23  46  73 101 148 192 245 309 375 445
#     4  12  27  46  75 107 149 191 255 310 373 454
#     4  11  26  44  75 105 149 190 254 306 371 446
#     4  11  25  47  74 106 145 200 244 307 388 442
#     4  11  25  44  74 105 151 194 249 305 379 442
#
# _framework density 23.454381000000001
#
# number of rings (size 3 to 8) (size 9 to 14) (size 15 to 20)
#    0.000    1.000    1.250    3.375   12.250    4.000 
#    0.000    1.250    0.000    0.000    0.000    0.000 
#    0.000    0.000    0.000    0.000    0.000    0.000 
#
# Total GULP energy -89314.023237 kJ/mol
# GULP energy per Si atom -5582.126452 kJ/mol
# Density = 2.340100 g / cm^3
# Si number density = 23.454381 Si / 1000 Ang^3
#
#
#
# Elastic Constant Matrix: (Units=GPa)
#
#
# Indices 1 2 3 4 5 6 
#
# 1 100.1061 55.4104 19.1287 10.2394 -14.9524 4.5813
# 2 55.4104 175.8745 22.5342 -0.3065 -10.6190 4.7558
# 3 19.1287 22.5342 82.6342 -15.4115 -10.5414 13.1437
# 4 10.2394 -0.3065 -15.4115 37.7197 5.6926 -10.2089
# 5 -14.9524 -10.6190 -10.5414 5.6926 37.7734 1.9985
# 6 4.5813 4.7558 13.1437 -10.2089 1.9985 54.8548
#
#
#
# Elastic Compliance Matrix: (Units=1/GPa)
#
#
# Indices 1 2 3 4 5 6 
#
# 1 0.013925 -0.003754 -0.002460 -0.005945 0.004747 -0.001527
# 2 -0.003754 0.006991 -0.000899 0.000704 0.000120 0.000049
# 3 -0.002460 -0.000899 0.014604 0.005705 0.002107 -0.002231
# 4 -0.005945 0.000704 0.005705 0.032793 -0.005790 0.005382
# 5 0.004747 0.000120 0.002107 -0.005790 0.030010 -0.003083
# 6 -0.001527 0.000049 -0.002231 0.005382 -0.003083 0.020002
#
#
# Mechanical properties :
#
#
# Convention : Reuss Voigt Hill
#
# Bulk Modulus (GPa) = 46.96240 61.41792 54.19016
# Shear Modulus (GPa) = 35.80451 43.50567 39.65509
#
# Velocity S-wave (km/s) = 3.91136 4.31153 4.11631
# Velocity P-wave (km/s) = 6.36118 7.14344 6.76363
#
# Compressibility (1/GPa) = 0.02129363
#
# Stress axis : x y z
#
# Youngs Moduli (GPa) = 71.81559 143.04221 68.47565
#
# Poissons Ratio (x) = 0.53702 0.16844
# Poissons Ratio (y) = 0.26962 0.06153
# Poissons Ratio (z) = 0.17666 0.12854
#
# Static dielectric constant tensor:
#      x y z
#    x 1.937860 0.025890 0.028230 
#    y 0.025890 1.929940 0.067360 
#    z 0.028230 0.067360 1.942950 
# 
# From -- ./inp_files/562053.got.cif
#   From: 2010.05.17/outbox.cif.g08.bks.cpg/sg2_282_cif.got.tgz:562053.got - 2010.06.03 11:33:40.
