data_PCOD9047461
_publ_section_title
;
Structure prediction by ZEFSAII (Michael W. Deem and Ramdas Pophale) SiO2 
 PCOD9047461
Probable space group: P -1
;
_chemical_formula_sum "Si O2"
_cell_formula_units_Z 14
_cell_length_a 14.386142
_cell_length_b 14.253643
_cell_length_c 22.443895
_cell_angle_alpha 159.444640
_cell_angle_beta 22.373412
_cell_angle_gamma 146.530715
_cell_volume 597.562625
_symmetry_space_group_name_H-M "P -1"
_symmetry_group_IT_number 2
_symmetry_cell_setting 'triclinic'
loop_
_space_group_symop_operation_xyz
x,y,z
-x,-y,-z
loop_
_atom_site_type_symbol
_atom_site_label
_atom_site_fract_x
_atom_site_fract_y
_atom_site_fract_z
Si Si1 0.704618 0.886278 0.892531
Si Si2 0.876051 0.459884 0.635396
Si Si3 0.060631 0.303260 0.137564
Si Si4 0.803712 0.313057 0.942470
Si Si5 0.488918 0.468085 0.417033
Si Si6 0.357737 0.282812 0.827327
Si Si7 0.656609 0.771021 0.396996
O O1 0.867345 0.706241 0.740766
O O2 0.426916 0.826722 0.016730
O O3 0.868506 0.770847 0.668081
O O4 0.665678 0.195427 0.122678
O O5 0.829627 0.606064 0.813418
O O6 0.627501 0.355444 0.707406
O O7 0.797880 0.526113 0.421565
O O8 0.216607 0.338080 0.007089
O O9 0.000000 0.000000 0.000000
O O10 0.802010 0.538634 0.024409
O O11 0.736480 0.485901 0.145349
O O12 0.088498 0.138952 0.681653
O O13 0.500000 0.500000 0.500000
O O14 0.538327 0.722906 0.501542
O O15 0.455808 0.952628 0.578272
#
# Coordination Sequence:
#
# PCOD9047461 Si02
#       7
#     2   2   2   2   2   2   2
#     4  10  24  45  71  99 137 177 229 289 337 411
#     4  10  24  45  69 101 135 181 228 280 349 406
#     4  12  24  43  67  98 138 183 226 278 345 407
#     4  10  24  44  67 105 137 177 234 282 344 408
#     4  12  26  45  69 102 138 179 231 287 344 410
#     4  11  24  45  67 102 141 182 227 284 341 409
#     4  11  24  42  70 101 139 183 226 285 345 407
#
# _framework density 23.428508000000001
#
# number of rings (size 3 to 8) (size 9 to 14) (size 15 to 20)
#    0.000    1.143    1.429    3.429    6.000    1.143 
#    2.571    2.143    0.000    0.000    0.000    0.000 
#    0.000    0.000    0.000    0.000    0.000    0.000 
#
# Total GULP energy -78144.393479 kJ/mol
# GULP energy per Si atom -5581.742391 kJ/mol
# Density = 2.337518 g / cm^3
# Si number density = 23.428508 Si / 1000 Ang^3
#
#
#
# Elastic Constant Matrix: (Units=GPa)
#
#
# Indices 1 2 3 4 5 6 
#
# 1 103.6376 22.1975 6.7711 5.4687 4.0345 -28.8360
# 2 22.1975 67.8147 21.9723 -6.1419 8.5327 -22.0728
# 3 6.7711 21.9723 109.4529 -3.8735 3.5527 -14.1077
# 4 5.4687 -6.1419 -3.8735 28.9807 -4.1596 -0.4179
# 5 4.0345 8.5327 3.5527 -4.1596 41.5823 -4.0653
# 6 -28.8360 -22.0728 -14.1077 -0.4179 -4.0653 43.6954
#
#
#
# Elastic Compliance Matrix: (Units=1/GPa)
#
#
# Indices 1 2 3 4 5 6 
#
# 1 0.012182 -0.002019 0.000489 -0.002612 -0.000375 0.007118
# 2 -0.002019 0.019310 -0.002581 0.003886 -0.002434 0.007399
# 3 0.000489 -0.002581 0.009939 0.000710 -0.000078 0.002227
# 4 -0.002612 0.003886 0.000710 0.036384 0.003143 0.001108
# 5 -0.000375 -0.002434 -0.000078 0.003143 0.024989 0.000853
# 6 0.007118 0.007399 0.002227 0.001108 0.000853 0.032130
#
#
# Mechanical properties :
#
#
# Convention : Reuss Voigt Hill
#
# Bulk Modulus (GPa) = 30.11250 42.53187 36.32219
# Shear Modulus (GPa) = 32.41997 38.18264 35.30131
#
# Velocity S-wave (km/s) = 3.72396 4.04140 3.88592
# Velocity P-wave (km/s) = 5.60101 6.32222 5.97251
#
# Compressibility (1/GPa) = 0.03320880
#
# Stress axis : x y z
#
# Youngs Moduli (GPa) = 82.08623 51.78739 100.61363
#
# Poissons Ratio (x) = 0.10454 -0.04917
# Poissons Ratio (y) = 0.16570 0.25971
# Poissons Ratio (z) = -0.04012 0.13367
#
# Static dielectric constant tensor:
#      x y z
#    x 1.778260 -0.057270 -0.078390 
#    y -0.057270 1.969800 0.035470 
#    z -0.078390 0.035470 1.918260 
# 
# From -- ./inp_files/261325.got.cif
#   From: 2010.05.17/outbox.cif.g08.bks.cpg/sg2_131_cif.got.tgz:261325.got - 2010.06.03 11:33:40.
