data_PCOD9047381
_publ_section_title
;
Structure prediction by ZEFSAII (Michael W. Deem and Ramdas Pophale) SiO2 
 PCOD9047381
Probable space group: P -1
;
_chemical_formula_sum "Si O2"
_cell_formula_units_Z 16
_cell_length_a 19.071712
_cell_length_b 11.680419
_cell_length_c 5.884381
_cell_angle_alpha 69.142710
_cell_angle_beta 133.856823
_cell_angle_gamma 129.015597
_cell_volume 726.853100
_symmetry_space_group_name_H-M "P -1"
_symmetry_group_IT_number 2
_symmetry_cell_setting 'triclinic'
loop_
_space_group_symop_operation_xyz
x,y,z
-x,-y,-z
loop_
_atom_site_type_symbol
_atom_site_label
_atom_site_fract_x
_atom_site_fract_y
_atom_site_fract_z
Si Si1 0.016914 0.579975 0.734488
Si Si2 0.998519 0.107073 0.106423
Si Si3 0.813198 0.846708 0.132884
Si Si4 0.289927 0.832273 0.206435
Si Si5 0.394117 0.164468 0.103428
Si Si6 0.139311 0.350471 0.907260
Si Si7 0.636060 0.336150 0.751489
Si Si8 0.536933 0.160110 0.060844
O O1 0.000000 0.500000 0.500000
O O2 0.923211 0.622197 0.458775
O O3 0.149457 0.728224 0.946320
O O4 0.000000 0.500000 0.000000
O O5 0.094048 0.138966 0.486455
O O6 0.041632 0.252746 0.951721
O O7 0.873557 0.006489 0.026595
O O8 0.000000 0.000000 0.000000
O O9 0.803931 0.733728 0.003675
O O10 0.698969 0.802308 0.050324
O O11 0.336536 0.789027 0.125563
O O12 0.350164 0.792715 0.562543
O O13 0.348732 0.006711 0.230818
O O14 0.525429 0.294462 0.381738
O O15 0.419268 0.134785 0.927847
O O16 0.244688 0.506647 0.133072
O O17 0.585852 0.303325 0.913034
O O18 0.500000 0.000000 0.000000
#
# Coordination Sequence:
#
# PCOD9047381 Si02
#       8
#     2   2   2   2   2   2   2   2
#     4  12  28  46  71 112 148 194 242 298 378 447
#     4   9  22  45  68  94 137 187 232 290 358 423
#     4  10  24  44  66 103 138 181 244 289 362 434
#     4  11  23  40  67  99 141 176 242 301 358 431
#     4  11  24  39  67 100 131 180 240 294 357 434
#     4  11  25  45  71  98 148 185 233 301 363 437
#     4  11  22  44  64  98 136 181 234 294 363 426
#     4  11  20  41  66  96 137 184 232 300 363 427
#
# _framework density 22.012702000000001
#
# number of rings (size 3 to 8) (size 9 to 14) (size 15 to 20)
#    0.000    1.250    3.750    1.500    7.000    4.500 
#    0.000    1.250    0.000    0.000    0.000    0.000 
#    0.000    0.000    0.000    0.000    0.000    0.000 
#
# Total GULP energy -89134.786570 kJ/mol
# GULP energy per Si atom -5570.924161 kJ/mol
# Density = 2.196260 g / cm^3
# Si number density = 22.012702 Si / 1000 Ang^3
#
#
#
# Elastic Constant Matrix: (Units=GPa)
#
#
# Indices 1 2 3 4 5 6 
#
# 1 86.9727 19.0400 17.0120 1.0000 16.7339 -3.0082
# 2 19.0400 78.9792 40.2845 3.9119 -1.0269 11.0262
# 3 17.0120 40.2845 53.8874 16.1769 2.3998 6.1010
# 4 1.0000 3.9119 16.1769 35.2872 11.1003 -1.8367
# 5 16.7339 -1.0269 2.3998 11.1003 38.3378 -2.2534
# 6 -3.0082 11.0262 6.1010 -1.8367 -2.2534 29.9352
#
#
#
# Elastic Compliance Matrix: (Units=1/GPa)
#
#
# Indices 1 2 3 4 5 6 
#
# 1 0.014141 -0.001905 -0.004270 0.004107 -0.006985 0.002719
# 2 -0.001905 0.022177 -0.016964 0.004882 0.000807 -0.004542
# 3 -0.004270 -0.016964 0.037693 -0.016576 0.003696 -0.002601
# 4 0.004107 0.004882 -0.016576 0.039161 -0.011757 0.003511
# 5 -0.006985 0.000807 0.003696 -0.011757 0.032325 -0.000041
# 6 0.002719 -0.004542 -0.002601 0.003511 -0.000041 0.036094
#
#
# Mechanical properties :
#
#
# Convention : Reuss Voigt Hill
#
# Bulk Modulus (GPa) = 36.05876 41.39024 38.72450
# Shear Modulus (GPa) = 21.08694 30.27891 25.68293
#
# Velocity S-wave (km/s) = 3.09843 3.71282 3.41945
# Velocity P-wave (km/s) = 5.40525 6.10113 5.76370
#
# Compressibility (1/GPa) = 0.02773251
#
# Stress axis : x y z
#
# Youngs Moduli (GPa) = 70.71694 45.09268 26.52991
#
# Poissons Ratio (x) = 0.08591 0.11327
# Poissons Ratio (y) = 0.13472 0.45006
# Poissons Ratio (z) = 0.30193 0.76497
#
# Static dielectric constant tensor:
#      x y z
#    x 1.945500 -0.009700 -0.096880 
#    y -0.009700 1.856260 0.002860 
#    z -0.096880 0.002860 1.841930 
# 
# From -- ./inp_files/109645.got.cif
#   From: 2010.05.17/outbox.cif.g08.bks.cpg/sg2_55_cif.got.tgz:109645.got - 2010.06.03 11:33:40.
