data_PCOD9047939
_publ_section_title
;
Structure prediction by ZEFSAII (Michael W. Deem and Ramdas Pophale) SiO2 
 PCOD9047939
Probable space group: P -1
;
_chemical_formula_sum "Si O2"
_cell_formula_units_Z 16
_cell_length_a 7.390798
_cell_length_b 19.295684
_cell_length_c 5.442855
_cell_angle_alpha 123.218381
_cell_angle_beta 77.332985
_cell_angle_gamma 93.769914
_cell_volume 632.154314
_symmetry_space_group_name_H-M "P -1"
_symmetry_group_IT_number 2
_symmetry_cell_setting 'triclinic'
loop_
_space_group_symop_operation_xyz
x,y,z
-x,-y,-z
loop_
_atom_site_type_symbol
_atom_site_label
_atom_site_fract_x
_atom_site_fract_y
_atom_site_fract_z
Si Si1 0.762804 0.562627 0.174434
Si Si2 0.795510 0.045234 0.156114
Si Si3 0.289194 0.212029 0.838113
Si Si4 0.705697 0.389367 0.086028
Si Si5 0.695818 0.228284 0.499658
Si Si6 0.784027 0.977861 0.528793
Si Si7 0.058274 0.382930 0.258096
Si Si8 0.481428 0.299636 0.318833
O O1 0.697664 0.473778 0.101404
O O2 0.879678 0.593494 0.438288
O O3 0.598767 0.634362 0.333010
O O4 0.865428 0.562266 0.882986
O O5 0.811235 0.143499 0.348849
O O6 0.700475 0.015164 0.372872
O O7 0.701864 0.020732 0.882162
O O8 0.000000 0.000000 0.000000
O O9 0.486043 0.215875 0.641184
O O10 0.222601 0.120982 0.649692
O O11 0.138581 0.288800 0.986557
O O12 0.345227 0.231774 0.141330
O O13 0.514743 0.361334 0.202217
O O14 0.840043 0.394814 0.290983
O O15 0.775105 0.309036 0.752237
O O16 0.663662 0.249270 0.264491
O O17 0.000000 0.000000 0.500000
#
# Coordination Sequence:
#
# PCOD9047939 Si02
#       8
#     2   2   2   2   2   2   2   2
#     4  11  24  47  67 103 143 184 234 281 343 401
#     4  10  25  44  67  98 133 167 226 281 340 403
#     4  10  24  45  69  98 140 179 228 279 348 410
#     4  11  26  40  72 102 138 187 234 288 333 411
#     4  11  25  44  69  98 139 182 230 278 347 410
#     4  10  24  44  71  99 129 173 221 283 341 407
#     4  11  25  43  71 102 141 184 229 290 341 403
#     4  10  24  45  67 103 139 191 226 282 341 411
#
# _framework density 25.310274
#
# number of rings (size 3 to 8) (size 9 to 14) (size 15 to 20)
#    0.000    1.500    1.250    1.125   12.250    2.500 
#    2.250    0.000    0.000    0.000    0.000    0.000 
#    0.000    0.000    0.000    0.000    0.000    0.000 
#
# Total GULP energy -89470.554486 kJ/mol
# GULP energy per Si atom -5591.909655 kJ/mol
# Density = 2.525267 g / cm^3
# Si number density = 25.310274 Si / 1000 Ang^3
#
#
#
# Elastic Constant Matrix: (Units=GPa)
#
#
# Indices 1 2 3 4 5 6 
#
# 1 35.6793 12.5668 5.9694 -0.4205 8.1270 -0.8269
# 2 12.5668 140.9810 57.9420 15.6664 15.7667 -4.3358
# 3 5.9694 57.9420 119.7170 14.3310 26.3864 -4.0671
# 4 -0.4205 15.6664 14.3310 62.4138 -6.5408 3.4271
# 5 8.1270 15.7667 26.3864 -6.5408 37.0298 5.2622
# 6 -0.8269 -4.3358 -4.0671 3.4271 5.2622 42.6025
#
#
#
# Elastic Compliance Matrix: (Units=1/GPa)
#
#
# Indices 1 2 3 4 5 6 
#
# 1 0.030215 -0.002365 0.001189 -0.000250 -0.006702 0.001307
# 2 -0.002365 0.009222 -0.003907 -0.001582 -0.001013 0.000772
# 3 0.001189 -0.003907 0.012408 -0.002836 -0.008232 0.002055
# 4 -0.000250 -0.001582 -0.002836 0.017873 0.006283 -0.002651
# 5 -0.006702 -0.001013 -0.008232 0.006283 0.036745 -0.006063
# 6 0.001307 0.000772 0.002055 -0.002651 -0.006063 0.024735
#
#
# Mechanical properties :
#
#
# Convention : Reuss Voigt Hill
#
# Bulk Modulus (GPa) = 23.99104 49.92595 36.95850
# Shear Modulus (GPa) = 32.20460 43.06915 37.63687
#
# Velocity S-wave (km/s) = 3.57093 4.12958 3.86037
# Velocity P-wave (km/s) = 5.14795 6.51968 5.87400
#
# Compressibility (1/GPa) = 0.04168223
#
# Stress axis : x y z
#
# Youngs Moduli (GPa) = 33.09582 108.43087 80.59088
#
# Poissons Ratio (x) = 0.25640 -0.09585
# Poissons Ratio (y) = 0.07826 0.31485
# Poissons Ratio (z) = -0.03936 0.42361
#
# Static dielectric constant tensor:
#      x y z
#    x 2.026610 0.013480 -0.023400 
#    y 0.013480 2.002280 -0.116580 
#    z -0.023400 -0.116580 2.062700 
# 
# From -- ./inp_files/49270.got.cif
#   From: 2010.05.17/outbox.cif.g08.bks.cpg/sg2_25_cif.got.tgz:49270.got - 2010.06.03 11:33:40.
