data_PCOD9047509
_publ_section_title
;
Structure prediction by ZEFSAII (Michael W. Deem and Ramdas Pophale) SiO2 
 PCOD9047509
Probable space group: P -1
;
_chemical_formula_sum "Si O2"
_cell_formula_units_Z 14
_cell_length_a 7.309415
_cell_length_b 12.128650
_cell_length_c 8.183905
_cell_angle_alpha 104.495685
_cell_angle_beta 53.576343
_cell_angle_gamma 107.409081
_cell_volume 554.554967
_symmetry_space_group_name_H-M "P -1"
_symmetry_group_IT_number 2
_symmetry_cell_setting 'triclinic'
loop_
_space_group_symop_operation_xyz
x,y,z
-x,-y,-z
loop_
_atom_site_type_symbol
_atom_site_label
_atom_site_fract_x
_atom_site_fract_y
_atom_site_fract_z
Si Si1 0.294067 0.777684 0.985316
Si Si2 0.473180 0.419418 0.641977
Si Si3 0.169184 0.637365 0.303618
Si Si4 0.004978 0.028100 0.700237
Si Si5 0.933344 0.592447 0.908247
Si Si6 0.999173 0.785192 0.698116
Si Si7 0.527882 0.829776 0.559029
O O1 0.332459 0.718090 0.115384
O O2 0.140461 0.875145 0.137917
O O3 0.496852 0.833909 0.773708
O O4 0.144706 0.670470 0.921744
O O5 0.500000 0.500000 0.500000
O O6 0.690380 0.409923 0.641524
O O7 0.394324 0.289880 0.568971
O O8 0.279168 0.448084 0.874967
O O9 0.030626 0.522941 0.245776
O O10 0.010003 0.720920 0.495799
O O11 0.279876 0.075128 0.594309
O O12 0.918175 0.906514 0.791337
O O13 0.000000 0.000000 0.500000
O O14 0.871484 0.685353 0.846987
O O15 0.269977 0.819017 0.620854
#
# Coordination Sequence:
#
# PCOD9047509 Si02
#       7
#     2   2   2   2   2   2   2
#     4  11  24  45  71 105 137 186 227 282 351 402
#     4  11  24  44  69 102 142 182 227 288 346 412
#     4  11  23  43  67 104 142 176 231 283 346 411
#     4  12  24  45  70 101 139 179 236 284 337 413
#     4  11  23  42  71 102 137 184 229 284 345 413
#     4  10  24  44  67  99 138 185 228 283 342 402
#     4  10  24  45  67  99 140 181 229 284 342 404
#
# _framework density 25.245469
#
# number of rings (size 3 to 8) (size 9 to 14) (size 15 to 20)
#    0.000    1.143    2.857    2.571    0.000    8.571 
#    5.143    0.000    0.000    0.000    0.000    0.000 
#    0.000    0.000    0.000    0.000    0.000    0.000 
#
# Total GULP energy -78380.576954 kJ/mol
# GULP energy per Si atom -5598.612640 kJ/mol
# Density = 2.518801 g / cm^3
# Si number density = 25.245469 Si / 1000 Ang^3
#
#
#
# Elastic Constant Matrix: (Units=GPa)
#
#
# Indices 1 2 3 4 5 6 
#
# 1 75.2307 34.3550 22.5851 20.9133 1.7714 -0.9182
# 2 34.3550 186.1844 62.5031 11.6375 6.0555 -28.3753
# 3 22.5851 62.5031 133.4126 0.3168 9.6905 -4.7606
# 4 20.9133 11.6375 0.3168 29.2448 -5.3696 7.9602
# 5 1.7714 6.0555 9.6905 -5.3696 30.1517 -7.5764
# 6 -0.9182 -28.3753 -4.7606 7.9602 -7.5764 28.7374
#
#
#
# Elastic Compliance Matrix: (Units=1/GPa)
#
#
# Indices 1 2 3 4 5 6 
#
# 1 0.018436 -0.001452 -0.002193 -0.013493 -0.001985 0.002006
# 2 -0.001452 0.008473 -0.003454 -0.004643 0.001003 0.009298
# 3 -0.002193 -0.003454 0.009536 0.003325 -0.002527 -0.003488
# 4 -0.013493 -0.004643 0.003325 0.051353 0.005468 -0.017248
# 5 -0.001985 0.001003 -0.002527 0.005468 0.037070 0.008767
# 6 0.002006 0.009298 -0.003488 -0.017248 0.008767 0.050554
#
#
# Mechanical properties :
#
#
# Convention : Reuss Voigt Hill
#
# Bulk Modulus (GPa) = 44.94856 70.41267 57.68062
# Shear Modulus (GPa) = 25.37615 35.98575 30.68095
#
# Velocity S-wave (km/s) = 3.17389 3.77959 3.48990
# Velocity P-wave (km/s) = 5.59238 6.85557 6.25594
#
# Compressibility (1/GPa) = 0.02224765
#
# Stress axis : x y z
#
# Youngs Moduli (GPa) = 54.24196 118.02097 104.86516
#
# Poissons Ratio (x) = 0.17136 0.22996
# Poissons Ratio (y) = 0.07876 0.36219
# Poissons Ratio (z) = 0.11895 0.40763
#
# Static dielectric constant tensor:
#      x y z
#    x 2.077430 0.008270 0.018540 
#    y 0.008270 1.973920 -0.037960 
#    z 0.018540 -0.037960 1.974210 
# 
# From -- ./inp_files/181088.got.cif
#   From: 2010.05.17/outbox.cif.g08.bks.cpg/sg2_91_cif.got.tgz:181088.got - 2010.06.03 11:33:40.
