data_PCOD9047082
_publ_section_title
;
Structure prediction by ZEFSAII (Michael W. Deem and Ramdas Pophale) SiO2 
 PCOD9047082
Probable space group: P -1
;
_chemical_formula_sum "Si O2"
_cell_formula_units_Z 12
_cell_length_a 5.344130
_cell_length_b 10.228463
_cell_length_c 16.526898
_cell_angle_alpha 134.336243
_cell_angle_beta 62.326167
_cell_angle_gamma 97.698727
_cell_volume 545.714211
_symmetry_space_group_name_H-M "P -1"
_symmetry_group_IT_number 2
_symmetry_cell_setting 'triclinic'
loop_
_space_group_symop_operation_xyz
x,y,z
-x,-y,-z
loop_
_atom_site_type_symbol
_atom_site_label
_atom_site_fract_x
_atom_site_fract_y
_atom_site_fract_z
Si Si1 0.291554 0.831161 0.404725
Si Si2 0.082023 0.523036 0.248786
Si Si3 0.754963 0.867345 0.848060
Si Si4 0.493961 0.843000 0.537033
Si Si5 0.772870 0.589269 0.000928
Si Si6 0.372525 0.957047 0.783828
O O1 0.323094 0.638173 0.269136
O O2 0.263124 0.797301 0.490055
O O3 0.531934 0.936543 0.389290
O O4 0.000000 0.000000 0.500000
O O5 0.158524 0.344146 0.219234
O O6 0.067510 0.457804 0.131094
O O7 0.788470 0.682636 0.393077
O O8 0.609412 0.879000 0.786001
O O9 0.045373 0.938732 0.841471
O O10 0.500000 0.000000 0.000000
O O11 0.463745 0.844490 0.637234
O O12 0.500000 0.500000 0.000000
O O13 0.000000 0.500000 0.000000
O O14 0.655360 0.819261 0.126104
#
# Coordination Sequence:
#
# PCOD9047082 Si02
#       6
#     2   2   2   2   2   2
#     4   9  21  41  68 101 146 181 228 289 371 419
#     4  11  26  44  74 100 148 189 239 292 364 426
#     4  12  28  50  73 101 148 198 241 292 354 428
#     4  10  24  43  71 107 142 183 238 304 368 416
#     4  12  28  45  75 110 142 186 242 296 360 426
#     4  12  28  48  75 105 147 185 248 298 351 432
#
# _framework density 21.989529999999998
#
# number of rings (size 3 to 8) (size 9 to 14) (size 15 to 20)
#    0.000    1.000    1.667    2.500   16.333    1.333 
#    0.000    0.000    0.000    0.000    0.000    0.000 
#    0.000    0.000    0.000    0.000    0.000    0.000 
#
# Total GULP energy -67033.923069 kJ/mol
# GULP energy per Si atom -5586.160256 kJ/mol
# Density = 2.193948 g / cm^3
# Si number density = 21.989530 Si / 1000 Ang^3
#
#
#
# Elastic Constant Matrix: (Units=GPa)
#
#
# Indices 1 2 3 4 5 6 
#
# 1 138.0039 66.7383 29.3296 2.1722 16.5897 -26.4816
# 2 66.7383 123.0281 44.5729 11.5036 1.5857 -36.5814
# 3 29.3296 44.5729 127.2198 -7.0139 13.4268 -24.3964
# 4 2.1722 11.5036 -7.0139 36.4619 -10.3508 5.2094
# 5 16.5897 1.5857 13.4268 -10.3508 35.9124 -15.1402
# 6 -26.4816 -36.5814 -24.3964 5.2094 -15.1402 46.8705
#
#
#
# Elastic Compliance Matrix: (Units=1/GPa)
#
#
# Indices 1 2 3 4 5 6 
#
# 1 0.010538 -0.005623 0.000041 -0.000179 -0.004641 0.000107
# 2 -0.005623 0.015634 -0.003189 -0.004964 0.005796 0.009789
# 3 0.000041 -0.003189 0.009620 0.001994 -0.002225 0.001601
# 4 -0.000179 -0.004964 0.001994 0.031975 0.006987 -0.004235
# 5 -0.004641 0.005796 -0.002225 0.006987 0.037699 0.012144
# 6 0.000107 0.009789 0.001601 -0.004235 0.012144 0.034263
#
#
# Mechanical properties :
#
#
# Convention : Reuss Voigt Hill
#
# Bulk Modulus (GPa) = 54.79485 74.39260 64.59372
# Shear Modulus (GPa) = 30.60819 40.35636 35.48227
#
# Velocity S-wave (km/s) = 3.73492 4.28863 4.02132
# Velocity P-wave (km/s) = 6.60093 7.64379 7.14142
#
# Compressibility (1/GPa) = 0.01824989
#
# Stress axis : x y z
#
# Youngs Moduli (GPa) = 94.89431 63.96245 103.94837
#
# Poissons Ratio (x) = 0.35966 -0.00428
# Poissons Ratio (y) = 0.53359 0.33154
# Poissons Ratio (z) = -0.00391 0.20401
#
# Static dielectric constant tensor:
#      x y z
#    x 1.471570 0.136470 0.084080 
#    y 0.136470 1.817550 -0.062640 
#    z 0.084080 -0.062640 1.784830 
# 
# From -- ./inp_files/38155.got.cif
#   From: 2010.05.17/outbox.cif.g08.bks.cpg/sg2_20_cif.got.tgz:38155.got - 2010.06.03 11:33:40.
