data_PCOD9047336
_publ_section_title
;
Structure prediction by ZEFSAII (Michael W. Deem and Ramdas Pophale) SiO2 
 PCOD9047336
Probable space group: P -1
;
_chemical_formula_sum "Si O2"
_cell_formula_units_Z 12
_cell_length_a 5.434069
_cell_length_b 11.367429
_cell_length_c 9.738862
_cell_angle_alpha 93.245991
_cell_angle_beta 109.346372
_cell_angle_gamma 116.183912
_cell_volume 494.539933
_symmetry_space_group_name_H-M "P -1"
_symmetry_group_IT_number 2
_symmetry_cell_setting 'triclinic'
loop_
_space_group_symop_operation_xyz
x,y,z
-x,-y,-z
loop_
_atom_site_type_symbol
_atom_site_label
_atom_site_fract_x
_atom_site_fract_y
_atom_site_fract_z
Si Si1 0.224829 0.572940 0.167697
Si Si2 0.809748 0.078507 0.973969
Si Si3 0.312361 0.340667 0.234777
Si Si4 0.193129 0.395329 0.729240
Si Si5 0.434030 0.041302 0.639498
Si Si6 0.163875 0.213540 0.475329
O O1 0.227259 0.457923 0.257743
O O2 0.556966 0.640762 0.169775
O O3 0.097444 0.649666 0.238713
O O4 0.000000 0.500000 0.000000
O O5 0.696593 0.083823 0.800224
O O6 0.047160 0.225322 0.088958
O O7 0.500000 0.000000 0.000000
O O8 0.000000 0.000000 0.000000
O O9 0.628597 0.440460 0.228574
O O10 0.350576 0.278326 0.377490
O O11 0.127291 0.323780 0.565075
O O12 0.155880 0.905080 0.637685
O O13 0.500000 0.000000 0.500000
O O14 0.306947 0.143215 0.590868
#
# Coordination Sequence:
#
# PCOD9047336 Si02
#       6
#     2   2   2   2   2   2
#     4  10  24  44  65 106 140 187 233 293 357 424
#     4  12  27  48  74 102 144 190 240 297 354 425
#     4  10  25  43  74 103 146 182 245 290 364 424
#     4  10  25  42  73 100 142 185 234 293 359 419
#     4  11  27  45  75 103 146 194 244 296 355 433
#     4  11  24  47  68 109 144 190 239 296 362 428
#
# _framework density 24.264976000000001
#
# number of rings (size 3 to 8) (size 9 to 14) (size 15 to 20)
#    1.000    0.333    1.667    2.000    9.333    2.000 
#    0.000    0.000    0.000    0.000    0.000    0.000 
#    0.000    0.000    0.000    0.000    0.000    0.000 
#
# Total GULP energy -67003.671932 kJ/mol
# GULP energy per Si atom -5583.639328 kJ/mol
# Density = 2.420975 g / cm^3
# Si number density = 24.264976 Si / 1000 Ang^3
#
#
#
# Elastic Constant Matrix: (Units=GPa)
#
#
# Indices 1 2 3 4 5 6 
#
# 1 118.9134 45.3472 4.0421 11.0162 3.3125 -6.9645
# 2 45.3472 110.3376 44.5345 10.8880 9.9489 10.0564
# 3 4.0421 44.5345 122.0046 7.0790 13.8377 -7.7549
# 4 11.0162 10.8880 7.0790 35.0716 2.8391 4.5373
# 5 3.3125 9.9489 13.8377 2.8391 36.3373 6.9715
# 6 -6.9645 10.0564 -7.7549 4.5373 6.9715 29.5731
#
#
#
# Elastic Compliance Matrix: (Units=1/GPa)
#
#
# Indices 1 2 3 4 5 6 
#
# 1 0.011148 -0.005690 0.002398 -0.002883 -0.001285 0.005934
# 2 -0.005690 0.014369 -0.005531 -0.000586 0.000201 -0.007634
# 3 0.002398 -0.005531 0.011121 -0.001805 -0.004064 0.006597
# 4 -0.002883 -0.000586 -0.001805 0.030708 -0.000211 -0.005615
# 5 -0.001285 0.000201 -0.004064 -0.000211 0.030809 -0.008667
# 6 0.005934 -0.007634 0.006597 -0.005615 -0.008667 0.042442
#
#
# Mechanical properties :
#
#
# Convention : Reuss Voigt Hill
#
# Bulk Modulus (GPa) = 52.65219 59.90034 56.27627
# Shear Modulus (GPa) = 30.38124 37.35187 33.86655
#
# Velocity S-wave (km/s) = 3.54229 3.92769 3.73996
# Velocity P-wave (km/s) = 6.20293 6.73116 6.47244
#
# Compressibility (1/GPa) = 0.01899256
#
# Stress axis : x y z
#
# Youngs Moduli (GPa) = 89.69950 69.59196 89.92188
#
# Poissons Ratio (x) = 0.39599 -0.21562
# Poissons Ratio (y) = 0.51041 0.49733
# Poissons Ratio (z) = -0.21509 0.38489
#
# Static dielectric constant tensor:
#      x y z
#    x 3.025890 0.413180 -0.866310 
#    y 0.413180 2.107050 -0.302120 
#    z -0.866310 -0.302120 2.630930 
# 
# From -- ./inp_files/130924.got.cif
#   From: 2010.05.17/outbox.cif.g08.bks.cpg/sg2_66_cif.got.tgz:130924.got - 2010.06.03 11:33:40.
