data_PCOD9047100
_publ_section_title
;
Structure prediction by ZEFSAII (Michael W. Deem and Ramdas Pophale) SiO2 
 PCOD9047100
Probable space group: P -1
;
_chemical_formula_sum "Si O2"
_cell_formula_units_Z 16
_cell_length_a 26.161925
_cell_length_b 5.169357
_cell_length_c 9.376548
_cell_angle_alpha 72.750401
_cell_angle_beta 135.640225
_cell_angle_gamma 130.173690
_cell_volume 644.447299
_symmetry_space_group_name_H-M "P -1"
_symmetry_group_IT_number 2
_symmetry_cell_setting 'triclinic'
loop_
_space_group_symop_operation_xyz
x,y,z
-x,-y,-z
loop_
_atom_site_type_symbol
_atom_site_label
_atom_site_fract_x
_atom_site_fract_y
_atom_site_fract_z
Si Si1 0.279966 0.494500 0.392825
Si Si2 0.891954 0.717413 0.768473
Si Si3 0.884583 0.257539 0.050956
Si Si4 0.367579 0.094537 0.969980
Si Si5 0.613484 0.268956 0.174151
Si Si6 0.446696 0.613855 0.532245
Si Si7 0.292117 0.004108 0.130450
Si Si8 0.999426 0.993180 0.328184
O O1 0.179669 0.225604 0.322532
O O2 0.343918 0.783441 0.597957
O O3 0.355914 0.475958 0.473758
O O4 0.258505 0.653716 0.199648
O O5 0.860162 0.361541 0.839550
O O6 0.903089 0.754210 0.613902
O O7 0.000000 0.000000 0.000000
O O8 0.945999 0.599518 0.223149
O O9 0.942229 0.128202 0.152666
O O10 0.786017 0.962754 0.986017
O O11 0.473271 0.329309 0.216199
O O12 0.296629 0.953804 0.982849
O O13 0.356722 0.346114 0.820626
O O14 0.355647 0.803614 0.896751
O O15 0.500000 0.000000 0.000000
O O16 0.395804 0.327981 0.349390
O O17 0.500000 0.000000 0.500000
O O18 0.000000 0.000000 0.500000
#
# Coordination Sequence:
#
# PCOD9047100 Si02
#       8
#     2   2   2   2   2   2   2   2
#     4  11  25  43  70 103 136 188 233 292 347 425
#     4   9  22  45  70 101 137 179 230 285 348 409
#     4  10  24  43  71  99 137 179 230 285 345 419
#     4  12  26  44  67  96 138 184 221 291 342 407
#     4  12  26  45  65  97 141 180 229 281 355 414
#     4  12  24  42  72 100 141 180 247 289 350 405
#     4  11  26  42  70 101 135 183 243 286 345 415
#     4  11  23  44  72 101 139 179 224 288 355 416
#
# _framework density 24.827476000000001
#
# number of rings (size 3 to 8) (size 9 to 14) (size 15 to 20)
#    0.000    1.000    2.500    3.000    7.000    2.000 
#    2.250    0.000    0.000    0.000    0.000    0.000 
#    0.000    0.000    0.000    0.000    0.000    0.000 
#
# Total GULP energy -89455.343358 kJ/mol
# GULP energy per Si atom -5590.958960 kJ/mol
# Density = 2.477097 g / cm^3
# Si number density = 24.827476 Si / 1000 Ang^3
#
#
#
# Elastic Constant Matrix: (Units=GPa)
#
#
# Indices 1 2 3 4 5 6 
#
# 1 173.3459 48.3513 34.1548 -1.0394 -5.0349 19.9911
# 2 48.3513 42.8089 17.0069 -3.5800 -0.5265 1.7534
# 3 34.1548 17.0069 52.6664 -5.0681 -15.1535 7.4284
# 4 -1.0394 -3.5800 -5.0681 33.5871 2.1882 -6.2301
# 5 -5.0349 -0.5265 -15.1535 2.1882 52.8569 -0.9130
# 6 19.9911 1.7534 7.4284 -6.2301 -0.9130 50.7771
#
#
#
# Elastic Compliance Matrix: (Units=1/GPa)
#
#
# Indices 1 2 3 4 5 6 
#
# 1 0.009282 -0.009431 -0.002684 -0.001709 0.000037 -0.003145
# 2 -0.009431 0.036773 -0.006687 0.003489 -0.002528 0.003804
# 3 -0.002684 -0.006687 0.025348 0.002209 0.006818 -0.002027
# 4 -0.001709 0.003489 0.002209 0.031223 -0.000717 0.004047
# 5 0.000037 -0.002528 0.006818 -0.000717 0.020871 -0.000638
# 6 -0.003145 0.003804 -0.002027 0.004047 -0.000638 0.021582
#
#
# Mechanical properties :
#
#
# Convention : Reuss Voigt Hill
#
# Bulk Modulus (GPa) = 29.58683 51.98302 40.78492
# Shear Modulus (GPa) = 25.78019 38.73143 32.25581
#
# Velocity S-wave (km/s) = 3.22588 3.95400 3.60835
# Velocity P-wave (km/s) = 5.08113 6.46750 5.81578
#
# Compressibility (1/GPa) = 0.03379882
#
# Stress axis : x y z
#
# Youngs Moduli (GPa) = 107.73923 27.19418 39.45143
#
# Poissons Ratio (x) = 0.25646 0.10589
# Poissons Ratio (y) = 1.01605 0.26380
# Poissons Ratio (z) = 0.28919 0.18184
#
# Static dielectric constant tensor:
#      x y z
#    x 1.981180 0.041040 -0.003850 
#    y 0.041040 2.034850 0.032060 
#    z -0.003850 0.032060 1.984190 
# 
# From -- ./inp_files/98297.got.cif
#   From: 2010.05.17/outbox.cif.g08.bks.cpg/sg2_50_cif.got.tgz:98297.got - 2010.06.03 11:33:40.
