data_PCOD9047603
_publ_section_title
;
Structure prediction by ZEFSAII (Michael W. Deem and Ramdas Pophale) SiO2 
 PCOD9047603
Probable space group: P -1
;
_chemical_formula_sum "Si O2"
_cell_formula_units_Z 11
_cell_length_a 23.838926
_cell_length_b 23.514978
_cell_length_c 9.451416
_cell_angle_alpha 154.598349
_cell_angle_beta 155.821684
_cell_angle_gamma 11.484552
_cell_volume 429.233183
_symmetry_space_group_name_H-M "P -1"
_symmetry_group_IT_number 2
_symmetry_cell_setting 'triclinic'
loop_
_space_group_symop_operation_xyz
x,y,z
-x,-y,-z
loop_
_atom_site_type_symbol
_atom_site_label
_atom_site_fract_x
_atom_site_fract_y
_atom_site_fract_z
Si Si1 0.000000 0.000000 0.000000
Si Si2 0.261828 0.880256 0.844976
Si Si3 0.816509 0.469362 0.051839
Si Si4 0.616084 0.791596 0.907285
Si Si5 0.472084 0.414335 0.905365
Si Si6 0.835162 0.722481 0.824392
O O1 0.826628 0.246021 0.038734
O O2 0.748294 0.254432 0.112372
O O3 0.503516 0.664905 0.790635
O O4 0.451934 0.693917 0.004171
O O5 0.000000 0.000000 0.500000
O O6 0.081284 0.173355 0.084590
O O7 0.753012 0.670322 0.418727
O O8 0.955856 0.361221 0.974627
O O9 0.549376 0.703053 0.497909
O O10 0.961672 0.507212 0.098120
O O11 0.500000 0.000000 0.000000
O O12 0.438721 0.967961 0.041544
#
# Coordination Sequence:
#
# PCOD9047603 Si02
#       6
#     1   2   2   2   2   2
#     4  10  24  44  68  94 138 184 228 284 340 404
#     4  12  26  45  71 100 138 187 238 293 347 410
#     4  11  24  45  69 100 141 182 238 289 343 422
#     4  12  24  41  69 105 142 178 226 287 360 423
#     4  11  24  44  69 102 138 180 231 288 345 413
#     4  11  24  42  70 103 138 184 226 287 357 416
#
# _framework density 25.627096000000002
#
# number of rings (size 3 to 8) (size 9 to 14) (size 15 to 20)
#    0.000    0.727    0.000    7.636    0.000    8.727 
#    0.000    0.000    0.000    0.000    0.000    0.000 
#    0.000    0.000    0.000    0.000    0.000    0.000 
#
# Total GULP energy -61468.837292 kJ/mol
# GULP energy per Si atom -5588.076117 kJ/mol
# Density = 2.556877 g / cm^3
# Si number density = 25.627096 Si / 1000 Ang^3
#
#
#
# Elastic Constant Matrix: (Units=GPa)
#
#
# Indices 1 2 3 4 5 6 
#
# 1 99.4695 44.2335 12.0729 6.1119 5.0257 5.6840
# 2 44.2335 183.4862 27.1465 23.4218 5.9490 14.6241
# 3 12.0729 27.1465 91.6360 14.4557 2.8109 7.1961
# 4 6.1119 23.4218 14.4557 27.8619 -3.8964 3.3297
# 5 5.0257 5.9490 2.8109 -3.8964 19.7100 -3.0545
# 6 5.6840 14.6241 7.1961 3.3297 -3.0545 65.9939
#
#
#
# Elastic Compliance Matrix: (Units=1/GPa)
#
#
# Indices 1 2 3 4 5 6 
#
# 1 0.011400 -0.002510 -0.000604 -0.000332 -0.002198 -0.000445
# 2 -0.002510 0.006998 -0.000763 -0.005161 -0.002556 -0.001109
# 3 -0.000604 -0.000763 0.012301 -0.005870 -0.002677 -0.000948
# 4 -0.000332 -0.005161 -0.005870 0.044930 0.011373 0.000072
# 5 -0.002198 -0.002556 -0.002677 0.011373 0.055167 0.003027
# 6 -0.000445 -0.001109 -0.000948 0.000072 0.003027 0.015677
#
#
# Mechanical properties :
#
#
# Convention : Reuss Voigt Hill
#
# Bulk Modulus (GPa) = 43.58079 60.16641 51.87360
# Shear Modulus (GPa) = 30.88845 42.12242 36.50543
#
# Velocity S-wave (km/s) = 3.47552 4.05861 3.77833
# Velocity P-wave (km/s) = 5.75745 6.74476 6.27057
#
# Compressibility (1/GPa) = 0.02294589
#
# Stress axis : x y z
#
# Youngs Moduli (GPa) = 87.72314 142.89822 81.29601
#
# Poissons Ratio (x) = 0.35864 0.04908
# Poissons Ratio (y) = 0.22016 0.06201
# Poissons Ratio (z) = 0.05296 0.10899
#
# Static dielectric constant tensor:
#      x y z
#    x 2.064260 -0.045380 0.090950 
#    y -0.045380 1.871440 0.027530 
#    z 0.090950 0.027530 1.972100 
# 
# From -- ./inp_files/355541.got.cif
#   From: 2010.05.17/outbox.cif.g08.bks.cpg/sg2_178_cif.got.tgz:355541.got - 2010.06.03 11:33:40.
