data_PCOD9047666
_publ_section_title
;
Structure prediction by ZEFSAII (Michael W. Deem and Ramdas Pophale) SiO2 
 PCOD9047666
Probable space group: P -1
;
_chemical_formula_sum "Si O2"
_cell_formula_units_Z 14
_cell_length_a 7.694875
_cell_length_b 8.635955
_cell_length_c 12.497585
_cell_angle_alpha 117.815691
_cell_angle_beta 122.649954
_cell_angle_gamma 63.632382
_cell_volume 597.472565
_symmetry_space_group_name_H-M "P -1"
_symmetry_group_IT_number 2
_symmetry_cell_setting 'triclinic'
loop_
_space_group_symop_operation_xyz
x,y,z
-x,-y,-z
loop_
_atom_site_type_symbol
_atom_site_label
_atom_site_fract_x
_atom_site_fract_y
_atom_site_fract_z
Si Si1 0.245651 0.532004 0.920791
Si Si2 0.501381 0.237384 0.199793
Si Si3 0.092409 0.665092 0.539802
Si Si4 0.714269 0.912666 0.604827
Si Si5 0.839420 0.587027 0.692860
Si Si6 0.059120 0.887257 0.093960
Si Si7 0.322631 0.152918 0.900858
O O1 0.212769 0.331475 0.857700
O O2 0.080966 0.609224 0.793901
O O3 0.500000 0.500000 0.000000
O O4 0.156588 0.677725 0.030072
O O5 0.694653 0.316478 0.325498
O O6 0.286380 0.359069 0.220911
O O7 0.553866 0.023509 0.180487
O O8 0.472943 0.221495 0.058084
O O9 0.147713 0.607501 0.416984
O O10 0.000000 0.500000 0.500000
O O11 0.907317 0.843812 0.562070
O O12 0.707207 0.735091 0.613609
O O13 0.500000 0.000000 0.500000
O O14 0.778409 0.041947 0.755557
O O15 0.849187 0.906135 0.101173
O O16 0.000000 0.000000 0.000000
#
# Coordination Sequence:
#
# PCOD9047666 Si02
#       7
#     2   2   2   2   2   2   2
#     4  12  29  42  73 110 149 188 250 302 365 439
#     4  11  23  45  74 101 146 187 244 300 371 430
#     4  10  24  44  69 102 141 187 238 296 365 435
#     4  11  25  45  73 105 142 191 241 299 370 438
#     4  11  25  46  69 103 143 190 241 300 368 434
#     4  12  24  49  77 106 148 191 243 308 370 437
#     4  11  26  44  73 110 143 189 245 307 369 436
#
# _framework density 23.432039
#
# number of rings (size 3 to 8) (size 9 to 14) (size 15 to 20)
#    0.000    0.857    4.286    0.857   12.000    1.143 
#    2.571    1.429    0.000    0.000    0.000    0.000 
#    0.000    0.000    0.000    0.000    0.000    0.000 
#
# Total GULP energy -78240.783282 kJ/mol
# GULP energy per Si atom -5588.627377 kJ/mol
# Density = 2.337871 g / cm^3
# Si number density = 23.432039 Si / 1000 Ang^3
#
#
#
# Elastic Constant Matrix: (Units=GPa)
#
#
# Indices 1 2 3 4 5 6 
#
# 1 103.2250 22.0523 49.0512 -3.7171 16.6809 -23.0872
# 2 22.0523 80.0839 41.7488 -4.9440 -2.9474 -7.3043
# 3 49.0512 41.7488 179.2367 11.1261 30.2410 -19.5011
# 4 -3.7171 -4.9440 11.1261 46.5992 -16.2351 -0.2352
# 5 16.6809 -2.9474 30.2410 -16.2351 41.3253 1.7462
# 6 -23.0872 -7.3043 -19.5011 -0.2352 1.7462 34.8864
#
#
#
# Elastic Compliance Matrix: (Units=1/GPa)
#
#
# Indices 1 2 3 4 5 6 
#
# 1 0.013437 -0.002539 -0.001299 -0.000678 -0.005255 0.007894
# 2 -0.002539 0.016267 -0.004939 0.005488 0.008015 -0.001399
# 3 -0.001299 -0.004939 0.009448 -0.006105 -0.009302 0.003812
# 4 -0.000678 0.005488 -0.006105 0.029273 0.016775 -0.003355
# 5 -0.005255 0.008015 -0.009302 0.016775 0.040665 -0.008921
# 6 0.007894 -0.001399 0.003812 -0.003355 -0.008921 0.036150
#
#
# Mechanical properties :
#
#
# Convention : Reuss Voigt Hill
#
# Bulk Modulus (GPa) = 46.29735 65.36112 55.82924
# Shear Modulus (GPa) = 29.41303 41.20839 35.31071
#
# Velocity S-wave (km/s) = 3.54679 4.19816 3.88615
# Velocity P-wave (km/s) = 6.04764 7.17313 6.63430
#
# Compressibility (1/GPa) = 0.02159951
#
# Stress axis : x y z
#
# Youngs Moduli (GPa) = 74.42080 61.47399 105.84002
#
# Poissons Ratio (x) = 0.15605 0.13743
# Poissons Ratio (y) = 0.18892 0.52279
# Poissons Ratio (z) = 0.09664 0.30365
#
# Static dielectric constant tensor:
#      x y z
#    x 1.953890 0.023950 -0.023330 
#    y 0.023950 1.937690 0.003740 
#    z -0.023330 0.003740 1.905310 
# 
# From -- ./inp_files/383390.got.cif
#   From: 2010.05.17/outbox.cif.g08.bks.cpg/sg2_192_cif.got.tgz:383390.got - 2010.06.03 11:33:40.
