data_PCOD9047104
_publ_section_title
;
Structure prediction by ZEFSAII (Michael W. Deem and Ramdas Pophale) SiO2 
 PCOD9047104
Probable space group: P -1
;
_chemical_formula_sum "Si O2"
_cell_formula_units_Z 16
_cell_length_a 5.466758
_cell_length_b 12.107565
_cell_length_c 15.639485
_cell_angle_alpha 133.371540
_cell_angle_beta 98.386164
_cell_angle_gamma 95.991977
_cell_volume 713.684391
_symmetry_space_group_name_H-M "P -1"
_symmetry_group_IT_number 2
_symmetry_cell_setting 'triclinic'
loop_
_space_group_symop_operation_xyz
x,y,z
-x,-y,-z
loop_
_atom_site_type_symbol
_atom_site_label
_atom_site_fract_x
_atom_site_fract_y
_atom_site_fract_z
Si Si1 0.752463 0.335358 0.650995
Si Si2 0.977761 0.841506 0.540759
Si Si3 0.180083 0.858239 0.304953
Si Si4 0.482215 0.987507 0.747590
Si Si5 0.836991 0.685981 0.908831
Si Si6 0.797039 0.602428 0.055526
Si Si7 0.574248 0.143426 0.015194
Si Si8 0.434326 0.334608 0.458750
O O1 0.981053 0.267499 0.591621
O O2 0.654503 0.216446 0.662084
O O3 0.819924 0.509665 0.784197
O O4 0.591346 0.338207 0.557716
O O5 0.239014 0.949916 0.652680
O O6 0.852961 0.725357 0.550679
O O7 0.833002 0.969477 0.574013
O O8 0.909312 0.725157 0.203013
O O9 0.297579 0.897578 0.237396
O O10 0.530798 0.815309 0.672325
O O11 0.465001 0.071459 0.879522
O O12 0.582495 0.736120 0.896222
O O13 0.116349 0.789708 0.944732
O O14 0.819509 0.687962 0.011230
O O15 0.500000 0.500000 0.000000
O O16 0.000000 0.500000 0.000000
O O17 0.500000 0.000000 0.000000
O O18 0.500000 0.500000 0.500000
#
# Coordination Sequence:
#
# PCOD9047104 Si02
#       8
#     2   2   2   2   2   2   2   2
#     4  11  26  42  68 107 141 185 240 298 363 433
#     4  10  24  43  71  99 137 191 238 297 364 429
#     4  11  23  44  70 102 148 186 239 298 364 442
#     4  10  24  45  70 103 136 189 242 296 363 441
#     4  12  27  46  71 109 147 186 247 299 372 437
#     4  12  25  43  71 106 148 198 236 297 372 438
#     4  12  28  48  74 106 144 193 246 306 367 436
#     4  10  25  45  70  98 139 187 242 304 359 426
#
# _framework density 22.418872
#
# number of rings (size 3 to 8) (size 9 to 14) (size 15 to 20)
#    0.000    1.000    2.500    2.250    7.000    8.500 
#    0.000    0.000    0.000    0.000    0.000    0.000 
#    0.000    0.000    0.000    0.000    0.000    0.000 
#
# Total GULP energy -89341.478391 kJ/mol
# GULP energy per Si atom -5583.842399 kJ/mol
# Density = 2.236785 g / cm^3
# Si number density = 22.418872 Si / 1000 Ang^3
#
#
#
# Elastic Constant Matrix: (Units=GPa)
#
#
# Indices 1 2 3 4 5 6 
#
# 1 102.9563 57.0231 38.7839 8.2948 -2.4418 17.8840
# 2 57.0231 137.2256 30.8785 19.1214 -13.6142 0.5914
# 3 38.7839 30.8785 116.3552 6.9537 -21.2394 2.7184
# 4 8.2948 19.1214 6.9537 24.0313 -1.7379 4.6103
# 5 -2.4418 -13.6142 -21.2394 -1.7379 37.7778 10.8560
# 6 17.8840 0.5914 2.7184 4.6103 10.8560 27.1676
#
#
#
# Elastic Compliance Matrix: (Units=1/GPa)
#
#
# Indices 1 2 3 4 5 6 
#
# 1 0.016143 -0.006188 -0.003660 0.002414 -0.000119 -0.010488
# 2 -0.006188 0.011094 -0.000197 -0.007328 0.001905 0.004334
# 3 -0.003660 -0.000197 0.011079 -0.001159 0.006142 -0.000953
# 4 0.002414 -0.007328 -0.001159 0.049116 0.002142 -0.010504
# 5 -0.000119 0.001905 0.006142 0.002142 0.034989 -0.014922
# 6 -0.010488 0.004334 -0.000953 -0.010504 -0.014922 0.051459
#
#
# Mechanical properties :
#
#
# Convention : Reuss Voigt Hill
#
# Bulk Modulus (GPa) = 54.86303 67.76758 61.31530
# Shear Modulus (GPa) = 24.99432 33.11877 29.05654
#
# Velocity S-wave (km/s) = 3.34260 3.84770 3.60401
# Velocity P-wave (km/s) = 6.27871 7.07342 6.68788
#
# Compressibility (1/GPa) = 0.01822721
#
# Stress axis : x y z
#
# Youngs Moduli (GPa) = 61.94627 90.13604 90.25877
#
# Poissons Ratio (x) = 0.55772 0.33033
# Poissons Ratio (y) = 0.38330 0.01781
# Poissons Ratio (z) = 0.22671 0.01779
#
# Static dielectric constant tensor:
#      x y z
#    x 1.997770 -0.081980 0.037050 
#    y -0.081980 1.943830 -0.059330 
#    z 0.037050 -0.059330 1.835110 
# 
# From -- ./inp_files/69367.got.cif
#   From: 2010.05.17/outbox.cif.g08.bks.cpg/sg2_35_cif.got.tgz:69367.got - 2010.06.03 11:33:40.
