data_PCOD9047282
_publ_section_title
;
Structure prediction by ZEFSAII (Michael W. Deem and Ramdas Pophale) SiO2 
 PCOD9047282
Probable space group: P -1
;
_chemical_formula_sum "Si O2"
_cell_formula_units_Z 16
_cell_length_a 11.072096
_cell_length_b 10.192922
_cell_length_c 17.994909
_cell_angle_alpha 35.691463
_cell_angle_beta 138.873273
_cell_angle_gamma 115.892286
_cell_volume 693.446641
_symmetry_space_group_name_H-M "P -1"
_symmetry_group_IT_number 2
_symmetry_cell_setting 'triclinic'
loop_
_space_group_symop_operation_xyz
x,y,z
-x,-y,-z
loop_
_atom_site_type_symbol
_atom_site_label
_atom_site_fract_x
_atom_site_fract_y
_atom_site_fract_z
Si Si1 0.655235 0.237679 0.155464
Si Si2 0.852075 0.929255 0.046710
Si Si3 0.702524 0.318096 0.598041
Si Si4 0.197768 0.592021 0.107124
Si Si5 0.340439 0.742080 0.558326
Si Si6 0.386889 0.244201 0.886914
Si Si7 0.530397 0.860249 0.325596
Si Si8 0.009412 0.253727 0.220677
O O1 0.863327 0.243655 0.222722
O O2 0.664686 0.010695 0.316580
O O3 0.500000 0.500000 0.000000
O O4 0.547029 0.213052 0.040954
O O5 0.812949 0.757399 0.168496
O O6 0.093810 0.809412 0.198082
O O7 0.779908 0.200586 0.927551
O O8 0.695368 0.955124 0.896680
O O9 0.757831 0.214337 0.589005
O O10 0.628838 0.615914 0.430524
O O11 0.522417 0.252489 0.573487
O O12 0.416575 0.355990 0.297047
O O13 0.061721 0.488279 0.136870
O O14 0.100952 0.709621 0.928281
O O15 0.329011 0.503359 0.699225
O O16 0.218203 0.991917 0.434238
O O17 0.500000 0.000000 0.000000
#
# Coordination Sequence:
#
# PCOD9047282 Si02
#       8
#     2   2   2   2   2   2   2   2
#     4  11  25  47  68  95 139 184 218 271 338 405
#     4  11  21  40  66  95 127 176 218 276 336 393
#     4  11  23  39  67 100 125 173 220 282 337 387
#     4  11  22  42  65  98 136 168 225 279 336 395
#     4  12  22  41  68 101 133 166 227 288 330 395
#     4  11  22  43  70  99 137 170 218 284 334 386
#     4  10  24  44  63  92 137 171 222 274 328 402
#     4  11  25  41  68  94 132 184 219 266 343 405
#
# _framework density 23.073153999999999
#
# number of rings (size 3 to 8) (size 9 to 14) (size 15 to 20)
#    0.000    1.000    5.000    1.500    3.500    0.500 
#    2.250    0.625    0.000    0.000    0.000    0.000 
#    0.000    0.000    0.000    0.000    0.000    0.000 
#
# Total GULP energy -89491.930703 kJ/mol
# GULP energy per Si atom -5593.245669 kJ/mol
# Density = 2.302064 g / cm^3
# Si number density = 23.073154 Si / 1000 Ang^3
#
#
#
# Elastic Constant Matrix: (Units=GPa)
#
#
# Indices 1 2 3 4 5 6 
#
# 1 111.8827 29.1405 7.8018 -28.3073 2.3528 46.3162
# 2 29.1405 46.7717 8.2524 -14.7197 -6.0842 14.7558
# 3 7.8018 8.2524 65.5842 -6.8468 9.4170 6.8995
# 4 -28.3073 -14.7197 -6.8468 36.4811 8.2895 -7.0360
# 5 2.3528 -6.0842 9.4170 8.2895 34.8362 -5.9040
# 6 46.3162 14.7558 6.8995 -7.0360 -5.9040 45.6767
#
#
#
# Elastic Compliance Matrix: (Units=1/GPa)
#
#
# Indices 1 2 3 4 5 6 
#
# 1 0.022365 -0.004750 0.003056 0.014308 -0.010080 -0.020704
# 2 -0.004750 0.027888 -0.002704 0.005653 0.004175 -0.002374
# 3 0.003056 -0.002704 0.017375 0.005276 -0.007479 -0.005004
# 4 0.014308 0.005653 0.005276 0.042497 -0.013610 -0.012345
# 5 -0.010080 0.004175 -0.007479 -0.013610 0.037538 0.012758
# 6 -0.020704 -0.002374 -0.005004 -0.012345 0.012758 0.044157
#
#
# Mechanical properties :
#
#
# Convention : Reuss Voigt Hill
#
# Bulk Modulus (GPa) = 16.99692 34.95865 25.97779
# Shear Modulus (GPa) = 22.70393 35.33505 29.01949
#
# Velocity S-wave (km/s) = 3.14028 3.91760 3.55028
# Velocity P-wave (km/s) = 4.53111 5.97056 5.29993
#
# Compressibility (1/GPa) = 0.05883418
#
# Stress axis : x y z
#
# Youngs Moduli (GPa) = 44.71267 35.85783 57.55276
#
# Poissons Ratio (x) = 0.17032 -0.17590
# Poissons Ratio (y) = 0.21238 0.15560
# Poissons Ratio (z) = -0.13666 0.09695
#
# Static dielectric constant tensor:
#      x y z
#    x 1.890750 0.026740 -0.026920 
#    y 0.026740 1.841570 0.044540 
#    z -0.026920 0.044540 1.864650 
# 
# From -- ./inp_files/540944.got.cif
#   From: 2010.05.17/outbox.cif.g08.bks.cpg/sg2_271_cif.got.tgz:540944.got - 2010.06.03 11:33:40.
