data_PCOD9047970
_publ_section_title
;
Structure prediction by ZEFSAII (Michael W. Deem and Ramdas Pophale) SiO2 
 PCOD9047970
Probable space group: P -1
;
_chemical_formula_sum "Si O2"
_cell_formula_units_Z 16
_cell_length_a 21.293872
_cell_length_b 20.067563
_cell_length_c 7.523204
_cell_angle_alpha 131.648521
_cell_angle_beta 121.825555
_cell_angle_gamma 19.422340
_cell_volume 732.092231
_symmetry_space_group_name_H-M "P -1"
_symmetry_group_IT_number 2
_symmetry_cell_setting 'triclinic'
loop_
_space_group_symop_operation_xyz
x,y,z
-x,-y,-z
loop_
_atom_site_type_symbol
_atom_site_label
_atom_site_fract_x
_atom_site_fract_y
_atom_site_fract_z
Si Si1 0.968656 0.620574 0.542390
Si Si2 0.794728 0.177147 0.486745
Si Si3 0.553620 0.310208 0.971005
Si Si4 0.442422 0.348296 0.536743
Si Si5 0.242087 0.229285 0.821663
Si Si6 0.665212 0.715078 0.747523
Si Si7 0.246984 0.977751 0.879116
Si Si8 0.775593 0.223769 0.123196
O O1 0.784630 0.797305 0.445708
O O2 0.000000 0.500000 0.500000
O O3 0.175534 0.415584 0.380215
O O4 0.910358 0.772058 0.840800
O O5 0.830594 0.032300 0.315404
O O6 0.739933 0.252391 0.331581
O O7 0.630485 0.411653 0.780878
O O8 0.000000 0.000000 0.500000
O O9 0.504263 0.285719 0.722871
O O10 0.614301 0.203102 0.062552
O O11 0.725833 0.179821 0.906808
O O12 0.283197 0.447219 0.447567
O O13 0.623480 0.128593 0.277592
O O14 0.363276 0.536984 0.715594
O O15 0.430242 0.982456 0.791756
O O16 0.305591 0.262844 0.986096
O O17 0.000000 0.500000 0.000000
O O18 0.000000 0.000000 0.000000
#
# Coordination Sequence:
#
# PCOD9047970 Si02
#       8
#     2   2   2   2   2   2   2   2
#     4  11  26  47  70 101 142 180 230 295 353 410
#     4  11  23  43  65  96 142 181 225 281 334 408
#     4  11  23  45  67  94 143 181 219 288 339 400
#     4  12  24  42  70  99 134 178 232 273 343 413
#     4   9  21  47  72  93 133 177 221 292 350 403
#     4  10  24  44  72 103 132 179 232 281 354 419
#     4  11  25  45  65 100 137 178 233 281 341 408
#     4  11  23  40  65  97 135 181 227 273 334 406
#
# _framework density 21.855169
#
# number of rings (size 3 to 8) (size 9 to 14) (size 15 to 20)
#    0.000    1.250    2.500    2.625   12.250    0.500 
#    4.500    0.000    0.000    0.000    0.000    0.000 
#    0.000    0.000    0.000    0.000    0.000    0.000 
#
# Total GULP energy -89223.124755 kJ/mol
# GULP energy per Si atom -5576.445297 kJ/mol
# Density = 2.180543 g / cm^3
# Si number density = 21.855169 Si / 1000 Ang^3
#
#
#
# Elastic Constant Matrix: (Units=GPa)
#
#
# Indices 1 2 3 4 5 6 
#
# 1 101.1942 19.2623 40.3707 -12.4693 13.3611 -18.3278
# 2 19.2623 84.2158 25.9014 -8.7286 4.8944 -17.2595
# 3 40.3707 25.9014 119.8357 -2.1858 9.5374 -10.3209
# 4 -12.4693 -8.7286 -2.1858 32.8291 -10.6873 3.9712
# 5 13.3611 4.8944 9.5374 -10.6873 36.7998 0.7581
# 6 -18.3278 -17.2595 -10.3209 3.9712 0.7581 28.1383
#
#
#
# Elastic Compliance Matrix: (Units=1/GPa)
#
#
# Indices 1 2 3 4 5 6 
#
# 1 0.013382 -0.000019 -0.003586 0.002937 -0.003219 0.007062
# 2 -0.000019 0.014479 -0.002358 0.002519 -0.000734 0.007668
# 3 -0.003586 -0.002358 0.010175 -0.001852 -0.001564 0.000253
# 4 0.002937 0.002519 -0.001852 0.035496 0.009438 -0.002485
# 5 -0.003219 -0.000734 -0.001564 0.009438 0.031696 -0.005307
# 6 0.007062 0.007668 0.000253 -0.002485 -0.005307 0.045428
#
#
# Mechanical properties :
#
#
# Convention : Reuss Voigt Hill
#
# Bulk Modulus (GPa) = 38.30052 52.92382 45.61217
# Shear Modulus (GPa) = 29.19068 34.20087 31.69577
#
# Velocity S-wave (km/s) = 3.65861 3.96016 3.81237
# Velocity P-wave (km/s) = 5.95063 6.72151 6.34778
#
# Compressibility (1/GPa) = 0.02610930
#
# Stress axis : x y z
#
# Youngs Moduli (GPa) = 74.72607 69.06459 98.27874
#
# Poissons Ratio (x) = 0.00132 0.35244
# Poissons Ratio (y) = 0.00143 0.23177
# Poissons Ratio (z) = 0.26798 0.16288
#
# Static dielectric constant tensor:
#      x y z
#    x 1.801810 -0.032290 0.023240 
#    y -0.032290 1.783860 0.011320 
#    z 0.023240 0.011320 1.862510 
# 
# From -- ./inp_files/349612.got.cif
#   From: 2010.05.17/outbox.cif.g08.bks.cpg/sg2_175_cif.got.tgz:349612.got - 2010.06.03 11:33:40.
