data_PCOD9047544
_publ_section_title
;
Structure prediction by ZEFSAII (Michael W. Deem and Ramdas Pophale) SiO2 
 PCOD9047544
Probable space group: P -1
;
_chemical_formula_sum "Si O2"
_cell_formula_units_Z 16
_cell_length_a 8.900215
_cell_length_b 7.778856
_cell_length_c 13.971177
_cell_angle_alpha 90.609702
_cell_angle_beta 140.768038
_cell_angle_gamma 87.191350
_cell_volume 610.456811
_symmetry_space_group_name_H-M "P -1"
_symmetry_group_IT_number 2
_symmetry_cell_setting 'triclinic'
loop_
_space_group_symop_operation_xyz
x,y,z
-x,-y,-z
loop_
_atom_site_type_symbol
_atom_site_label
_atom_site_fract_x
_atom_site_fract_y
_atom_site_fract_z
Si Si1 0.644930 0.615929 0.772907
Si Si2 0.056712 0.283357 0.680443
Si Si3 0.873536 0.520519 0.089775
Si Si4 0.120197 0.743471 0.768124
Si Si5 0.402393 0.972265 0.250426
Si Si6 0.557786 0.021051 0.137755
Si Si7 0.226476 0.354212 0.558726
Si Si8 0.236502 0.936862 0.355590
O O1 0.592911 0.820890 0.729352
O O2 0.325857 0.795243 0.797542
O O3 0.854493 0.541370 0.804203
O O4 0.751542 0.588092 0.933051
O O5 0.150909 0.357509 0.828119
O O6 0.083065 0.363230 0.588552
O O7 0.221630 0.112838 0.738714
O O8 0.809236 0.216947 0.595997
O O9 0.770645 0.350737 0.085269
O O10 0.425196 0.493753 0.655848
O O11 0.937212 0.634822 0.617055
O O12 0.958586 0.909043 0.721917
O O13 0.361267 0.975679 0.116450
O O14 0.220728 0.895420 0.234583
O O15 0.635191 0.839346 0.379457
O O16 0.500000 0.000000 0.000000
O O17 0.500000 0.000000 0.500000
#
# Coordination Sequence:
#
# PCOD9047544 Si02
#       8
#     2   2   2   2   2   2   2   2
#     4  11  26  47  72 105 142 190 239 292 363 414
#     4  10  25  43  68 102 142 185 240 290 354 426
#     4  11  25  46  67 104 146 181 240 297 346 438
#     4  11  25  43  69 106 144 181 237 292 360 422
#     4  11  23  44  75 101 137 189 239 291 348 426
#     4  10  24  44  68 102 136 189 235 285 357 419
#     4  11  26  46  72 106 143 188 234 300 355 427
#     4  11  22  42  70 103 139 187 233 294 355 421
#
# _framework density 26.209880999999999
#
# number of rings (size 3 to 8) (size 9 to 14) (size 15 to 20)
#    0.000    1.250    2.500    1.500    7.000    4.000 
#    0.000    3.125    0.000    0.000    0.000    0.000 
#    0.000    0.000    0.000    0.000    0.000    0.000 
#
# Total GULP energy -89361.535566 kJ/mol
# GULP energy per Si atom -5585.095973 kJ/mol
# Density = 2.615023 g / cm^3
# Si number density = 26.209881 Si / 1000 Ang^3
#
#
#
# Elastic Constant Matrix: (Units=GPa)
#
#
# Indices 1 2 3 4 5 6 
#
# 1 182.9083 46.2033 42.7218 -0.8689 -41.0873 -10.6511
# 2 46.2033 102.2846 21.0474 -6.7993 -8.5657 1.7958
# 3 42.7218 21.0474 71.8084 -9.6837 -18.1886 23.7332
# 4 -0.8689 -6.7993 -9.6837 38.4021 8.9758 -8.4844
# 5 -41.0873 -8.5657 -18.1886 8.9758 47.2105 -3.0082
# 6 -10.6511 1.7958 23.7332 -8.4844 -3.0082 40.1637
#
#
#
# Elastic Compliance Matrix: (Units=1/GPa)
#
#
# Indices 1 2 3 4 5 6 
#
# 1 0.009047 -0.002734 -0.005140 -0.001752 0.006090 0.005645
# 2 -0.002734 0.011400 -0.001864 0.001840 -0.001370 0.000153
# 3 -0.005140 -0.001864 0.023269 0.001534 0.002938 -0.014486
# 4 -0.001752 0.001840 0.001534 0.029016 -0.005846 0.004238
# 5 0.006090 -0.001370 0.002938 -0.005846 0.028530 0.000842
# 6 0.005645 0.000153 -0.014486 0.004238 0.000842 0.035906
#
#
# Mechanical properties :
#
#
# Convention : Reuss Voigt Hill
#
# Bulk Modulus (GPa) = 41.25548 64.10516 52.68032
# Shear Modulus (GPa) = 30.35333 41.62383 35.98858
#
# Velocity S-wave (km/s) = 3.40676 3.98942 3.70955
# Velocity P-wave (km/s) = 5.59011 6.76255 6.20409
#
# Compressibility (1/GPa) = 0.02423920
#
# Stress axis : x y z
#
# Youngs Moduli (GPa) = 110.53441 87.71675 42.97517
#
# Poissons Ratio (x) = 0.23986 0.22091
# Poissons Ratio (y) = 0.30225 0.08010
# Poissons Ratio (z) = 0.56819 0.16349
#
# Static dielectric constant tensor:
#      x y z
#    x 2.082360 0.069350 -0.013190 
#    y 0.069350 2.285590 0.026370 
#    z -0.013190 0.026370 2.076310 
# 
# From -- ./inp_files/493037.got.cif
#   From: 2010.05.17/outbox.cif.g08.bks.cpg/sg2_247_cif.got.tgz:493037.got - 2010.06.03 11:33:40.
