data_PCOD9047392
_publ_section_title
;
Structure prediction by ZEFSAII (Michael W. Deem and Ramdas Pophale) SiO2 
 PCOD9047392
Probable space group: P -1
;
_chemical_formula_sum "Si O2"
_cell_formula_units_Z 15
_cell_length_a 28.034670
_cell_length_b 14.697196
_cell_length_c 15.409976
_cell_angle_alpha 18.868592
_cell_angle_beta 21.177398
_cell_angle_gamma 18.571515
_cell_volume 613.956623
_symmetry_space_group_name_H-M "P -1"
_symmetry_group_IT_number 2
_symmetry_cell_setting 'triclinic'
loop_
_space_group_symop_operation_xyz
x,y,z
-x,-y,-z
loop_
_atom_site_type_symbol
_atom_site_label
_atom_site_fract_x
_atom_site_fract_y
_atom_site_fract_z
Si Si1 0.286061 0.467705 0.287828
Si Si2 0.017455 0.373278 0.768599
Si Si3 0.547659 0.218036 0.776835
Si Si4 0.360337 0.199235 0.699451
Si Si5 0.243061 0.641803 0.007986
Si Si6 0.000000 0.500000 0.500000
Si Si7 0.708593 0.575460 0.196975
Si Si8 0.181338 0.840756 0.304129
O O1 0.294129 0.595678 0.063047
O O2 0.214859 0.757075 0.220494
O O3 0.154830 0.380614 0.576192
O O4 0.460004 0.132895 0.316234
O O5 0.942778 0.630762 0.582389
O O6 0.894141 0.395313 0.025552
O O7 0.094818 0.023876 0.898871
O O8 0.646272 0.369297 0.440781
O O9 0.386320 0.547425 0.789095
O O10 0.500000 0.000000 0.000000
O O11 0.634562 0.956520 0.945109
O O12 0.339831 0.389634 0.652544
O O13 0.300022 0.475512 0.477288
O O14 0.239783 0.079805 0.014917
O O15 0.175683 0.418803 0.299283
O O16 0.000000 0.000000 0.500000
#
# Coordination Sequence:
#
# PCOD9047392 Si02
#       8
#     2   2   2   2   2   1   2   2
#     4  11  26  46  73 110 147 197 248 305 375 446
#     4  11  26  44  77 102 151 196 253 307 371 442
#     4  12  27  47  73 105 148 192 251 309 368 442
#     4  12  26  49  76 107 154 193 246 308 372 448
#     4  11  25  44  75 100 149 196 251 302 372 441
#     4  10  24  44  66 106 140 190 250 298 366 428
#     4  12  27  48  73 109 147 194 246 306 379 429
#     4  12  28  47  77 112 150 192 250 305 374 444
#
# _framework density 24.431694
#
# number of rings (size 3 to 8) (size 9 to 14) (size 15 to 20)
#    0.000    0.533    1.333    5.200   13.067    0.000 
#    0.000    0.000    0.000    0.000    0.000    0.000 
#    0.000    0.000    0.000    0.000    0.000    0.000 
#
# Total GULP energy -83739.142945 kJ/mol
# GULP energy per Si atom -5582.609530 kJ/mol
# Density = 2.437609 g / cm^3
# Si number density = 24.431694 Si / 1000 Ang^3
#
#
#
# Elastic Constant Matrix: (Units=GPa)
#
#
# Indices 1 2 3 4 5 6 
#
# 1 123.6312 50.5825 -5.5228 -20.9372 50.3887 -11.9875
# 2 50.5825 114.1229 -12.6143 -18.1518 52.7659 10.6646
# 3 -5.5228 -12.6143 115.9859 23.4622 -63.3943 19.4178
# 4 -20.9372 -18.1518 23.4622 68.2349 -62.0796 26.2050
# 5 50.3887 52.7659 -63.3943 -62.0796 164.7382 -31.5223
# 6 -11.9875 10.6646 19.4178 26.2050 -31.5223 28.6019
#
#
#
# Elastic Compliance Matrix: (Units=1/GPa)
#
#
# Indices 1 2 3 4 5 6 
#
# 1 0.011412 -0.005603 -0.001917 -0.001918 -0.001592 0.008177
# 2 -0.005603 0.016182 0.001037 0.005256 -0.004752 -0.019138
# 3 -0.001917 0.001037 0.011619 0.001950 0.004285 -0.006142
# 4 -0.001918 0.005256 0.001950 0.029908 0.006208 -0.024647
# 5 -0.001592 -0.004752 0.004285 0.006208 0.013476 0.007360
# 6 0.008177 -0.019138 -0.006142 -0.024647 0.007360 0.080388
#
#
# Mechanical properties :
#
#
# Convention : Reuss Voigt Hill
#
# Bulk Modulus (GPa) = 38.10035 46.51453 42.30744
# Shear Modulus (GPa) = 27.07092 73.73465 50.40278
#
# Velocity S-wave (km/s) = 3.33231 5.49959 4.54696
# Velocity P-wave (km/s) = 5.51672 7.70761 6.70229
#
# Compressibility (1/GPa) = 0.02624648
#
# Stress axis : x y z
#
# Youngs Moduli (GPa) = 87.62502 61.79704 86.06506
#
# Poissons Ratio (x) = 0.34627 0.16498
# Poissons Ratio (y) = 0.49099 -0.08923
# Poissons Ratio (z) = 0.16797 -0.06407
#
# Static dielectric constant tensor:
#      x y z
#    x 1.985740 -0.024980 0.065760 
#    y -0.024980 2.062820 -0.089920 
#    z 0.065760 -0.089920 2.099570 
# 
# From -- ./inp_files/544225.got.cif
#   From: 2010.05.17/outbox.cif.g08.bks.cpg/sg2_273_cif.got.tgz:544225.got - 2010.06.03 11:33:40.
