data_PCOD9047802
_publ_section_title
;
Structure prediction by ZEFSAII (Michael W. Deem and Ramdas Pophale) SiO2 
 PCOD9047802
Probable space group: P -1
;
_chemical_formula_sum "Si O2"
_cell_formula_units_Z 14
_cell_length_a 15.807824
_cell_length_b 4.864556
_cell_length_c 24.990664
_cell_angle_alpha 77.416720
_cell_angle_beta 19.167475
_cell_angle_gamma 86.412668
_cell_volume 550.887562
_symmetry_space_group_name_H-M "P -1"
_symmetry_group_IT_number 2
_symmetry_cell_setting 'triclinic'
loop_
_space_group_symop_operation_xyz
x,y,z
-x,-y,-z
loop_
_atom_site_type_symbol
_atom_site_label
_atom_site_fract_x
_atom_site_fract_y
_atom_site_fract_z
Si Si1 0.330264 0.250782 0.286809
Si Si2 0.280905 0.358473 0.686799
Si Si3 0.638942 0.717707 0.563254
Si Si4 0.799243 0.502044 0.917736
Si Si5 0.468289 0.214199 0.774526
Si Si6 0.863242 0.166736 0.129744
Si Si7 0.804888 0.091963 0.841233
O O1 0.429160 0.594802 0.238790
O O2 0.484131 0.089603 0.236830
O O3 0.472153 0.292966 0.141890
O O4 0.000000 0.000000 0.500000
O O5 0.500000 0.500000 0.500000
O O6 0.438960 0.526667 0.640372
O O7 0.011706 0.430572 0.832260
O O8 0.185510 0.991963 0.773206
O O9 0.639614 0.482601 0.618270
O O10 0.474304 0.916377 0.673543
O O11 0.959054 0.885231 0.343455
O O12 0.821620 0.847986 0.884850
O O13 0.869536 0.406510 0.821956
O O14 0.138421 0.095267 0.959387
O O15 0.000000 0.500000 0.000000
O O16 0.500000 0.000000 0.000000
#
# Coordination Sequence:
#
# PCOD9047802 Si02
#       7
#     2   2   2   2   2   2   2
#     4  12  27  46  75 105 145 194 253 303 366 433
#     4  12  24  44  74 108 149 191 249 311 376 444
#     4  11  27  43  76 106 150 193 249 294 384 444
#     4  12  27  49  77 107 148 192 251 308 381 429
#     4  11  26  46  73 107 148 193 239 312 369 447
#     4  10  24  44  70 106 149 193 242 308 380 446
#     4  12  29  50  74 107 150 201 245 305 366 461
#
# _framework density 25.413530999999999
#
# number of rings (size 3 to 8) (size 9 to 14) (size 15 to 20)
#    0.000    0.571    2.857    3.429   10.000    2.286 
#    0.000    0.000    0.000    0.000    0.000    0.000 
#    0.000    0.000    0.000    0.000    0.000    0.000 
#
# Total GULP energy -78073.843559 kJ/mol
# GULP energy per Si atom -5576.703111 kJ/mol
# Density = 2.535569 g / cm^3
# Si number density = 25.413531 Si / 1000 Ang^3
#
#
#
# Elastic Constant Matrix: (Units=GPa)
#
#
# Indices 1 2 3 4 5 6 
#
# 1 64.8068 18.4089 11.2077 -6.8695 1.0305 -16.7171
# 2 18.4089 80.4870 13.4192 6.1814 23.5179 15.7048
# 3 11.2077 13.4192 192.9987 7.2238 5.8115 -27.1784
# 4 -6.8695 6.1814 7.2238 21.3635 -26.4619 -7.3683
# 5 1.0305 23.5179 5.8115 -26.4619 23.9613 -44.2162
# 6 -16.7171 15.7048 -27.1784 -7.3683 -44.2162 13.8549
#
#
#
# Elastic Compliance Matrix: (Units=1/GPa)
#
#
# Indices 1 2 3 4 5 6 
#
# 1 0.015187 -0.001053 -0.000824 -0.002448 -0.005830 -0.002009
# 2 -0.001053 0.009928 -0.000236 0.004668 0.004883 0.005078
# 3 -0.000824 -0.000236 0.005723 -0.003993 -0.002030 0.001897
# 4 -0.002448 0.004668 -0.003993 0.031054 -0.006463 -0.020186
# 5 -0.005830 0.004883 -0.002030 -0.006463 0.001296 -0.015852
# 6 -0.002009 0.005078 0.001897 -0.020186 -0.015852 0.006394
#
#
# Mechanical properties :
#
#
# Convention : Reuss Voigt Hill
#
# Bulk Modulus (GPa) = 37.57531 47.15158 42.36344
# Shear Modulus (GPa) = 60.47409 31.51971 45.99690
#
# Velocity S-wave (km/s) = 4.88341 3.52557 4.25895
# Velocity P-wave (km/s) = 6.82749 5.93017 6.39458
#
# Compressibility (1/GPa) = 0.02661322
#
# Stress axis : x y z
#
# Youngs Moduli (GPa) = 65.84550 100.72028 174.72254
#
# Poissons Ratio (x) = 0.10601 0.14405
# Poissons Ratio (y) = 0.06930 0.04121
# Poissons Ratio (z) = 0.05429 0.02376
#
# Static dielectric constant tensor:
#      x y z
#    x 2.090410 0.196420 0.083620 
#    y 0.196420 1.988930 -0.106330 
#    z 0.083620 -0.106330 1.857860 
# 
# From -- ./inp_files/80825.got.cif
#   From: 2010.05.17/outbox.cif.g08.bks.cpg/sg2_41_cif.got.tgz:80825.got - 2010.06.03 11:33:40.
