data_PCOD9047920
_publ_section_title
;
Structure prediction by ZEFSAII (Michael W. Deem and Ramdas Pophale) SiO2 
 PCOD9047920
Probable space group: P -1
;
_chemical_formula_sum "Si O2"
_cell_formula_units_Z 14
_cell_length_a 11.917631
_cell_length_b 4.843267
_cell_length_c 22.933465
_cell_angle_alpha 71.156975
_cell_angle_beta 26.917558
_cell_angle_gamma 62.690343
_cell_volume 520.122121
_symmetry_space_group_name_H-M "P -1"
_symmetry_group_IT_number 2
_symmetry_cell_setting 'triclinic'
loop_
_space_group_symop_operation_xyz
x,y,z
-x,-y,-z
loop_
_atom_site_type_symbol
_atom_site_label
_atom_site_fract_x
_atom_site_fract_y
_atom_site_fract_z
Si Si1 0.546362 0.749671 0.916729
Si Si2 0.606018 0.173981 0.529498
Si Si3 0.739664 0.516975 0.011358
Si Si4 0.089859 0.206505 0.692183
Si Si5 0.247670 0.099764 0.394439
Si Si6 0.791335 0.321349 0.245764
Si Si7 0.437597 0.505258 0.778631
O O1 0.363926 0.736452 0.948318
O O2 0.860068 0.554937 0.767802
O O3 0.464939 0.123958 0.938859
O O4 0.500000 0.500000 0.000000
O O5 0.345525 0.227396 0.606019
O O6 0.483632 0.510402 0.599821
O O7 0.836787 0.994405 0.387647
O O8 0.697775 0.949245 0.558606
O O9 0.727316 0.488038 0.088107
O O10 0.030097 0.472671 0.855544
O O11 0.020002 0.987397 0.785620
O O12 0.297205 0.417740 0.335736
O O13 0.478346 0.833789 0.267987
O O14 0.000000 0.000000 0.500000
O O15 0.724171 0.266022 0.214797
#
# Coordination Sequence:
#
# PCOD9047920 Si02
#       7
#     2   2   2   2   2   2   2
#     4  12  26  46  71 107 150 200 245 309 368 441
#     4  10  24  44  71 111 138 198 245 317 368 443
#     4  12  27  46  74 109 151 198 249 301 377 441
#     4  11  23  44  74 104 151 189 257 299 381 439
#     4  11  24  47  74 104 154 189 249 308 374 440
#     4  11  23  45  75 104 155 190 251 310 370 448
#     4  11  25  47  71 112 141 198 247 305 376 444
#
# _framework density 26.916758000000002
#
# number of rings (size 3 to 8) (size 9 to 14) (size 15 to 20)
#    0.000    0.857    2.857    3.429    4.000    0.000 
#    2.571    3.571    0.000    0.000    0.000    0.000 
#    0.000    0.000    0.000    0.000    0.000    0.000 
#
# Total GULP energy -78235.236396 kJ/mol
# GULP energy per Si atom -5588.231171 kJ/mol
# Density = 2.685549 g / cm^3
# Si number density = 26.916758 Si / 1000 Ang^3
#
#
#
# Elastic Constant Matrix: (Units=GPa)
#
#
# Indices 1 2 3 4 5 6 
#
# 1 107.7202 20.2210 41.0873 -9.3576 23.5176 10.4338
# 2 20.2210 106.4398 29.0080 10.8749 4.0901 17.4552
# 3 41.0873 29.0080 79.7382 7.5566 20.8692 -0.4353
# 4 -9.3576 10.8749 7.5566 40.4541 -4.3583 1.3702
# 5 23.5176 4.0901 20.8692 -4.3583 62.2914 -5.2193
# 6 10.4338 17.4552 -0.4353 1.3702 -5.2193 31.7657
#
#
#
# Elastic Compliance Matrix: (Units=1/GPa)
#
#
# Indices 1 2 3 4 5 6 
#
# 1 0.013261 -0.000282 -0.006375 0.004181 -0.002975 -0.004957
# 2 -0.000282 0.011804 -0.003958 -0.002288 -0.000035 -0.006355
# 3 -0.006375 -0.003958 0.018633 -0.004412 -0.003538 0.004133
# 4 0.004181 -0.002288 -0.004412 0.027363 0.001876 -0.001049
# 5 -0.002975 -0.000035 -0.003538 0.001876 0.018828 0.003961
# 6 -0.004957 -0.006355 0.004133 -0.001049 0.003961 0.037354
#
#
# Mechanical properties :
#
#
# Convention : Reuss Voigt Hill
#
# Bulk Modulus (GPa) = 44.50724 52.72564 48.61644
# Shear Modulus (GPa) = 32.05925 40.47437 36.26681
#
# Velocity S-wave (km/s) = 3.45491 3.88195 3.67463
# Velocity P-wave (km/s) = 5.69967 6.30267 6.00874
#
# Compressibility (1/GPa) = 0.02246825
#
# Stress axis : x y z
#
# Youngs Moduli (GPa) = 75.41040 84.71389 53.66956
#
# Poissons Ratio (x) = 0.02387 0.34215
# Poissons Ratio (y) = 0.02125 0.21241
# Poissons Ratio (z) = 0.48076 0.33528
#
# Static dielectric constant tensor:
#      x y z
#    x 2.074680 -0.026190 -0.070240 
#    y -0.026190 2.154570 -0.015220 
#    z -0.070240 -0.015220 2.175860 
# 
# From -- ./inp_files/369190.got.cif
#   From: 2010.05.17/outbox.cif.g08.bks.cpg/sg2_185_cif.got.tgz:369190.got - 2010.06.03 11:33:40.
