data_PCOD9047067
_publ_section_title
;
Structure prediction by ZEFSAII (Michael W. Deem and Ramdas Pophale) SiO2 
 PCOD9047067
Probable space group: P -1
;
_chemical_formula_sum "Si O2"
_cell_formula_units_Z 16
_cell_length_a 8.960816
_cell_length_b 10.935020
_cell_length_c 15.752033
_cell_angle_alpha 71.226118
_cell_angle_beta 132.777752
_cell_angle_gamma 71.502849
_cell_volume 683.031399
_symmetry_space_group_name_H-M "P -1"
_symmetry_group_IT_number 2
_symmetry_cell_setting 'triclinic'
loop_
_space_group_symop_operation_xyz
x,y,z
-x,-y,-z
loop_
_atom_site_type_symbol
_atom_site_label
_atom_site_fract_x
_atom_site_fract_y
_atom_site_fract_z
Si Si1 0.860326 0.068685 0.654543
Si Si2 0.618908 0.575665 0.488749
Si Si3 0.472335 0.107115 0.383426
Si Si4 0.556287 0.370066 0.945449
Si Si5 0.750750 0.854131 0.204700
Si Si6 0.756916 0.546939 0.027180
Si Si7 0.358011 0.108381 0.152831
Si Si8 0.246503 0.765048 0.128741
O O1 0.553396 0.235531 0.560279
O O2 0.739888 0.082483 0.513372
O O3 0.046587 0.112602 0.714882
O O4 0.103625 0.845490 0.837296
O O5 0.500000 0.500000 0.500000
O O6 0.472321 0.648110 0.322519
O O7 0.997906 0.378825 0.671715
O O8 0.496380 0.028954 0.318640
O O9 0.127115 0.344271 0.195612
O O10 0.500000 0.000000 0.500000
O O11 0.301089 0.441957 0.897201
O O12 0.553596 0.319272 0.861002
O O13 0.562743 0.522208 0.917082
O O14 0.562023 0.929448 0.202612
O O15 0.500000 0.000000 0.000000
O O16 0.640687 0.742273 0.907318
O O17 0.991878 0.239543 0.976199
O O18 0.000000 0.000000 0.000000
#
# Coordination Sequence:
#
# PCOD9047067 Si02
#       8
#     2   2   2   2   2   2   2   2
#     4  11  22  45  70 102 148 189 237 304 369 427
#     4  10  24  43  71 104 137 193 242 294 367 431
#     4  12  26  44  70 104 151 191 243 305 363 435
#     4  11  23  46  71 106 149 195 236 300 381 424
#     4  11  26  46  71 107 146 189 249 307 360 438
#     4  11  25  44  72 104 143 192 245 296 363 439
#     4  12  26  46  74 108 146 195 249 296 370 437
#     4  12  25  46  75 105 151 192 242 306 372 441
#
# _framework density 23.424983999999998
#
# number of rings (size 3 to 8) (size 9 to 14) (size 15 to 20)
#    0.000    0.750    5.000    1.875    5.250    1.500 
#    0.000    0.625    0.000    0.000    0.000    0.000 
#    0.000    0.000    0.000    0.000    0.000    0.000 
#
# Total GULP energy -89606.799565 kJ/mol
# GULP energy per Si atom -5600.424973 kJ/mol
# Density = 2.337167 g / cm^3
# Si number density = 23.424984 Si / 1000 Ang^3
#
#
#
# Elastic Constant Matrix: (Units=GPa)
#
#
# Indices 1 2 3 4 5 6 
#
# 1 82.5435 33.7069 12.4638 5.6586 0.4405 -15.2699
# 2 33.7069 100.4710 23.0569 7.6369 0.2001 -21.8471
# 3 12.4638 23.0569 98.9872 15.2449 1.6577 -20.5601
# 4 5.6586 7.6369 15.2449 42.7928 -4.5887 -1.8729
# 5 0.4405 0.2001 1.6577 -4.5887 30.2072 2.9927
# 6 -15.2699 -21.8471 -20.5601 -1.8729 2.9927 64.1946
#
#
#
# Elastic Compliance Matrix: (Units=1/GPa)
#
#
# Indices 1 2 3 4 5 6 
#
# 1 0.014310 -0.004258 -0.000258 -0.001013 -0.000505 0.001866
# 2 -0.004258 0.012416 -0.001643 -0.000987 -0.000345 0.002674
# 3 -0.000258 -0.001643 0.011791 -0.003901 -0.001534 0.003114
# 4 -0.001013 -0.000987 -0.003901 0.025466 0.004231 -0.001281
# 5 -0.000505 -0.000345 -0.001534 0.004231 0.034058 -0.002193
# 6 0.001866 0.002674 0.003114 -0.001281 -0.002193 0.017994
#
#
# Mechanical properties :
#
#
# Convention : Reuss Voigt Hill
#
# Bulk Modulus (GPa) = 38.16887 46.71743 42.44315
# Shear Modulus (GPa) = 36.47397 41.62386 39.04891
#
# Velocity S-wave (km/s) = 3.95023 4.21990 4.08729
# Velocity P-wave (km/s) = 6.09387 6.61288 6.35867
#
# Compressibility (1/GPa) = 0.02619936
#
# Stress axis : x y z
#
# Youngs Moduli (GPa) = 69.88200 80.54331 84.81312
#
# Poissons Ratio (x) = 0.34294 0.02188
# Poissons Ratio (y) = 0.29754 0.13932
# Poissons Ratio (z) = 0.01803 0.13230
#
# Static dielectric constant tensor:
#      x y z
#    x 1.934400 0.029690 0.037900 
#    y 0.029690 1.923630 0.004840 
#    z 0.037900 0.004840 1.819720 
# 
# From -- ./inp_files/347685.got.cif
#   From: 2010.05.17/outbox.cif.g08.bks.cpg/sg2_174_cif.got.tgz:347685.got - 2010.06.03 11:33:40.
