data_PCOD9047785
_publ_section_title
;
Structure prediction by ZEFSAII (Michael W. Deem and Ramdas Pophale) SiO2 
 PCOD9047785
Probable space group: P -1
;
_chemical_formula_sum "Si O2"
_cell_formula_units_Z 15
_cell_length_a 16.081251
_cell_length_b 24.587553
_cell_length_c 6.936794
_cell_angle_alpha 127.999702
_cell_angle_beta 51.134722
_cell_angle_gamma 162.219919
_cell_volume 650.238007
_symmetry_space_group_name_H-M "P -1"
_symmetry_group_IT_number 2
_symmetry_cell_setting 'triclinic'
loop_
_space_group_symop_operation_xyz
x,y,z
-x,-y,-z
loop_
_atom_site_type_symbol
_atom_site_label
_atom_site_fract_x
_atom_site_fract_y
_atom_site_fract_z
Si Si1 0.433291 0.619283 0.294444
Si Si2 0.374301 0.873135 0.069113
Si Si3 0.444721 0.090877 0.506918
Si Si4 0.621328 0.640436 0.392159
Si Si5 0.500000 0.000000 0.500000
Si Si6 0.082119 0.998182 0.706829
Si Si7 0.924354 0.390515 0.737979
Si Si8 0.817814 0.612861 0.184401
O O1 0.533074 0.610904 0.244300
O O2 0.187452 0.509463 0.528755
O O3 0.679020 0.820652 0.361952
O O4 0.324751 0.531390 0.052003
O O5 0.630185 0.058533 0.220553
O O6 0.237455 0.761441 0.223239
O O7 0.127982 0.773502 0.128778
O O8 0.463894 0.878815 0.775539
O O9 0.715241 0.284773 0.640038
O O10 0.352092 0.977683 0.549697
O O11 0.208222 0.005066 0.634095
O O12 0.778775 0.661990 0.238067
O O13 0.354373 0.481317 0.572816
O O14 0.825023 0.821593 0.568325
O O15 0.000000 0.000000 0.000000
O O16 0.000000 0.500000 0.000000
#
# Coordination Sequence:
#
# PCOD9047785 Si02
#       8
#     2   2   2   2   1   2   2   2
#     4  12  24  46  72 102 138 186 236 292 350 417
#     4  11  22  45  69 103 138 174 233 291 350 412
#     4  11  25  46  70 102 140 185 229 291 354 414
#     4  11  25  46  67 103 141 189 234 288 345 422
#     4  10  24  44  70 104 140 180 228 288 350 422
#     4  12  27  47  68 100 148 190 229 288 356 424
#     4  11  25  40  71 103 132 176 231 292 347 417
#     4  11  23  44  75 101 139 183 240 292 346 415
#
# _framework density 23.068474999999999
#
# number of rings (size 3 to 8) (size 9 to 14) (size 15 to 20)
#    0.000    0.800    4.000    2.800    3.733    1.067 
#    7.200    0.000    0.000    0.000    0.000    0.000 
#    0.000    0.000    0.000    0.000    0.000    0.000 
#
# Total GULP energy -83617.629957 kJ/mol
# GULP energy per Si atom -5574.508664 kJ/mol
# Density = 2.301597 g / cm^3
# Si number density = 23.068475 Si / 1000 Ang^3
#
#
#
# Elastic Constant Matrix: (Units=GPa)
#
#
# Indices 1 2 3 4 5 6 
#
# 1 107.7414 -3.8546 29.2812 -13.2746 10.2063 16.7754
# 2 -3.8546 53.4860 16.8299 1.5138 10.2083 1.8445
# 3 29.2812 16.8299 116.6685 3.8713 10.9236 29.9815
# 4 -13.2746 1.5138 3.8713 39.6449 7.0310 6.8016
# 5 10.2063 10.2083 10.9236 7.0310 40.9454 -3.2596
# 6 16.7754 1.8445 29.9815 6.8016 -3.2596 35.0601
#
#
#
# Elastic Compliance Matrix: (Units=1/GPa)
#
#
# Indices 1 2 3 4 5 6 
#
# 1 0.011886 0.002256 -0.001506 0.005906 -0.004623 -0.006094
# 2 0.002256 0.020778 -0.003048 0.001224 -0.005162 -0.000283
# 3 -0.001506 -0.003048 0.012214 0.000669 -0.003032 -0.009976
# 4 0.005906 0.001224 0.000669 0.030226 -0.007947 -0.010065
# 5 -0.004623 -0.005162 -0.003032 -0.007947 0.029783 0.009387
# 6 -0.006094 -0.000283 -0.009976 -0.010065 0.009387 0.042809
#
#
# Mechanical properties :
#
#
# Convention : Reuss Voigt Hill
#
# Bulk Modulus (GPa) = 24.82481 40.26766 32.54623
# Shear Modulus (GPa) = 30.17150 38.83938 34.50544
#
# Velocity S-wave (km/s) = 3.62043 4.10769 3.87173
# Velocity P-wave (km/s) = 5.31614 6.32385 5.84177
#
# Compressibility (1/GPa) = 0.04028229
#
# Stress axis : x y z
#
# Youngs Moduli (GPa) = 84.13465 48.12672 81.87210
#
# Poissons Ratio (x) = -0.10855 0.12327
# Poissons Ratio (y) = -0.18977 0.24954
# Poissons Ratio (z) = 0.12668 0.14669
#
# Static dielectric constant tensor:
#      x y z
#    x 1.892060 -0.061850 -0.064780 
#    y -0.061850 1.818970 0.020360 
#    z -0.064780 0.020360 1.897440 
# 
# From -- ./inp_files/67550.got.cif
#   From: 2010.05.17/outbox.cif.g08.bks.cpg/sg2_34_cif.got.tgz:67550.got - 2010.06.03 11:33:40.
