data_PCOD9047474
_publ_section_title
;
Structure prediction by ZEFSAII (Michael W. Deem and Ramdas Pophale) SiO2 
 PCOD9047474
Probable space group: P -1
;
_chemical_formula_sum "Si O2"
_cell_formula_units_Z 14
_cell_length_a 12.488936
_cell_length_b 8.236232
_cell_length_c 7.869632
_cell_angle_alpha 50.770482
_cell_angle_beta 115.287485
_cell_angle_gamma 95.715803
_cell_volume 549.889356
_symmetry_space_group_name_H-M "P -1"
_symmetry_group_IT_number 2
_symmetry_cell_setting 'triclinic'
loop_
_space_group_symop_operation_xyz
x,y,z
-x,-y,-z
loop_
_atom_site_type_symbol
_atom_site_label
_atom_site_fract_x
_atom_site_fract_y
_atom_site_fract_z
Si Si1 0.318306 0.192478 0.648129
Si Si2 0.432917 0.015533 0.208898
Si Si3 0.983318 0.084742 0.162149
Si Si4 0.336967 0.448533 0.928299
Si Si5 0.180072 0.859491 0.677131
Si Si6 0.388235 0.580565 0.506953
Si Si7 0.918041 0.690718 0.207087
O O1 0.427071 0.098635 0.653545
O O2 0.290497 0.451457 0.460620
O O3 0.212614 0.080631 0.606552
O O4 0.376388 0.108401 0.926138
O O5 0.361844 0.835626 0.324224
O O6 0.419555 0.217121 0.192136
O O7 0.912742 0.185117 0.216232
O O8 0.109075 0.914108 0.416166
O O9 0.907888 0.927684 0.127633
O O10 0.016182 0.268561 0.948664
O O11 0.298487 0.661154 0.876056
O O12 0.400448 0.509984 0.759466
O O13 0.208076 0.380645 0.856237
O O14 0.500000 0.500000 0.500000
O O15 0.000000 0.500000 0.500000
#
# Coordination Sequence:
#
# PCOD9047474 Si02
#       7
#     2   2   2   2   2   2   2
#     4   9  19  39  63  92 130 165 222 265 322 392
#     4   9  19  38  64  91 123 177 217 263 315 398
#     4  10  24  44  67  91 136 171 227 274 327 394
#     4  11  23  37  64  96 133 166 221 269 329 396
#     4  11  23  43  61 104 138 171 212 284 342 381
#     4   9  19  39  64  90 121 173 224 263 309 398
#     4  11  23  45  68  93 121 183 226 268 318 407
#
# _framework density 25.459667
#
# number of rings (size 3 to 8) (size 9 to 14) (size 15 to 20)
#    0.000    2.000    1.429    2.571    2.000    2.286 
#    2.571    2.857    0.000    0.000    0.000    0.000 
#    0.000    0.000    0.000    0.000    0.000    0.000 
#
# Total GULP energy -78251.779555 kJ/mol
# GULP energy per Si atom -5589.412825 kJ/mol
# Density = 2.540172 g / cm^3
# Si number density = 25.459667 Si / 1000 Ang^3
#
#
#
# Elastic Constant Matrix: (Units=GPa)
#
#
# Indices 1 2 3 4 5 6 
#
# 1 100.6879 38.0618 52.0934 -11.5601 -26.1837 5.8584
# 2 38.0618 93.2464 27.6894 -29.1742 -20.9201 14.6152
# 3 52.0934 27.6894 99.7095 -22.2825 -42.9215 -4.2848
# 4 -11.5601 -29.1742 -22.2825 43.9196 7.5158 1.3707
# 5 -26.1837 -20.9201 -42.9215 7.5158 39.2653 -3.1457
# 6 5.8584 14.6152 -4.2848 1.3707 -3.1457 45.0181
#
#
#
# Elastic Compliance Matrix: (Units=1/GPa)
#
#
# Indices 1 2 3 4 5 6 
#
# 1 0.015265 -0.004759 -0.007255 -0.002821 0.000170 -0.001034
# 2 -0.004759 0.017433 0.002696 0.010704 0.006641 -0.004646
# 3 -0.007255 0.002696 0.024730 0.008495 0.022304 0.003722
# 4 -0.002821 0.010704 0.008495 0.032391 0.006683 -0.002819
# 5 0.000170 0.006641 0.022304 0.006683 0.052494 0.003409
# 6 -0.001034 -0.004646 0.003722 -0.002819 0.003409 0.024534
#
#
# Mechanical properties :
#
#
# Convention : Reuss Voigt Hill
#
# Bulk Modulus (GPa) = 25.77799 58.81477 42.29638
# Shear Modulus (GPa) = 25.19975 37.36053 31.28014
#
# Velocity S-wave (km/s) = 3.14951 3.83487 3.50896
# Velocity P-wave (km/s) = 4.83455 6.53909 5.75033
#
# Compressibility (1/GPa) = 0.03879278
#
# Stress axis : x y z
#
# Youngs Moduli (GPa) = 65.51024 57.36168 40.43615
#
# Poissons Ratio (x) = 0.27297 0.29338
# Poissons Ratio (y) = 0.31175 -0.10903
# Poissons Ratio (z) = 0.47530 -0.15466
#
# Static dielectric constant tensor:
#      x y z
#    x 2.025090 -0.037080 0.019230 
#    y -0.037080 2.081030 0.030210 
#    z 0.019230 0.030210 2.043490 
# 
# From -- ./inp_files/236872.got.cif
#   From: 2010.05.17/outbox.cif.g08.bks.cpg/sg2_119_cif.got.tgz:236872.got - 2010.06.03 11:33:40.
