data_PCOD9047441
_publ_section_title
;
Structure prediction by ZEFSAII (Michael W. Deem and Ramdas Pophale) SiO2 
 PCOD9047441
Probable space group: P -1
;
_chemical_formula_sum "Si O2"
_cell_formula_units_Z 16
_cell_length_a 16.157093
_cell_length_b 12.422588
_cell_length_c 14.931701
_cell_angle_alpha 58.373357
_cell_angle_beta 29.289033
_cell_angle_gamma 37.746093
_cell_volume 748.501236
_symmetry_space_group_name_H-M "P -1"
_symmetry_group_IT_number 2
_symmetry_cell_setting 'triclinic'
loop_
_space_group_symop_operation_xyz
x,y,z
-x,-y,-z
loop_
_atom_site_type_symbol
_atom_site_label
_atom_site_fract_x
_atom_site_fract_y
_atom_site_fract_z
Si Si1 0.866205 0.457375 0.601817
Si Si2 0.155717 0.865467 0.777855
Si Si3 0.489224 0.646661 0.045238
Si Si4 0.328433 0.990744 0.120098
Si Si5 0.870166 0.946663 0.533192
Si Si6 0.405421 0.675271 0.813039
Si Si7 0.036751 0.262432 0.096910
Si Si8 0.430898 0.243310 0.684654
O O1 0.682814 0.579560 0.631170
O O2 0.000000 0.500000 0.500000
O O3 0.097934 0.213541 0.467167
O O4 0.644304 0.542656 0.849572
O O5 0.357490 0.705838 0.739329
O O6 0.312421 0.883429 0.568994
O O7 0.083607 0.786475 0.820514
O O8 0.863704 0.094147 0.991411
O O9 0.573192 0.480077 0.101779
O O10 0.147528 0.848056 0.275270
O O11 0.540210 0.753169 0.993232
O O12 0.127811 0.059783 0.358895
O O13 0.160898 0.141710 0.126725
O O14 0.500000 0.000000 0.000000
O O15 0.575244 0.175162 0.675633
O O16 0.793866 0.512431 0.228448
O O17 0.281122 0.196549 0.843830
#
# Coordination Sequence:
#
# PCOD9047441 Si02
#       8
#     2   2   2   2   2   2   2   2
#     4  11  23  42  69  99 135 175 223 282 343 400
#     4  11  24  46  70  93 144 181 230 279 342 414
#     4  11  24  42  70  98 137 177 229 278 350 407
#     4  12  24  42  68 102 137 169 233 289 338 403
#     4  11  23  41  69  99 133 177 227 282 336 409
#     4  10  24  44  67 101 129 181 232 278 335 417
#     4  11  26  43  68  98 138 185 226 281 347 410
#     4  11  24  43  68  98 138 181 226 280 347 409
#
# _framework density 21.376052000000001
#
# number of rings (size 3 to 8) (size 9 to 14) (size 15 to 20)
#    0.000    1.000    1.250    6.000    7.000    0.000 
#    2.250    1.250    0.000    0.000    0.000    0.000 
#    0.000    0.000    0.000    0.000    0.000    0.000 
#
# Total GULP energy -89467.759058 kJ/mol
# GULP energy per Si atom -5591.734941 kJ/mol
# Density = 2.132740 g / cm^3
# Si number density = 21.376052 Si / 1000 Ang^3
#
#
#
# Elastic Constant Matrix: (Units=GPa)
#
#
# Indices 1 2 3 4 5 6 
#
# 1 142.7557 57.6328 24.1390 -8.8200 -14.0198 -15.3995
# 2 57.6328 96.2047 6.1137 -1.3469 -12.4378 -12.6826
# 3 24.1390 6.1137 68.9458 -14.8233 -5.3474 -12.1178
# 4 -8.8200 -1.3469 -14.8233 30.7398 2.0280 -1.7853
# 5 -14.0198 -12.4378 -5.3474 2.0280 38.5363 2.3249
# 6 -15.3995 -12.6826 -12.1178 -1.7853 2.3249 40.6014
#
#
#
# Elastic Compliance Matrix: (Units=1/GPa)
#
#
# Indices 1 2 3 4 5 6 
#
# 1 0.009975 -0.005447 -0.002343 0.001482 0.001386 0.001369
# 2 -0.005447 0.014258 0.001222 -0.000374 0.002654 0.002584
# 3 -0.002343 0.001222 0.018002 0.008276 0.001294 0.005156
# 4 0.001482 -0.000374 0.008276 0.037242 -0.000670 0.004591
# 5 0.001386 0.002654 0.001294 -0.000670 0.027517 0.000135
# 6 0.001369 0.002584 0.005156 0.004591 0.000135 0.027689
#
#
# Mechanical properties :
#
#
# Convention : Reuss Voigt Hill
#
# Bulk Modulus (GPa) = 34.36294 53.74192 44.05243
# Shear Modulus (GPa) = 31.74239 36.64352 34.19295
#
# Velocity S-wave (km/s) = 3.85769 4.14482 4.00383
# Velocity P-wave (km/s) = 5.99605 6.93555 6.48284
#
# Compressibility (1/GPa) = 0.02910112
#
# Stress axis : x y z
#
# Youngs Moduli (GPa) = 100.24743 70.13463 55.54942
#
# Poissons Ratio (x) = 0.38200 0.13015
# Poissons Ratio (y) = 0.54601 -0.06790
# Poissons Ratio (z) = 0.23487 -0.08573
#
# Static dielectric constant tensor:
#      x y z
#    x 1.780100 -0.006490 -0.012380 
#    y -0.006490 1.779610 -0.031990 
#    z -0.012380 -0.031990 1.822910 
# 
# From -- ./inp_files/532458.got.cif
#   From: 2010.05.17/outbox.cif.g08.bks.cpg/sg2_267_cif.got.tgz:532458.got - 2010.06.03 11:33:40.
