data_PCOD9047240
_publ_section_title
;
Structure prediction by ZEFSAII (Michael W. Deem and Ramdas Pophale) SiO2 
 PCOD9047240
Probable space group: P -1
;
_chemical_formula_sum "Si O2"
_cell_formula_units_Z 14
_cell_length_a 11.446522
_cell_length_b 17.381788
_cell_length_c 7.614220
_cell_angle_alpha 119.512813
_cell_angle_beta 61.447593
_cell_angle_gamma 152.535298
_cell_volume 604.872279
_symmetry_space_group_name_H-M "P -1"
_symmetry_group_IT_number 2
_symmetry_cell_setting 'triclinic'
loop_
_space_group_symop_operation_xyz
x,y,z
-x,-y,-z
loop_
_atom_site_type_symbol
_atom_site_label
_atom_site_fract_x
_atom_site_fract_y
_atom_site_fract_z
Si Si1 0.941318 0.058873 0.006888
Si Si2 0.251549 0.917235 0.537951
Si Si3 0.505338 0.734597 0.724537
Si Si4 0.130848 0.441789 0.226212
Si Si5 0.636017 0.666134 0.281633
Si Si6 0.337470 0.737288 0.524680
Si Si7 0.840172 0.605957 0.224866
O O1 0.167302 0.210336 0.880129
O O2 0.884026 0.106925 0.234143
O O3 0.688448 0.896473 0.893395
O O4 0.000000 0.000000 0.000000
O O5 0.115633 0.684213 0.617867
O O6 0.053611 0.751975 0.375765
O O7 0.500000 0.000000 0.500000
O O8 0.384658 0.069647 0.496871
O O9 0.661733 0.762254 0.506146
O O10 0.332399 0.696147 0.679077
O O11 0.337664 0.572327 0.775551
O O12 0.351386 0.508686 0.230691
O O13 0.261947 0.613232 0.314536
O O14 0.051169 0.361828 0.005033
O O15 0.680918 0.603109 0.287918
#
# Coordination Sequence:
#
# PCOD9047240 Si02
#       7
#     2   2   2   2   2   2   2
#     4  12  25  47  75 103 142 192 239 285 351 427
#     4  12  30  46  70 106 148 184 236 296 356 414
#     4  11  24  45  75 103 139 186 239 284 349 427
#     4  10  24  43  76 100 139 187 234 284 347 424
#     4  11  24  44  73 108 142 177 232 299 354 409
#     4  10  24  48  71  98 142 184 241 280 350 424
#     4  12  26  43  70 106 145 179 233 292 358 409
#
# _framework density 23.145382999999999
#
# number of rings (size 3 to 8) (size 9 to 14) (size 15 to 20)
#    0.000    0.857    0.000    6.429   10.000    2.286 
#    0.000    0.000    0.000    0.000    0.000    0.000 
#    0.000    0.000    0.000    0.000    0.000    0.000 
#
# Total GULP energy -78441.064715 kJ/mol
# GULP energy per Si atom -5602.933194 kJ/mol
# Density = 2.309270 g / cm^3
# Si number density = 23.145383 Si / 1000 Ang^3
#
#
#
# Elastic Constant Matrix: (Units=GPa)
#
#
# Indices 1 2 3 4 5 6 
#
# 1 110.1766 19.0456 40.1441 1.3286 3.7137 6.0346
# 2 19.0456 99.5410 10.7374 2.6213 9.4241 11.1843
# 3 40.1441 10.7374 155.1919 26.2136 12.5032 20.4011
# 4 1.3286 2.6213 26.2136 31.2085 1.2857 4.8410
# 5 3.7137 9.4241 12.5032 1.2857 29.8299 -2.0821
# 6 6.0346 11.1843 20.4011 4.8410 -2.0821 30.5085
#
#
#
# Elastic Compliance Matrix: (Units=1/GPa)
#
#
# Indices 1 2 3 4 5 6 
#
# 1 0.010429 -0.001805 -0.003018 0.002176 0.000464 0.000303
# 2 -0.001805 0.011192 0.000680 -0.000597 -0.003876 -0.004370
# 3 -0.003018 0.000680 0.009294 -0.006796 -0.003794 -0.005048
# 4 0.002176 -0.000597 -0.006796 0.037917 0.001019 -0.001614
# 5 0.000464 -0.003876 -0.003794 0.001019 0.036670 0.006207
# 6 0.000303 -0.004370 -0.005048 -0.001614 0.006207 0.038375
#
#
# Mechanical properties :
#
#
# Convention : Reuss Voigt Hill
#
# Bulk Modulus (GPa) = 44.18896 56.08486 50.13691
# Shear Modulus (GPa) = 31.30733 37.97488 34.64111
#
# Velocity S-wave (km/s) = 3.68181 4.05496 3.87288
# Velocity P-wave (km/s) = 6.09981 6.79763 6.45815
#
# Compressibility (1/GPa) = 0.02263009
#
# Stress axis : x y z
#
# Youngs Moduli (GPa) = 95.88212 89.35078 107.59079
#
# Poissons Ratio (x) = 0.16131 0.32469
# Poissons Ratio (y) = 0.17310 -0.07319
# Poissons Ratio (z) = 0.28935 -0.06078
#
# Static dielectric constant tensor:
#      x y z
#    x 1.914060 -0.026400 -0.032990 
#    y -0.026400 1.862410 -0.013590 
#    z -0.032990 -0.013590 1.841090 
# 
# From -- ./inp_files/273708.got.cif
#   From: 2010.05.17/outbox.cif.g08.bks.cpg/sg2_137_cif.got.tgz:273708.got - 2010.06.03 11:33:40.
