data_PCOD9047757
_publ_section_title
;
Structure prediction by ZEFSAII (Michael W. Deem and Ramdas Pophale) SiO2 
 PCOD9047757
Probable space group: P -1
;
_chemical_formula_sum "Si O2"
_cell_formula_units_Z 16
_cell_length_a 9.167779
_cell_length_b 19.626119
_cell_length_c 5.339224
_cell_angle_alpha 61.128504
_cell_angle_beta 127.856284
_cell_angle_gamma 120.741196
_cell_volume 631.344208
_symmetry_space_group_name_H-M "P -1"
_symmetry_group_IT_number 2
_symmetry_cell_setting 'triclinic'
loop_
_space_group_symop_operation_xyz
x,y,z
-x,-y,-z
loop_
_atom_site_type_symbol
_atom_site_label
_atom_site_fract_x
_atom_site_fract_y
_atom_site_fract_z
Si Si1 0.289431 0.560213 0.614068
Si Si2 0.605148 0.938759 0.837840
Si Si3 0.901881 0.089744 0.808948
Si Si4 0.959797 0.427225 0.283729
Si Si5 0.084241 0.688246 0.958575
Si Si6 0.656435 0.684549 0.632118
Si Si7 0.711098 0.129623 0.036528
Si Si8 0.336454 0.213615 0.045572
O O1 0.151578 0.468063 0.582527
O O2 0.503604 0.593851 0.671707
O O3 0.253104 0.575637 0.837379
O O4 0.177987 0.622368 0.281782
O O5 0.515164 0.915469 0.060107
O O6 0.558698 0.854150 0.788380
O O7 0.500000 0.000000 0.500000
O O8 0.831536 0.992030 0.973684
O O9 0.826796 0.098437 0.433603
O O10 0.789444 0.118087 0.869405
O O11 0.114497 0.154422 0.932438
O O12 0.953820 0.340644 0.318611
O O13 0.000000 0.500000 0.000000
O O14 0.234835 0.775297 0.012845
O O15 0.878716 0.685447 0.862132
O O16 0.619453 0.736955 0.736542
O O17 0.631413 0.726200 0.267512
#
# Coordination Sequence:
#
# PCOD9047757 Si02
#       8
#     2   2   2   2   2   2   2   2
#     4  10  24  44  70 102 141 184 226 286 338 412
#     4  10  25  42  69  97 132 184 230 283 353 410
#     4  11  22  44  64  92 136 173 221 286 339 404
#     4   9  22  44  69 104 140 179 230 277 344 407
#     4  11  23  43  71 100 138 188 225 289 342 411
#     4  12  28  44  73 105 141 181 236 283 347 409
#     4  11  23  40  65 100 129 172 234 275 338 411
#     4  12  25  47  63 104 137 177 233 291 340 411
#
# _framework density 25.342753999999999
#
# number of rings (size 3 to 8) (size 9 to 14) (size 15 to 20)
#    0.000    1.250    2.500    1.500    8.750    5.500 
#    0.000   10.000    0.000    0.000    0.000    0.000 
#    0.000    0.000    0.000    0.000    0.000    0.000 
#
# Total GULP energy -89372.799352 kJ/mol
# GULP energy per Si atom -5585.799959 kJ/mol
# Density = 2.528507 g / cm^3
# Si number density = 25.342754 Si / 1000 Ang^3
#
#
#
# Elastic Constant Matrix: (Units=GPa)
#
#
# Indices 1 2 3 4 5 6 
#
# 1 123.8621 9.3597 24.5069 12.5451 -20.4608 27.1723
# 2 9.3597 97.3740 3.1703 19.1240 -17.9345 10.0172
# 3 24.5069 3.1703 69.7794 -1.0939 -11.2291 1.8695
# 4 12.5451 19.1240 -1.0939 31.0631 -1.2566 -5.5683
# 5 -20.4608 -17.9345 -11.2291 -1.2566 35.7101 6.9336
# 6 27.1723 10.0172 1.8695 -5.5683 6.9336 62.5669
#
#
#
# Elastic Compliance Matrix: (Units=1/GPa)
#
#
# Indices 1 2 3 4 5 6 
#
# 1 0.012272 0.002784 -0.002970 -0.007740 0.008648 -0.007334
# 2 0.002784 0.014401 -0.000124 -0.010598 0.009485 -0.005505
# 3 -0.002970 -0.000124 0.015906 0.002084 0.003181 0.000667
# 4 -0.007740 -0.010598 0.002084 0.043307 -0.009500 0.009903
# 5 0.008648 0.009485 0.003181 -0.009500 0.040465 -0.010699
# 6 -0.007334 -0.005505 0.000667 0.009903 -0.010699 0.022096
#
#
# Mechanical properties :
#
#
# Convention : Reuss Voigt Hill
#
# Bulk Modulus (GPa) = 23.83271 40.56549 32.19910
# Shear Modulus (GPa) = 30.66482 42.79993 36.73237
#
# Velocity S-wave (km/s) = 3.48228 4.11401 3.81126
# Velocity P-wave (km/s) = 5.05895 6.21356 5.66574
#
# Compressibility (1/GPa) = 0.04195914
#
# Stress axis : x y z
#
# Youngs Moduli (GPa) = 81.48704 69.44092 62.86827
#
# Poissons Ratio (x) = -0.19334 0.18670
# Poissons Ratio (y) = -0.22688 0.00783
# Poissons Ratio (z) = 0.24199 0.00864
#
# Static dielectric constant tensor:
#      x y z
#    x 2.195430 -0.043840 -0.142870 
#    y -0.043840 2.008700 0.078850 
#    z -0.142870 0.078850 2.279180 
# 
# From -- ./inp_files/52783.got.cif
#   From: 2010.05.17/outbox.cif.g08.bks.cpg/sg2_27_cif.got.tgz:52783.got - 2010.06.03 11:33:40.
