data_PCOD9047499
_publ_section_title
;
Structure prediction by ZEFSAII (Michael W. Deem and Ramdas Pophale) SiO2 
 PCOD9047499
Probable space group: P -1
;
_chemical_formula_sum "Si O2"
_cell_formula_units_Z 16
_cell_length_a 20.073644
_cell_length_b 6.952834
_cell_length_c 7.080037
_cell_angle_alpha 119.515234
_cell_angle_beta 68.796778
_cell_angle_gamma 134.319828
_cell_volume 614.983897
_symmetry_space_group_name_H-M "P -1"
_symmetry_group_IT_number 2
_symmetry_cell_setting 'triclinic'
loop_
_space_group_symop_operation_xyz
x,y,z
-x,-y,-z
loop_
_atom_site_type_symbol
_atom_site_label
_atom_site_fract_x
_atom_site_fract_y
_atom_site_fract_z
Si Si1 0.207712 0.622724 0.663114
Si Si2 0.178189 0.896062 0.309250
Si Si3 0.609432 0.201126 0.536191
Si Si4 0.621663 0.724703 0.848726
Si Si5 0.146251 0.225138 0.197595
Si Si6 0.750105 0.804954 0.228206
Si Si7 0.572911 0.664843 0.299340
Si Si8 0.958415 0.643107 0.020322
O O1 0.299879 0.656896 0.622962
O O2 0.172710 0.485124 0.423999
O O3 0.123554 0.426023 0.797346
O O4 0.229464 0.926940 0.780627
O O5 0.279024 0.998587 0.194353
O O6 0.157700 0.049957 0.254854
O O7 0.193076 0.039196 0.564770
O O8 0.095293 0.554520 0.205031
O O9 0.629397 0.473144 0.745206
O O10 0.500000 0.000000 0.500000
O O11 0.607583 0.954307 0.509997
O O12 0.537103 0.590789 0.722700
O O13 0.592319 0.753454 0.097952
O O14 0.784604 0.677473 0.000411
O O15 0.043698 0.982046 0.101598
O O16 0.638321 0.595450 0.265792
O O17 0.000000 0.500000 0.000000
#
# Coordination Sequence:
#
# PCOD9047499 Si02
#       8
#     2   2   2   2   2   2   2   2
#     4  11  19  39  66  82 117 163 191 242 303 346
#     4  11  21  38  61  85 121 158 192 247 297 346
#     4   9  17  29  54  87 111 144 194 233 279 349
#     4  10  17  34  57  83 113 155 194 235 289 351
#     4  11  22  43  60  84 118 155 202 244 293 351
#     4  11  22  38  58  90 123 153 192 249 293 348
#     4   9  18  32  57  83 116 152 192 238 291 342
#     4  10  21  40  63  85 116 156 200 248 296 346
#
# _framework density 26.016942
#
# number of rings (size 3 to 8) (size 9 to 14) (size 15 to 20)
#    0.000    1.750    5.000    1.125    0.000    1.000 
#    2.250    0.625    0.000    0.000    0.000   15.750 
#    0.000    0.000    0.000    0.000    0.000    0.000 
#
# Total GULP energy -89418.139687 kJ/mol
# GULP energy per Si atom -5588.633730 kJ/mol
# Density = 2.595773 g / cm^3
# Si number density = 26.016942 Si / 1000 Ang^3
#
#
#
# Elastic Constant Matrix: (Units=GPa)
#
#
# Indices 1 2 3 4 5 6 
#
# 1 110.8232 34.6545 33.1257 -2.7450 13.4843 27.3578
# 2 34.6545 76.1848 13.6307 25.5024 0.1466 24.8132
# 3 33.1257 13.6307 116.1147 13.0037 2.6170 1.7942
# 4 -2.7450 25.5024 13.0037 49.0247 12.3684 3.2974
# 5 13.4843 0.1466 2.6170 12.3684 46.4185 8.2314
# 6 27.3578 24.8132 1.7942 3.2974 8.2314 42.9616
#
#
#
# Elastic Compliance Matrix: (Units=1/GPa)
#
#
# Indices 1 2 3 4 5 6 
#
# 1 0.014082 -0.006413 -0.003830 0.006667 -0.004798 -0.004696
# 2 -0.006413 0.023938 0.000594 -0.014135 0.007308 -0.010082
# 3 -0.003830 0.000594 0.009984 -0.003590 0.001199 0.001725
# 4 0.006667 -0.014135 -0.003590 0.031539 -0.010751 0.003707
# 5 -0.004798 0.007308 0.001199 -0.010751 0.026687 -0.005503
# 6 -0.004696 -0.010082 0.001725 0.003707 -0.005503 0.032788
#
#
# Mechanical properties :
#
#
# Convention : Reuss Voigt Hill
#
# Bulk Modulus (GPa) = 34.83929 51.77159 43.30544
# Shear Modulus (GPa) = 29.78218 42.46174 36.12196
#
# Velocity S-wave (km/s) = 3.38705 4.04428 3.73017
# Velocity P-wave (km/s) = 5.35875 6.46148 5.93578
#
# Compressibility (1/GPa) = 0.02870323
#
# Stress axis : x y z
#
# Youngs Moduli (GPa) = 71.01308 41.77423 100.16418
#
# Poissons Ratio (x) = 0.26791 0.38367
# Poissons Ratio (y) = 0.45543 -0.05945
# Poissons Ratio (z) = 0.27201 -0.02480
#
# Static dielectric constant tensor:
#      x y z
#    x 2.102460 0.010650 -0.001620 
#    y 0.010650 2.106630 -0.018670 
#    z -0.001620 -0.018670 2.025170 
# 
# From -- ./inp_files/329569.got.cif
#   From: 2010.05.17/outbox.cif.g08.bks.cpg/sg2_165_cif.got.tgz:329569.got - 2010.06.03 11:33:40.
