data_PCOD9047241
_publ_section_title
;
Structure prediction by ZEFSAII (Michael W. Deem and Ramdas Pophale) SiO2 
 PCOD9047241
Probable space group: P -1
;
_chemical_formula_sum "Si O2"
_cell_formula_units_Z 14
_cell_length_a 5.371101
_cell_length_b 9.218371
_cell_length_c 19.968334
_cell_angle_alpha 50.036193
_cell_angle_beta 57.524765
_cell_angle_gamma 59.738943
_cell_volume 619.635458
_symmetry_space_group_name_H-M "P -1"
_symmetry_group_IT_number 2
_symmetry_cell_setting 'triclinic'
loop_
_space_group_symop_operation_xyz
x,y,z
-x,-y,-z
loop_
_atom_site_type_symbol
_atom_site_label
_atom_site_fract_x
_atom_site_fract_y
_atom_site_fract_z
Si Si1 0.710662 0.462640 0.184338
Si Si2 0.223982 0.681917 0.088072
Si Si3 0.645151 0.076503 0.519946
Si Si4 0.706620 0.036174 0.270633
Si Si5 0.717220 0.019876 0.120819
Si Si6 0.677444 0.264562 0.740236
Si Si7 0.356397 0.504625 0.447050
O O1 0.536028 0.567560 0.112124
O O2 0.792486 0.230571 0.229634
O O3 0.447910 0.542999 0.254526
O O4 0.998822 0.543210 0.142687
O O5 0.038024 0.855870 0.112899
O O6 0.279450 0.795706 0.979851
O O7 0.554497 0.304112 0.449846
O O8 0.500000 0.000000 0.500000
O O9 0.511900 0.019083 0.626027
O O10 0.000000 0.000000 0.500000
O O11 0.619278 0.081078 0.192455
O O12 0.971802 0.839473 0.282719
O O13 0.482790 0.900795 0.162608
O O14 0.595703 0.322639 0.657902
O O15 0.500000 0.500000 0.500000
O O16 0.000000 0.500000 0.500000
#
# Coordination Sequence:
#
# PCOD9047241 Si02
#       7
#     2   2   2   2   2   2   2
#     4  11  26  44  71 103 147 185 234 293 350 417
#     4  10  24  47  69 107 145 186 232 291 356 419
#     4  12  28  48  71 105 145 185 236 303 358 423
#     4  12  26  45  75 104 141 189 242 290 358 426
#     4  10  24  43  76 100 145 187 236 290 354 421
#     4  11  25  46  71 104 140 188 241 293 354 426
#     4  12  25  46  73 101 139 185 237 295 361 429
#
# _framework density 22.593928999999999
#
# number of rings (size 3 to 8) (size 9 to 14) (size 15 to 20)
#    0.000    0.857    2.857    2.571    6.000    5.143 
#    0.000    0.000    0.000    0.000    0.000    0.000 
#    0.000    0.000    0.000    0.000    0.000    0.000 
#
# Total GULP energy -78231.541665 kJ/mol
# GULP energy per Si atom -5587.967262 kJ/mol
# Density = 2.254250 g / cm^3
# Si number density = 22.593929 Si / 1000 Ang^3
#
#
#
# Elastic Constant Matrix: (Units=GPa)
#
#
# Indices 1 2 3 4 5 6 
#
# 1 110.0037 32.4298 24.7722 7.0754 13.7566 -4.4069
# 2 32.4298 71.6747 25.9487 8.6850 3.8373 12.0105
# 3 24.7722 25.9487 124.2870 11.1184 4.3834 -3.4534
# 4 7.0754 8.6850 11.1184 35.5505 1.2435 2.9609
# 5 13.7566 3.8373 4.3834 1.2435 30.2214 1.5494
# 6 -4.4069 12.0105 -3.4534 2.9609 1.5494 34.1391
#
#
#
# Elastic Compliance Matrix: (Units=1/GPa)
#
#
# Indices 1 2 3 4 5 6 
#
# 1 0.011588 -0.005150 -0.000893 -0.000899 -0.004634 0.003506
# 2 -0.005150 0.018801 -0.002952 -0.002055 0.000851 -0.007438
# 3 -0.000893 -0.002952 0.009105 -0.002100 -0.000558 0.002052
# 4 -0.000899 -0.002055 -0.002100 0.029652 -0.000134 -0.002171
# 5 -0.004634 0.000851 -0.000558 -0.000134 0.035307 -0.002545
# 6 0.003506 -0.007438 0.002052 -0.002171 -0.002545 0.032873
#
#
# Mechanical properties :
#
#
# Convention : Reuss Voigt Hill
#
# Bulk Modulus (GPa) = 46.50415 52.47409 49.48912
# Shear Modulus (GPa) = 30.77256 34.83651 32.80454
#
# Velocity S-wave (km/s) = 3.69451 3.93090 3.81454
# Velocity P-wave (km/s) = 6.23109 6.62404 6.43057
#
# Compressibility (1/GPa) = 0.02150346
#
# Stress axis : x y z
#
# Youngs Moduli (GPa) = 86.29803 53.19003 109.83364
#
# Poissons Ratio (x) = 0.27393 0.09810
# Poissons Ratio (y) = 0.44444 0.32418
# Poissons Ratio (z) = 0.07708 0.15699
#
# Static dielectric constant tensor:
#      x y z
#    x 1.155050 -0.485830 -0.380880 
#    y -0.485830 1.489930 -0.229340 
#    z -0.380880 -0.229340 1.581850 
# 
# From -- ./inp_files/37135.got.cif
#   From: 2010.05.17/outbox.cif.g08.bks.cpg/sg2_19_cif.got.tgz:37135.got - 2010.06.03 11:33:40.
