data_PCOD9047076
_publ_section_title
;
Structure prediction by ZEFSAII (Michael W. Deem and Ramdas Pophale) SiO2 
 PCOD9047076
Probable space group: P -1
;
_chemical_formula_sum "Si O2"
_cell_formula_units_Z 12
_cell_length_a 5.746269
_cell_length_b 16.309199
_cell_length_c 15.379921
_cell_angle_alpha 23.960269
_cell_angle_beta 125.530722
_cell_angle_gamma 117.449596
_cell_volume 465.516014
_symmetry_space_group_name_H-M "P -1"
_symmetry_group_IT_number 2
_symmetry_cell_setting 'triclinic'
loop_
_space_group_symop_operation_xyz
x,y,z
-x,-y,-z
loop_
_atom_site_type_symbol
_atom_site_label
_atom_site_fract_x
_atom_site_fract_y
_atom_site_fract_z
Si Si1 0.408357 0.371183 0.382987
Si Si2 0.999016 0.757907 0.999119
Si Si3 0.567266 0.982737 0.134650
Si Si4 0.606075 0.230292 0.225670
Si Si5 0.131156 0.383670 0.725765
Si Si6 0.789547 0.758276 0.714256
O O1 0.695148 0.460102 0.342932
O O2 0.334590 0.248559 0.402930
O O3 0.157612 0.576035 0.146809
O O4 0.451071 0.228265 0.616577
O O5 0.088188 0.671877 0.198039
O O6 0.655615 0.784929 0.882808
O O7 0.119681 0.965782 0.821077
O O8 0.338814 0.170261 0.948087
O O9 0.500000 0.000000 0.000000
O O10 0.430669 0.314343 0.194188
O O11 0.860092 0.325528 0.143004
O O12 0.766854 0.995004 0.511264
O O13 0.000000 0.500000 0.500000
#
# Coordination Sequence:
#
# PCOD9047076 Si02
#       6
#     2   2   2   2   2   2
#     4  11  26  43  71 103 139 186 237 290 361 424
#     4  11  26  43  71 102 141 182 237 296 351 432
#     4  11  25  45  70 101 139 184 235 295 360 424
#     4  10  24  43  71 105 145 186 242 293 355 427
#     4  11  25  45  68 103 140 180 239 296 353 430
#     4  10  24  43  71 106 142 191 237 295 356 428
#
# _framework density 25.777843000000001
#
# number of rings (size 3 to 8) (size 9 to 14) (size 15 to 20)
#    0.000    1.333    0.000    3.000   14.000    9.333 
#    0.000    0.000    0.000    0.000    0.000    0.000 
#    0.000    0.000    0.000    0.000    0.000    0.000 
#
# Total GULP energy -67176.466455 kJ/mol
# GULP energy per Si atom -5598.038871 kJ/mol
# Density = 2.571917 g / cm^3
# Si number density = 25.777843 Si / 1000 Ang^3
#
#
#
# Elastic Constant Matrix: (Units=GPa)
#
#
# Indices 1 2 3 4 5 6 
#
# 1 151.0381 44.6576 36.8867 -8.9502 -15.1385 -10.4867
# 2 44.6576 112.5231 17.0708 2.4178 5.9053 -19.6048
# 3 36.8867 17.0708 66.6065 -6.9196 -4.6543 -0.6780
# 4 -8.9502 2.4178 -6.9196 38.8044 -3.4170 -3.8518
# 5 -15.1385 5.9053 -4.6543 -3.4170 49.5992 2.5299
# 6 -10.4867 -19.6048 -0.6780 -3.8518 2.5299 50.9228
#
#
#
# Elastic Compliance Matrix: (Units=1/GPa)
#
#
# Indices 1 2 3 4 5 6 
#
# 1 0.008866 -0.003034 -0.003734 0.001876 0.002815 0.000610
# 2 -0.003034 0.011126 -0.001481 -0.001530 -0.002682 0.003657
# 3 -0.003734 -0.001481 0.017763 0.002383 0.000917 -0.000968
# 4 0.001876 -0.001530 0.002383 0.027140 0.002759 0.001745
# 5 0.002815 -0.002682 0.000917 0.002759 0.021683 -0.001309
# 6 0.000610 0.003657 -0.000968 0.001745 -0.001309 0.021355
#
#
# Mechanical properties :
#
#
# Convention : Reuss Voigt Hill
#
# Bulk Modulus (GPa) = 47.04264 58.59976 52.82120
# Shear Modulus (GPa) = 38.01832 43.30212 40.66022
#
# Velocity S-wave (km/s) = 3.84454 4.10301 3.97587
# Velocity P-wave (km/s) = 6.16410 6.72519 6.45075
#
# Compressibility (1/GPa) = 0.02125731
#
# Stress axis : x y z
#
# Youngs Moduli (GPa) = 112.79665 89.87649 56.29708
#
# Poissons Ratio (x) = 0.27266 0.21023
# Poissons Ratio (y) = 0.34219 0.08336
# Poissons Ratio (z) = 0.42123 0.13308
#
# Static dielectric constant tensor:
#      x y z
#    x 2.025840 0.000740 0.010050 
#    y 0.000740 2.018980 0.029340 
#    z 0.010050 0.029340 2.030900 
# 
# From -- ./inp_files/334428.got.cif
#   From: 2010.05.17/outbox.cif.g08.bks.cpg/sg2_168_cif.got.tgz:334428.got - 2010.06.03 11:33:40.
