data_PCOD9047094
_publ_section_title
;
Structure prediction by ZEFSAII (Michael W. Deem and Ramdas Pophale) SiO2 
 PCOD9047094
Probable space group: P -1
;
_chemical_formula_sum "Si O2"
_cell_formula_units_Z 16
_cell_length_a 14.955925
_cell_length_b 7.187036
_cell_length_c 11.574694
_cell_angle_alpha 76.051688
_cell_angle_beta 33.846374
_cell_angle_gamma 88.055111
_cell_volume 639.917378
_symmetry_space_group_name_H-M "P -1"
_symmetry_group_IT_number 2
_symmetry_cell_setting 'triclinic'
loop_
_space_group_symop_operation_xyz
x,y,z
-x,-y,-z
loop_
_atom_site_type_symbol
_atom_site_label
_atom_site_fract_x
_atom_site_fract_y
_atom_site_fract_z
Si Si1 0.321184 0.504866 0.547285
Si Si2 0.488062 0.709480 0.798742
Si Si3 0.882816 0.284198 0.428572
Si Si4 0.121289 0.078406 0.247037
Si Si5 0.028968 0.785396 0.002520
Si Si6 0.892369 0.332908 0.804813
Si Si7 0.407281 0.886582 0.502920
Si Si8 0.627179 0.878967 0.850550
O O1 0.414639 0.381359 0.387492
O O2 0.237644 0.627922 0.530829
O O3 0.444032 0.678057 0.468446
O O4 0.153687 0.366657 0.813559
O O5 0.558322 0.710935 0.852630
O O6 0.531145 0.946555 0.685844
O O7 0.286879 0.629761 0.021068
O O8 0.053171 0.228741 0.219203
O O9 0.958454 0.461240 0.415406
O O10 0.772105 0.061519 0.611606
O O11 0.300967 0.184766 0.099109
O O12 0.117500 0.872994 0.218658
O O13 0.000000 0.000000 0.500000
O O14 0.068954 0.711440 0.097008
O O15 0.204088 0.820393 0.742471
O O16 0.000000 0.000000 0.000000
O O17 0.500000 0.000000 0.500000
O O18 0.500000 0.000000 0.000000
#
# Coordination Sequence:
#
# PCOD9047094 Si02
#       8
#     2   2   2   2   2   2   2   2
#     4  11  26  45  74 102 144 184 235 287 351 420
#     4  12  25  47  67 104 146 180 234 294 351 410
#     4  10  25  43  69  99 136 182 229 281 349 406
#     4  10  24  43  71  98 137 182 233 285 349 407
#     4  11  24  44  72 104 138 189 233 288 347 418
#     4  11  25  46  68 103 144 181 233 293 344 413
#     4  12  25  48  70 102 143 184 232 290 354 422
#     4  11  23  46  72 100 140 186 230 288 350 414
#
# _framework density 25.003226000000002
#
# number of rings (size 3 to 8) (size 9 to 14) (size 15 to 20)
#    0.000    1.000    5.000    0.375    8.750    4.500 
#    0.000    1.250    0.000    0.000    0.000    0.000 
#    0.000    0.000    0.000    0.000    0.000    0.000 
#
# Total GULP energy -89365.220007 kJ/mol
# GULP energy per Si atom -5585.326250 kJ/mol
# Density = 2.494632 g / cm^3
# Si number density = 25.003226 Si / 1000 Ang^3
#
#
#
# Elastic Constant Matrix: (Units=GPa)
#
#
# Indices 1 2 3 4 5 6 
#
# 1 63.6068 25.4409 9.5086 -7.9913 -20.8111 17.1271
# 2 25.4409 136.1728 21.1912 -9.1472 -16.8425 18.0718
# 3 9.5086 21.1912 48.7573 2.4934 -15.3634 20.8970
# 4 -7.9913 -9.1472 2.4934 45.0312 -2.4143 -1.7079
# 5 -20.8111 -16.8425 -15.3634 -2.4143 26.4720 -4.8118
# 6 17.1271 18.0718 20.8970 -1.7079 -4.8118 54.6089
#
#
#
# Elastic Compliance Matrix: (Units=1/GPa)
#
#
# Indices 1 2 3 4 5 6 
#
# 1 0.024911 -0.001632 0.005275 0.004629 0.020698 -0.007323
# 2 -0.001632 0.008608 -0.002055 0.001683 0.002929 -0.001240
# 3 0.005275 -0.002055 0.031163 -0.000625 0.018822 -0.011261
# 4 0.004629 0.001683 -0.000625 0.023732 0.006428 -0.000461
# 5 0.020698 0.002929 0.018822 0.006428 0.065847 -0.008661
# 6 -0.007323 -0.001240 -0.011261 -0.000461 -0.008661 0.024551
#
#
# Mechanical properties :
#
#
# Convention : Reuss Voigt Hill
#
# Bulk Modulus (GPa) = 14.73644 40.09093 27.41368
# Shear Modulus (GPa) = 25.21997 38.04881 31.63439
#
# Velocity S-wave (km/s) = 3.17940 3.90520 3.56084
# Velocity P-wave (km/s) = 4.40281 6.03351 5.28148
#
# Compressibility (1/GPa) = 0.06785899
#
# Stress axis : x y z
#
# Youngs Moduli (GPa) = 40.14225 116.16843 32.08935
#
# Poissons Ratio (x) = 0.18961 -0.16927
# Poissons Ratio (y) = 0.06552 0.06593
# Poissons Ratio (z) = -0.21175 0.23869
#
# Static dielectric constant tensor:
#      x y z
#    x 2.114030 0.002070 -0.025280 
#    y 0.002070 2.025490 0.024240 
#    z -0.025280 0.024240 2.061900 
# 
# From -- ./inp_files/536313.got.cif
#   From: 2010.05.17/outbox.cif.g08.bks.cpg/sg2_269_cif.got.tgz:536313.got - 2010.06.03 11:33:40.
