data_PCOD9047546
_publ_section_title
;
Structure prediction by ZEFSAII (Michael W. Deem and Ramdas Pophale) SiO2 
 PCOD9047546
Probable space group: P -1
;
_chemical_formula_sum "Si O2"
_cell_formula_units_Z 12
_cell_length_a 8.866993
_cell_length_b 7.647039
_cell_length_c 9.789006
_cell_angle_alpha 68.368091
_cell_angle_beta 87.055505
_cell_angle_gamma 53.447691
_cell_volume 482.916966
_symmetry_space_group_name_H-M "P -1"
_symmetry_group_IT_number 2
_symmetry_cell_setting 'triclinic'
loop_
_space_group_symop_operation_xyz
x,y,z
-x,-y,-z
loop_
_atom_site_type_symbol
_atom_site_label
_atom_site_fract_x
_atom_site_fract_y
_atom_site_fract_z
Si Si1 0.574708 0.650677 0.908821
Si Si2 0.267598 0.156512 0.885486
Si Si3 0.553008 0.623077 0.615306
Si Si4 0.266803 0.506472 0.618367
Si Si5 0.021625 0.821806 0.319894
Si Si6 0.014207 0.818331 0.939149
O O1 0.523439 0.738202 0.728982
O O2 0.463760 0.891240 0.931460
O O3 0.500000 0.500000 0.000000
O O4 0.802235 0.451734 0.965961
O O5 0.269693 0.373036 0.786559
O O6 0.121143 0.190473 0.762194
O O7 0.171552 0.162629 0.028585
O O8 0.378409 0.614992 0.604048
O O9 0.603572 0.691392 0.452808
O O10 0.757740 0.354020 0.697242
O O11 0.059496 0.708565 0.500810
O O12 0.964824 0.083232 0.230847
O O13 0.000000 0.000000 0.000000
#
# Coordination Sequence:
#
# PCOD9047546 Si02
#       6
#     2   2   2   2   2   2
#     4  12  20  34  61  89 108 149 196 229 278 331
#     4  11  20  33  63  89 107 145 199 235 268 331
#     4   9  19  37  59  80 118 150 183 229 291 340
#     4   9  20  37  59  84 114 154 180 231 296 327
#     4   9  16  34  59  77 108 152 184 222 273 338
#     4  10  17  34  57  84 110 144 191 233 268 330
#
# _framework density 24.848994999999999
#
# number of rings (size 3 to 8) (size 9 to 14) (size 15 to 20)
#    1.000    1.000    6.667    0.500    0.000    0.667 
#    0.000    4.167    3.667    2.000    0.000    0.000 
#    0.000    0.000    0.000    0.000    0.000    0.000 
#
# Total GULP energy -66999.184725 kJ/mol
# GULP energy per Si atom -5583.265394 kJ/mol
# Density = 2.479244 g / cm^3
# Si number density = 24.848995 Si / 1000 Ang^3
#
#
#
# Elastic Constant Matrix: (Units=GPa)
#
#
# Indices 1 2 3 4 5 6 
#
# 1 51.7216 17.4400 5.6300 -7.3195 -3.6311 -6.8667
# 2 17.4400 91.8447 8.6649 0.0598 4.7974 2.6130
# 3 5.6300 8.6649 103.0197 -3.6771 -4.3338 13.8079
# 4 -7.3195 0.0598 -3.6771 36.3488 -2.1046 -0.1786
# 5 -3.6311 4.7974 -4.3338 -2.1046 39.4373 -3.1885
# 6 -6.8667 2.6130 13.8079 -0.1786 -3.1885 30.3187
#
#
#
# Elastic Compliance Matrix: (Units=1/GPa)
#
#
# Indices 1 2 3 4 5 6 
#
# 1 0.022792 -0.004553 -0.001440 0.004673 0.003276 0.006582
# 2 -0.004553 0.011982 -0.000621 -0.001135 -0.002169 -0.002016
# 3 -0.001440 -0.000621 0.010568 0.000798 0.000742 -0.005003
# 4 0.004673 -0.001135 0.000798 0.028673 0.002283 0.001202
# 5 0.003276 -0.002169 0.000742 0.002283 0.026399 0.003380
# 6 0.006582 -0.002016 -0.005003 0.001202 0.003380 0.037288
#
#
# Mechanical properties :
#
#
# Convention : Reuss Voigt Hill
#
# Bulk Modulus (GPa) = 31.13905 34.45064 32.79485
# Shear Modulus (GPa) = 30.93383 35.54438 33.23911
#
# Velocity S-wave (km/s) = 3.53210 3.78619 3.66135
# Velocity P-wave (km/s) = 5.40304 5.74523 5.57676
#
# Compressibility (1/GPa) = 0.03211402
#
# Stress axis : x y z
#
# Youngs Moduli (GPa) = 43.87575 83.45518 94.62482
#
# Poissons Ratio (x) = 0.38000 0.13628
# Poissons Ratio (y) = 0.19978 0.05872
# Poissons Ratio (z) = 0.06319 0.05178
#
# Static dielectric constant tensor:
#      x y z
#    x 2.000960 0.019200 0.048680 
#    y 0.019200 1.961480 0.064680 
#    z 0.048680 0.064680 2.021230 
# 
# From -- ./inp_files/308968.got.cif
#   From: 2010.05.17/outbox.cif.g08.bks.cpg/sg2_155_cif.got.tgz:308968.got - 2010.06.03 11:33:40.
