data_PCOD9047126
_publ_section_title
;
Structure prediction by ZEFSAII (Michael W. Deem and Ramdas Pophale) SiO2 
 PCOD9047126
Probable space group: P -1
;
_chemical_formula_sum "Si O2"
_cell_formula_units_Z 14
_cell_length_a 5.500052
_cell_length_b 9.628420
_cell_length_c 23.809776
_cell_angle_alpha 141.037419
_cell_angle_beta 60.992396
_cell_angle_gamma 128.106575
_cell_volume 623.843122
_symmetry_space_group_name_H-M "P -1"
_symmetry_group_IT_number 2
_symmetry_cell_setting 'triclinic'
loop_
_space_group_symop_operation_xyz
x,y,z
-x,-y,-z
loop_
_atom_site_type_symbol
_atom_site_label
_atom_site_fract_x
_atom_site_fract_y
_atom_site_fract_z
Si Si1 0.233634 0.461527 0.814610
Si Si2 0.757694 0.402468 0.717395
Si Si3 0.243965 0.603174 0.056320
Si Si4 0.042574 0.977449 0.381164
Si Si5 0.157970 0.681381 0.437037
Si Si6 0.582491 0.188388 0.198350
Si Si7 0.561921 0.589488 0.607824
O O1 0.513450 0.413015 0.792800
O O2 0.403908 0.698118 0.829625
O O3 0.979081 0.465215 0.885650
O O4 0.085783 0.225694 0.716752
O O5 0.679718 0.382958 0.654126
O O6 0.062346 0.651892 0.772461
O O7 0.796664 0.153070 0.640759
O O8 0.437221 0.896884 0.121067
O O9 0.500000 0.500000 0.000000
O O10 0.000000 0.500000 0.000000
O O11 0.261576 0.226080 0.403635
O O12 0.815943 0.050560 0.466437
O O13 0.274084 0.582576 0.446924
O O14 0.795838 0.545868 0.414142
O O15 0.411751 0.255338 0.289525
#
# Coordination Sequence:
#
# PCOD9047126 Si02
#       7
#     2   2   2   2   2   2   2
#     4  11  25  47  76 104 144 198 232 297 373 426
#     4  10  24  43  72 103 150 201 238 295 358 424
#     4  12  31  51  80 111 138 180 238 305 372 448
#     4  11  24  39  68 104 147 196 250 294 343 424
#     4  11  24  41  64 106 147 198 249 293 345 406
#     4  10  24  49  72 105 147 187 239 296 365 441
#     4  11  23  42  67 101 145 199 242 299 351 415
#
# _framework density 22.441538000000001
#
# number of rings (size 3 to 8) (size 9 to 14) (size 15 to 20)
#    0.000    1.143    2.857    1.286   10.000    1.714 
#    0.000    0.000    0.000    0.000    0.000    0.000 
#    0.000    0.000    0.000    0.000    0.000    0.000 
#
# Total GULP energy -78072.544181 kJ/mol
# GULP energy per Si atom -5576.610299 kJ/mol
# Density = 2.239046 g / cm^3
# Si number density = 22.441538 Si / 1000 Ang^3
#
#
#
# Elastic Constant Matrix: (Units=GPa)
#
#
# Indices 1 2 3 4 5 6 
#
# 1 69.2183 47.7380 80.6566 9.5550 16.9461 49.1287
# 2 47.7380 116.7593 56.2922 -6.2455 -27.0462 -17.6035
# 3 80.6566 56.2922 127.4611 -7.0327 -52.8394 -37.3441
# 4 9.5550 -6.2455 -7.0327 48.6170 0.2225 -23.9311
# 5 16.9461 -27.0462 -52.8394 0.2225 -2.3333 -73.4167
# 6 49.1287 -17.6035 -37.3441 -23.9311 -73.4167 -78.5978
#
#
#
# Elastic Compliance Matrix: (Units=1/GPa)
#
#
# Indices 1 2 3 4 5 6 
#
# 1 0.014564 -0.001644 -0.004388 -0.000303 0.005014 0.006965
# 2 -0.001644 0.011087 -0.004336 0.000465 -0.000278 -0.001333
# 3 -0.004388 -0.004336 0.010706 -0.001671 0.000860 -0.007153
# 4 -0.000303 0.000465 -0.001671 0.021107 -0.007704 0.001270
# 5 0.005014 -0.000278 0.000860 -0.007704 0.020101 -0.013643
# 6 0.006965 -0.001333 -0.007153 0.001270 -0.013643 0.007684
#
#
# Mechanical properties :
#
#
# Convention : Reuss Voigt Hill
#
# Bulk Modulus (GPa) = 64.01356 75.86803 69.94079
# Shear Modulus (GPa) = 44.96755 2.12065 23.54410
#
# Velocity S-wave (km/s) = 4.48120 0.97315 3.24254
# Velocity P-wave (km/s) = 7.44052 5.92816 6.72698
#
# Compressibility (1/GPa) = 0.01562169
#
# Stress axis : x y z
#
# Youngs Moduli (GPa) = 68.66146 90.19633 93.40793
#
# Poissons Ratio (x) = 0.14828 0.40983
# Poissons Ratio (y) = 0.11288 0.40502
# Poissons Ratio (z) = 0.30125 0.39110
#
# Static dielectric constant tensor:
#      x y z
#    x 2.345440 -0.216740 -0.120810 
#    y -0.216740 1.979900 0.051180 
#    z -0.120810 0.051180 1.826740 
# 
# From -- ./inp_files/38345.got.cif
#   From: 2010.05.17/outbox.cif.g08.bks.cpg/sg2_20_cif.got.tgz:38345.got - 2010.06.03 11:33:40.
