data_PCOD9047706
_publ_section_title
;
Structure prediction by ZEFSAII (Michael W. Deem and Ramdas Pophale) SiO2 
 PCOD9047706
Probable space group: P -1
;
_chemical_formula_sum "Si O2"
_cell_formula_units_Z 16
_cell_length_a 9.398694
_cell_length_b 15.760787
_cell_length_c 26.189437
_cell_angle_alpha 26.319848
_cell_angle_beta 28.013394
_cell_angle_gamma 44.219349
_cell_volume 754.206939
_symmetry_space_group_name_H-M "P -1"
_symmetry_group_IT_number 2
_symmetry_cell_setting 'triclinic'
loop_
_space_group_symop_operation_xyz
x,y,z
-x,-y,-z
loop_
_atom_site_type_symbol
_atom_site_label
_atom_site_fract_x
_atom_site_fract_y
_atom_site_fract_z
Si Si1 0.749632 0.368740 0.409631
Si Si2 0.648538 0.110243 0.215600
Si Si3 0.067188 0.345698 0.429096
Si Si4 0.750368 0.954469 0.908227
Si Si5 0.146305 0.085960 0.213400
Si Si6 0.608643 0.366915 0.996995
Si Si7 0.108316 0.412280 0.562749
Si Si8 0.315604 0.704968 0.790414
O O1 0.479295 0.473726 0.430419
O O2 0.865117 0.367215 0.432161
O O3 0.056646 0.494442 0.210031
O O4 0.585767 0.127175 0.577853
O O5 0.560838 0.229337 0.226424
O O6 0.036605 0.166618 0.070627
O O7 0.625119 0.183974 0.126280
O O8 0.405341 0.334555 0.308603
O O9 0.090110 0.533719 0.357639
O O10 0.906773 0.134051 0.626025
O O11 0.653989 0.887932 0.916922
O O12 0.019849 0.180157 0.698877
O O13 0.500000 0.000000 0.000000
O O14 0.812024 0.119534 0.285931
O O15 0.342832 0.263331 0.094151
O O16 0.500000 0.500000 0.000000
O O17 0.000000 0.500000 0.500000
O O18 0.000000 0.500000 0.000000
#
# Coordination Sequence:
#
# PCOD9047706 Si02
#       8
#     2   2   2   2   2   2   2   2
#     4  11  26  46  68 100 139 181 223 283 342 409
#     4  10  24  46  66 100 137 176 227 283 342 405
#     4  12  24  44  70  94 145 177 221 290 334 416
#     4  10  24  44  69  95 136 176 229 284 336 407
#     4  11  24  45  66 106 132 181 233 274 351 400
#     4  12  26  43  72 102 138 181 228 280 345 411
#     4  11  25  44  68  99 127 180 229 275 344 400
#     4  11  25  43  68 101 134 180 230 283 342 407
#
# _framework density 21.214334999999998
#
# number of rings (size 3 to 8) (size 9 to 14) (size 15 to 20)
#    0.000    1.000    2.500    3.000    8.750    2.000 
#    0.000    1.250    0.000    0.000    0.000    0.000 
#    0.000    0.000    0.000    0.000    0.000    0.000 
#
# Total GULP energy -89315.119370 kJ/mol
# GULP energy per Si atom -5582.194961 kJ/mol
# Density = 2.116605 g / cm^3
# Si number density = 21.214335 Si / 1000 Ang^3
#
#
#
# Elastic Constant Matrix: (Units=GPa)
#
#
# Indices 1 2 3 4 5 6 
#
# 1 147.9119 50.4428 34.8759 15.7767 10.1518 14.0467
# 2 50.4428 96.7696 2.3534 18.3939 6.7729 19.0781
# 3 34.8759 2.3534 49.6259 4.6867 12.8263 -1.2988
# 4 15.7767 18.3939 4.6867 38.8814 4.2415 -3.2503
# 5 10.1518 6.7729 12.8263 4.2415 21.8393 -6.0278
# 6 14.0467 19.0781 -1.2988 -3.2503 -6.0278 48.8216
#
#
#
# Elastic Compliance Matrix: (Units=1/GPa)
#
#
# Indices 1 2 3 4 5 6 
#
# 1 0.010250 -0.004733 -0.007090 -0.001255 0.000758 -0.001278
# 2 -0.004733 0.015257 0.004432 -0.005689 -0.005561 -0.005548
# 3 -0.007090 0.004432 0.028903 -0.001132 -0.015071 -0.000859
# 4 -0.001255 -0.005689 -0.001132 0.029586 -0.001538 0.004334
# 5 0.000758 -0.005561 -0.015071 -0.001538 0.058713 0.008701
# 6 -0.001278 -0.005548 -0.000859 0.004334 0.008701 0.024358
#
#
# Mechanical properties :
#
#
# Convention : Reuss Voigt Hill
#
# Bulk Modulus (GPa) = 25.23432 52.18352 38.70892
# Shear Modulus (GPa) = 25.63343 35.68415 30.65879
#
# Velocity S-wave (km/s) = 3.47984 4.10576 3.80569
# Velocity P-wave (km/s) = 5.29778 6.86499 6.13166
#
# Compressibility (1/GPa) = 0.03962857
#
# Stress axis : x y z
#
# Youngs Moduli (GPa) = 97.56334 65.54155 34.59888
#
# Poissons Ratio (x) = 0.31021 0.24530
# Poissons Ratio (y) = 0.46177 -0.15334
# Poissons Ratio (z) = 0.69169 -0.29048
#
# Static dielectric constant tensor:
#      x y z
#    x 1.820890 -0.017520 -0.006280 
#    y -0.017520 1.688810 -0.018570 
#    z -0.006280 -0.018570 1.802890 
# 
# From -- ./inp_files/379609.got.cif
#   From: 2010.05.17/outbox.cif.g08.bks.cpg/sg2_190_cif.got.tgz:379609.got - 2010.06.03 11:33:40.
