data_PCOD9047430
_publ_section_title
;
Structure prediction by ZEFSAII (Michael W. Deem and Ramdas Pophale) SiO2 
 PCOD9047430
Probable space group: P -1
;
_chemical_formula_sum "Si O2"
_cell_formula_units_Z 14
_cell_length_a 12.883027
_cell_length_b 12.783773
_cell_length_c 17.588218
_cell_angle_alpha 26.079751
_cell_angle_beta 141.890398
_cell_angle_gamma 152.785620
_cell_volume 581.345204
_symmetry_space_group_name_H-M "P -1"
_symmetry_group_IT_number 2
_symmetry_cell_setting 'triclinic'
loop_
_space_group_symop_operation_xyz
x,y,z
-x,-y,-z
loop_
_atom_site_type_symbol
_atom_site_label
_atom_site_fract_x
_atom_site_fract_y
_atom_site_fract_z
Si Si1 0.761605 0.787237 0.545085
Si Si2 0.123230 0.817223 0.414043
Si Si3 0.653016 0.147290 0.068231
Si Si4 0.969222 0.579003 0.246543
Si Si5 0.603333 0.227850 0.711572
Si Si6 0.002429 0.877589 0.771007
Si Si7 0.729209 0.759848 0.914612
O O1 0.637464 0.452077 0.651600
O O2 0.605889 0.870284 0.393054
O O3 0.816576 0.793252 0.659428
O O4 0.000000 0.000000 0.500000
O O5 0.185907 0.724219 0.586939
O O6 0.000000 0.500000 0.500000
O O7 0.954464 0.866626 0.313759
O O8 0.291541 0.130174 0.251629
O O9 0.782256 0.014924 0.221007
O O10 0.492452 0.071654 0.095360
O O11 0.871122 0.526713 0.957947
O O12 0.500000 0.000000 0.000000
O O13 0.165588 0.599495 0.310985
O O14 0.850417 0.617643 0.086198
O O15 0.109222 0.902989 0.166236
O O16 0.500000 0.500000 0.000000
#
# Coordination Sequence:
#
# PCOD9047430 Si02
#       7
#     2   2   2   2   2   2   2
#     4  11  22  40  61  97 138 176 232 274 338 421
#     4  10  24  47  71 100 139 182 233 295 349 409
#     4  11  24  41  63 104 141 185 227 281 353 415
#     4  10  24  44  67 100 134 176 230 288 348 410
#     4  11  24  40  67  98 138 183 223 288 347 416
#     4  11  24  42  67  99 142 183 232 285 345 422
#     4  10  24  46  69  97 129 175 235 291 347 413
#
# _framework density 24.082077000000002
#
# number of rings (size 3 to 8) (size 9 to 14) (size 15 to 20)
#    0.000    1.429    2.857    0.857    6.000    2.857 
#    0.000    2.857    0.000    0.000    0.000    0.000 
#    0.000    0.000    0.000    0.000    0.000    0.000 
#
# Total GULP energy -78033.853649 kJ/mol
# GULP energy per Si atom -5573.846689 kJ/mol
# Density = 2.402727 g / cm^3
# Si number density = 24.082077 Si / 1000 Ang^3
#
#
#
# Elastic Constant Matrix: (Units=GPa)
#
#
# Indices 1 2 3 4 5 6 
#
# 1 105.4648 22.5030 62.3155 0.1341 -9.1017 10.8862
# 2 22.5030 52.3210 24.8614 7.8575 4.9354 8.5469
# 3 62.3155 24.8614 116.8649 1.8421 -12.7605 6.3669
# 4 0.1341 7.8575 1.8421 40.0434 0.0804 0.9388
# 5 -9.1017 4.9354 -12.7605 0.0804 57.0000 -16.1455
# 6 10.8862 8.5469 6.3669 0.9388 -16.1455 42.6205
#
#
#
# Elastic Compliance Matrix: (Units=1/GPa)
#
#
# Indices 1 2 3 4 5 6 
#
# 1 0.014420 -0.002742 -0.006967 0.000855 0.000427 -0.001950
# 2 -0.002742 0.024108 -0.003841 -0.004410 -0.004884 -0.005313
# 3 -0.006967 -0.003841 0.013290 0.000124 0.002637 0.001561
# 4 0.000855 -0.004410 0.000124 0.025821 0.000596 0.000305
# 5 0.000427 -0.004884 0.002637 0.000596 0.021010 0.008422
# 6 -0.001950 -0.005313 0.001561 0.000305 0.008422 0.027977
#
#
# Mechanical properties :
#
#
# Convention : Reuss Voigt Hill
#
# Bulk Modulus (GPa) = 40.45418 54.89005 47.67211
# Shear Modulus (GPa) = 30.87080 38.93083 34.90082
#
# Velocity S-wave (km/s) = 3.58425 4.02505 3.81102
# Velocity P-wave (km/s) = 5.82787 6.66661 6.26130
#
# Compressibility (1/GPa) = 0.02471933
#
# Stress axis : x y z
#
# Youngs Moduli (GPa) = 69.34718 41.47967 75.24610
#
# Poissons Ratio (x) = 0.11373 0.52421
# Poissons Ratio (y) = 0.19014 0.28901
# Poissons Ratio (z) = 0.48311 0.15932
#
# Static dielectric constant tensor:
#      x y z
#    x 2.076510 0.018920 -0.213190 
#    y 0.018920 1.948260 -0.094780 
#    z -0.213190 -0.094780 2.272100 
# 
# From -- ./inp_files/569099.got.cif
#   From: 2010.05.17/outbox.cif.g08.bks.cpg/sg2_285_cif.got.tgz:569099.got - 2010.06.03 11:33:40.
