data_PCOD9047003
_publ_section_title
;
Structure prediction by ZEFSAII (Michael W. Deem and Ramdas Pophale) SiO2 
 PCOD9047003
Probable space group: P -1
;
_chemical_formula_sum "Si O2"
_cell_formula_units_Z 11
_cell_length_a 14.271610
_cell_length_b 12.291095
_cell_length_c 7.522015
_cell_angle_alpha 126.882818
_cell_angle_beta 127.229238
_cell_angle_gamma 22.052524
_cell_volume 391.001813
_symmetry_space_group_name_H-M "P -1"
_symmetry_group_IT_number 2
_symmetry_cell_setting 'triclinic'
loop_
_space_group_symop_operation_xyz
x,y,z
-x,-y,-z
loop_
_atom_site_type_symbol
_atom_site_label
_atom_site_fract_x
_atom_site_fract_y
_atom_site_fract_z
Si Si1 0.465444 0.944989 0.199671
Si Si2 0.798574 0.029411 0.911043
Si Si3 0.121943 0.547755 0.378987
Si Si4 0.240611 0.548320 0.179725
Si Si5 0.000000 0.500000 0.500000
Si Si6 0.427779 0.492155 0.672186
O O1 0.726503 0.699395 0.363714
O O2 0.337763 0.214696 0.262374
O O3 0.265117 0.064712 0.212681
O O4 0.546872 0.769402 0.957119
O O5 0.641476 0.290710 0.116797
O O6 0.702416 0.168691 0.742977
O O7 0.082267 0.760711 0.038298
O O8 0.245172 0.560259 0.610495
O O9 0.935244 0.658348 0.399486
O O10 0.953748 0.328273 0.786070
O O11 0.361079 0.537078 0.434575
#
# Coordination Sequence:
#
# PCOD9047003 Si02
#       6
#     2   2   2   2   1   2
#     4  12  24  39  70 101 140 177 225 281 341 406
#     4  11  22  46  71  97 140 181 229 278 338 408
#     4  10  24  45  65 102 137 175 229 280 337 401
#     4  10  24  43  70 104 135 182 220 286 339 410
#     4  12  24  42  70  98 138 184 224 282 332 408
#     4   9  23  46  69  99 141 175 231 285 329 408
#
# _framework density 28.132860999999998
#
# number of rings (size 3 to 8) (size 9 to 14) (size 15 to 20)
#    1.091    0.364    1.818    2.727    2.545    5.091 
#    0.000    7.273    0.000    0.000    0.000    0.000 
#    0.000    0.000    0.000    0.000    0.000    0.000 
#
# Total GULP energy -61409.137201 kJ/mol
# GULP energy per Si atom -5582.648836 kJ/mol
# Density = 2.806883 g / cm^3
# Si number density = 28.132861 Si / 1000 Ang^3
#
#
#
# Elastic Constant Matrix: (Units=GPa)
#
#
# Indices 1 2 3 4 5 6 
#
# 1 128.6933 9.9197 -26.1393 -6.1264 50.0767 -33.4636
# 2 9.9197 113.6374 46.7188 -28.2732 -8.3926 10.2817
# 3 -26.1393 46.7188 7.5904 -6.6086 80.8088 -38.6326
# 4 -6.1264 -28.2732 -6.6086 45.6386 2.4937 9.3679
# 5 50.0767 -8.3926 80.8088 2.4937 -5.0716 41.2208
# 6 -33.4636 10.2817 -38.6326 9.3679 41.2208 11.0727
#
#
#
# Elastic Compliance Matrix: (Units=1/GPa)
#
#
# Indices 1 2 3 4 5 6 
#
# 1 0.006322 0.001321 -0.003449 0.001200 0.001443 -0.000544
# 2 0.001321 0.010202 -0.000949 0.006293 -0.004179 0.001439
# 3 -0.003449 -0.000949 0.007374 0.001658 0.006590 -0.009749
# 4 0.001200 0.006293 0.001658 0.027561 -0.003811 -0.005563
# 5 0.001443 -0.004179 0.006590 -0.003811 0.006629 0.009782
# 6 -0.000544 0.001439 -0.009749 -0.005563 0.009782 0.021606
#
#
# Mechanical properties :
#
#
# Convention : Reuss Voigt Hill
#
# Bulk Modulus (GPa) = 56.36375 34.54659 45.45517
# Shear Modulus (GPa) = 54.48722 24.95606 39.72164
#
# Velocity S-wave (km/s) = 4.40566 2.98162 3.76164
# Velocity P-wave (km/s) = 6.77924 4.91527 5.92106
#
# Compressibility (1/GPa) = 0.01774190
#
# Stress axis : x y z
#
# Youngs Moduli (GPa) = 158.17855 98.02206 135.60267
#
# Poissons Ratio (x) = -0.12946 0.46775
# Poissons Ratio (y) = -0.20891 0.12875
# Poissons Ratio (z) = 0.54562 0.09307
#
# Static dielectric constant tensor:
#      x y z
#    x 2.122320 0.112080 0.018080 
#    y 0.112080 1.886870 -0.192520 
#    z 0.018080 -0.192520 2.026310 
# 
# From -- ./inp_files/20918.got.cif
#   From: 2010.05.17/outbox.cif.g08.bks.cpg/sg2_11_cif.got.tgz:20918.got - 2010.06.03 11:33:40.
