data_PCOD9047181
_publ_section_title
;
Structure prediction by ZEFSAII (Michael W. Deem and Ramdas Pophale) SiO2 
 PCOD9047181
Probable space group: P -1
;
_chemical_formula_sum "Si O2"
_cell_formula_units_Z 14
_cell_length_a 9.264479
_cell_length_b 12.387748
_cell_length_c 9.754411
_cell_angle_alpha 106.514537
_cell_angle_beta 75.510951
_cell_angle_gamma 146.794729
_cell_volume 587.616301
_symmetry_space_group_name_H-M "P -1"
_symmetry_group_IT_number 2
_symmetry_cell_setting 'triclinic'
loop_
_space_group_symop_operation_xyz
x,y,z
-x,-y,-z
loop_
_atom_site_type_symbol
_atom_site_label
_atom_site_fract_x
_atom_site_fract_y
_atom_site_fract_z
Si Si1 0.403738 0.588391 0.419114
Si Si2 0.016891 0.221372 0.180608
Si Si3 0.204929 0.881425 0.098844
Si Si4 0.495948 0.115408 0.621636
Si Si5 0.367700 0.229198 0.113447
Si Si6 0.226073 0.384423 0.658593
Si Si7 0.741603 0.319432 0.901607
O O1 0.493816 0.772293 0.443006
O O2 0.211891 0.440038 0.538325
O O3 0.662335 0.671780 0.410617
O O4 0.239197 0.437762 0.274931
O O5 0.133821 0.168715 0.113998
O O6 0.764225 0.051755 0.279553
O O7 0.945398 0.223482 0.048610
O O8 0.366856 0.867401 0.081594
O O9 0.015714 0.763451 0.234592
O O10 0.307634 0.072528 0.140563
O O11 0.740530 0.294791 0.731564
O O12 0.500000 0.000000 0.500000
O O13 0.546905 0.409344 0.239443
O O14 0.542879 0.298299 0.968380
O O15 0.000000 0.500000 0.000000
#
# Coordination Sequence:
#
# PCOD9047181 Si02
#       7
#     2   2   2   2   2   2   2
#     4  10  25  47  69 105 149 192 245 292 373 440
#     4  11  26  45  77 111 137 195 244 310 365 432
#     4  12  24  42  72 103 147 184 246 301 363 429
#     4  12  29  48  74 106 153 197 246 298 374 443
#     4  11  24  43  74 107 145 180 250 304 364 426
#     4  10  24  43  73 105 144 193 236 307 363 437
#     4  12  26  46  70 110 147 193 239 301 371 433
#
# _framework density 23.825071000000001
#
# number of rings (size 3 to 8) (size 9 to 14) (size 15 to 20)
#    0.000    0.857    2.857    2.571    6.000    1.714 
#    0.000    4.286    0.000    0.000    0.000    0.000 
#    0.000    0.000    0.000    0.000    0.000    0.000 
#
# Total GULP energy -78252.055848 kJ/mol
# GULP energy per Si atom -5589.432561 kJ/mol
# Density = 2.377084 g / cm^3
# Si number density = 23.825071 Si / 1000 Ang^3
#
#
#
# Elastic Constant Matrix: (Units=GPa)
#
#
# Indices 1 2 3 4 5 6 
#
# 1 158.9338 47.4718 58.4384 -5.2555 -29.5658 -31.5287
# 2 47.4718 70.5647 45.7916 -10.6633 5.5846 -24.7694
# 3 58.4384 45.7916 90.5750 3.5995 -48.4937 -27.6502
# 4 -5.2555 -10.6633 3.5995 37.6802 -1.7469 3.0918
# 5 -29.5658 5.5846 -48.4937 -1.7469 8.4249 -16.9138
# 6 -31.5287 -24.7694 -27.6502 3.0918 -16.9138 45.7708
#
#
#
# Elastic Compliance Matrix: (Units=1/GPa)
#
#
# Indices 1 2 3 4 5 6 
#
# 1 0.008617 -0.001259 -0.006075 0.001264 -0.002406 0.000610
# 2 -0.001259 0.019517 0.000014 0.004735 0.009862 0.013028
# 3 -0.006075 0.000014 0.003662 -0.001306 -0.016615 -0.008016
# 4 0.001264 0.004735 -0.001306 0.028189 0.004316 0.002335
# 5 -0.002406 0.009862 -0.016615 0.004316 -0.016939 -0.012908
# 6 0.000610 0.013028 -0.008016 0.002335 -0.012908 0.019548
#
#
# Mechanical properties :
#
#
# Convention : Reuss Voigt Hill
#
# Bulk Modulus (GPa) = 58.28745 69.27523 63.78134
# Shear Modulus (GPa) = 60.27545 29.59995 44.93770
#
# Velocity S-wave (km/s) = 5.03528 3.52857 4.34770
# Velocity P-wave (km/s) = 7.63697 6.76320 7.21333
#
# Compressibility (1/GPa) = 0.01715635
#
# Stress axis : x y z
#
# Youngs Moduli (GPa) = 116.04812 51.23698 273.08053
#
# Poissons Ratio (x) = 0.06452 1.65896
# Poissons Ratio (y) = 0.14614 -0.00391
# Poissons Ratio (z) = 0.70499 -0.00073
#
# Static dielectric constant tensor:
#      x y z
#    x 1.944110 0.051330 -0.000700 
#    y 0.051330 1.951140 -0.026600 
#    z -0.000700 -0.026600 1.965350 
# 
# From -- ./inp_files/188505.got.cif
#   From: 2010.05.17/outbox.cif.g08.bks.cpg/sg2_95_cif.got.tgz:188505.got - 2010.06.03 11:33:40.
