data_PCOD9047748
_publ_section_title
;
Structure prediction by ZEFSAII (Michael W. Deem and Ramdas Pophale) SiO2 
 PCOD9047748
Probable space group: P -1
;
_chemical_formula_sum "Si O2"
_cell_formula_units_Z 14
_cell_length_a 9.503759
_cell_length_b 9.014204
_cell_length_c 9.635442
_cell_angle_alpha 76.093614
_cell_angle_beta 129.131994
_cell_angle_gamma 95.659873
_cell_volume 619.989787
_symmetry_space_group_name_H-M "P -1"
_symmetry_group_IT_number 2
_symmetry_cell_setting 'triclinic'
loop_
_space_group_symop_operation_xyz
x,y,z
-x,-y,-z
loop_
_atom_site_type_symbol
_atom_site_label
_atom_site_fract_x
_atom_site_fract_y
_atom_site_fract_z
Si Si1 0.408240 0.382244 0.787824
Si Si2 0.567870 0.785095 0.878262
Si Si3 0.894760 0.747307 0.900535
Si Si4 0.730713 0.450171 0.766694
Si Si5 0.706842 0.945058 0.286907
Si Si6 0.283267 0.669245 0.517556
Si Si7 0.954120 0.027164 0.683231
O O1 0.587635 0.423940 0.805947
O O2 0.339586 0.228831 0.713930
O O3 0.260951 0.523766 0.636147
O O4 0.445566 0.338949 0.980476
O O5 0.772431 0.778847 0.953476
O O6 0.445069 0.750615 0.676080
O O7 0.474867 0.943721 0.841873
O O8 0.789900 0.624673 0.770427
O O9 0.919142 0.909804 0.809317
O O10 0.088608 0.659671 0.068413
O O11 0.666602 0.398204 0.587239
O O12 0.837343 0.984556 0.232265
O O13 0.830440 0.972681 0.491462
O O14 0.117655 0.797088 0.375030
#
# Coordination Sequence:
#
# PCOD9047748 Si02
#       7
#     2   2   2   2   2   2   2
#     4  12  24  45  70 101 140 176 230 280 332 413
#     4  11  25  44  71 103 134 183 224 279 342 395
#     4  11  25  46  71  98 142 175 229 278 340 405
#     4  11  26  45  70 104 134 181 223 284 343 391
#     4  10  24  44  70 101 137 182 225 278 342 396
#     4  11  25  43  73 102 135 179 228 280 337 400
#     4  10  24  46  68 103 138 180 224 281 338 404
#
# _framework density 22.581015000000001
#
# number of rings (size 3 to 8) (size 9 to 14) (size 15 to 20)
#    0.000    1.143    1.429    3.000    6.000    2.286 
#    5.143    0.000    0.000    0.000    0.000    0.000 
#    0.000    0.000    0.000    0.000    0.000    0.000 
#
# Total GULP energy -78334.462056 kJ/mol
# GULP energy per Si atom -5595.318718 kJ/mol
# Density = 2.252962 g / cm^3
# Si number density = 22.581015 Si / 1000 Ang^3
#
#
#
# Elastic Constant Matrix: (Units=GPa)
#
#
# Indices 1 2 3 4 5 6 
#
# 1 124.4627 44.0889 45.1060 -14.2035 5.8500 -10.2803
# 2 44.0889 134.1384 34.7799 -24.7988 16.5364 -7.1662
# 3 45.1060 34.7799 93.8524 -5.2011 -2.2970 -8.8690
# 4 -14.2035 -24.7988 -5.2011 45.2427 -2.5122 -2.7540
# 5 5.8500 16.5364 -2.2970 -2.5122 26.1771 -2.2759
# 6 -10.2803 -7.1662 -8.8690 -2.7540 -2.2759 34.9507
#
#
#
# Elastic Compliance Matrix: (Units=1/GPa)
#
#
# Indices 1 2 3 4 5 6 
#
# 1 0.010613 -0.001800 -0.004194 0.001900 -0.001268 0.001756
# 2 -0.001800 0.010380 -0.002793 0.004529 -0.005891 0.000863
# 3 -0.004194 -0.002793 0.013935 -0.000907 0.004004 0.001919
# 4 0.001900 0.004529 -0.000907 0.025236 -0.000665 0.003203
# 5 -0.001268 -0.005891 0.004004 -0.000665 0.042681 0.002162
# 6 0.001756 0.000863 0.001919 0.003203 0.002162 0.030185
#
#
# Mechanical properties :
#
#
# Convention : Reuss Voigt Hill
#
# Bulk Modulus (GPa) = 57.62051 66.71144 62.16597
# Shear Modulus (GPa) = 31.97138 36.50602 34.23870
#
# Velocity S-wave (km/s) = 3.76686 4.02514 3.89814
# Velocity P-wave (km/s) = 6.67021 7.15609 6.91742
#
# Compressibility (1/GPa) = 0.01735493
#
# Stress axis : x y z
#
# Youngs Moduli (GPa) = 94.22146 96.33500 71.76244
#
# Poissons Ratio (x) = 0.17337 0.30095
# Poissons Ratio (y) = 0.16957 0.20046
# Poissons Ratio (z) = 0.39514 0.26910
#
# Static dielectric constant tensor:
#      x y z
#    x 1.796800 -0.023350 0.010310 
#    y -0.023350 1.846830 0.043620 
#    z 0.010310 0.043620 1.857490 
# 
# From -- ./inp_files/158260.got.cif
#   From: 2010.05.17/outbox.cif.g08.bks.cpg/sg2_80_cif.got.tgz:158260.got - 2010.06.03 11:33:40.
