data_PCOD9047189
_publ_section_title
;
Structure prediction by ZEFSAII (Michael W. Deem and Ramdas Pophale) SiO2 
 PCOD9047189
Probable space group: P -1
;
_chemical_formula_sum "Si O2"
_cell_formula_units_Z 14
_cell_length_a 9.403747
_cell_length_b 8.254696
_cell_length_c 8.218144
_cell_angle_alpha 60.717482
_cell_angle_beta 96.630358
_cell_angle_gamma 102.706825
_cell_volume 542.767043
_symmetry_space_group_name_H-M "P -1"
_symmetry_group_IT_number 2
_symmetry_cell_setting 'triclinic'
loop_
_space_group_symop_operation_xyz
x,y,z
-x,-y,-z
loop_
_atom_site_type_symbol
_atom_site_label
_atom_site_fract_x
_atom_site_fract_y
_atom_site_fract_z
Si Si1 0.728114 0.741933 0.825594
Si Si2 0.833249 0.424723 0.868397
Si Si3 0.636824 0.399544 0.539215
Si Si4 0.520477 0.970539 0.825917
Si Si5 0.899108 0.405626 0.378652
Si Si6 0.243275 0.992595 0.584044
Si Si7 0.950752 0.064218 0.135479
O O1 0.741452 0.524934 0.933023
O O2 0.896148 0.840558 0.816614
O O3 0.623706 0.817170 0.899722
O O4 0.689174 0.830550 0.605989
O O5 0.743026 0.440669 0.686651
O O6 0.000109 0.522579 0.798374
O O7 0.849050 0.214689 0.010918
O O8 0.500000 0.500000 0.500000
O O9 0.592571 0.171621 0.655995
O O10 0.742183 0.461613 0.367813
O O11 0.373723 0.917313 0.728167
O O12 0.500000 0.000000 0.000000
O O13 0.852124 0.179299 0.449037
O O14 0.000000 0.500000 0.500000
O O15 0.142426 0.062544 0.676532
O O16 0.000000 0.000000 0.000000
#
# Coordination Sequence:
#
# PCOD9047189 Si02
#       7
#     2   2   2   2   2   2   2
#     4  12  25  45  75 103 145 193 252 302 358 445
#     4  11  25  46  70 108 144 186 245 304 366 427
#     4  11  24  45  72 105 145 191 242 296 366 439
#     4  12  27  49  71 108 150 196 242 303 373 438
#     4  10  24  43  73 106 150 183 247 303 364 427
#     4  12  25  46  76 108 145 196 248 296 370 438
#     4  12  27  46  73 105 152 194 241 306 371 430
#
# _framework density 25.793754
#
# number of rings (size 3 to 8) (size 9 to 14) (size 15 to 20)
#    0.000    0.571    2.857    4.714    4.000    3.429 
#    0.000    1.429    0.000    0.000    0.000    0.000 
#    0.000    0.000    0.000    0.000    0.000    0.000 
#
# Total GULP energy -78284.529294 kJ/mol
# GULP energy per Si atom -5591.752092 kJ/mol
# Density = 2.573505 g / cm^3
# Si number density = 25.793754 Si / 1000 Ang^3
#
#
#
# Elastic Constant Matrix: (Units=GPa)
#
#
# Indices 1 2 3 4 5 6 
#
# 1 152.3805 51.1906 40.9894 4.5072 -2.1093 -55.7586
# 2 51.1906 129.6146 38.1030 3.4412 -8.6783 -43.1312
# 3 40.9894 38.1030 81.2454 12.4285 2.3551 -26.8738
# 4 4.5072 3.4412 12.4285 36.2686 -9.5947 -5.6954
# 5 -2.1093 -8.6783 2.3551 -9.5947 48.8148 2.0371
# 6 -55.7586 -43.1312 -26.8738 -5.6954 2.0371 55.3628
#
#
#
# Elastic Compliance Matrix: (Units=1/GPa)
#
#
# Indices 1 2 3 4 5 6 
#
# 1 0.010767 -0.000433 -0.002253 0.001049 0.000306 0.009510
# 2 -0.000433 0.011177 -0.003072 0.001698 0.002163 0.006876
# 3 -0.002253 -0.003072 0.016791 -0.005406 -0.002642 0.003030
# 4 0.001049 0.001698 -0.005406 0.031322 0.006650 0.002733
# 5 0.000306 0.002163 -0.002642 0.006650 0.022294 0.000575
# 6 0.009510 0.006876 0.003030 0.002733 0.000575 0.034728
#
#
# Mechanical properties :
#
#
# Convention : Reuss Voigt Hill
#
# Bulk Modulus (GPa) = 36.73723 69.31183 53.02453
# Shear Modulus (GPa) = 33.86010 43.61975 38.73993
#
# Velocity S-wave (km/s) = 3.62708 4.11676 3.87965
# Velocity P-wave (km/s) = 5.64044 7.03753 6.37736
#
# Compressibility (1/GPa) = 0.02722034
#
# Stress axis : x y z
#
# Youngs Moduli (GPa) = 92.87677 89.47099 59.55468
#
# Poissons Ratio (x) = 0.03873 0.13417
# Poissons Ratio (y) = 0.04020 0.18293
# Poissons Ratio (z) = 0.20924 0.27482
#
# Static dielectric constant tensor:
#      x y z
#    x 2.019630 0.073010 -0.014320 
#    y 0.073010 2.165360 0.038000 
#    z -0.014320 0.038000 2.260800 
# 
# From -- ./inp_files/156799.got.cif
#   From: 2010.05.17/outbox.cif.g08.bks.cpg/sg2_79_cif.got.tgz:156799.got - 2010.06.03 11:33:40.
