data_PCOD9047776
_publ_section_title
;
Structure prediction by ZEFSAII (Michael W. Deem and Ramdas Pophale) SiO2 
 PCOD9047776
Probable space group: P -1
;
_chemical_formula_sum "Si O2"
_cell_formula_units_Z 13
_cell_length_a 9.010825
_cell_length_b 8.038808
_cell_length_c 12.140140
_cell_angle_alpha 91.985713
_cell_angle_beta 39.170020
_cell_angle_gamma 89.033026
_cell_volume 553.773769
_symmetry_space_group_name_H-M "P -1"
_symmetry_group_IT_number 2
_symmetry_cell_setting 'triclinic'
loop_
_space_group_symop_operation_xyz
x,y,z
-x,-y,-z
loop_
_atom_site_type_symbol
_atom_site_label
_atom_site_fract_x
_atom_site_fract_y
_atom_site_fract_z
Si Si1 0.101637 0.217979 0.037767
Si Si2 0.187586 0.845273 0.388538
Si Si3 0.570193 0.071214 0.129095
Si Si4 0.000000 0.500000 0.500000
Si Si5 0.351177 0.346816 0.112340
Si Si6 0.544900 0.299591 0.351944
Si Si7 0.468735 0.315198 0.648099
O O1 0.207596 0.299395 0.086578
O O2 0.828222 0.275394 0.193053
O O3 0.243406 0.277096 0.850099
O O4 0.170585 0.019301 0.006648
O O5 0.093968 0.675254 0.395178
O O6 0.307716 0.794750 0.435892
O O7 0.405349 0.919587 0.202074
O O8 0.000000 0.000000 0.500000
O O9 0.528111 0.204279 0.061381
O O10 0.485377 0.164985 0.292773
O O11 0.160053 0.388698 0.318081
O O12 0.500000 0.500000 0.000000
O O13 0.442201 0.283620 0.533128
O O14 0.474491 0.490889 0.360962
#
# Coordination Sequence:
#
# PCOD9047776 Si02
#       7
#     2   2   2   1   2   2   2
#     4  11  24  42  70 101 146 191 242 299 367 434
#     4  11  23  43  73 107 146 185 241 304 359 435
#     4  11  24  45  70 109 151 186 251 308 360 440
#     4  12  24  44  72 102 144 190 232 288 378 422
#     4  12  25  45  70 107 148 192 245 306 364 431
#     4  11  23  45  73 100 145 198 239 300 363 439
#     4  10  24  44  70 103 144 190 249 294 360 436
#
# _framework density 23.475292
#
# number of rings (size 3 to 8) (size 9 to 14) (size 15 to 20)
#    0.000    0.923    1.538    6.000    0.000    3.692 
#    0.000    1.538    0.000    0.000    0.000    0.000 
#    0.000    0.000    0.000    0.000    0.000    0.000 
#
# Total GULP energy -72510.458270 kJ/mol
# GULP energy per Si atom -5577.727559 kJ/mol
# Density = 2.342186 g / cm^3
# Si number density = 23.475292 Si / 1000 Ang^3
#
#
#
# Elastic Constant Matrix: (Units=GPa)
#
#
# Indices 1 2 3 4 5 6 
#
# 1 67.1574 53.4536 40.7556 9.7221 16.9027 -8.2437
# 2 53.4536 170.4086 28.3942 -12.6081 6.6923 -14.7262
# 3 40.7556 28.3942 122.7067 6.7599 24.7150 -8.7474
# 4 9.7221 -12.6081 6.7599 36.1732 5.4122 9.5291
# 5 16.9027 6.6923 24.7150 5.4122 40.4424 6.2954
# 6 -8.2437 -14.7262 -8.7474 9.5291 6.2954 40.3427
#
#
#
# Elastic Compliance Matrix: (Units=1/GPa)
#
#
# Indices 1 2 3 4 5 6 
#
# 1 0.028127 -0.007964 -0.005255 -0.009675 -0.006715 0.005034
# 2 -0.007964 0.008681 0.000163 0.004907 0.001098 0.000246
# 3 -0.005255 0.000163 0.011019 -0.000454 -0.004853 0.002239
# 4 -0.009675 0.004907 -0.000454 0.034218 0.000238 -0.008404
# 5 -0.006715 0.001098 -0.004853 0.000238 0.031371 -0.006975
# 6 0.005034 0.000246 0.002239 -0.008404 -0.006975 0.029465
#
#
# Mechanical properties :
#
#
# Convention : Reuss Voigt Hill
#
# Bulk Modulus (GPa) = 46.05281 67.27551 56.66416
# Shear Modulus (GPa) = 28.37155 39.23629 33.80392
#
# Velocity S-wave (km/s) = 3.48022 4.09269 3.79882
# Velocity P-wave (km/s) = 5.98410 7.14519 6.59026
#
# Compressibility (1/GPa) = 0.02171420
#
# Stress axis : x y z
#
# Youngs Moduli (GPa) = 35.55256 115.19934 90.75068
#
# Poissons Ratio (x) = 0.91750 0.47687
# Poissons Ratio (y) = 0.28316 -0.01477
# Poissons Ratio (z) = 0.18682 -0.01875
#
# Static dielectric constant tensor:
#      x y z
#    x 2.020010 -0.010100 -0.070120 
#    y -0.010100 1.899590 0.026120 
#    z -0.070120 0.026120 1.897610 
# 
# From -- ./inp_files/373918.got.cif
#   From: 2010.05.17/outbox.cif.g08.bks.cpg/sg2_187_cif.got.tgz:373918.got - 2010.06.03 11:33:40.
