data_PCOD9047428
_publ_section_title
;
Structure prediction by ZEFSAII (Michael W. Deem and Ramdas Pophale) SiO2 
 PCOD9047428
Probable space group: P -1
;
_chemical_formula_sum "Si O2"
_cell_formula_units_Z 14
_cell_length_a 16.746431
_cell_length_b 5.752529
_cell_length_c 10.402420
_cell_angle_alpha 116.405609
_cell_angle_beta 42.738608
_cell_angle_gamma 114.019948
_cell_volume 603.776872
_symmetry_space_group_name_H-M "P -1"
_symmetry_group_IT_number 2
_symmetry_cell_setting 'triclinic'
loop_
_space_group_symop_operation_xyz
x,y,z
-x,-y,-z
loop_
_atom_site_type_symbol
_atom_site_label
_atom_site_fract_x
_atom_site_fract_y
_atom_site_fract_z
Si Si1 0.054811 0.362810 0.280935
Si Si2 0.835749 0.066479 0.785408
Si Si3 0.171295 0.971697 0.505929
Si Si4 0.489240 0.311128 0.759644
Si Si5 0.650959 0.616918 0.457727
Si Si6 0.392507 0.799817 0.791098
Si Si7 0.593712 0.240568 0.899566
O O1 0.107512 0.622622 0.201384
O O2 0.000000 0.500000 0.500000
O O3 0.130806 0.144158 0.199659
O O4 0.937339 0.180905 0.324378
O O5 0.864337 0.957429 0.581788
O O6 0.695892 0.088867 0.975183
O O7 0.238785 0.204957 0.567630
O O8 0.273524 0.796539 0.304025
O O9 0.603261 0.392116 0.559379
O O10 0.537647 0.293730 0.841725
O O11 0.410673 0.054550 0.739266
O O12 0.408944 0.540942 0.933689
O O13 0.532603 0.763181 0.629212
O O14 0.666175 0.467705 0.270854
O O15 0.500000 0.000000 0.000000
#
# Coordination Sequence:
#
# PCOD9047428 Si02
#       7
#     2   2   2   2   2   2   2
#     4  10  24  44  67 100 129 173 223 281 337 385
#     4  11  25  44  69  97 131 175 226 277 333 392
#     4  11  21  41  66  94 130 166 217 279 329 398
#     4  11  21  35  61  92 133 167 211 258 330 411
#     4  11  24  42  61  98 132 174 215 265 347 394
#     4  11  25  42  62  92 138 174 217 272 329 406
#     4  11  21  35  57 102 128 157 211 271 336 384
#
# _framework density 23.187373000000001
#
# number of rings (size 3 to 8) (size 9 to 14) (size 15 to 20)
#    0.000    1.143    2.857    3.857    8.000    1.143 
#    0.000    1.429    0.000    0.000    0.000    0.000 
#    0.000    0.000    0.000    0.000    0.000    0.000 
#
# Total GULP energy -77942.422077 kJ/mol
# GULP energy per Si atom -5567.315863 kJ/mol
# Density = 2.313460 g / cm^3
# Si number density = 23.187373 Si / 1000 Ang^3
#
#
#
# Elastic Constant Matrix: (Units=GPa)
#
#
# Indices 1 2 3 4 5 6 
#
# 1 64.3807 42.4374 16.9111 3.4464 -16.7549 9.8669
# 2 42.4374 127.8579 17.9205 -1.2966 -13.5552 22.5309
# 3 16.9111 17.9205 53.1011 5.6630 -7.6587 -0.2688
# 4 3.4464 -1.2966 5.6630 35.2128 6.1809 0.2874
# 5 -16.7549 -13.5552 -7.6587 6.1809 35.3170 6.4888
# 6 9.8669 22.5309 -0.2688 0.2874 6.4888 50.6148
#
#
#
# Elastic Compliance Matrix: (Units=1/GPa)
#
#
# Indices 1 2 3 4 5 6 
#
# 1 0.023398 -0.005717 -0.003829 -0.003487 0.009275 -0.003206
# 2 -0.005717 0.010835 -0.001727 0.000983 0.001623 -0.003932
# 3 -0.003829 -0.001727 0.021390 -0.003586 0.002544 0.001323
# 4 -0.003487 0.000983 -0.003586 0.030681 -0.007612 0.001025
# 5 0.009275 0.001623 0.002544 -0.007612 0.036537 -0.007158
# 6 -0.003206 -0.003932 0.001323 0.001025 -0.007158 0.023051
#
#
# Mechanical properties :
#
#
# Convention : Reuss Voigt Hill
#
# Bulk Modulus (GPa) = 30.23064 44.43087 37.33075
# Shear Modulus (GPa) = 27.86066 35.43364 31.64715
#
# Velocity S-wave (km/s) = 3.47009 3.91339 3.69839
# Velocity P-wave (km/s) = 5.39641 6.29466 5.86276
#
# Compressibility (1/GPa) = 0.03307903
#
# Stress axis : x y z
#
# Youngs Moduli (GPa) = 42.73789 92.28978 46.75016
#
# Poissons Ratio (x) = 0.52757 0.17901
# Poissons Ratio (y) = 0.24431 0.08074
# Poissons Ratio (z) = 0.16365 0.15938
#
# Static dielectric constant tensor:
#      x y z
#    x 2.117840 -0.107770 0.017600 
#    y -0.107770 2.076170 0.003470 
#    z 0.017600 0.003470 1.846800 
# 
# From -- ./inp_files/363130.got.cif
#   From: 2010.05.17/outbox.cif.g08.bks.cpg/sg2_182_cif.got.tgz:363130.got - 2010.06.03 11:33:40.
