data_PCOD9047699
_publ_section_title
;
Structure prediction by ZEFSAII (Michael W. Deem and Ramdas Pophale) SiO2 
 PCOD9047699
Probable space group: P -1
;
_chemical_formula_sum "Si O2"
_cell_formula_units_Z 12
_cell_length_a 5.275975
_cell_length_b 8.180017
_cell_length_c 13.044315
_cell_angle_alpha 114.637647
_cell_angle_beta 93.833778
_cell_angle_gamma 102.813290
_cell_volume 490.840825
_symmetry_space_group_name_H-M "P -1"
_symmetry_group_IT_number 2
_symmetry_cell_setting 'triclinic'
loop_
_space_group_symop_operation_xyz
x,y,z
-x,-y,-z
loop_
_atom_site_type_symbol
_atom_site_label
_atom_site_fract_x
_atom_site_fract_y
_atom_site_fract_z
Si Si1 0.818257 0.008886 0.594507
Si Si2 0.485239 0.665739 0.823734
Si Si3 0.337798 0.700846 0.467420
Si Si4 0.079681 0.007966 0.175074
Si Si5 0.986612 0.644671 0.948762
Si Si6 0.082093 0.657244 0.664712
O O1 0.627958 0.798258 0.541568
O O2 0.912849 0.062044 0.726245
O O3 0.682445 0.166736 0.593760
O O4 0.000000 0.000000 0.500000
O O5 0.644674 0.864466 0.830043
O O6 0.716172 0.586357 0.858570
O O7 0.290481 0.562556 0.699079
O O8 0.264838 0.672753 0.904467
O O9 0.163933 0.716908 0.567112
O O10 0.205827 0.487800 0.379124
O O11 0.916336 0.159225 0.223541
O O12 0.973681 0.837772 0.051814
O O13 0.000000 0.500000 0.000000
#
# Coordination Sequence:
#
# PCOD9047699 Si02
#       6
#     2   2   2   2   2   2
#     4  11  23  43  68 108 149 200 240 308 364 448
#     4  12  26  51  77 109 147 196 252 311 374 449
#     4  10  24  44  69 109 156 192 254 299 372 445
#     4  12  26  45  77 106 150 200 251 303 382 439
#     4  12  30  52  76 111 147 192 254 319 377 443
#     4  11  24  45  75 113 145 206 246 310 371 451
#
# _framework density 24.447842999999999
#
# number of rings (size 3 to 8) (size 9 to 14) (size 15 to 20)
#    0.000    0.667    5.000    1.500    4.667    2.000 
#    0.000    0.000    0.000    0.000    0.000    0.000 
#    0.000    0.000    0.000    0.000    0.000    0.000 
#
# Total GULP energy -67019.788697 kJ/mol
# GULP energy per Si atom -5584.982391 kJ/mol
# Density = 2.439220 g / cm^3
# Si number density = 24.447843 Si / 1000 Ang^3
#
#
#
# Elastic Constant Matrix: (Units=GPa)
#
#
# Indices 1 2 3 4 5 6 
#
# 1 121.6533 28.8681 40.0632 -12.1778 -6.2182 0.6098
# 2 28.8681 104.2133 34.4831 -18.5456 1.8068 3.3273
# 3 40.0632 34.4831 94.4715 -30.7121 -8.3373 1.1975
# 4 -12.1778 -18.5456 -30.7121 46.4656 -0.7778 3.3896
# 5 -6.2182 1.8068 -8.3373 -0.7778 29.1534 -10.1292
# 6 0.6098 3.3273 1.1975 3.3896 -10.1292 31.2470
#
#
#
# Elastic Compliance Matrix: (Units=1/GPa)
#
#
# Indices 1 2 3 4 5 6 
#
# 1 0.009819 -0.001658 -0.003607 -0.000495 0.001368 0.000620
# 2 -0.001658 0.011566 -0.002961 0.002341 -0.002615 -0.002187
# 3 -0.003607 -0.002961 0.016444 0.008799 0.004435 0.000239
# 4 -0.000495 0.002341 0.008799 0.028395 0.001975 -0.003017
# 5 0.001368 -0.002615 0.004435 0.001975 0.040603 0.013030
# 6 0.000620 -0.002187 0.000239 -0.003017 0.013030 0.036766
#
#
# Mechanical properties :
#
#
# Convention : Reuss Voigt Hill
#
# Bulk Modulus (GPa) = 46.77627 58.57409 52.67518
# Shear Modulus (GPa) = 29.90970 35.83477 32.87224
#
# Velocity S-wave (km/s) = 3.50152 3.83268 3.67084
# Velocity P-wave (km/s) = 5.96005 6.60278 6.28963
#
# Compressibility (1/GPa) = 0.02137836
#
# Stress axis : x y z
#
# Youngs Moduli (GPa) = 101.84810 86.45727 60.81166
#
# Poissons Ratio (x) = 0.14335 0.21932
# Poissons Ratio (y) = 0.16886 0.18005
# Poissons Ratio (z) = 0.36732 0.25598
#
# Static dielectric constant tensor:
#      x y z
#    x 2.026430 -0.036760 0.011720 
#    y -0.036760 1.929860 -0.020550 
#    z 0.011720 -0.020550 2.006800 
# 
# From -- ./inp_files/34177.got.cif
#   From: 2010.05.17/outbox.cif.g08.bks.cpg/sg2_18_cif.got.tgz:34177.got - 2010.06.03 11:33:40.
