data_PCOD9047304
_publ_section_title
;
Structure prediction by ZEFSAII (Michael W. Deem and Ramdas Pophale) SiO2 
 PCOD9047304
Probable space group: P -1
;
_chemical_formula_sum "Si O2"
_cell_formula_units_Z 16
_cell_length_a 12.134004
_cell_length_b 8.230601
_cell_length_c 11.058923
_cell_angle_alpha 118.432161
_cell_angle_beta 127.498183
_cell_angle_gamma 89.172569
_cell_volume 707.985040
_symmetry_space_group_name_H-M "P -1"
_symmetry_group_IT_number 2
_symmetry_cell_setting 'triclinic'
loop_
_space_group_symop_operation_xyz
x,y,z
-x,-y,-z
loop_
_atom_site_type_symbol
_atom_site_label
_atom_site_fract_x
_atom_site_fract_y
_atom_site_fract_z
Si Si1 0.902369 0.296815 0.614781
Si Si2 0.175827 0.108565 0.453126
Si Si3 0.611664 0.725948 0.122176
Si Si4 0.782041 0.566856 0.032578
Si Si5 0.233761 0.052357 0.215636
Si Si6 0.360641 0.840344 0.070705
Si Si7 0.093802 0.741090 0.661255
Si Si8 0.919315 0.676757 0.901511
O O1 0.838287 0.206925 0.410005
O O2 0.881030 0.493415 0.716801
O O3 0.082758 0.365041 0.755694
O O4 0.854675 0.121204 0.618488
O O5 0.269696 0.220082 0.670382
O O6 0.023965 0.152800 0.354544
O O7 0.265740 0.154222 0.404115
O O8 0.693300 0.711648 0.046986
O O9 0.500000 0.500000 0.000000
O O10 0.510247 0.855258 0.106461
O O11 0.677438 0.342718 0.923421
O O12 0.861742 0.587218 0.963779
O O13 0.168709 0.183944 0.140027
O O14 0.367781 0.025016 0.223819
O O15 0.095271 0.830939 0.061920
O O16 0.221733 0.793263 0.867348
O O17 0.000000 0.500000 0.500000
#
# Coordination Sequence:
#
# PCOD9047304 Si02
#       8
#     2   2   2   2   2   2   2   2
#     4  12  22  37  64  99 130 159 213 270 319 367
#     4  12  24  39  67  96 126 165 216 268 314 372
#     4  10  24  44  64  90 128 176 209 251 319 391
#     4  11  20  40  65  92 128 169 209 260 317 378
#     4  11  22  38  63  96 130 165 213 263 322 373
#     4  11  23  41  65  92 131 173 210 253 322 383
#     4  12  21  38  63  95 128 161 213 269 310 366
#     4  11  22  38  63 100 132 163 206 275 323 365
#
# _framework density 22.599346000000001
#
# number of rings (size 3 to 8) (size 9 to 14) (size 15 to 20)
#    0.000    0.750    5.000    4.500    0.000    0.500 
#    0.000    2.500    0.000    4.500    0.000    0.000 
#    0.000    0.000    0.000    0.000    0.000    0.000 
#
# Total GULP energy -89414.008940 kJ/mol
# GULP energy per Si atom -5588.375559 kJ/mol
# Density = 2.254791 g / cm^3
# Si number density = 22.599346 Si / 1000 Ang^3
#
#
#
# Elastic Constant Matrix: (Units=GPa)
#
#
# Indices 1 2 3 4 5 6 
#
# 1 124.6062 38.9577 29.6998 -9.4772 -23.2172 -44.7295
# 2 38.9577 87.1266 14.1778 -7.1224 -6.5269 -15.8145
# 3 29.6998 14.1778 50.1942 -6.3375 -20.6847 -9.6156
# 4 -9.4772 -7.1224 -6.3375 28.7894 2.0537 -2.2747
# 5 -23.2172 -6.5269 -20.6847 2.0537 35.1936 1.5173
# 6 -44.7295 -15.8145 -9.6156 -2.2747 1.5173 42.3415
#
#
#
# Elastic Compliance Matrix: (Units=1/GPa)
#
#
# Indices 1 2 3 4 5 6 
#
# 1 0.017684 -0.003427 -0.001942 0.005252 0.008853 0.016926
# 2 -0.003427 0.013605 -0.001701 0.002024 -0.000908 0.001217
# 3 -0.001942 -0.001701 0.029012 0.004539 0.015034 0.003607
# 4 0.005252 0.002024 0.004539 0.038420 0.003867 0.009261
# 5 0.008853 -0.000908 0.015034 0.003867 0.042218 0.011123
# 6 0.016926 0.001217 0.003607 0.009261 0.011123 0.042870
#
#
# Mechanical properties :
#
#
# Convention : Reuss Voigt Hill
#
# Bulk Modulus (GPa) = 21.66265 47.51084 34.58674
# Shear Modulus (GPa) = 23.43742 33.20435 28.32089
#
# Velocity S-wave (km/s) = 3.22387 3.83725 3.54386
# Velocity P-wave (km/s) = 4.84398 6.37977 5.66417
#
# Compressibility (1/GPa) = 0.04616241
#
# Stress axis : x y z
#
# Youngs Moduli (GPa) = 56.54746 73.50376 34.46885
#
# Poissons Ratio (x) = 0.25186 0.06694
# Poissons Ratio (y) = 0.19376 0.05862
# Poissons Ratio (z) = 0.10981 0.12500
#
# Static dielectric constant tensor:
#      x y z
#    x 1.880890 0.050730 -0.003240 
#    y 0.050730 2.010740 0.022870 
#    z -0.003240 0.022870 1.842330 
# 
# From -- ./inp_files/419822.got.cif
#   From: 2010.05.17/outbox.cif.g08.bks.cpg/sg2_210_cif.got.tgz:419822.got - 2010.06.03 11:33:40.
