data_PCOD9047045
_publ_section_title
;
Structure prediction by ZEFSAII (Michael W. Deem and Ramdas Pophale) SiO2 
 PCOD9047045
Probable space group: P -1
;
_chemical_formula_sum "Si O2"
_cell_formula_units_Z 16
_cell_length_a 14.335370
_cell_length_b 13.540763
_cell_length_c 5.073495
_cell_angle_alpha 90.207239
_cell_angle_beta 79.312885
_cell_angle_gamma 140.494559
_cell_volume 600.114075
_symmetry_space_group_name_H-M "P -1"
_symmetry_group_IT_number 2
_symmetry_cell_setting 'triclinic'
loop_
_space_group_symop_operation_xyz
x,y,z
-x,-y,-z
loop_
_atom_site_type_symbol
_atom_site_label
_atom_site_fract_x
_atom_site_fract_y
_atom_site_fract_z
Si Si1 0.228921 0.778513 0.142038
Si Si2 0.682128 0.978684 0.556017
Si Si3 0.583547 0.231986 0.674323
Si Si4 0.513922 0.671981 0.891261
Si Si5 0.195653 0.179776 0.081454
Si Si6 0.788003 0.525409 0.196099
Si Si7 0.942540 0.310243 0.281024
Si Si8 0.942222 0.833013 0.345978
O O1 0.345007 0.788347 0.164333
O O2 0.090312 0.665157 0.425616
O O3 0.307518 0.947227 0.183279
O O4 0.155231 0.715380 0.895062
O O5 0.555222 0.923228 0.430643
O O6 0.851388 0.130795 0.351322
O O7 0.618537 0.818263 0.631071
O O8 0.526813 0.281521 0.863151
O O9 0.710882 0.377734 0.407356
O O10 0.625340 0.681695 0.951333
O O11 0.352006 0.520986 0.836215
O O12 0.112713 0.184033 0.334084
O O13 0.154936 0.179312 0.809346
O O14 0.113934 0.007753 0.189716
O O15 0.902563 0.688280 0.301069
O O16 0.886689 0.563457 0.904463
#
# Coordination Sequence:
#
# PCOD9047045 Si02
#       8
#     2   2   2   2   2   2   2   2
#     4  10  24  43  70  99 138 189 245 284 340 399
#     4   9  23  41  69 102 133 192 232 295 330 412
#     4  11  25  43  66 104 146 186 233 286 352 412
#     4  11  26  44  70 106 146 185 225 290 353 416
#     4  10  25  47  75 104 135 177 233 281 348 413
#     4  11  28  45  68 106 145 183 230 288 356 413
#     4  10  25  43  69 100 130 196 234 295 331 405
#     4  10  25  47  75 105 134 178 228 291 337 426
#
# _framework density 26.661597
#
# number of rings (size 3 to 8) (size 9 to 14) (size 15 to 20)
#    0.750    1.000    0.000    1.125   14.000    5.000 
#    0.000    0.000    0.000    0.000    0.000    0.000 
#    0.000    0.000    0.000    0.000    0.000    0.000 
#
# Total GULP energy -89701.614919 kJ/mol
# GULP energy per Si atom -5606.350932 kJ/mol
# Density = 2.660091 g / cm^3
# Si number density = 26.661597 Si / 1000 Ang^3
#
#
#
# Elastic Constant Matrix: (Units=GPa)
#
#
# Indices 1 2 3 4 5 6 
#
# 1 110.7627 11.4423 12.2658 -5.2849 11.1540 31.6309
# 2 11.4423 122.2667 7.3298 -12.1292 -4.0110 18.1604
# 3 12.2658 7.3298 92.3750 -13.6917 1.1137 -1.4306
# 4 -5.2849 -12.1292 -13.6917 39.1011 5.8270 -8.6448
# 5 11.1540 -4.0110 1.1137 5.8270 33.4902 7.6172
# 6 31.6309 18.1604 -1.4306 -8.6448 7.6172 36.0366
#
#
#
# Elastic Compliance Matrix: (Units=1/GPa)
#
#
# Indices 1 2 3 4 5 6 
#
# 1 0.012506 0.000473 -0.002034 -0.001189 -0.001260 -0.011315
# 2 0.000473 0.009127 -0.000709 0.001221 0.001919 -0.005155
# 3 -0.002034 -0.000709 0.011951 0.004835 -0.001581 0.004111
# 4 -0.001189 0.001221 0.004835 0.030638 -0.007104 0.009472
# 5 -0.001260 0.001919 -0.001581 -0.007104 0.033793 -0.008771
# 6 -0.011315 -0.005155 0.004111 0.009472 -0.008771 0.044569
#
#
# Mechanical properties :
#
#
# Convention : Reuss Voigt Hill
#
# Bulk Modulus (GPa) = 34.43140 43.05336 38.74238
# Shear Modulus (GPa) = 31.88653 41.35000 36.61826
#
# Velocity S-wave (km/s) = 3.46203 3.94244 3.71002
# Velocity P-wave (km/s) = 5.37803 6.07511 5.73717
#
# Compressibility (1/GPa) = 0.02904326
#
# Stress axis : x y z
#
# Youngs Moduli (GPa) = 79.96003 109.56585 83.67409
#
# Poissons Ratio (x) = -0.05181 0.17023
# Poissons Ratio (y) = -0.03781 0.05933
# Poissons Ratio (z) = 0.16267 0.07768
#
# Static dielectric constant tensor:
#      x y z
#    x 2.078510 -0.020600 0.049580 
#    y -0.020600 2.090710 -0.032930 
#    z 0.049580 -0.032930 2.062930 
# 
# From -- ./inp_files/97078.got.cif
#   From: 2010.05.17/outbox.cif.g08.bks.cpg/sg2_49_cif.got.tgz:97078.got - 2010.06.03 11:33:40.
