data_PCOD9047448
_publ_section_title
;
Structure prediction by ZEFSAII (Michael W. Deem and Ramdas Pophale) SiO2 
 PCOD9047448
Probable space group: P -1
;
_chemical_formula_sum "Si O2"
_cell_formula_units_Z 16
_cell_length_a 14.790037
_cell_length_b 5.184959
_cell_length_c 10.725305
_cell_angle_alpha 89.070324
_cell_angle_beta 76.468358
_cell_angle_gamma 52.697642
_cell_volume 627.636763
_symmetry_space_group_name_H-M "P -1"
_symmetry_group_IT_number 2
_symmetry_cell_setting 'triclinic'
loop_
_space_group_symop_operation_xyz
x,y,z
-x,-y,-z
loop_
_atom_site_type_symbol
_atom_site_label
_atom_site_fract_x
_atom_site_fract_y
_atom_site_fract_z
Si Si1 0.909369 0.796124 0.775034
Si Si2 0.621930 0.243930 0.532677
Si Si3 0.291681 0.416089 0.788300
Si Si4 0.655145 0.066401 0.853698
Si Si5 0.594009 0.269117 0.153408
Si Si6 0.096611 0.702957 0.059013
Si Si7 0.162480 0.430224 0.589472
Si Si8 0.318203 0.354478 0.342827
O O1 0.929511 0.534403 0.873901
O O2 0.026034 0.600559 0.654219
O O3 0.780048 0.954830 0.760145
O O4 0.894010 0.105834 0.835289
O O5 0.500000 0.500000 0.500000
O O6 0.642218 0.448971 0.613685
O O7 0.749179 0.968532 0.429558
O O8 0.607060 0.999061 0.610350
O O9 0.343579 0.609633 0.791389
O O10 0.215642 0.509145 0.686234
O O11 0.390993 0.021701 0.772611
O O12 0.207781 0.507908 0.932975
O O13 0.535536 0.407044 0.844433
O O14 0.660139 0.759181 0.807374
O O15 0.655164 0.117033 0.000323
O O16 0.000000 0.000000 0.000000
O O17 0.189482 0.517124 0.446315
#
# Coordination Sequence:
#
# PCOD9047448 Si02
#       8
#     2   2   2   2   2   2   2   2
#     4  12  26  44  68 103 141 184 232 281 343 419
#     4  10  24  44  67 102 134 176 232 284 351 396
#     4  12  24  43  72 104 140 169 235 296 351 409
#     4  11  26  49  69  97 149 184 237 275 337 427
#     4  11  28  43  71 107 133 189 227 286 351 408
#     4  12  24  42  68 105 141 181 224 290 358 402
#     4  10  28  41  74 103 139 176 236 286 356 402
#     4  10  26  43  68 100 135 186 226 280 342 408
#
# _framework density 25.492452
#
# number of rings (size 3 to 8) (size 9 to 14) (size 15 to 20)
#    0.750    0.250    3.750    0.750    8.750    5.500 
#    0.000    0.625    0.000    0.000    0.000    0.000 
#    0.000    0.000    0.000    0.000    0.000    0.000 
#
# Total GULP energy -89482.155009 kJ/mol
# GULP energy per Si atom -5592.634688 kJ/mol
# Density = 2.543443 g / cm^3
# Si number density = 25.492452 Si / 1000 Ang^3
#
#
#
# Elastic Constant Matrix: (Units=GPa)
#
#
# Indices 1 2 3 4 5 6 
#
# 1 124.1320 57.9905 52.9274 27.3736 5.4774 -0.6204
# 2 57.9905 141.6751 37.7605 16.1189 -0.6863 -3.7911
# 3 52.9274 37.7605 112.4537 44.2769 -16.3057 11.7354
# 4 27.3736 16.1189 44.2769 47.1469 5.1366 -3.8663
# 5 5.4774 -0.6863 -16.3057 5.1366 40.6088 14.8894
# 6 -0.6204 -3.7911 11.7354 -3.8663 14.8894 55.5251
#
#
#
# Elastic Compliance Matrix: (Units=1/GPa)
#
#
# Indices 1 2 3 4 5 6 
#
# 1 0.012285 -0.003511 -0.005540 -0.000013 -0.004803 0.002356
# 2 -0.003511 0.008943 -0.002022 0.001072 -0.000795 0.001286
# 3 -0.005540 -0.002022 0.024717 -0.022200 0.017746 -0.011729
# 4 -0.000013 0.001072 -0.022200 0.044883 -0.019369 0.013084
# 5 -0.004803 -0.000795 0.017746 -0.019369 0.040751 -0.016135
# 6 0.002356 0.001286 -0.011729 0.013084 -0.016135 0.025841
#
#
# Mechanical properties :
#
#
# Convention : Reuss Voigt Hill
#
# Bulk Modulus (GPa) = 42.01914 75.06863 58.54389
# Shear Modulus (GPa) = 26.66688 43.96165 35.31426
#
# Velocity S-wave (km/s) = 3.23781 4.15721 3.72598
# Velocity P-wave (km/s) = 5.52238 7.24945 6.44403
#
# Compressibility (1/GPa) = 0.02379868
#
# Stress axis : x y z
#
# Youngs Moduli (GPa) = 81.40151 111.82031 40.45771
#
# Poissons Ratio (x) = 0.39255 0.22415
# Poissons Ratio (y) = 0.28576 0.08181
# Poissons Ratio (z) = 0.45100 0.22612
#
# Static dielectric constant tensor:
#      x y z
#    x 2.049940 0.011120 0.005530 
#    y 0.011120 2.020400 -0.002380 
#    z 0.005530 -0.002380 2.111830 
# 
# From -- ./inp_files/442071.got.cif
#   From: 2010.05.17/outbox.cif.g08.bks.cpg/sg2_222_cif.got.tgz:442071.got - 2010.06.03 11:33:40.
