data_PCOD9047357
_publ_section_title
;
Structure prediction by ZEFSAII (Michael W. Deem and Ramdas Pophale) SiO2 
 PCOD9047357
Probable space group: P -1
;
_chemical_formula_sum "Si O2"
_cell_formula_units_Z 16
_cell_length_a 17.108223
_cell_length_b 12.861779
_cell_length_c 8.420844
_cell_angle_alpha 60.728007
_cell_angle_beta 29.162697
_cell_angle_gamma 54.915431
_cell_volume 738.474182
_symmetry_space_group_name_H-M "P -1"
_symmetry_group_IT_number 2
_symmetry_cell_setting 'triclinic'
loop_
_space_group_symop_operation_xyz
x,y,z
-x,-y,-z
loop_
_atom_site_type_symbol
_atom_site_label
_atom_site_fract_x
_atom_site_fract_y
_atom_site_fract_z
Si Si1 0.332230 0.680620 0.908967
Si Si2 0.751711 0.795743 0.195742
Si Si3 0.299262 0.413289 0.791310
Si Si4 0.751423 0.562215 0.772241
Si Si5 0.835522 0.993114 0.699546
Si Si6 0.033596 0.873122 0.136105
Si Si7 0.021322 0.665657 0.057994
Si Si8 0.537157 0.243778 0.056644
O O1 0.498205 0.619388 0.551831
O O2 0.397084 0.695029 0.958171
O O3 0.229077 0.584382 0.167836
O O4 0.217253 0.815126 0.939851
O O5 0.741021 0.689414 0.170557
O O6 0.934191 0.742121 0.999948
O O7 0.602936 0.810625 0.577462
O O8 0.739514 0.923785 0.033722
O O9 0.240877 0.407987 0.078758
O O10 0.201929 0.555465 0.794245
O O11 0.895411 0.593388 0.395192
O O12 0.569029 0.650845 0.958418
O O13 0.900389 0.909071 0.490334
O O14 0.000000 0.000000 0.500000
O O15 0.702098 0.130708 0.786597
O O16 0.024570 0.764707 0.113558
O O17 0.000000 0.000000 0.000000
#
# Coordination Sequence:
#
# PCOD9047357 Si02
#       8
#     2   2   2   2   2   2   2   2
#     4  11  24  43  65  98 134 172 214 274 322 388
#     4  10  24  44  66  99 133 169 220 269 330 391
#     4  11  23  41  68  96 131 172 215 269 333 380
#     4  11  23  41  68  99 134 165 222 269 329 384
#     4  12  24  43  69  94 130 182 219 266 325 387
#     4  12  27  44  66  99 136 169 225 267 323 389
#     4  11  24  43  68  98 132 172 213 276 324 390
#     4  10  24  44  65  98 133 173 217 270 326 389
#
# _framework density 21.666298000000001
#
# number of rings (size 3 to 8) (size 9 to 14) (size 15 to 20)
#    0.000    1.000    2.500    3.375    3.500    1.000 
#    2.250    3.125    0.000    0.000    0.000    0.000 
#    0.000    0.000    0.000    0.000    0.000    0.000 
#
# Total GULP energy -89558.650223 kJ/mol
# GULP energy per Si atom -5597.415639 kJ/mol
# Density = 2.161698 g / cm^3
# Si number density = 21.666298 Si / 1000 Ang^3
#
#
#
# Elastic Constant Matrix: (Units=GPa)
#
#
# Indices 1 2 3 4 5 6 
#
# 1 81.9100 14.5373 -13.1110 6.1619 -12.1332 -18.2165
# 2 14.5373 86.6802 9.8274 14.4794 -16.7390 -15.4074
# 3 -13.1110 9.8274 39.4861 15.0471 -9.9007 -5.3905
# 4 6.1619 14.4794 15.0471 35.9395 -6.5736 -9.4761
# 5 -12.1332 -16.7390 -9.9007 -6.5736 17.3732 4.5068
# 6 -18.2165 -15.4074 -5.3905 -9.4761 4.5068 41.4579
#
#
#
# Elastic Compliance Matrix: (Units=1/GPa)
#
#
# Indices 1 2 3 4 5 6 
#
# 1 0.018708 0.000782 0.012921 -0.003715 0.017857 0.007401
# 2 0.000782 0.015145 0.001804 -0.003424 0.013854 0.003918
# 3 0.012921 0.001804 0.042334 -0.014051 0.028122 0.005583
# 4 -0.003715 -0.003424 -0.014051 0.036514 -0.001051 0.003729
# 5 0.017857 0.013854 0.028122 -0.001051 0.097500 0.005812
# 6 0.007401 0.003918 0.005583 0.003729 0.005812 0.029775
#
#
# Mechanical properties :
#
#
# Convention : Reuss Voigt Hill
#
# Bulk Modulus (GPa) = 9.32840 25.62040 17.47440
# Shear Modulus (GPa) = 20.43337 32.07563 26.25450
#
# Velocity S-wave (km/s) = 3.07432 3.85182 3.48482
# Velocity P-wave (km/s) = 4.11300 5.62430 4.92694
#
# Compressibility (1/GPa) = 0.10719956
#
# Stress axis : x y z
#
# Youngs Moduli (GPa) = 53.45217 66.02969 23.62141
#
# Poissons Ratio (x) = -0.05163 -0.30520
# Poissons Ratio (y) = -0.04179 -0.04260
# Poissons Ratio (z) = -0.69063 -0.11909
#
# Static dielectric constant tensor:
#      x y z
#    x 1.771010 -0.007130 -0.019450 
#    y -0.007130 1.759290 0.005230 
#    z -0.019450 0.005230 1.795010 
# 
# From -- ./inp_files/206859.got.cif
#   From: 2010.05.17/outbox.cif.g08.bks.cpg/sg2_104_cif.got.tgz:206859.got - 2010.06.03 11:33:40.
