data_PCOD9047083
_publ_section_title
;
Structure prediction by ZEFSAII (Michael W. Deem and Ramdas Pophale) SiO2 
 PCOD9047083
Probable space group: P -1
;
_chemical_formula_sum "Si O2"
_cell_formula_units_Z 16
_cell_length_a 9.629170
_cell_length_b 10.335242
_cell_length_c 12.287333
_cell_angle_alpha 126.566857
_cell_angle_beta 39.190666
_cell_angle_gamma 112.115485
_cell_volume 611.791289
_symmetry_space_group_name_H-M "P -1"
_symmetry_group_IT_number 2
_symmetry_cell_setting 'triclinic'
loop_
_space_group_symop_operation_xyz
x,y,z
-x,-y,-z
loop_
_atom_site_type_symbol
_atom_site_label
_atom_site_fract_x
_atom_site_fract_y
_atom_site_fract_z
Si Si1 0.410770 0.817047 0.778300
Si Si2 0.169168 0.326903 0.420663
Si Si3 0.609924 0.751467 0.219621
Si Si4 0.324544 0.657945 0.528183
Si Si5 0.130743 0.882549 0.274452
Si Si6 0.358783 0.199908 0.012156
Si Si7 0.023523 0.686747 0.075922
Si Si8 0.135529 0.865774 0.574840
O O1 0.649332 0.796504 0.683161
O O2 0.425440 0.720995 0.606653
O O3 0.325903 0.011258 0.915829
O O4 0.252105 0.720908 0.899446
O O5 0.205632 0.501837 0.528822
O O6 0.921888 0.281572 0.541847
O O7 0.237848 0.296212 0.236627
O O8 0.501441 0.632159 0.307232
O O9 0.679146 0.705407 0.031911
O O10 0.822022 0.784183 0.174678
O O11 0.388303 0.891963 0.410134
O O12 0.149465 0.808796 0.662082
O O13 0.382164 0.824824 0.122422
O O14 0.017102 0.733340 0.230481
O O15 0.000000 0.000000 0.500000
O O16 0.066269 0.993594 0.261255
O O17 0.000000 0.500000 0.000000
#
# Coordination Sequence:
#
# PCOD9047083 Si02
#       8
#     2   2   2   2   2   2   2   2
#     4  12  26  46  76 107 143 194 239 302 362 427
#     4  12  23  47  72 107 144 188 251 300 361 425
#     4  10  27  46  71 107 148 194 238 298 363 430
#     4  10  26  46  70 109 146 192 240 293 371 426
#     4  12  24  46  75 107 145 195 245 295 359 430
#     4  12  26  47  76 109 143 192 249 302 352 431
#     4  12  29  51  72 109 152 187 243 299 369 435
#     4  10  24  43  71 107 142 190 244 296 354 427
#
# _framework density 26.152711
#
# number of rings (size 3 to 8) (size 9 to 14) (size 15 to 20)
#    0.750    0.000    3.750    2.625    5.250    3.000 
#    2.250    0.000    0.000    0.000    0.000    0.000 
#    0.000    0.000    0.000    0.000    0.000    0.000 
#
# Total GULP energy -89427.635017 kJ/mol
# GULP energy per Si atom -5589.227189 kJ/mol
# Density = 2.609319 g / cm^3
# Si number density = 26.152711 Si / 1000 Ang^3
#
#
#
# Elastic Constant Matrix: (Units=GPa)
#
#
# Indices 1 2 3 4 5 6 
#
# 1 174.4788 23.8014 46.0935 -12.8917 15.0529 20.2204
# 2 23.8014 78.8135 29.6495 0.5991 11.8079 14.8911
# 3 46.0935 29.6495 80.2647 -4.2706 20.7397 10.2198
# 4 -12.8917 0.5991 -4.2706 33.8783 11.0235 5.5305
# 5 15.0529 11.8079 20.7397 11.0235 51.1618 -0.2690
# 6 20.2204 14.8911 10.2198 5.5305 -0.2690 40.0749
#
#
#
# Elastic Compliance Matrix: (Units=1/GPa)
#
#
# Indices 1 2 3 4 5 6 
#
# 1 0.007370 -0.000202 -0.003128 0.003486 -0.001623 -0.003338
# 2 -0.000202 0.015606 -0.004577 0.000406 -0.001799 -0.004598
# 3 -0.003128 -0.004577 0.017914 0.003404 -0.006028 -0.001799
# 4 0.003486 0.000406 0.003404 0.035881 -0.010272 -0.007799
# 5 -0.001623 -0.001799 -0.006028 -0.010272 0.025119 0.004610
# 6 -0.003338 -0.004598 -0.001799 -0.007799 0.004610 0.029912
#
#
# Mechanical properties :
#
#
# Convention : Reuss Voigt Hill
#
# Bulk Modulus (GPa) = 39.87891 59.18288 49.53090
# Shear Modulus (GPa) = 32.05653 40.62385 36.34019
#
# Velocity S-wave (km/s) = 3.50486 3.94551 3.73169
# Velocity P-wave (km/s) = 5.62675 6.59052 6.12761
#
# Compressibility (1/GPa) = 0.02507591
#
# Stress axis : x y z
#
# Youngs Moduli (GPa) = 135.69253 64.07714 55.82335
#
# Poissons Ratio (x) = 0.01292 0.17461
# Poissons Ratio (y) = 0.02736 0.25552
# Poissons Ratio (z) = 0.42443 0.29330
#
# Static dielectric constant tensor:
#      x y z
#    x 2.068340 -0.021060 -0.022720 
#    y -0.021060 2.227850 -0.008790 
#    z -0.022720 -0.008790 2.145400 
# 
# From -- ./inp_files/392962.got.cif
#   From: 2010.05.17/outbox.cif.g08.bks.cpg/sg2_197_cif.got.tgz:392962.got - 2010.06.03 11:33:40.
