data_PCOD9047141
_publ_section_title
;
Structure prediction by ZEFSAII (Michael W. Deem and Ramdas Pophale) SiO2 
 PCOD9047141
Probable space group: P -1
;
_chemical_formula_sum "Si O2"
_cell_formula_units_Z 14
_cell_length_a 9.601499
_cell_length_b 12.555178
_cell_length_c 9.911043
_cell_angle_alpha 144.911328
_cell_angle_beta 83.565260
_cell_angle_gamma 82.670179
_cell_volume 630.183040
_symmetry_space_group_name_H-M "P -1"
_symmetry_group_IT_number 2
_symmetry_cell_setting 'triclinic'
loop_
_space_group_symop_operation_xyz
x,y,z
-x,-y,-z
loop_
_atom_site_type_symbol
_atom_site_label
_atom_site_fract_x
_atom_site_fract_y
_atom_site_fract_z
Si Si1 0.339568 0.979267 0.480567
Si Si2 0.894877 0.582933 0.969513
Si Si3 0.904878 0.442674 0.337549
Si Si4 0.659146 0.831359 0.857859
Si Si5 0.454864 0.738798 0.970971
Si Si6 0.324622 0.637489 0.326247
Si Si7 0.245615 0.820668 0.823322
O O1 0.331513 0.808762 0.404748
O O2 0.500000 0.000000 0.500000
O O3 0.211666 0.189384 0.750243
O O4 0.339358 0.914206 0.256688
O O5 0.792889 0.454882 0.813128
O O6 0.000000 0.500000 0.000000
O O7 0.006836 0.570889 0.822498
O O8 0.738916 0.626746 0.553872
O O9 0.887672 0.235563 0.159760
O O10 0.000000 0.500000 0.500000
O O11 0.607737 0.774896 0.949198
O O12 0.500000 0.000000 0.000000
O O13 0.769086 0.952350 0.962469
O O14 0.512500 0.542918 0.854983
O O15 0.377550 0.726272 0.824753
O O16 0.281911 0.720061 0.568478
#
# Coordination Sequence:
#
# PCOD9047141 Si02
#       7
#     2   2   2   2   2   2   2
#     4  12  28  49  77 105 151 193 247 299 363 441
#     4  12  31  51  72 106 153 200 240 297 367 442
#     4  12  26  49  70 105 149 187 244 296 362 432
#     4  10  24  43  72 110 140 181 243 297 356 424
#     4  11  23  47  76 116 141 187 248 307 365 426
#     4  12  25  48  74 110 146 191 245 305 366 425
#     4  11  25  42  78 107 147 185 240 307 364 422
#
# _framework density 22.215767
#
# number of rings (size 3 to 8) (size 9 to 14) (size 15 to 20)
#    0.000    0.571    4.286    1.714   10.000    2.286 
#    0.000    0.000    0.000    0.000    0.000    0.000 
#    0.000    0.000    0.000    0.000    0.000    0.000 
#
# Total GULP energy -78296.639200 kJ/mol
# GULP energy per Si atom -5592.617086 kJ/mol
# Density = 2.216520 g / cm^3
# Si number density = 22.215767 Si / 1000 Ang^3
#
#
#
# Elastic Constant Matrix: (Units=GPa)
#
#
# Indices 1 2 3 4 5 6 
#
# 1 107.7010 84.0080 50.3992 -0.2492 9.2366 16.8738
# 2 84.0080 161.0229 90.9601 -2.3280 3.4502 24.5356
# 3 50.3992 90.9601 156.1054 -11.1384 -13.3466 11.0859
# 4 -0.2492 -2.3280 -11.1384 44.6195 5.3284 2.3582
# 5 9.2366 3.4502 -13.3466 5.3284 46.8155 4.4281
# 6 16.8738 24.5356 11.0859 2.3582 4.4281 47.0804
#
#
#
# Elastic Compliance Matrix: (Units=1/GPa)
#
#
# Indices 1 2 3 4 5 6 
#
# 1 0.016101 -0.007635 -0.000899 -0.000137 -0.002730 -0.001316
# 2 -0.007635 0.013721 -0.005404 -0.000430 -0.000708 -0.003053
# 3 -0.000899 -0.005404 0.010232 0.001862 0.003250 0.000330
# 4 -0.000137 -0.000430 0.001862 0.023145 -0.001937 -0.001142
# 5 -0.002730 -0.000708 0.003250 -0.001937 0.023241 -0.001507
# 6 -0.001316 -0.003053 0.000330 -0.001142 -0.001507 0.023424
#
#
# Mechanical properties :
#
#
# Convention : Reuss Voigt Hill
#
# Bulk Modulus (GPa) = 82.12011 97.28489 89.70250
# Shear Modulus (GPa) = 35.26077 41.00055 38.13066
#
# Velocity S-wave (km/s) = 3.98828 4.30066 4.14741
# Velocity P-wave (km/s) = 7.63240 8.27930 7.96243
#
# Compressibility (1/GPa) = 0.01217729
#
# Stress axis : x y z
#
# Youngs Moduli (GPa) = 62.10616 72.88287 97.72977
#
# Poissons Ratio (x) = 0.55649 0.08788
# Poissons Ratio (y) = 0.47420 0.52814
# Poissons Ratio (z) = 0.05584 0.39386
#
# Static dielectric constant tensor:
#      x y z
#    x 1.881640 -0.014760 0.016540 
#    y -0.014760 1.813580 0.023820 
#    z 0.016540 0.023820 1.819170 
# 
# From -- ./inp_files/260931.got.cif
#   From: 2010.05.17/outbox.cif.g08.bks.cpg/sg2_131_cif.got.tgz:260931.got - 2010.06.03 11:33:40.
