data_PCOD9047568
_publ_section_title
;
Structure prediction by ZEFSAII (Michael W. Deem and Ramdas Pophale) SiO2 
 PCOD9047568
Probable space group: P -1
;
_chemical_formula_sum "Si O2"
_cell_formula_units_Z 14
_cell_length_a 6.543865
_cell_length_b 8.645682
_cell_length_c 15.579781
_cell_angle_alpha 76.862173
_cell_angle_beta 74.862171
_cell_angle_gamma 49.456537
_cell_volume 644.585996
_symmetry_space_group_name_H-M "P -1"
_symmetry_group_IT_number 2
_symmetry_cell_setting 'triclinic'
loop_
_space_group_symop_operation_xyz
x,y,z
-x,-y,-z
loop_
_atom_site_type_symbol
_atom_site_label
_atom_site_fract_x
_atom_site_fract_y
_atom_site_fract_z
Si Si1 0.117489 0.806778 0.949805
Si Si2 0.759736 0.476980 0.894584
Si Si3 0.067389 0.414121 0.295489
Si Si4 0.465139 0.677266 0.350561
Si Si5 0.416520 0.022351 0.651830
Si Si6 0.034112 0.647951 0.428607
Si Si7 0.916899 0.117693 0.797982
O O1 0.444717 0.665253 0.922722
O O2 0.084608 0.651553 0.019574
O O3 0.974470 0.920675 0.861760
O O4 0.000000 0.000000 0.000000
O O5 0.881553 0.556316 0.811271
O O6 0.786572 0.304726 0.855228
O O7 0.072101 0.569060 0.335978
O O8 0.771339 0.474760 0.325274
O O9 0.304958 0.200313 0.338288
O O10 0.507121 0.828996 0.367630
O O11 0.292080 0.630135 0.427248
O O12 0.289416 0.794284 0.269643
O O13 0.227926 0.113258 0.575896
O O14 0.212661 0.042897 0.743418
O O15 0.000000 0.500000 0.500000
#
# Coordination Sequence:
#
# PCOD9047568 Si02
#       7
#     2   2   2   2   2   2   2
#     4   9  19  30  58  84 114 156 195 239 285 331
#     4  10  17  34  57  84 113 155 198 236 284 334
#     4  11  21  37  61  87 118 153 194 239 286 343
#     4  10  21  37  59  88 115 151 192 235 291 341
#     4  10  21  36  60  88 116 150 190 239 289 342
#     4  10  23  43  62  85 118 150 189 237 290 351
#     4  10  18  36  58  82 115 155 196 234 286 336
#
# _framework density 21.719367999999999
#
# number of rings (size 3 to 8) (size 9 to 14) (size 15 to 20)
#    0.000    2.000    5.714    0.000    0.000    6.286 
#    0.000    2.143    0.000    5.143    0.000    0.000 
#    0.000    0.000    0.000    0.000    0.000    0.000 
#
# Total GULP energy -77995.433801 kJ/mol
# GULP energy per Si atom -5571.102414 kJ/mol
# Density = 2.166993 g / cm^3
# Si number density = 21.719368 Si / 1000 Ang^3
#
#
#
# Elastic Constant Matrix: (Units=GPa)
#
#
# Indices 1 2 3 4 5 6 
#
# 1 92.9434 31.8212 20.5544 -4.5138 -16.5602 -25.7769
# 2 31.8212 131.1564 31.5332 -25.2355 -10.1801 -43.0709
# 3 20.5544 31.5332 90.4796 -31.5761 -16.0892 -13.5821
# 4 -4.5138 -25.2355 -31.5761 39.5711 -3.3657 4.6965
# 5 -16.5602 -10.1801 -16.0892 -3.3657 21.7163 -1.5847
# 6 -25.7769 -43.0709 -13.5821 4.6965 -1.5847 31.7205
#
#
#
# Elastic Compliance Matrix: (Units=1/GPa)
#
#
# Indices 1 2 3 4 5 6 
#
# 1 0.020004 0.006845 0.005205 0.009719 0.025842 0.027630
# 2 0.006845 0.022177 0.007795 0.018989 0.027074 0.037553
# 3 0.005205 0.007795 0.025384 0.025767 0.032136 0.023472
# 4 0.009719 0.018989 0.025767 0.058513 0.047275 0.038414
# 5 0.025842 0.027074 0.032136 0.047275 0.114708 0.070252
# 6 0.027630 0.037553 0.023472 0.038414 0.070252 0.112842
#
#
# Mechanical properties :
#
#
# Convention : Reuss Voigt Hill
#
# Bulk Modulus (GPa) = 9.32373 53.59965 31.46169
# Shear Modulus (GPa) = 14.29833 33.97963 24.13898
#
# Velocity S-wave (km/s) = 2.56856 3.95965 3.33739
# Velocity P-wave (km/s) = 3.61923 6.75551 5.41921
#
# Compressibility (1/GPa) = 0.10725323
#
# Stress axis : x y z
#
# Youngs Moduli (GPa) = 49.98960 45.09117 39.39553
#
# Poissons Ratio (x) = -0.30863 -0.20505
# Poissons Ratio (y) = -0.34216 -0.30708
# Poissons Ratio (z) = -0.26018 -0.35147
#
# Static dielectric constant tensor:
#      x y z
#    x 1.751570 -0.018030 -0.000470 
#    y -0.018030 1.863970 -0.001420 
#    z -0.000470 -0.001420 1.918730 
# 
# From -- ./inp_files/43956.got.cif
#   From: 2010.05.17/outbox.cif.g08.bks.cpg/sg2_22_cif.got.tgz:43956.got - 2010.06.03 11:33:40.
