data_PCOD9047427
_publ_section_title
;
Structure prediction by ZEFSAII (Michael W. Deem and Ramdas Pophale) SiO2 
 PCOD9047427
Probable space group: P -1
;
_chemical_formula_sum "Si O2"
_cell_formula_units_Z 16
_cell_length_a 21.795812
_cell_length_b 9.662840
_cell_length_c 5.396683
_cell_angle_alpha 128.459271
_cell_angle_beta 70.290107
_cell_angle_gamma 125.856207
_cell_volume 720.687420
_symmetry_space_group_name_H-M "P -1"
_symmetry_group_IT_number 2
_symmetry_cell_setting 'triclinic'
loop_
_space_group_symop_operation_xyz
x,y,z
-x,-y,-z
loop_
_atom_site_type_symbol
_atom_site_label
_atom_site_fract_x
_atom_site_fract_y
_atom_site_fract_z
Si Si1 0.178139 0.595621 0.652986
Si Si2 0.712001 0.289471 0.970570
Si Si3 0.267926 0.018826 0.748905
Si Si4 0.048868 0.028136 0.715581
Si Si5 0.437864 0.263017 0.794084
Si Si6 0.440016 0.056909 0.047810
Si Si7 0.005760 0.401930 0.633897
Si Si8 0.217219 0.326811 0.955929
O O1 0.090199 0.443382 0.566440
O O2 0.205868 0.830464 0.792397
O O3 0.206112 0.626399 0.927485
O O4 0.215336 0.475564 0.337273
O O5 0.708580 0.122986 0.598545
O O6 0.642149 0.151617 0.089832
O O7 0.715853 0.496658 0.105732
O O8 0.351666 0.195627 0.920248
O O9 0.233304 0.148675 0.820541
O O10 0.133613 0.220198 0.825279
O O11 0.000000 0.000000 0.500000
O O12 0.058023 0.831823 0.511289
O O13 0.000000 0.000000 0.000000
O O14 0.437525 0.197111 0.433427
O O15 0.500000 0.500000 0.000000
O O16 0.459649 0.151838 0.853399
O O17 0.500000 0.000000 0.000000
O O18 0.000000 0.500000 0.500000
O O19 0.000000 0.500000 0.000000
#
# Coordination Sequence:
#
# PCOD9047427 Si02
#       8
#     2   2   2   2   2   2   2   2
#     4  11  23  45  67  94 138 175 228 286 336 414
#     4  10  24  44  66  99 138 178 226 284 338 407
#     4  10  24  44  67  99 139 176 230 278 346 408
#     4  12  25  46  66  98 137 171 230 289 337 406
#     4  11  24  45  70 105 141 178 226 287 335 406
#     4  11  24  45  72 101 140 184 227 277 342 408
#     4  12  27  44  71  97 132 182 227 282 350 403
#     4  11  25  42  69  99 131 187 225 286 347 408
#
# _framework density 22.201025999999999
#
# number of rings (size 3 to 8) (size 9 to 14) (size 15 to 20)
#    0.000    1.000    2.500    3.000    7.000    2.000 
#    0.000    0.000    0.000    0.000    0.000    0.000 
#    0.000    0.000    0.000    0.000    0.000    0.000 
#
# Total GULP energy -89123.016641 kJ/mol
# GULP energy per Si atom -5570.188540 kJ/mol
# Density = 2.215050 g / cm^3
# Si number density = 22.201026 Si / 1000 Ang^3
#
#
#
# Elastic Constant Matrix: (Units=GPa)
#
#
# Indices 1 2 3 4 5 6 
#
# 1 77.6253 19.0882 -2.3946 16.3858 14.5080 -6.9115
# 2 19.0882 148.8484 37.6910 37.3537 1.6543 -13.2393
# 3 -2.3946 37.6910 72.3683 18.6197 13.1093 -0.7053
# 4 16.3858 37.3537 18.6197 41.7851 -0.8322 6.9532
# 5 14.5080 1.6543 13.1093 -0.8322 32.4748 5.9566
# 6 -6.9115 -13.2393 -0.7053 6.9532 5.9566 39.3315
#
#
#
# Elastic Compliance Matrix: (Units=1/GPa)
#
#
# Indices 1 2 3 4 5 6 
#
# 1 0.018321 -0.000346 0.005841 -0.010877 -0.012081 0.006960
# 2 -0.000346 0.010031 -0.003018 -0.008284 -0.000224 0.004760
# 3 0.005841 -0.003018 0.020130 -0.009422 -0.011517 0.003781
# 4 -0.010877 -0.008284 -0.009422 0.042437 0.012797 -0.014309
# 5 -0.012081 -0.000224 -0.011517 0.012797 0.043236 -0.011215
# 6 0.006960 0.004760 0.003781 -0.014309 -0.011215 0.032546
#
#
# Mechanical properties :
#
#
# Convention : Reuss Voigt Hill
#
# Bulk Modulus (GPa) = 18.71301 45.29012 32.00156
# Shear Modulus (GPa) = 27.84593 39.01543 33.43068
#
# Velocity S-wave (km/s) = 3.54540 4.19665 3.88470
# Velocity P-wave (km/s) = 5.02066 6.62773 5.87936
#
# Compressibility (1/GPa) = 0.05343876
#
# Stress axis : x y z
#
# Youngs Moduli (GPa) = 54.58156 99.68649 49.67613
#
# Poissons Ratio (x) = 0.03444 -0.29016
# Poissons Ratio (y) = 0.01886 0.14991
# Poissons Ratio (z) = -0.31881 0.30082
#
# Static dielectric constant tensor:
#      x y z
#    x 1.846600 -0.004500 -0.021640 
#    y -0.004500 1.859800 -0.061380 
#    z -0.021640 -0.061380 1.813880 
# 
# From -- ./inp_files/48464.got.cif
#   From: 2010.05.17/outbox.cif.g08.bks.cpg/sg2_25_cif.got.tgz:48464.got - 2010.06.03 11:33:40.
