data_PCOD9047997
_publ_section_title
;
Structure prediction by ZEFSAII (Michael W. Deem and Ramdas Pophale) SiO2 
 PCOD9047997
Probable space group: P -1
;
_chemical_formula_sum "Si O2"
_cell_formula_units_Z 16
_cell_length_a 12.350856
_cell_length_b 11.682235
_cell_length_c 23.802330
_cell_angle_alpha 27.102066
_cell_angle_beta 23.587167
_cell_angle_gamma 38.443088
_cell_volume 615.976345
_symmetry_space_group_name_H-M "P -1"
_symmetry_group_IT_number 2
_symmetry_cell_setting 'triclinic'
loop_
_space_group_symop_operation_xyz
x,y,z
-x,-y,-z
loop_
_atom_site_type_symbol
_atom_site_label
_atom_site_fract_x
_atom_site_fract_y
_atom_site_fract_z
Si Si1 0.511648 0.761622 0.676217
Si Si2 0.205571 0.283992 0.779286
Si Si3 0.638880 0.776475 0.730312
Si Si4 0.067211 0.883267 0.759384
Si Si5 0.535858 0.986212 0.809590
Si Si6 0.995271 0.614167 0.278999
Si Si7 0.894659 0.655868 0.830022
Si Si8 0.843051 0.333914 0.697318
O O1 0.596467 0.894519 0.638014
O O2 0.209454 0.786216 0.788459
O O3 0.586368 0.477292 0.768459
O O4 0.708015 0.906369 0.471537
O O5 0.240221 0.335773 0.673590
O O6 0.071795 0.519028 0.762937
O O7 0.441432 0.252960 0.725504
O O8 0.000000 0.000000 0.000000
O O9 0.587523 0.909321 0.754302
O O10 0.916900 0.661178 0.652037
O O11 0.391008 0.537673 0.952421
O O12 0.003562 0.671230 0.834396
O O13 0.821089 0.036604 0.822573
O O14 0.801991 0.926096 0.741510
O O15 0.269167 0.816930 0.040602
O O16 0.975076 0.641449 0.343054
O O17 0.000000 0.500000 0.500000
#
# Coordination Sequence:
#
# PCOD9047997 Si02
#       8
#     2   2   2   2   2   2   2   2
#     4   9  21  39  57  79 104 155 190 219 272 338
#     4  10  18  30  53  84 113 146 177 219 283 330
#     4  10  17  34  58  80 112 142 184 226 273 331
#     4  10  22  38  57  78 113 148 185 229 276 319
#     4  10  19  32  54  83 113 144 177 222 283 328
#     4   9  16  31  54  81 108 137 187 224 264 326
#     4  11  20  35  54  86 116 136 182 239 270 322
#     4   9  19  36  57  77 103 149 191 220 263 334
#
# _framework density 25.975023
#
# number of rings (size 3 to 8) (size 9 to 14) (size 15 to 20)
#    0.000    2.250    3.750    0.750    1.750    1.500 
#    0.000    6.250    0.000    0.750    0.000    0.000 
#    0.000    0.000    0.000    0.000    0.000    0.000 
#
# Total GULP energy -89319.681907 kJ/mol
# GULP energy per Si atom -5582.480119 kJ/mol
# Density = 2.591590 g / cm^3
# Si number density = 25.975023 Si / 1000 Ang^3
#
#
#
# Elastic Constant Matrix: (Units=GPa)
#
#
# Indices 1 2 3 4 5 6 
#
# 1 175.2409 42.2013 28.3340 -0.2978 31.9298 -18.6597
# 2 42.2013 84.4340 10.6854 6.3347 7.6191 -8.4226
# 3 28.3340 10.6854 75.7419 -10.1771 10.8319 -3.9281
# 4 -0.2978 6.3347 -10.1771 17.4348 5.7430 7.6601
# 5 31.9298 7.6191 10.8319 5.7430 41.0391 -3.4511
# 6 -18.6597 -8.4226 -3.9281 7.6601 -3.4511 48.5095
#
#
#
# Elastic Compliance Matrix: (Units=1/GPa)
#
#
# Indices 1 2 3 4 5 6 
#
# 1 0.007845 -0.003195 -0.001470 0.001364 -0.005165 0.001761
# 2 -0.003195 0.014408 -0.002045 -0.008149 0.001703 0.002515
# 3 -0.001470 -0.002045 0.016314 0.012642 -0.004714 -0.001931
# 4 0.001364 -0.008149 0.012642 0.078517 -0.014994 -0.013332
# 5 -0.005165 0.001703 -0.004714 -0.014994 0.031626 0.002545
# 6 0.001761 0.002515 -0.001931 -0.013332 0.002545 0.023858
#
#
# Mechanical properties :
#
#
# Convention : Reuss Voigt Hill
#
# Bulk Modulus (GPa) = 39.77077 55.31759 47.54418
# Shear Modulus (GPa) = 25.72391 38.34308 32.03350
#
# Velocity S-wave (km/s) = 3.15037 3.84624 3.51556
# Velocity P-wave (km/s) = 5.34579 6.40839 5.90106
#
# Compressibility (1/GPa) = 0.02514409
#
# Stress axis : x y z
#
# Youngs Moduli (GPa) = 127.47692 69.40518 61.29706
#
# Poissons Ratio (x) = 0.22178 0.09014
# Poissons Ratio (y) = 0.40734 0.12538
# Poissons Ratio (z) = 0.18745 0.14196
#
# Static dielectric constant tensor:
#      x y z
#    x 2.036870 -0.043750 0.012290 
#    y -0.043750 2.098820 0.021480 
#    z 0.012290 0.021480 2.185880 
# 
# From -- ./inp_files/320672.got.cif
#   From: 2010.05.17/outbox.cif.g08.bks.cpg/sg2_161_cif.got.tgz:320672.got - 2010.06.03 11:33:40.
