data_PCOD9047552
_publ_section_title
;
Structure prediction by ZEFSAII (Michael W. Deem and Ramdas Pophale) SiO2 
 PCOD9047552
Probable space group: P -1
;
_chemical_formula_sum "Si O2"
_cell_formula_units_Z 12
_cell_length_a 14.730645
_cell_length_b 5.240516
_cell_length_c 9.449059
_cell_angle_alpha 72.242215
_cell_angle_beta 131.945155
_cell_angle_gamma 96.884070
_cell_volume 513.044252
_symmetry_space_group_name_H-M "P -1"
_symmetry_group_IT_number 2
_symmetry_cell_setting 'triclinic'
loop_
_space_group_symop_operation_xyz
x,y,z
-x,-y,-z
loop_
_atom_site_type_symbol
_atom_site_label
_atom_site_fract_x
_atom_site_fract_y
_atom_site_fract_z
Si Si1 0.250004 0.497946 0.767959
Si Si2 0.268294 0.840325 0.473869
Si Si3 0.579041 0.210123 0.625008
Si Si4 0.118319 0.971628 0.728439
Si Si5 0.978826 0.808243 0.879599
Si Si6 0.475429 0.092882 0.118204
O O1 0.231907 0.589950 0.570053
O O2 0.213287 0.757041 0.782116
O O3 0.166840 0.259671 0.749286
O O4 0.387944 0.373102 0.969593
O O5 0.304292 0.779523 0.358055
O O6 0.393123 0.897479 0.673118
O O7 0.160464 0.085706 0.331392
O O8 0.500000 0.500000 0.500000
O O9 0.500000 0.000000 0.500000
O O10 0.595362 0.097645 0.819956
O O11 0.073824 0.858885 0.847556
O O12 0.000000 0.000000 0.500000
O O13 0.000000 0.500000 0.000000
O O14 0.000000 0.000000 0.000000
O O15 0.500000 0.000000 0.000000
#
# Coordination Sequence:
#
# PCOD9047552 Si02
#       6
#     2   2   2   2   2   2
#     4  12  26  46  81 111 150 194 253 310 373 450
#     4  11  26  50  74 111 155 196 248 314 378 446
#     4  10  24  44  68 102 147 192 239 296 367 437
#     4  12  27  50  77 108 151 199 253 311 371 435
#     4  12  30  50  77 109 151 201 255 308 374 448
#     4  11  25  47  78 115 149 198 250 310 379 448
#
# _framework density 23.389793999999998
#
# number of rings (size 3 to 8) (size 9 to 14) (size 15 to 20)
#    0.000    0.667    1.667    4.000    7.000    8.000 
#    0.000    0.000    0.000    0.000    0.000    0.000 
#    0.000    0.000    0.000    0.000    0.000    0.000 
#
# Total GULP energy -67247.525836 kJ/mol
# GULP energy per Si atom -5603.960486 kJ/mol
# Density = 2.333656 g / cm^3
# Si number density = 23.389794 Si / 1000 Ang^3
#
#
#
# Elastic Constant Matrix: (Units=GPa)
#
#
# Indices 1 2 3 4 5 6 
#
# 1 165.8625 30.4764 62.7325 -30.3688 -41.3145 -4.6918
# 2 30.4764 102.8453 44.6922 -24.5286 -15.0274 0.9193
# 3 62.7325 44.6922 151.0608 -27.2830 -4.8112 -2.9288
# 4 -30.3688 -24.5286 -27.2830 55.5116 2.2631 -1.3212
# 5 -41.3145 -15.0274 -4.8112 2.2631 71.5580 -8.3933
# 6 -4.6918 0.9193 -2.9288 -1.3212 -8.3933 48.3468
#
#
#
# Elastic Compliance Matrix: (Units=1/GPa)
#
#
# Indices 1 2 3 4 5 6 
#
# 1 0.009098 0.000166 -0.003016 0.003398 0.005176 0.001688
# 2 0.000166 0.012222 -0.002889 0.003978 0.002357 0.000127
# 3 -0.003016 -0.002889 0.008950 0.001546 -0.001791 0.000036
# 4 0.003398 0.003978 0.001546 0.022327 0.002355 0.001367
# 5 0.005176 0.002357 -0.001791 0.002355 0.017671 0.003481
# 6 0.001688 0.000127 0.000036 0.001367 0.003481 0.021489
#
#
# Mechanical properties :
#
#
# Convention : Reuss Voigt Hill
#
# Bulk Modulus (GPa) = 53.21389 77.28564 65.24977
# Shear Modulus (GPa) = 45.66216 53.87445 49.76831
#
# Velocity S-wave (km/s) = 4.42319 4.80451 4.61779
# Velocity P-wave (km/s) = 6.99189 7.99324 7.50928
#
# Compressibility (1/GPa) = 0.01879209
#
# Stress axis : x y z
#
# Youngs Moduli (GPa) = 109.90849 81.82250 111.73175
#
# Poissons Ratio (x) = -0.01359 0.33702
# Poissons Ratio (y) = -0.01825 0.32277
# Poissons Ratio (z) = 0.33152 0.23636
#
# Static dielectric constant tensor:
#      x y z
#    x 1.876790 0.052820 -0.061300 
#    y 0.052820 1.839400 0.023050 
#    z -0.061300 0.023050 1.798020 
# 
# From -- ./inp_files/288410.got.cif
#   From: 2010.05.17/outbox.cif.g08.bks.cpg/sg2_145_cif.got.tgz:288410.got - 2010.06.03 11:33:40.
