data_PCOD9047990
_publ_section_title
;
Structure prediction by ZEFSAII (Michael W. Deem and Ramdas Pophale) SiO2 
 PCOD9047990
Probable space group: P -1
;
_chemical_formula_sum "Si O2"
_cell_formula_units_Z 13
_cell_length_a 14.384784
_cell_length_b 14.547223
_cell_length_c 4.919744
_cell_angle_alpha 117.515264
_cell_angle_beta 100.701628
_cell_angle_gamma 36.141572
_cell_volume 502.759559
_symmetry_space_group_name_H-M "P -1"
_symmetry_group_IT_number 2
_symmetry_cell_setting 'triclinic'
loop_
_space_group_symop_operation_xyz
x,y,z
-x,-y,-z
loop_
_atom_site_type_symbol
_atom_site_label
_atom_site_fract_x
_atom_site_fract_y
_atom_site_fract_z
Si Si1 0.114837 0.857773 0.617479
Si Si2 0.657521 0.889105 0.114321
Si Si3 0.091184 0.506494 0.384181
Si Si4 0.500000 0.500000 0.000000
Si Si5 0.771309 0.897750 0.664633
Si Si6 0.374910 0.766276 0.834725
Si Si7 0.279449 0.532441 0.604564
O O1 0.290423 0.766597 0.566389
O O2 0.178185 0.687648 0.525214
O O3 0.000000 0.000000 0.500000
O O4 0.000000 0.000000 0.000000
O O5 0.632677 0.974108 0.494422
O O6 0.763833 0.688594 0.955708
O O7 0.752983 0.879173 0.941197
O O8 0.500000 0.000000 0.000000
O O9 0.171923 0.529625 0.623026
O O10 0.000000 0.500000 0.500000
O O11 0.947091 0.690438 0.376223
O O12 0.557507 0.368576 0.083889
O O13 0.660496 0.437290 0.104057
O O14 0.757085 0.033124 0.845625
O O15 0.538210 0.674885 0.681647
#
# Coordination Sequence:
#
# PCOD9047990 Si02
#       7
#     2   2   2   1   2   2   2
#     4  11  26  45  73 111 154 195 253 316 389 460
#     4  11  24  45  72 106 144 191 253 306 371 445
#     4  10  24  49  74 108 152 197 254 315 384 446
#     4  10  24  44  72 104 148 188 252 306 380 442
#     4  11  25  45  70 106 146 193 243 312 373 450
#     4  11  26  44  74 106 152 200 258 307 387 458
#     4  11  25  47  74 109 149 207 250 318 380 462
#
# _framework density 25.857292999999999
#
# number of rings (size 3 to 8) (size 9 to 14) (size 15 to 20)
#    0.000    1.231    0.000    4.615   12.923    1.231 
#    8.308    0.000    0.000    0.000    0.000    0.000 
#    0.000    0.000    0.000    0.000    0.000    0.000 
#
# Total GULP energy -72507.767924 kJ/mol
# GULP energy per Si atom -5577.520610 kJ/mol
# Density = 2.579844 g / cm^3
# Si number density = 25.857293 Si / 1000 Ang^3
#
#
#
# Elastic Constant Matrix: (Units=GPa)
#
#
# Indices 1 2 3 4 5 6 
#
# 1 165.6262 50.0330 32.1888 -12.6243 34.3007 -18.2115
# 2 50.0330 182.9457 46.6564 -8.6779 21.0609 6.7556
# 3 32.1888 46.6564 81.2344 -12.5467 22.6116 19.9899
# 4 -12.6243 -8.6779 -12.5467 54.7201 3.0083 0.3790
# 5 34.3007 21.0609 22.6116 3.0083 51.2462 1.2491
# 6 -18.2115 6.7556 19.9899 0.3790 1.2491 29.6940
#
#
#
# Elastic Compliance Matrix: (Units=1/GPa)
#
#
# Indices 1 2 3 4 5 6 
#
# 1 0.009002 -0.001337 -0.003485 0.001240 -0.004214 0.008333
# 2 -0.001337 0.006693 -0.003115 0.000067 -0.000480 -0.000227
# 3 -0.003485 -0.003115 0.021600 0.004081 -0.005773 -0.015779
# 4 0.001240 0.000067 0.004081 0.019729 -0.003765 -0.002096
# 5 -0.004214 -0.000480 -0.005773 -0.003765 0.025290 0.000395
# 6 0.008333 -0.000227 -0.015779 -0.002096 0.000395 0.049472
#
#
# Mechanical properties :
#
#
# Convention : Reuss Voigt Hill
#
# Bulk Modulus (GPa) = 46.68217 76.39583 61.53900
# Shear Modulus (GPa) = 32.29960 47.19393 39.74676
#
# Velocity S-wave (km/s) = 3.53816 4.27683 3.92491
# Velocity P-wave (km/s) = 5.89783 7.34832 6.66266
#
# Compressibility (1/GPa) = 0.02142145
#
# Stress axis : x y z
#
# Youngs Moduli (GPa) = 111.08060 149.41392 46.29597
#
# Poissons Ratio (x) = 0.19976 0.16136
# Poissons Ratio (y) = 0.14851 0.14419
# Poissons Ratio (z) = 0.38717 0.46536
#
# Static dielectric constant tensor:
#      x y z
#    x 2.075910 -0.094240 -0.006120 
#    y -0.094240 2.003200 0.017950 
#    z -0.006120 0.017950 1.988910 
# 
# From -- ./inp_files/97376.got.cif
#   From: 2010.05.17/outbox.cif.g08.bks.cpg/sg2_49_cif.got.tgz:97376.got - 2010.06.03 11:33:40.
