data_PCOD9047951
_publ_section_title
;
Structure prediction by ZEFSAII (Michael W. Deem and Ramdas Pophale) SiO2 
 PCOD9047951
Probable space group: P -1
;
_chemical_formula_sum "Si O2"
_cell_formula_units_Z 14
_cell_length_a 23.569755
_cell_length_b 5.158679
_cell_length_c 14.224990
_cell_angle_alpha 107.689036
_cell_angle_beta 157.672117
_cell_angle_gamma 81.974754
_cell_volume 576.225831
_symmetry_space_group_name_H-M "P -1"
_symmetry_group_IT_number 2
_symmetry_cell_setting 'triclinic'
loop_
_space_group_symop_operation_xyz
x,y,z
-x,-y,-z
loop_
_atom_site_type_symbol
_atom_site_label
_atom_site_fract_x
_atom_site_fract_y
_atom_site_fract_z
Si Si1 0.709023 0.473661 0.159122
Si Si2 0.860393 0.413135 0.699311
Si Si3 0.159660 0.284799 0.804792
Si Si4 0.062237 0.124759 0.291305
Si Si5 0.493513 0.119592 0.109204
Si Si6 0.756052 0.226993 0.868109
Si Si7 0.446352 0.196341 0.326820
O O1 0.790854 0.498897 0.185588
O O2 0.851257 0.658047 0.467817
O O3 0.586363 0.641232 0.988944
O O4 0.612597 0.154708 0.019655
O O5 0.874135 0.690955 0.686730
O O6 0.678729 0.268579 0.442871
O O7 0.894439 0.159947 0.665802
O O8 0.000000 0.500000 0.000000
O O9 0.147094 0.447229 0.901277
O O10 0.317273 0.206823 0.054785
O O11 0.000000 0.000000 0.500000
O O12 0.874484 0.071181 0.002535
O O13 0.500000 0.000000 0.000000
O O14 0.623045 0.191512 0.579368
O O15 0.651673 0.057943 0.778707
O O16 0.500000 0.500000 0.500000
#
# Coordination Sequence:
#
# PCOD9047951 Si02
#       7
#     2   2   2   2   2   2   2
#     4  12  26  43  77 109 138 196 241 283 374 425
#     4  12  28  50  72 108 140 180 244 308 360 425
#     4  11  26  42  71 109 153 184 244 298 348 434
#     4  12  25  45  78 103 141 191 234 289 378 422
#     4  12  24  50  75  99 143 186 241 305 354 429
#     4  10  24  44  72 100 148 191 236 293 354 440
#     4   9  21  45  65  94 147 189 234 289 355 409
#
# _framework density 24.296028
#
# number of rings (size 3 to 8) (size 9 to 14) (size 15 to 20)
#    0.000    0.857    2.857    2.571   10.000    2.286 
#   10.286    0.000    0.000    0.000    0.000    0.000 
#    0.000    0.000    0.000    0.000    0.000    0.000 
#
# Total GULP energy -78378.182127 kJ/mol
# GULP energy per Si atom -5598.441581 kJ/mol
# Density = 2.424073 g / cm^3
# Si number density = 24.296028 Si / 1000 Ang^3
#
#
#
# Elastic Constant Matrix: (Units=GPa)
#
#
# Indices 1 2 3 4 5 6 
#
# 1 73.7906 10.6448 11.5022 10.8495 -2.7656 19.9486
# 2 10.6448 89.8926 18.5246 0.2685 4.0213 -3.9369
# 3 11.5022 18.5246 160.7144 -11.1874 -3.9811 4.4454
# 4 10.8495 0.2685 -11.1874 43.6644 -2.7970 7.2434
# 5 -2.7656 4.0213 -3.9811 -2.7970 32.0011 -13.2086
# 6 19.9486 -3.9369 4.4454 7.2434 -13.2086 32.7634
#
#
#
# Elastic Compliance Matrix: (Units=1/GPa)
#
#
# Indices 1 2 3 4 5 6 
#
# 1 0.017409 -0.002209 -0.000957 -0.002872 -0.003307 -0.011434
# 2 -0.002209 0.011812 -0.001322 -0.000362 -0.000748 0.002722
# 3 -0.000957 -0.001322 0.006627 0.002097 0.000844 -0.000599
# 4 -0.002872 -0.000362 0.002097 0.024828 0.000659 -0.003803
# 5 -0.003307 -0.000748 0.000844 0.000659 0.038275 0.017094
# 6 -0.011434 0.002722 -0.000599 -0.003803 0.017094 0.045624
#
#
# Mechanical properties :
#
#
# Convention : Reuss Voigt Hill
#
# Bulk Modulus (GPa) = 37.21380 45.08230 41.14805
# Shear Modulus (GPa) = 30.76759 40.60086 35.68423
#
# Velocity S-wave (km/s) = 3.56246 4.09233 3.83655
# Velocity P-wave (km/s) = 5.68081 6.39729 6.04966
#
# Compressibility (1/GPa) = 0.02687175
#
# Stress axis : x y z
#
# Youngs Moduli (GPa) = 57.44169 84.65827 150.90709
#
# Poissons Ratio (x) = 0.18697 0.14442
# Poissons Ratio (y) = 0.12686 0.19957
# Poissons Ratio (z) = 0.05497 0.11196
#
# Static dielectric constant tensor:
#      x y z
#    x 2.061920 -0.111630 -0.187710 
#    y -0.111630 2.037870 0.096750 
#    z -0.187710 0.096750 2.134130 
# 
# From -- ./inp_files/459412.got.cif
#   From: 2010.05.17/outbox.cif.g08.bks.cpg/sg2_230_cif.got.tgz:459412.got - 2010.06.03 11:33:40.
