data_PCOD9047055
_publ_section_title
;
Structure prediction by ZEFSAII (Michael W. Deem and Ramdas Pophale) SiO2 
 PCOD9047055
Probable space group: P -1
;
_chemical_formula_sum "Si O2"
_cell_formula_units_Z 16
_cell_length_a 11.834912
_cell_length_b 5.399275
_cell_length_c 15.603581
_cell_angle_alpha 108.823301
_cell_angle_beta 54.021517
_cell_angle_gamma 81.834538
_cell_volume 688.442191
_symmetry_space_group_name_H-M "P -1"
_symmetry_group_IT_number 2
_symmetry_cell_setting 'triclinic'
loop_
_space_group_symop_operation_xyz
x,y,z
-x,-y,-z
loop_
_atom_site_type_symbol
_atom_site_label
_atom_site_fract_x
_atom_site_fract_y
_atom_site_fract_z
Si Si1 0.039348 0.502274 0.227775
Si Si2 0.829783 0.333923 0.967340
Si Si3 0.065328 0.235455 0.508145
Si Si4 0.329100 0.049549 0.833584
Si Si5 0.628239 0.913718 0.582990
Si Si6 0.865787 0.183071 0.196528
Si Si7 0.343990 0.696121 0.539449
Si Si8 0.630598 0.039032 0.000708
O O1 0.098390 0.681566 0.160153
O O2 0.198452 0.203824 0.130635
O O3 0.978756 0.637094 0.361676
O O4 0.906790 0.448772 0.229528
O O5 0.667126 0.319660 0.020703
O O6 0.803602 0.625969 0.060964
O O7 0.965376 0.070640 0.925611
O O8 0.251191 0.057576 0.401786
O O9 0.000000 0.500000 0.500000
O O10 0.000000 0.000000 0.500000
O O11 0.453764 0.036074 0.707221
O O12 0.257680 0.824314 0.817533
O O13 0.402011 0.993074 0.888874
O O14 0.688311 0.563432 0.514902
O O15 0.634863 0.085939 0.513190
O O16 0.789023 0.139286 0.314161
O O17 0.500000 0.500000 0.500000
O O18 0.500000 0.000000 0.000000
#
# Coordination Sequence:
#
# PCOD9047055 Si02
#       8
#     2   2   2   2   2   2   2   2
#     4  10  24  44  69 100 137 190 239 304 370 438
#     4  10  24  43  71 101 140 192 245 302 379 433
#     4  12  28  46  75 108 145 195 255 312 370 445
#     4  11  26  42  69 110 140 194 245 308 368 448
#     4  12  27  46  71 109 152 193 250 306 376 449
#     4  11  23  43  73  99 150 182 246 301 373 450
#     4  12  25  45  73 108 150 199 238 300 387 447
#     4  10  25  45  69  95 141 188 244 303 365 430
#
# _framework density 23.240877999999999
#
# number of rings (size 3 to 8) (size 9 to 14) (size 15 to 20)
#    0.000    1.000    2.500    2.250    7.000    8.500 
#    0.000    0.000    0.000    0.000    0.000    0.000 
#    0.000    0.000    0.000    0.000    0.000    0.000 
#
# Total GULP energy -89354.438338 kJ/mol
# GULP energy per Si atom -5584.652396 kJ/mol
# Density = 2.318798 g / cm^3
# Si number density = 23.240878 Si / 1000 Ang^3
#
#
#
# Elastic Constant Matrix: (Units=GPa)
#
#
# Indices 1 2 3 4 5 6 
#
# 1 171.8539 42.7665 20.5394 -4.9905 -8.5804 26.2208
# 2 42.7665 97.6148 28.7249 -23.4152 4.8225 5.6610
# 3 20.5394 28.7249 107.2628 -25.1733 -0.1051 -1.7306
# 4 -4.9905 -23.4152 -25.1733 34.1549 6.2108 -5.7900
# 5 -8.5804 4.8225 -0.1051 6.2108 37.1282 -1.2452
# 6 26.2208 5.6610 -1.7306 -5.7900 -1.2452 30.8410
#
#
#
# Elastic Compliance Matrix: (Units=1/GPa)
#
#
# Indices 1 2 3 4 5 6 
#
# 1 0.008039 -0.003819 -0.001646 -0.004349 0.002844 -0.006927
# 2 -0.003819 0.014659 -0.000796 0.010082 -0.004401 0.002227
# 3 -0.001646 -0.000796 0.012031 0.009029 -0.001624 0.003850
# 4 -0.004349 0.010082 0.009029 0.045741 -0.009587 0.010553
# 5 0.002844 -0.004401 -0.001624 -0.009587 0.029684 -0.002303
# 6 -0.006927 0.002227 0.003850 0.010553 -0.002303 0.040010
#
#
# Mechanical properties :
#
#
# Convention : Reuss Voigt Hill
#
# Bulk Modulus (GPa) = 45.03588 62.31033 53.67310
# Shear Modulus (GPa) = 29.39633 39.40486 34.40059
#
# Velocity S-wave (km/s) = 3.56034 4.12211 3.85148
# Velocity P-wave (km/s) = 6.02671 7.03737 6.55156
#
# Compressibility (1/GPa) = 0.02220452
#
# Stress axis : x y z
#
# Youngs Moduli (GPa) = 124.39679 68.21854 83.11996
#
# Poissons Ratio (x) = 0.26056 0.13682
# Poissons Ratio (y) = 0.47513 0.06620
# Poissons Ratio (z) = 0.20476 0.05433
#
# Static dielectric constant tensor:
#      x y z
#    x 1.882030 0.025850 0.019980 
#    y 0.025850 1.968610 0.025570 
#    z 0.019980 0.025570 1.853140 
# 
# From -- ./inp_files/511082.got.cif
#   From: 2010.05.17/outbox.cif.g08.bks.cpg/sg2_256_cif.got.tgz:511082.got - 2010.06.03 11:33:40.
