data_PCOD9047835
_publ_section_title
;
Structure prediction by ZEFSAII (Michael W. Deem and Ramdas Pophale) SiO2 
 PCOD9047835
Probable space group: P -1
;
_chemical_formula_sum "Si O2"
_cell_formula_units_Z 16
_cell_length_a 10.106447
_cell_length_b 12.503799
_cell_length_c 12.132173
_cell_angle_alpha 145.130995
_cell_angle_beta 106.357742
_cell_angle_gamma 98.297891
_cell_volume 613.255290
_symmetry_space_group_name_H-M "P -1"
_symmetry_group_IT_number 2
_symmetry_cell_setting 'triclinic'
loop_
_space_group_symop_operation_xyz
x,y,z
-x,-y,-z
loop_
_atom_site_type_symbol
_atom_site_label
_atom_site_fract_x
_atom_site_fract_y
_atom_site_fract_z
Si Si1 0.626886 0.267064 0.825361
Si Si2 0.385061 0.490335 0.783546
Si Si3 0.064086 0.898968 0.691469
Si Si4 0.941727 0.206894 0.148433
Si Si5 0.115480 0.323532 0.949266
Si Si6 0.243525 0.670124 0.477397
Si Si7 0.746471 0.004710 0.705078
Si Si8 0.399486 0.856071 0.967455
O O1 0.500000 0.000000 0.500000
O O2 0.723011 0.204994 0.876099
O O3 0.533437 0.334920 0.940293
O O4 0.783170 0.521071 0.006103
O O5 0.416788 0.298676 0.614151
O O6 0.154756 0.297706 0.565286
O O7 0.435172 0.674775 0.851724
O O8 0.073392 0.912045 0.839154
O O9 0.160833 0.797472 0.590299
O O10 0.163059 0.165376 0.878600
O O11 0.152656 0.452266 0.365588
O O12 0.815950 0.277948 0.196794
O O13 0.844689 0.034227 0.868345
O O14 0.172400 0.530212 0.226974
O O15 0.887655 0.117643 0.727941
O O16 0.468621 0.889947 0.710262
O O17 0.500000 0.000000 0.000000
#
# Coordination Sequence:
#
# PCOD9047835 Si02
#       8
#     2   2   2   2   2   2   2   2
#     4  12  25  46  68  91 140 174 226 292 333 393
#     4  11  24  43  69 101 133 177 228 275 341 401
#     4  11  22  42  68  99 138 175 218 279 332 404
#     4  11  22  45  67 100 145 177 218 275 337 404
#     4  10  25  41  68  99 126 177 233 273 338 401
#     4  11  22  40  66  94 139 179 221 276 331 397
#     4  10  24  44  70  98 132 177 225 281 335 399
#     4  12  22  38  67 100 135 184 221 266 337 403
#
# _framework density 26.090274999999998
#
# number of rings (size 3 to 8) (size 9 to 14) (size 15 to 20)
#    0.000    1.000    3.750    3.000    0.000   10.000 
#    0.000    1.250    0.000    0.000    0.000    0.000 
#    0.000    0.000    0.000    0.000    0.000    0.000 
#
# Total GULP energy -89492.429714 kJ/mol
# GULP energy per Si atom -5593.276857 kJ/mol
# Density = 2.603089 g / cm^3
# Si number density = 26.090275 Si / 1000 Ang^3
#
#
#
# Elastic Constant Matrix: (Units=GPa)
#
#
# Indices 1 2 3 4 5 6 
#
# 1 64.8776 34.3229 7.7615 12.7208 -11.1805 -6.6461
# 2 34.3229 177.1766 43.5665 35.6314 -20.1021 18.0348
# 3 7.7615 43.5665 109.4235 16.4517 -8.6289 -3.7530
# 4 12.7208 35.6314 16.4517 50.2436 0.3843 -0.8031
# 5 -11.1805 -20.1021 -8.6289 0.3843 47.0255 5.0796
# 6 -6.6461 18.0348 -3.7530 -0.8031 5.0796 39.8543
#
#
#
# Elastic Compliance Matrix: (Units=1/GPa)
#
#
# Indices 1 2 3 4 5 6 
#
# 1 0.018511 -0.003422 0.000776 -0.002465 0.002634 0.004323
# 2 -0.003422 0.008725 -0.002475 -0.004618 0.003065 -0.005236
# 3 0.000776 -0.002475 0.010485 -0.001848 0.000840 0.002092
# 4 -0.002465 -0.004618 -0.001848 0.024471 -0.003361 0.002426
# 5 0.002634 0.003065 0.000840 -0.003361 0.023812 -0.003971
# 6 0.004323 -0.005236 0.002092 0.002426 -0.003971 0.028934
#
#
# Mechanical properties :
#
#
# Convention : Reuss Voigt Hill
#
# Bulk Modulus (GPa) = 36.39095 58.08661 47.23878
# Shear Modulus (GPa) = 37.21897 45.14646 41.18271
#
# Velocity S-wave (km/s) = 3.78106 4.16431 3.97731
# Velocity P-wave (km/s) = 5.74807 6.74048 6.26396
#
# Compressibility (1/GPa) = 0.02747936
#
# Stress axis : x y z
#
# Youngs Moduli (GPa) = 54.02055 114.61347 95.37629
#
# Poissons Ratio (x) = 0.39226 -0.07403
# Poissons Ratio (y) = 0.18488 0.23602
# Poissons Ratio (z) = -0.04193 0.28363
#
# Static dielectric constant tensor:
#      x y z
#    x 2.135640 -0.010940 0.004940 
#    y -0.010940 2.060310 -0.069200 
#    z 0.004940 -0.069200 2.169390 
# 
# From -- ./inp_files/429104.got.cif
#   From: 2010.05.17/outbox.cif.g08.bks.cpg/sg2_215_cif.got.tgz:429104.got - 2010.06.03 11:33:40.
