data_PCOD9047526
_publ_section_title
;
Structure prediction by ZEFSAII (Michael W. Deem and Ramdas Pophale) SiO2 
 PCOD9047526
Probable space group: P -1
;
_chemical_formula_sum "Si O2"
_cell_formula_units_Z 14
_cell_length_a 5.033093
_cell_length_b 10.075568
_cell_length_c 11.182578
_cell_angle_alpha 99.337702
_cell_angle_beta 95.984338
_cell_angle_gamma 102.454649
_cell_volume 540.663920
_symmetry_space_group_name_H-M "P -1"
_symmetry_group_IT_number 2
_symmetry_cell_setting 'triclinic'
loop_
_space_group_symop_operation_xyz
x,y,z
-x,-y,-z
loop_
_atom_site_type_symbol
_atom_site_label
_atom_site_fract_x
_atom_site_fract_y
_atom_site_fract_z
Si Si1 0.736790 0.615529 0.463093
Si Si2 0.946469 0.409115 0.298061
Si Si3 0.035864 0.020285 0.195858
Si Si4 0.718820 0.913989 0.529264
Si Si5 0.438684 0.846799 0.876070
Si Si6 0.161364 0.748932 0.087770
Si Si7 0.292025 0.487129 0.102740
O O1 0.500000 0.500000 0.500000
O O2 0.980082 0.646966 0.578958
O O3 0.646840 0.756721 0.457830
O O4 0.852096 0.549252 0.344616
O O5 0.210008 0.431023 0.226709
O O6 0.691672 0.303765 0.208258
O O7 0.029277 0.858486 0.165222
O O8 0.217903 0.084381 0.327108
O O9 0.235248 0.099928 0.112164
O O10 0.744924 0.059445 0.182201
O O11 0.500000 0.000000 0.500000
O O12 0.000000 0.000000 0.500000
O O13 0.360386 0.832941 0.008859
O O14 0.308248 0.649594 0.153611
O O15 0.949506 0.628689 0.989262
O O16 0.500000 0.500000 0.000000
#
# Coordination Sequence:
#
# PCOD9047526 Si02
#       7
#     2   2   2   2   2   2   2
#     4  11  25  45  78 105 142 200 258 303 368 446
#     4  10  24  44  73 106 141 188 255 302 362 442
#     4  12  25  45  72 101 140 191 233 296 368 440
#     4  12  29  49  71 110 154 191 243 313 379 438
#     4  11  24  44  72 103 140 183 241 296 358 441
#     4  10  25  41  66 105 136 185 236 294 361 438
#     4  10  24  44  68 100 147 184 239 301 368 429
#
# _framework density 25.894089000000001
#
# number of rings (size 3 to 8) (size 9 to 14) (size 15 to 20)
#    0.000    1.143    1.429    2.571   12.000    2.286 
#    0.000    0.000    0.000    0.000    0.000    0.000 
#    0.000    0.000    0.000    0.000    0.000    0.000 
#
# Total GULP energy -78270.265417 kJ/mol
# GULP energy per Si atom -5590.733244 kJ/mol
# Density = 2.583515 g / cm^3
# Si number density = 25.894089 Si / 1000 Ang^3
#
#
#
# Elastic Constant Matrix: (Units=GPa)
#
#
# Indices 1 2 3 4 5 6 
#
# 1 121.8884 46.5037 23.5011 7.7270 -21.5609 -3.1695
# 2 46.5037 166.7939 39.1797 37.7353 -20.4625 -34.9302
# 3 23.5011 39.1797 85.3530 33.0446 -13.8188 0.4406
# 4 7.7270 37.7353 33.0446 40.6195 5.8700 -18.9170
# 5 -21.5609 -20.4625 -13.8188 5.8700 37.4082 3.8200
# 6 -3.1695 -34.9302 0.4406 -18.9170 3.8200 47.1185
#
#
#
# Elastic Compliance Matrix: (Units=1/GPa)
#
#
# Indices 1 2 3 4 5 6 
#
# 1 0.010005 -0.002262 -0.000752 -0.000585 0.004506 -0.001597
# 2 -0.002262 0.009692 -0.000266 -0.007294 0.004663 0.003729
# 3 -0.000752 -0.000266 0.025637 -0.028759 0.014755 -0.013230
# 4 -0.000585 -0.007294 -0.028759 0.070999 -0.028711 0.025654
# 5 0.004506 0.004663 0.014755 -0.028711 0.042999 -0.011391
# 6 -0.001597 0.003729 -0.013230 0.025654 -0.011391 0.035227
#
#
# Mechanical properties :
#
#
# Convention : Reuss Voigt Hill
#
# Bulk Modulus (GPa) = 25.79180 65.82270 45.80725
# Shear Modulus (GPa) = 23.35974 42.68597 33.02285
#
# Velocity S-wave (km/s) = 3.00680 4.06456 3.57502
# Velocity P-wave (km/s) = 4.69431 6.89222 5.89658
#
# Compressibility (1/GPa) = 0.03877201
#
# Stress axis : x y z
#
# Youngs Moduli (GPa) = 99.95057 103.17978 39.00657
#
# Poissons Ratio (x) = 0.23341 0.02934
# Poissons Ratio (y) = 0.22610 0.01039
# Poissons Ratio (z) = 0.07518 0.02749
#
# Static dielectric constant tensor:
#      x y z
#    x 2.220580 -0.259130 0.212620 
#    y -0.259130 2.251890 -0.206090 
#    z 0.212620 -0.206090 2.243960 
# 
# From -- ./inp_files/48883.got.cif
#   From: 2010.05.17/outbox.cif.g08.bks.cpg/sg2_25_cif.got.tgz:48883.got - 2010.06.03 11:33:40.
