data_PCOD9047896
_publ_section_title
;
Structure prediction by ZEFSAII (Michael W. Deem and Ramdas Pophale) SiO2 
 PCOD9047896
Probable space group: P -1
;
_chemical_formula_sum "Si O2"
_cell_formula_units_Z 16
_cell_length_a 17.125758
_cell_length_b 23.372446
_cell_length_c 13.963524
_cell_angle_alpha 149.660397
_cell_angle_beta 22.103277
_cell_angle_gamma 158.733995
_cell_volume 762.782933
_symmetry_space_group_name_H-M "P -1"
_symmetry_group_IT_number 2
_symmetry_cell_setting 'triclinic'
loop_
_space_group_symop_operation_xyz
x,y,z
-x,-y,-z
loop_
_atom_site_type_symbol
_atom_site_label
_atom_site_fract_x
_atom_site_fract_y
_atom_site_fract_z
Si Si1 0.641334 0.150579 0.491089
Si Si2 0.718337 0.075449 0.579379
Si Si3 0.767641 0.364996 0.276361
Si Si4 0.558304 0.058852 0.127431
Si Si5 0.327114 0.248554 0.063047
Si Si6 0.686841 0.861713 0.701102
Si Si7 0.706045 0.559339 0.760413
Si Si8 0.357159 0.683068 0.998511
O O1 0.968901 0.293465 0.358075
O O2 0.500000 0.000000 0.500000
O O3 0.579431 0.082922 0.357241
O O4 0.461611 0.196952 0.776352
O O5 0.736662 0.218799 0.752067
O O6 0.984507 0.121142 0.286215
O O7 0.724932 0.028917 0.613136
O O8 0.771907 0.244945 0.150807
O O9 0.511587 0.252339 0.327380
O O10 0.711495 0.440266 0.528050
O O11 0.055857 0.501100 0.085182
O O12 0.500000 0.000000 0.000000
O O13 0.648731 0.974626 0.948048
O O14 0.386208 0.385880 0.136835
O O15 0.474278 0.289468 0.058222
O O16 0.565016 0.742705 0.756859
O O17 0.000000 0.000000 0.500000
O O18 0.500000 0.500000 0.000000
#
# Coordination Sequence:
#
# PCOD9047896 Si02
#       8
#     2   2   2   2   2   2   2   2
#     4  12  23  44  65 101 134 177 237 282 333 412
#     4  11  23  42  71 100 137 183 228 290 337 406
#     4  11  22  48  65  97 144 180 224 289 346 404
#     4   9  23  42  68  97 137 175 226 282 350 400
#     4  12  23  41  71  95 136 178 239 270 352 399
#     4  10  24  44  71 105 134 177 235 284 343 420
#     4  12  29  45  66 102 144 181 231 289 345 412
#     4  11  23  44  71 102 140 176 228 286 343 416
#
# _framework density 20.975822999999998
#
# number of rings (size 3 to 8) (size 9 to 14) (size 15 to 20)
#    0.000    1.000    5.000    0.750    5.250    4.500 
#    0.000    1.250    0.000    0.000    0.000    0.000 
#    0.000    0.000    0.000    0.000    0.000    0.000 
#
# Total GULP energy -89148.178266 kJ/mol
# GULP energy per Si atom -5571.761142 kJ/mol
# Density = 2.092808 g / cm^3
# Si number density = 20.975823 Si / 1000 Ang^3
#
#
#
# Elastic Constant Matrix: (Units=GPa)
#
#
# Indices 1 2 3 4 5 6 
#
# 1 100.3601 55.0371 25.5343 -17.1384 19.1054 -2.2020
# 2 55.0371 158.3113 55.2288 -12.1604 4.8351 -1.2659
# 3 25.5343 55.2288 70.2594 -15.2671 10.8585 -6.6889
# 4 -17.1384 -12.1604 -15.2671 36.8970 -4.5115 -0.9635
# 5 19.1054 4.8351 10.8585 -4.5115 36.1283 -5.1266
# 6 -2.2020 -1.2659 -6.6889 -0.9635 -5.1266 42.1471
#
#
#
# Elastic Compliance Matrix: (Units=1/GPa)
#
#
# Indices 1 2 3 4 5 6 
#
# 1 0.014408 -0.004589 0.000366 0.004530 -0.006552 -0.000020
# 2 -0.004589 0.010219 -0.007195 -0.001401 0.002940 -0.000749
# 3 0.000366 -0.007195 0.022160 0.006473 -0.004671 0.002900
# 4 0.004530 -0.001401 0.006473 0.031481 0.000054 0.001948
# 5 -0.006552 0.002940 -0.004671 0.000054 0.032583 0.002969
# 6 -0.000020 -0.000749 0.002900 0.001948 0.002969 0.024569
#
#
# Mechanical properties :
#
#
# Convention : Reuss Voigt Hill
#
# Bulk Modulus (GPa) = 41.75202 66.72570 54.23886
# Shear Modulus (GPa) = 30.07736 35.90986 32.99361
#
# Velocity S-wave (km/s) = 3.79080 4.14208 3.97033
# Velocity P-wave (km/s) = 6.25366 7.39970 6.85069
#
# Compressibility (1/GPa) = 0.02395094
#
# Stress axis : x y z
#
# Youngs Moduli (GPa) = 69.40641 97.86109 45.12586
#
# Poissons Ratio (x) = 0.44905 -0.01650
# Poissons Ratio (y) = 0.31848 0.32468
# Poissons Ratio (z) = -0.02538 0.70411
#
# Static dielectric constant tensor:
#      x y z
#    x 2.796050 -0.206190 0.943440 
#    y -0.206190 1.800850 -0.207080 
#    z 0.943440 -0.207080 2.757740 
# 
# From -- ./inp_files/539292.got.cif
#   From: 2010.05.17/outbox.cif.g08.bks.cpg/sg2_270_cif.got.tgz:539292.got - 2010.06.03 11:33:40.
