data_PCOD9047252
_publ_section_title
;
Structure prediction by ZEFSAII (Michael W. Deem and Ramdas Pophale) SiO2 
 PCOD9047252
Probable space group: P -1
;
_chemical_formula_sum "Si O2"
_cell_formula_units_Z 10
_cell_length_a 11.203780
_cell_length_b 8.795662
_cell_length_c 11.032413
_cell_angle_alpha 28.985292
_cell_angle_beta 133.583243
_cell_angle_gamma 122.209245
_cell_volume 373.949913
_symmetry_space_group_name_H-M "P -1"
_symmetry_group_IT_number 2
_symmetry_cell_setting 'triclinic'
loop_
_space_group_symop_operation_xyz
x,y,z
-x,-y,-z
loop_
_atom_site_type_symbol
_atom_site_label
_atom_site_fract_x
_atom_site_fract_y
_atom_site_fract_z
Si Si1 0.254623 0.054085 0.837025
Si Si2 0.057322 0.022201 0.160525
Si Si3 0.397669 0.828044 0.644341
Si Si4 0.587878 0.798798 0.365444
Si Si5 0.095769 0.651812 0.856358
O O1 0.424269 0.060315 0.023755
O O2 0.261491 0.294056 0.562756
O O3 0.259454 0.736006 0.977425
O O4 0.093922 0.051799 0.808758
O O5 0.226351 0.786262 0.487859
O O6 0.111735 0.370106 0.967636
O O7 0.000000 0.000000 0.000000
O O8 0.500000 0.000000 0.500000
O O9 0.354990 0.064214 0.566118
O O10 0.500000 0.500000 0.000000
O O11 0.500000 0.500000 0.500000
O O12 0.000000 0.000000 0.500000
O O13 0.000000 0.500000 0.000000
#
# Coordination Sequence:
#
# PCOD9047252 Si02
#       5
#     2   2   2   2   2
#     4  10  25  45  78 115 153 206 272 327 405 483
#     4  11  26  52  85 120 164 216 274 339 413 495
#     4  12  31  53  80 118 171 216 271 342 420 484
#     4  11  26  48  80 112 158 210 270 336 405 485
#     4  10  24  43  76 114 151 198 263 331 394 477
#
# _framework density 26.741548999999999
#
# number of rings (size 3 to 8) (size 9 to 14) (size 15 to 20)
#    0.000    1.200    0.000    2.400   19.600    1.600 
#    0.000    6.000    0.000    0.000    0.000    0.000 
#    0.000    0.000    0.000    0.000    0.000    0.000 
#
# Total GULP energy -55922.081725 kJ/mol
# GULP energy per Si atom -5592.208173 kJ/mol
# Density = 2.668068 g / cm^3
# Si number density = 26.741549 Si / 1000 Ang^3
#
#
#
# Elastic Constant Matrix: (Units=GPa)
#
#
# Indices 1 2 3 4 5 6 
#
# 1 220.7961 48.1904 54.4017 25.0301 -14.9628 10.1587
# 2 48.1904 160.3426 48.5794 45.7846 0.6725 -6.2754
# 3 54.4017 48.5794 175.0046 16.1099 -1.0157 -3.1199
# 4 25.0301 45.7846 16.1099 59.9095 11.9723 -0.6529
# 5 -14.9628 0.6725 -1.0157 11.9723 42.5533 9.5069
# 6 10.1587 -6.2754 -3.1199 -0.6529 9.5069 51.9114
#
#
#
# Elastic Compliance Matrix: (Units=1/GPa)
#
#
# Indices 1 2 3 4 5 6 
#
# 1 0.005528 -0.000784 -0.001337 -0.001946 0.002876 -0.001808
# 2 -0.000784 0.008733 -0.001595 -0.006125 0.001085 0.000837
# 3 -0.001337 -0.001595 0.006570 0.000105 -0.000440 0.000546
# 4 -0.001946 -0.006125 0.000105 0.023679 -0.007543 0.001326
# 5 0.002876 0.001085 -0.000440 -0.007543 0.027870 -0.005657
# 6 -0.001808 0.000837 0.000546 0.001326 -0.005657 0.020804
#
#
# Mechanical properties :
#
#
# Convention : Reuss Voigt Hill
#
# Bulk Modulus (GPa) = 74.63638 95.38734 85.01186
# Shear Modulus (GPa) = 47.58138 57.87296 52.72717
#
# Velocity S-wave (km/s) = 4.22276 4.65710 4.44524
# Velocity P-wave (km/s) = 7.19350 8.04149 7.62929
#
# Compressibility (1/GPa) = 0.01339829
#
# Stress axis : x y z
#
# Youngs Moduli (GPa) = 180.88963 114.51207 152.20073
#
# Poissons Ratio (x) = 0.08973 0.20356
# Poissons Ratio (y) = 0.14174 0.24283
# Poissons Ratio (z) = 0.24193 0.18270
#
# Static dielectric constant tensor:
#      x y z
#    x 2.222490 0.001210 0.020050 
#    y 0.001210 2.148530 0.003280 
#    z 0.020050 0.003280 2.692130 
# 
# From -- ./inp_files/64796.got.cif
#   From: 2010.05.17/outbox.cif.g08.bks.cpg/sg2_33_cif.got.tgz:64796.got - 2010.06.03 11:33:40.
