data_PCOD9047870
_publ_section_title
;
Structure prediction by ZEFSAII (Michael W. Deem and Ramdas Pophale) SiO2 
 PCOD9047870
Probable space group: P -1
;
_chemical_formula_sum "Si O2"
_cell_formula_units_Z 14
_cell_length_a 12.362482
_cell_length_b 25.146967
_cell_length_c 4.790684
_cell_angle_alpha 102.793866
_cell_angle_beta 114.238836
_cell_angle_gamma 26.489510
_cell_volume 565.354416
_symmetry_space_group_name_H-M "P -1"
_symmetry_group_IT_number 2
_symmetry_cell_setting 'triclinic'
loop_
_space_group_symop_operation_xyz
x,y,z
-x,-y,-z
loop_
_atom_site_type_symbol
_atom_site_label
_atom_site_fract_x
_atom_site_fract_y
_atom_site_fract_z
Si Si1 0.126824 0.250132 0.397843
Si Si2 0.252655 0.001195 0.316400
Si Si3 0.702597 0.272372 0.752378
Si Si4 0.343292 0.390297 0.018647
Si Si5 0.154000 0.352233 0.867149
Si Si6 0.736304 0.072845 0.253958
Si Si7 0.797770 0.348632 0.659536
O O1 0.447185 0.098214 0.546827
O O2 0.101696 0.321138 0.584049
O O3 0.946604 0.285930 0.446656
O O4 0.997121 0.300763 0.014674
O O5 0.232229 0.995726 0.613581
O O6 0.270161 0.936622 0.093012
O O7 0.982530 0.140170 0.058759
O O8 0.585126 0.284221 0.387596
O O9 0.752266 0.309189 0.701744
O O10 0.466460 0.367790 0.850999
O O11 0.103945 0.525430 0.067790
O O12 0.227272 0.378249 0.816302
O O13 0.434958 0.221397 0.182792
O O14 0.000000 0.000000 0.500000
O O15 0.500000 0.500000 0.500000
#
# Coordination Sequence:
#
# PCOD9047870 Si02
#       7
#     2   2   2   2   2   2   2
#     4  11  25  45  71 102 134 175 229 278 334 401
#     4  11  24  41  66  97 133 177 221 278 335 390
#     4  12  26  46  68 100 139 178 228 276 336 404
#     4  11  26  44  69 101 139 180 221 278 341 399
#     4  10  24  44  71 102 138 178 224 279 337 401
#     4  11  22  39  66  98 136 179 224 270 329 402
#     4  12  27  46  72  99 134 181 225 280 336 398
#
# _framework density 24.763227000000001
#
# number of rings (size 3 to 8) (size 9 to 14) (size 15 to 20)
#    0.000    0.857    0.000    6.857    0.000   14.857 
#    0.000    0.000    0.000    0.000    0.000    0.000 
#    0.000    0.000    0.000    0.000    0.000    0.000 
#
# Total GULP energy -78481.482909 kJ/mol
# GULP energy per Si atom -5605.820208 kJ/mol
# Density = 2.470686 g / cm^3
# Si number density = 24.763227 Si / 1000 Ang^3
#
#
#
# Elastic Constant Matrix: (Units=GPa)
#
#
# Indices 1 2 3 4 5 6 
#
# 1 73.3069 30.8245 1.4145 -21.0039 5.4144 -1.5164
# 2 30.8245 78.8219 10.9828 -20.5554 -0.8831 -14.6842
# 3 1.4145 10.9828 89.7998 -10.8931 -1.9006 -7.8176
# 4 -21.0039 -20.5554 -10.8931 51.1656 2.4931 7.2837
# 5 5.4144 -0.8831 -1.9006 2.4931 37.2536 -4.6792
# 6 -1.5164 -14.6842 -7.8176 7.2837 -4.6792 42.8072
#
#
#
# Elastic Compliance Matrix: (Units=1/GPa)
#
#
# Indices 1 2 3 4 5 6 
#
# 1 0.018069 -0.006254 0.000857 0.005637 -0.003445 -0.002684
# 2 -0.006254 0.017102 -0.001121 0.003262 0.001676 0.005069
# 3 0.000857 -0.001121 0.011658 0.002152 0.000483 0.001462
# 4 0.005637 0.003262 0.002152 0.024134 -0.002584 -0.002677
# 5 -0.003445 0.001676 0.000483 -0.002584 0.028090 0.004051
# 6 -0.002684 0.005069 0.001462 -0.002677 0.004051 0.026169
#
#
# Mechanical properties :
#
#
# Convention : Reuss Voigt Hill
#
# Bulk Modulus (GPa) = 29.59083 36.48580 33.03831
# Shear Modulus (GPa) = 33.43998 39.49239 36.46619
#
# Velocity S-wave (km/s) = 3.67875 3.99783 3.84160
# Velocity P-wave (km/s) = 5.47902 6.00633 5.74873
#
# Compressibility (1/GPa) = 0.03379426
#
# Stress axis : x y z
#
# Youngs Moduli (GPa) = 55.34466 58.47160 85.77816
#
# Poissons Ratio (x) = 0.36568 -0.07355
# Poissons Ratio (y) = 0.34613 0.09614
# Poissons Ratio (z) = -0.04746 0.06553
#
# Static dielectric constant tensor:
#      x y z
#    x 1.982190 0.077780 -0.026500 
#    y 0.077780 2.018010 -0.078600 
#    z -0.026500 -0.078600 1.989090 
# 
# From -- ./inp_files/84372.got.cif
#   From: 2010.05.17/outbox.cif.g08.bks.cpg/sg2_43_cif.got.tgz:84372.got - 2010.06.03 11:33:40.
