data_PCOD9047556
_publ_section_title
;
Structure prediction by ZEFSAII (Michael W. Deem and Ramdas Pophale) SiO2 
 PCOD9047556
Probable space group: P -1
;
_chemical_formula_sum "Si O2"
_cell_formula_units_Z 16
_cell_length_a 12.277647
_cell_length_b 5.289708
_cell_length_c 16.463210
_cell_angle_alpha 127.675380
_cell_angle_beta 129.684589
_cell_angle_gamma 70.256002
_cell_volume 648.838693
_symmetry_space_group_name_H-M "P -1"
_symmetry_group_IT_number 2
_symmetry_cell_setting 'triclinic'
loop_
_space_group_symop_operation_xyz
x,y,z
-x,-y,-z
loop_
_atom_site_type_symbol
_atom_site_label
_atom_site_fract_x
_atom_site_fract_y
_atom_site_fract_z
Si Si1 0.774165 0.760754 0.484307
Si Si2 0.986447 0.351978 0.722000
Si Si3 0.647581 0.856672 0.987291
Si Si4 0.499568 0.856020 0.608733
Si Si5 0.489236 0.175763 0.832802
Si Si6 0.225071 0.535469 0.744501
Si Si7 0.058124 0.294680 0.916887
Si Si8 0.787615 0.798745 0.676661
O O1 0.782814 0.522662 0.366807
O O2 0.760818 0.629090 0.543392
O O3 0.632950 0.953771 0.444504
O O4 0.919185 0.995864 0.599522
O O5 0.078513 0.476002 0.712435
O O6 0.082848 0.421880 0.861461
O O7 0.842344 0.526601 0.706643
O O8 0.546648 0.036990 0.915237
O O9 0.297130 0.886934 0.867833
O O10 0.578576 0.510724 0.915204
O O11 0.793947 0.810653 0.001975
O O12 0.500000 0.500000 0.500000
O O13 0.502927 0.907710 0.717119
O O14 0.655810 0.987370 0.677337
O O15 0.329188 0.277968 0.777296
O O16 0.929177 0.032384 0.786588
O O17 0.000000 0.500000 0.000000
#
# Coordination Sequence:
#
# PCOD9047556 Si02
#       8
#     2   2   2   2   2   2   2   2
#     4  10  24  44  68 103 136 190 234 297 364 424
#     4  11  23  45  66 103 139 181 233 297 356 426
#     4  12  25  50  71 106 145 192 245 301 358 430
#     4  11  23  44  72 103 141 182 237 300 357 435
#     4  11  28  46  75 108 143 196 241 301 363 426
#     4  11  24  47  70 104 143 189 243 295 357 435
#     4  11  26  43  71 100 141 189 236 295 362 436
#     4  11  23  42  67 100 138 179 235 293 359 426
#
# _framework density 24.659444000000001
#
# number of rings (size 3 to 8) (size 9 to 14) (size 15 to 20)
#    0.000    1.000    2.500    3.000    1.750    5.000 
#    4.500    0.000    0.000    0.000    0.000    0.000 
#    0.000    0.000    0.000    0.000    0.000    0.000 
#
# Total GULP energy -89460.676652 kJ/mol
# GULP energy per Si atom -5591.292291 kJ/mol
# Density = 2.460332 g / cm^3
# Si number density = 24.659444 Si / 1000 Ang^3
#
#
#
# Elastic Constant Matrix: (Units=GPa)
#
#
# Indices 1 2 3 4 5 6 
#
# 1 129.2579 27.6901 35.2723 9.1024 6.3678 -36.5010
# 2 27.6901 68.4394 30.2936 9.7601 -2.2508 -10.8138
# 3 35.2723 30.2936 106.6414 16.2695 -13.4961 -18.3402
# 4 9.1024 9.7601 16.2695 34.3401 -12.6064 1.7267
# 5 6.3678 -2.2508 -13.4961 -12.6064 46.6022 11.1635
# 6 -36.5010 -10.8138 -18.3402 1.7267 11.1635 33.4376
#
#
#
# Elastic Compliance Matrix: (Units=1/GPa)
#
#
# Indices 1 2 3 4 5 6 
#
# 1 0.014269 -0.001789 -0.001260 -0.006627 -0.008372 0.017444
# 2 -0.001789 0.017814 -0.003700 -0.003513 -0.001507 0.002463
# 3 -0.001260 -0.003700 0.012332 -0.004093 0.001524 0.003895
# 4 -0.006627 -0.003513 -0.004093 0.040054 0.014591 -0.017555
# 5 -0.008372 -0.001507 0.001524 0.014591 0.031743 -0.020141
# 6 0.017444 0.002463 0.003895 -0.017555 -0.020141 0.059512
#
#
# Mechanical properties :
#
#
# Convention : Reuss Voigt Hill
#
# Bulk Modulus (GPa) = 32.34484 54.53897 43.44190
# Shear Modulus (GPa) = 25.05939 36.94816 31.00377
#
# Velocity S-wave (km/s) = 3.19128 3.87504 3.54966
# Velocity P-wave (km/s) = 5.16953 6.49508 5.86985
#
# Compressibility (1/GPa) = 0.03091683
#
# Stress axis : x y z
#
# Youngs Moduli (GPa) = 70.08418 56.13686 81.08913
#
# Poissons Ratio (x) = 0.10045 0.10214
# Poissons Ratio (y) = 0.12541 0.30000
# Poissons Ratio (z) = 0.08828 0.20769
#
# Static dielectric constant tensor:
#      x y z
#    x 1.987600 0.052730 0.029680 
#    y 0.052730 2.072590 0.009420 
#    z 0.029680 0.009420 2.009350 
# 
# From -- ./inp_files/456770.got.cif
#   From: 2010.05.17/outbox.cif.g08.bks.cpg/sg2_229_cif.got.tgz:456770.got - 2010.06.03 11:33:40.
