data_PCOD9047124
_publ_section_title
;
Structure prediction by ZEFSAII (Michael W. Deem and Ramdas Pophale) SiO2 
 PCOD9047124
Probable space group: P -1
;
_chemical_formula_sum "Si O2"
_cell_formula_units_Z 14
_cell_length_a 8.946945
_cell_length_b 5.312079
_cell_length_c 13.642249
_cell_angle_alpha 88.637359
_cell_angle_beta 71.971004
_cell_angle_gamma 60.944173
_cell_volume 532.664413
_symmetry_space_group_name_H-M "P -1"
_symmetry_group_IT_number 2
_symmetry_cell_setting 'triclinic'
loop_
_space_group_symop_operation_xyz
x,y,z
-x,-y,-z
loop_
_atom_site_type_symbol
_atom_site_label
_atom_site_fract_x
_atom_site_fract_y
_atom_site_fract_z
Si Si1 0.574434 0.546328 0.086609
Si Si2 0.695762 0.426425 0.341613
Si Si3 0.681937 0.757135 0.521254
Si Si4 0.995609 0.477012 0.169862
Si Si5 0.039713 0.172865 0.648344
Si Si6 0.665787 0.379371 0.681411
Si Si7 0.797255 0.886184 0.035150
O O1 0.422125 0.615942 0.197546
O O2 0.650194 0.771852 0.067997
O O3 0.728599 0.213475 0.078660
O O4 0.500000 0.500000 0.000000
O O5 0.730859 0.478451 0.445148
O O6 0.807757 0.506385 0.243741
O O7 0.484170 0.619589 0.360390
O O8 0.795697 0.078922 0.319420
O O9 0.853842 0.792896 0.464145
O O10 0.661028 0.670072 0.635788
O O11 0.500000 0.000000 0.500000
O O12 0.058756 0.562941 0.255275
O O13 0.949863 0.696190 0.086625
O O14 0.129483 0.175203 0.091290
O O15 0.124444 0.866697 0.354833
#
# Coordination Sequence:
#
# PCOD9047124 Si02
#       7
#     2   2   2   2   2   2   2
#     4  12  27  46  70 112 152 195 254 309 370 446
#     4  11  24  47  71 106 140 192 240 304 371 444
#     4  11  25  47  72 103 147 186 242 303 373 448
#     4  10  24  43  72 103 145 192 248 305 365 449
#     4  11  25  46  72 105 143 187 247 301 370 448
#     4  12  25  46  74 105 144 193 243 309 371 437
#     4  11  25  45  74 103 149 205 249 305 380 432
#
# _framework density 26.282962999999999
#
# number of rings (size 3 to 8) (size 9 to 14) (size 15 to 20)
#    0.000    0.857    2.857    3.000    6.000    1.714 
#    7.714    0.000    0.000    0.000    0.000    0.000 
#    0.000    0.000    0.000    0.000    0.000    0.000 
#
# Total GULP energy -78257.991347 kJ/mol
# GULP energy per Si atom -5589.856525 kJ/mol
# Density = 2.622314 g / cm^3
# Si number density = 26.282963 Si / 1000 Ang^3
#
#
#
# Elastic Constant Matrix: (Units=GPa)
#
#
# Indices 1 2 3 4 5 6 
#
# 1 133.4802 9.4388 67.1018 -0.7696 -13.1888 4.3206
# 2 9.4388 50.9008 18.2691 -2.2813 1.4115 4.4763
# 3 67.1018 18.2691 142.0102 -11.1423 -19.6956 10.9415
# 4 -0.7696 -2.2813 -11.1423 28.6930 -2.8544 3.7534
# 5 -13.1888 1.4115 -19.6956 -2.8544 49.5444 -5.8723
# 6 4.3206 4.4763 10.9415 3.7534 -5.8723 35.9607
#
#
#
# Elastic Compliance Matrix: (Units=1/GPa)
#
#
# Indices 1 2 3 4 5 6 
#
# 1 0.009932 -0.000290 -0.004720 -0.001589 0.000752 0.000567
# 2 -0.000290 0.020908 -0.002594 0.000740 -0.001918 -0.002169
# 3 -0.004720 -0.002594 0.010537 0.004355 0.002987 -0.002283
# 4 -0.001589 0.000740 0.004355 0.037457 0.002892 -0.004664
# 5 0.000752 -0.001918 0.002987 0.002892 0.022094 0.002546
# 6 0.000567 -0.002169 -0.002283 -0.004664 0.002546 0.029607
#
#
# Mechanical properties :
#
#
# Convention : Reuss Voigt Hill
#
# Bulk Modulus (GPa) = 38.21067 57.33451 47.77259
# Shear Modulus (GPa) = 32.36983 38.27839 35.32411
#
# Velocity S-wave (km/s) = 3.51321 3.82042 3.67003
# Velocity P-wave (km/s) = 5.57015 6.42825 6.01453
#
# Compressibility (1/GPa) = 0.02617070
#
# Stress axis : x y z
#
# Youngs Moduli (GPa) = 100.68863 47.82899 94.90011
#
# Poissons Ratio (x) = 0.01385 0.44790
# Poissons Ratio (y) = 0.02916 0.24614
# Poissons Ratio (z) = 0.47522 0.12405
#
# Static dielectric constant tensor:
#      x y z
#    x 2.115580 -0.024160 0.021100 
#    y -0.024160 2.181670 0.023630 
#    z 0.021100 0.023630 2.024750 
# 
# From -- ./inp_files/510952.got.cif
#   From: 2010.05.17/outbox.cif.g08.bks.cpg/sg2_256_cif.got.tgz:510952.got - 2010.06.03 11:33:40.
