data_PCOD9047923
_publ_section_title
;
Structure prediction by ZEFSAII (Michael W. Deem and Ramdas Pophale) SiO2 
 PCOD9047923
Probable space group: P -1
;
_chemical_formula_sum "Si O2"
_cell_formula_units_Z 12
_cell_length_a 13.393101
_cell_length_b 6.748867
_cell_length_c 6.956105
_cell_angle_alpha 82.466200
_cell_angle_beta 128.791904
_cell_angle_gamma 91.819298
_cell_volume 484.799903
_symmetry_space_group_name_H-M "P -1"
_symmetry_group_IT_number 2
_symmetry_cell_setting 'triclinic'
loop_
_space_group_symop_operation_xyz
x,y,z
-x,-y,-z
loop_
_atom_site_type_symbol
_atom_site_label
_atom_site_fract_x
_atom_site_fract_y
_atom_site_fract_z
Si Si1 0.618919 0.253618 0.100884
Si Si2 0.568780 0.918212 0.400262
Si Si3 0.864057 0.007536 0.443361
Si Si4 0.214852 0.417269 0.709762
Si Si5 0.805375 0.623579 0.855091
Si Si6 0.910967 0.299113 0.773032
O O1 0.651333 0.476958 0.172383
O O2 0.592082 0.110192 0.267562
O O3 0.758655 0.165098 0.203653
O O4 0.519628 0.217865 0.818629
O O5 0.692324 0.777646 0.629615
O O6 0.500000 0.000000 0.500000
O O7 0.883984 0.089305 0.672250
O O8 0.000000 0.000000 0.500000
O O9 0.947171 0.696198 0.974349
O O10 0.200364 0.201163 0.628998
O O11 0.105681 0.555090 0.451798
O O12 0.201384 0.395150 0.922578
O O13 0.810056 0.405517 0.786011
#
# Coordination Sequence:
#
# PCOD9047923 Si02
#       6
#     2   2   2   2   2   2
#     4  10  26  47  72 110 148 190 253 310 373 438
#     4  11  25  50  77 107 150 202 251 305 372 451
#     4  11  22  43  78 108 147 199 243 302 370 445
#     4  11  23  46  76 109 150 194 248 307 372 439
#     4  11  23  44  76 110 149 198 248 307 371 442
#     4  10  24  44  71 113 155 187 248 308 374 439
#
# _framework density 24.752479999999998
#
# number of rings (size 3 to 8) (size 9 to 14) (size 15 to 20)
#    0.000    1.333    1.667    2.500    2.333    4.667 
#    0.000   34.167    0.000    0.000    0.000    0.000 
#    0.000    0.000    0.000    0.000    0.000    0.000 
#
# Total GULP energy -67178.707890 kJ/mol
# GULP energy per Si atom -5598.225657 kJ/mol
# Density = 2.469614 g / cm^3
# Si number density = 24.752480 Si / 1000 Ang^3
#
#
#
# Elastic Constant Matrix: (Units=GPa)
#
#
# Indices 1 2 3 4 5 6 
#
# 1 103.7570 58.6446 66.8758 20.3072 1.8772 -27.4938
# 2 58.6446 182.5297 77.5386 49.2081 -7.1375 -3.2195
# 3 66.8758 77.5386 183.4149 15.6938 2.3578 -23.3975
# 4 20.3072 49.2081 15.6938 50.7444 2.5575 7.3352
# 5 1.8772 -7.1375 2.3578 2.5575 48.7777 8.7821
# 6 -27.4938 -3.2195 -23.3975 7.3352 8.7821 40.3162
#
#
#
# Elastic Compliance Matrix: (Units=1/GPa)
#
#
# Indices 1 2 3 4 5 6 
#
# 1 0.017193 -0.002813 -0.003243 -0.004611 -0.002662 0.011037
# 2 -0.002813 0.009475 -0.002649 -0.007084 0.002340 -0.001919
# 3 -0.003243 -0.002649 0.007955 0.001140 -0.001108 0.002228
# 4 -0.004611 -0.007084 0.001140 0.029298 -0.000980 -0.008166
# 5 -0.002662 0.002340 -0.001108 -0.000980 0.022302 -0.006951
# 6 0.011037 -0.001919 0.002228 -0.008166 -0.006951 0.036470
#
#
# Mechanical properties :
#
#
# Convention : Reuss Voigt Hill
#
# Bulk Modulus (GPa) = 58.09123 97.31330 77.70227
# Shear Modulus (GPa) = 34.28382 45.74382 40.01382
#
# Velocity S-wave (km/s) = 3.72569 4.30356 4.02501
# Velocity P-wave (km/s) = 6.48286 8.00588 7.28428
#
# Compressibility (1/GPa) = 0.01721430
#
# Stress axis : x y z
#
# Youngs Moduli (GPa) = 58.16221 105.54457 125.70286
#
# Poissons Ratio (x) = 0.29685 0.40768
# Poissons Ratio (y) = 0.16358 0.33296
# Poissons Ratio (z) = 0.18863 0.27956
#
# Static dielectric constant tensor:
#      x y z
#    x 1.999220 -0.009550 0.013000 
#    y -0.009550 2.098620 0.008220 
#    z 0.013000 0.008220 1.912570 
# 
# From -- ./inp_files/87694.got.cif
#   From: 2010.05.17/outbox.cif.g08.bks.cpg/sg2_44_cif.got.tgz:87694.got - 2010.06.03 11:33:40.
