data_PCOD9047110
_publ_section_title
;
Structure prediction by ZEFSAII (Michael W. Deem and Ramdas Pophale) SiO2 
 PCOD9047110
Probable space group: P -1
;
_chemical_formula_sum "Si O2"
_cell_formula_units_Z 14
_cell_length_a 14.215415
_cell_length_b 8.502692
_cell_length_c 6.661502
_cell_angle_alpha 102.655768
_cell_angle_beta 117.083570
_cell_angle_gamma 111.615731
_cell_volume 589.214457
_symmetry_space_group_name_H-M "P -1"
_symmetry_group_IT_number 2
_symmetry_cell_setting 'triclinic'
loop_
_space_group_symop_operation_xyz
x,y,z
-x,-y,-z
loop_
_atom_site_type_symbol
_atom_site_label
_atom_site_fract_x
_atom_site_fract_y
_atom_site_fract_z
Si Si1 0.219073 0.433323 0.996242
Si Si2 0.597736 0.705344 0.821926
Si Si3 0.001786 0.009767 0.768949
Si Si4 0.383405 0.636123 0.847212
Si Si5 0.562003 0.887682 0.450993
Si Si6 0.242945 0.736527 0.424157
Si Si7 0.835775 0.059494 0.356068
O O1 0.328184 0.399823 0.164687
O O2 0.260191 0.496022 0.822236
O O3 0.212402 0.584197 0.176407
O O4 0.093234 0.229888 0.850320
O O5 0.569169 0.766261 0.601277
O O6 0.470143 0.582272 0.792569
O O7 0.697558 0.904873 0.091216
O O8 0.871063 0.952721 0.526619
O O9 0.065616 0.901921 0.713073
O O10 0.000000 0.000000 0.000000
O O11 0.478652 0.772890 0.148616
O O12 0.342023 0.731071 0.666572
O O13 0.698175 0.057218 0.563601
O O14 0.500000 0.000000 0.500000
O O15 0.147380 0.747559 0.485052
#
# Coordination Sequence:
#
# PCOD9047110 Si02
#       7
#     2   2   2   2   2   2   2
#     4  11  27  42  66 104 135 175 224 284 338 388
#     4  11  24  42  69  99 140 184 225 265 331 405
#     4  10  25  50  72  95 131 174 233 279 337 401
#     4  12  23  41  66  99 146 176 224 265 335 402
#     4  12  22  40  67 100 140 187 223 260 331 408
#     4  12  25  41  69 103 141 173 223 279 333 395
#     4  10  24  43  72 100 123 183 225 267 336 404
#
# _framework density 23.760448
#
# number of rings (size 3 to 8) (size 9 to 14) (size 15 to 20)
#    0.000    0.857    4.286    1.714    4.000    7.429 
#    0.000    1.429    0.000    0.000    0.000    0.000 
#    0.000    0.000    0.000    0.000    0.000    0.000 
#
# Total GULP energy -78232.405446 kJ/mol
# GULP energy per Si atom -5588.028960 kJ/mol
# Density = 2.370637 g / cm^3
# Si number density = 23.760448 Si / 1000 Ang^3
#
#
#
# Elastic Constant Matrix: (Units=GPa)
#
#
# Indices 1 2 3 4 5 6 
#
# 1 140.6064 25.1956 30.7760 6.0931 -26.2260 -20.2747
# 2 25.1956 72.8571 22.5894 6.1444 -20.4496 8.7312
# 3 30.7760 22.5894 108.6174 -8.5687 -21.9120 8.5928
# 4 6.0931 6.1444 -8.5687 39.7112 -1.8586 -7.1239
# 5 -26.2260 -20.4496 -21.9120 -1.8586 33.2784 1.1027
# 6 -20.2747 8.7312 8.5928 -7.1239 1.1027 38.5008
#
#
#
# Elastic Compliance Matrix: (Units=1/GPa)
#
#
# Indices 1 2 3 4 5 6 
#
# 1 0.009634 -0.002054 -0.001780 -0.000283 0.004952 0.005742
# 2 -0.002054 0.018279 -0.001255 -0.003419 0.008790 -0.005831
# 3 -0.001780 -0.001255 0.011562 0.002709 0.005686 -0.002895
# 4 -0.000283 -0.003419 0.002709 0.027282 0.000817 0.005047
# 5 0.004952 0.008790 0.005686 0.000817 0.043201 -0.001741
# 6 0.005742 -0.005831 -0.002895 0.005047 -0.001741 0.031950
#
#
# Mechanical properties :
#
#
# Convention : Reuss Voigt Hill
#
# Bulk Modulus (GPa) = 34.13327 53.24475 43.68901
# Shear Modulus (GPa) = 30.89282 38.53273 34.71277
#
# Velocity S-wave (km/s) = 3.60971 4.03142 3.82638
# Velocity P-wave (km/s) = 5.63650 6.64285 6.16026
#
# Compressibility (1/GPa) = 0.02929693
#
# Stress axis : x y z
#
# Youngs Moduli (GPa) = 103.80380 54.70707 86.49217
#
# Poissons Ratio (x) = 0.11237 0.15396
# Poissons Ratio (y) = 0.21322 0.10852
# Poissons Ratio (z) = 0.18478 0.06864
#
# Static dielectric constant tensor:
#      x y z
#    x 2.040870 0.065470 -0.023800 
#    y 0.065470 1.937870 0.042610 
#    z -0.023800 0.042610 1.924400 
# 
# From -- ./inp_files/90614.got.cif
#   From: 2010.05.17/outbox.cif.g08.bks.cpg/sg2_46_cif.got.tgz:90614.got - 2010.06.03 11:33:40.
