data_PCOD9047496
_publ_section_title
;
Structure prediction by ZEFSAII (Michael W. Deem and Ramdas Pophale) SiO2 
 PCOD9047496
Probable space group: P -1
;
_chemical_formula_sum "Si O2"
_cell_formula_units_Z 16
_cell_length_a 19.368483
_cell_length_b 11.629617
_cell_length_c 17.474747
_cell_angle_alpha 150.506290
_cell_angle_beta 21.711397
_cell_angle_gamma 139.941468
_cell_volume 696.351941
_symmetry_space_group_name_H-M "P -1"
_symmetry_group_IT_number 2
_symmetry_cell_setting 'triclinic'
loop_
_space_group_symop_operation_xyz
x,y,z
-x,-y,-z
loop_
_atom_site_type_symbol
_atom_site_label
_atom_site_fract_x
_atom_site_fract_y
_atom_site_fract_z
Si Si1 0.396219 0.640341 0.614206
Si Si2 0.040487 0.430740 0.507271
Si Si3 0.656686 0.066018 0.768527
Si Si4 0.456454 0.511195 0.140078
Si Si5 0.481116 0.049858 0.441359
Si Si6 0.351411 0.786396 0.967272
Si Si7 0.951976 0.129261 0.801872
Si Si8 0.830028 0.870421 0.079593
O O1 0.500000 0.500000 0.500000
O O2 0.476205 0.871682 0.642228
O O3 0.481024 0.460415 0.353044
O O4 0.172109 0.729673 0.918237
O O5 0.248867 0.461394 0.334329
O O6 0.000000 0.500000 0.500000
O O7 0.037213 0.154345 0.362938
O O8 0.902164 0.630946 0.817083
O O9 0.463794 0.973695 0.924187
O O10 0.607053 0.306970 0.910367
O O11 0.713103 0.131243 0.833517
O O12 0.827388 0.868403 0.438636
O O13 0.460881 0.778736 0.312291
O O14 0.500000 0.500000 0.000000
O O15 0.283559 0.193079 0.766046
O O16 0.669707 0.050599 0.297586
O O17 0.174144 0.779427 0.090849
O O18 0.000000 0.000000 0.000000
#
# Coordination Sequence:
#
# PCOD9047496 Si02
#       8
#     2   2   2   2   2   2   2   2
#     4  10  24  45  69  95 136 183 227 285 338 409
#     4  12  24  43  68 105 141 178 232 292 346 424
#     4  11  24  43  70 102 129 182 226 285 344 413
#     4  12  24  42  72 100 138 180 228 288 351 411
#     4  11  25  44  71 101 141 182 227 285 354 411
#     4  10  24  44  67  97 139 175 230 277 346 414
#     4  11  22  44  68  97 134 175 233 282 344 403
#     4  11  24  44  68 105 139 182 226 286 352 419
#
# _framework density 22.976886
#
# number of rings (size 3 to 8) (size 9 to 14) (size 15 to 20)
#    0.000    1.000    2.500    4.125    7.000    0.500 
#    0.000    0.000    0.000    0.000    0.000    0.000 
#    0.000    0.000    0.000    0.000    0.000    0.000 
#
# Total GULP energy -89479.399558 kJ/mol
# GULP energy per Si atom -5592.462472 kJ/mol
# Density = 2.292459 g / cm^3
# Si number density = 22.976886 Si / 1000 Ang^3
#
#
#
# Elastic Constant Matrix: (Units=GPa)
#
#
# Indices 1 2 3 4 5 6 
#
# 1 62.2985 26.3623 30.7768 -9.5199 -7.5345 -6.1116
# 2 26.3623 68.9219 22.0600 -0.3811 -8.2785 -11.8891
# 3 30.7768 22.0600 160.0320 -10.3643 13.7585 -12.7722
# 4 -9.5199 -0.3811 -10.3643 41.8235 3.6573 2.6109
# 5 -7.5345 -8.2785 13.7585 3.6573 33.0302 -2.6067
# 6 -6.1116 -11.8891 -12.7722 2.6109 -2.6067 36.3416
#
#
#
# Elastic Compliance Matrix: (Units=1/GPa)
#
#
# Indices 1 2 3 4 5 6 
#
# 1 0.021608 -0.006596 -0.003353 0.003630 0.004298 0.000345
# 2 -0.006596 0.018906 -0.001478 -0.002406 0.004515 0.005053
# 3 -0.003353 -0.001478 0.007665 0.001430 -0.004390 0.001229
# 4 0.003630 -0.002406 0.001430 0.025469 -0.003328 -0.001742
# 5 0.004298 0.004515 -0.004390 -0.003328 0.034852 0.003396
# 6 0.000345 0.005053 0.001229 -0.001742 0.003396 0.030028
#
#
# Mechanical properties :
#
#
# Convention : Reuss Voigt Hill
#
# Bulk Modulus (GPa) = 39.48749 49.96116 44.72433
# Shear Modulus (GPa) = 29.44220 36.37594 32.90907
#
# Velocity S-wave (km/s) = 3.58353 3.98320 3.78864
# Velocity P-wave (km/s) = 5.86048 6.55331 6.21655
#
# Compressibility (1/GPa) = 0.02532447
#
# Stress axis : x y z
#
# Youngs Moduli (GPa) = 46.27979 52.89377 130.45469
#
# Poissons Ratio (x) = 0.34888 0.43744
# Poissons Ratio (y) = 0.30525 0.19285
# Poissons Ratio (z) = 0.15518 0.07819
#
# Static dielectric constant tensor:
#      x y z
#    x 1.805540 -0.021410 -0.012410 
#    y -0.021410 1.864260 -0.006400 
#    z -0.012410 -0.006400 1.872480 
# 
# From -- ./inp_files/578017.got.cif
#   From: 2010.05.17/outbox.cif.g08.bks.cpg/sg2_290_cif.got.tgz:578017.got - 2010.06.03 11:33:40.
