data_PCOD9047470
_publ_section_title
;
Structure prediction by ZEFSAII (Michael W. Deem and Ramdas Pophale) SiO2 
 PCOD9047470
Probable space group: P -1
;
_chemical_formula_sum "Si O2"
_cell_formula_units_Z 14
_cell_length_a 15.119729
_cell_length_b 6.157741
_cell_length_c 12.221038
_cell_angle_alpha 107.947304
_cell_angle_beta 28.895103
_cell_angle_gamma 118.406283
_cell_volume 467.625821
_symmetry_space_group_name_H-M "P -1"
_symmetry_group_IT_number 2
_symmetry_cell_setting 'triclinic'
loop_
_space_group_symop_operation_xyz
x,y,z
-x,-y,-z
loop_
_atom_site_type_symbol
_atom_site_label
_atom_site_fract_x
_atom_site_fract_y
_atom_site_fract_z
Si Si1 0.763563 0.530058 0.797444
Si Si2 0.346437 0.878238 0.326658
Si Si3 0.147306 0.364327 0.823774
Si Si4 0.818952 0.103883 0.791592
Si Si5 0.133980 0.189444 0.046774
Si Si6 0.550321 0.200768 0.571550
Si Si7 0.269861 0.304234 0.347291
O O1 0.803750 0.824072 0.722980
O O2 0.890443 0.689715 0.795170
O O3 0.526089 0.437984 0.079464
O O4 0.827543 0.293473 0.714727
O O5 0.593400 0.021466 0.066717
O O6 0.313386 0.830429 0.484978
O O7 0.281408 0.583448 0.308247
O O8 0.275424 0.070616 0.379229
O O9 0.195913 0.370439 0.900812
O O10 0.335624 0.524768 0.565323
O O11 0.000000 0.500000 0.000000
O O12 0.036713 0.077387 0.855163
O O13 0.034229 0.244717 0.640417
O O14 0.333886 0.149714 0.845374
O O15 0.500000 0.000000 0.500000
#
# Coordination Sequence:
#
# PCOD9047470 Si02
#       7
#     2   2   2   2   2   2   2
#     4  10  24  44  67 108 141 180 234 291 359 426
#     4  10  25  43  67 102 144 180 231 286 356 424
#     4  11  26  52  76 103 143 193 242 306 353 422
#     4  11  20  42  65  95 144 184 224 288 353 417
#     4  11  26  49  77 107 143 189 249 296 361 432
#     4  12  26  48  75 107 144 193 244 294 360 431
#     4   9  23  39  63 100 138 182 229 281 355 423
#
# _framework density 29.938469000000001
#
# number of rings (size 3 to 8) (size 9 to 14) (size 15 to 20)
#    0.857    0.571    1.429    2.571    4.000    5.714 
#    0.000    0.000    0.000    0.000    0.000    0.000 
#    0.000    0.000    0.000    0.000    0.000    0.000 
#
# Total GULP energy -78292.957899 kJ/mol
# GULP energy per Si atom -5592.354136 kJ/mol
# Density = 2.987033 g / cm^3
# Si number density = 29.938469 Si / 1000 Ang^3
#
#
#
# Elastic Constant Matrix: (Units=GPa)
#
#
# Indices 1 2 3 4 5 6 
#
# 1 257.6377 132.7136 13.6026 -10.3242 -23.2232 -33.2613
# 2 132.7136 188.9592 68.6749 1.0404 -12.7964 -22.1578
# 3 13.6026 68.6749 175.1459 -18.6417 -12.9466 -17.3354
# 4 -10.3242 1.0404 -18.6417 75.9779 -18.2053 -7.9961
# 5 -23.2232 -12.7964 -12.9466 -18.2053 47.3966 11.8355
# 6 -33.2613 -22.1578 -17.3354 -7.9961 11.8355 82.2768
#
#
#
# Elastic Compliance Matrix: (Units=1/GPa)
#
#
# Indices 1 2 3 4 5 6 
#
# 1 0.007193 -0.005472 0.002266 0.002560 0.003225 0.001696
# 2 -0.005472 0.010487 -0.004093 -0.002349 -0.001816 -0.000217
# 3 0.002266 -0.004093 0.007829 0.003149 0.003020 0.001335
# 4 0.002560 -0.002349 0.003149 0.016235 0.007319 0.001591
# 5 0.003225 -0.001816 0.003020 0.007319 0.026227 -0.001610
# 6 0.001696 -0.000217 0.001335 0.001591 -0.001610 0.013449
#
#
# Mechanical properties :
#
#
# Convention : Reuss Voigt Hill
#
# Bulk Modulus (GPa) = 91.65378 116.85833 104.25605
# Shear Modulus (GPa) = 50.17290 68.24704 59.20997
#
# Velocity S-wave (km/s) = 4.09818 4.77967 4.45198
# Velocity P-wave (km/s) = 7.28518 8.34134 7.83109
#
# Compressibility (1/GPa) = 0.01091062
#
# Stress axis : x y z
#
# Youngs Moduli (GPa) = 139.02782 95.35302 127.73215
#
# Poissons Ratio (x) = 0.52177 -0.28940
# Poissons Ratio (y) = 0.76076 0.52280
# Poissons Ratio (z) = -0.31499 0.39027
#
# Static dielectric constant tensor:
#      x y z
#    x 2.519250 0.006880 0.060270 
#    y 0.006880 2.384560 -0.033440 
#    z 0.060270 -0.033440 2.256040 
# 
# From -- ./inp_files/484108.got.cif
#   From: 2010.05.17/outbox.cif.g08.bks.cpg/sg2_243_cif.got.tgz:484108.got - 2010.06.03 11:33:40.
