data_PCOD9047453
_publ_section_title
;
Structure prediction by ZEFSAII (Michael W. Deem and Ramdas Pophale) SiO2 
 PCOD9047453
Probable space group: P -1
;
_chemical_formula_sum "Si O2"
_cell_formula_units_Z 12
_cell_length_a 16.764076
_cell_length_b 6.976757
_cell_length_c 7.651970
_cell_angle_alpha 94.773319
_cell_angle_beta 54.707765
_cell_angle_gamma 126.956011
_cell_volume 533.723729
_symmetry_space_group_name_H-M "P -1"
_symmetry_group_IT_number 2
_symmetry_cell_setting 'triclinic'
loop_
_space_group_symop_operation_xyz
x,y,z
-x,-y,-z
loop_
_atom_site_type_symbol
_atom_site_label
_atom_site_fract_x
_atom_site_fract_y
_atom_site_fract_z
Si Si1 0.657192 0.666920 0.779773
Si Si2 0.767735 0.558039 0.928188
Si Si3 0.190530 0.738841 0.693242
Si Si4 0.835909 0.281497 0.663004
Si Si5 0.964449 0.759428 0.930314
Si Si6 0.349095 0.311390 0.619995
O O1 0.703607 0.558475 0.837335
O O2 0.671157 0.652303 0.553204
O O3 0.759013 0.975066 0.730469
O O4 0.500000 0.500000 0.000000
O O5 0.759749 0.315876 0.900693
O O6 0.926804 0.774369 0.783646
O O7 0.716281 0.627313 0.155398
O O8 0.200348 0.679908 0.478402
O O9 0.154731 0.513460 0.843168
O O10 0.300767 0.024201 0.658297
O O11 0.076033 0.748071 0.809885
O O12 0.000000 0.500000 0.500000
O O13 0.000000 0.000000 0.000000
O O14 0.500000 0.500000 0.500000
#
# Coordination Sequence:
#
# PCOD9047453 Si02
#       6
#     2   2   2   2   2   2
#     4  11  27  50  71 103 148 186 241 299 348 429
#     4  12  26  42  75 103 141 188 236 289 366 416
#     4  10  24  44  67 102 145 178 233 296 346 425
#     4  11  26  45  69 108 143 185 236 296 358 420
#     4  11  23  40  71 103 138 183 236 286 358 421
#     4  11  24  49  72 100 141 192 236 293 354 422
#
# _framework density 22.483540999999999
#
# number of rings (size 3 to 8) (size 9 to 14) (size 15 to 20)
#    0.000    1.000    5.000    0.000    7.000    1.333 
#    0.000    1.667    0.000    0.000    0.000    0.000 
#    0.000    0.000    0.000    0.000    0.000    0.000 
#
# Total GULP energy -66803.103433 kJ/mol
# GULP energy per Si atom -5566.925286 kJ/mol
# Density = 2.243237 g / cm^3
# Si number density = 22.483541 Si / 1000 Ang^3
#
#
#
# Elastic Constant Matrix: (Units=GPa)
#
#
# Indices 1 2 3 4 5 6 
#
# 1 141.7387 75.8067 30.7978 0.3790 -4.4982 1.9623
# 2 75.8067 110.2356 87.9492 23.3260 -22.4198 17.8491
# 3 30.7978 87.9492 90.5293 20.0399 16.6000 0.6814
# 4 0.3790 23.3260 20.0399 46.4871 13.9491 -1.1112
# 5 -4.4982 -22.4198 16.6000 13.9491 25.4612 -5.2405
# 6 1.9623 17.8491 0.6814 -1.1112 -5.2405 28.7934
#
#
#
# Elastic Compliance Matrix: (Units=1/GPa)
#
#
# Indices 1 2 3 4 5 6 
#
# 1 0.007027 0.003731 -0.007487 -0.001788 0.010219 -0.000824
# 2 0.003731 -0.015933 0.017436 0.009225 -0.028906 0.004305
# 3 -0.007487 0.017436 -0.004481 -0.013878 0.023217 -0.006502
# 4 -0.001788 0.009225 -0.013878 0.021494 0.004328 -0.003651
# 5 0.010219 -0.028906 0.023217 0.004328 0.001648 0.017140
# 6 -0.000824 0.004305 -0.006502 -0.003651 0.017140 0.035250
#
#
# Mechanical properties :
#
#
# Convention : Reuss Voigt Hill
#
# Bulk Modulus (GPa) = 71.57445 81.29010 76.43228
# Shear Modulus (GPa) = 224.19317 30.01168 127.10242
#
# Velocity S-wave (km/s) = 9.99654 3.65749 7.52689
# Velocity P-wave (km/s) = 12.85085 7.35325 10.46935
#
# Compressibility (1/GPa) = 0.01397147
#
# Stress axis : x y z
#
# Youngs Moduli (GPa) = 142.30968 -62.76249 -223.14254
#
# Poissons Ratio (x) = 0.23420 -1.67076
# Poissons Ratio (y) = -0.53102 3.89060
# Poissons Ratio (z) = 1.06553 1.09430
#
# Static dielectric constant tensor:
#      x y z
#    x 1.867580 0.024120 0.003020 
#    y 0.024120 1.925780 0.077010 
#    z 0.003020 0.077010 2.014510 
# 
# From -- ./inp_files/321343.got.cif
#   From: 2010.05.17/outbox.cif.g08.bks.cpg/sg2_161_cif.got.tgz:321343.got - 2010.06.03 11:33:40.
