data_PCOD9047256
_publ_section_title
;
Structure prediction by ZEFSAII (Michael W. Deem and Ramdas Pophale) SiO2 
 PCOD9047256
Probable space group: P -1
;
_chemical_formula_sum "Si O2"
_cell_formula_units_Z 14
_cell_length_a 13.952317
_cell_length_b 11.440377
_cell_length_c 5.256452
_cell_angle_alpha 69.395537
_cell_angle_beta 85.225651
_cell_angle_gamma 45.651591
_cell_volume 544.757902
_symmetry_space_group_name_H-M "P -1"
_symmetry_group_IT_number 2
_symmetry_cell_setting 'triclinic'
loop_
_space_group_symop_operation_xyz
x,y,z
-x,-y,-z
loop_
_atom_site_type_symbol
_atom_site_label
_atom_site_fract_x
_atom_site_fract_y
_atom_site_fract_z
Si Si1 0.779756 0.846716 0.604201
Si Si2 0.810620 0.463013 0.436764
Si Si3 0.407487 0.167147 0.082075
Si Si4 0.412293 0.773359 0.799161
Si Si5 0.946254 0.731415 0.146321
Si Si6 0.336843 0.610890 0.183158
Si Si7 0.062390 0.825079 0.763491
O O1 0.661167 0.854658 0.669947
O O2 0.850955 0.781444 0.364014
O O3 0.709089 0.050444 0.471911
O O4 0.881015 0.733517 0.907908
O O5 0.921437 0.304236 0.337485
O O6 0.895719 0.442122 0.669930
O O7 0.723706 0.420009 0.560192
O O8 0.713447 0.653718 0.186395
O O9 0.497857 0.195058 0.149411
O O10 0.500000 0.000000 0.000000
O O11 0.360424 0.737036 0.074381
O O12 0.516323 0.588563 0.762096
O O13 0.963975 0.863779 0.979677
O O14 0.215602 0.707434 0.925416
O O15 0.000000 0.000000 0.500000
#
# Coordination Sequence:
#
# PCOD9047256 Si02
#       7
#     2   2   2   2   2   2   2
#     4  12  26  47  77 111 154 206 261 312 377 457
#     4  11  25  48  78 112 155 194 258 316 395 455
#     4  12  27  51  77 110 153 212 261 318 373 458
#     4  11  24  48  73 113 155 197 262 312 394 454
#     4  11  26  48  74 116 148 198 256 318 383 461
#     4  10  24  43  77 113 151 196 244 331 390 465
#     4  11  23  46  77 113 156 197 248 316 397 463
#
# _framework density 25.699490000000001
#
# number of rings (size 3 to 8) (size 9 to 14) (size 15 to 20)
#    0.000    0.857    2.857    3.000    2.000    4.000 
#    2.571    0.000    0.000    0.000    0.000    0.000 
#    0.000    0.000    0.000    0.000    0.000    0.000 
#
# Total GULP energy -78418.230866 kJ/mol
# GULP energy per Si atom -5601.302205 kJ/mol
# Density = 2.564100 g / cm^3
# Si number density = 25.699490 Si / 1000 Ang^3
#
#
#
# Elastic Constant Matrix: (Units=GPa)
#
#
# Indices 1 2 3 4 5 6 
#
# 1 123.2374 18.1220 61.0467 3.9593 -46.6994 -1.7453
# 2 18.1220 86.3614 67.1869 -14.9379 -16.4407 -10.9086
# 3 61.0467 67.1869 181.4271 -13.9859 -32.8337 -5.4620
# 4 3.9593 -14.9379 -13.9859 47.5808 -8.6579 -10.2669
# 5 -46.6994 -16.4407 -32.8337 -8.6579 63.0391 6.5185
# 6 -1.7453 -10.9086 -5.4620 -10.2669 6.5185 26.8428
#
#
#
# Elastic Compliance Matrix: (Units=1/GPa)
#
#
# Indices 1 2 3 4 5 6 
#
# 1 0.012615 0.001174 -0.003317 -0.000528 0.008009 -0.001524
# 2 0.001174 0.018695 -0.006131 0.006199 0.002558 0.008176
# 3 -0.003317 -0.006131 0.009124 0.001054 0.000910 -0.000668
# 4 -0.000528 0.006199 0.001054 0.026643 0.004207 0.011868
# 5 0.008009 0.002558 0.000910 0.004207 0.023765 -0.002417
# 6 -0.001524 0.008176 -0.000668 0.011868 -0.002417 0.045468
#
#
# Mechanical properties :
#
#
# Convention : Reuss Voigt Hill
#
# Bulk Modulus (GPa) = 41.86484 75.97081 58.91782
# Shear Modulus (GPa) = 31.09062 43.80388 37.44725
#
# Velocity S-wave (km/s) = 3.48196 4.13300 3.82137
# Velocity P-wave (km/s) = 5.70008 7.23885 6.51505
#
# Compressibility (1/GPa) = 0.02388640
#
# Stress axis : x y z
#
# Youngs Moduli (GPa) = 79.27067 53.49092 109.59767
#
# Poissons Ratio (x) = -0.06280 0.36349
# Poissons Ratio (y) = -0.09306 0.67197
# Poissons Ratio (z) = 0.26291 0.32797
#
# Static dielectric constant tensor:
#      x y z
#    x 2.049340 -0.016400 -0.001460 
#    y -0.016400 1.925520 0.072620 
#    z -0.001460 0.072620 2.038810 
# 
# From -- ./inp_files/93184.got.cif
#   From: 2010.05.17/outbox.cif.g08.bks.cpg/sg2_47_cif.got.tgz:93184.got - 2010.06.03 11:33:40.
