data_PCOD9047598
_publ_section_title
;
Structure prediction by ZEFSAII (Michael W. Deem and Ramdas Pophale) SiO2 
 PCOD9047598
Probable space group: P -1
;
_chemical_formula_sum "Si O2"
_cell_formula_units_Z 12
_cell_length_a 7.138696
_cell_length_b 11.550925
_cell_length_c 13.813732
_cell_angle_alpha 41.717755
_cell_angle_beta 106.589100
_cell_angle_gamma 129.950322
_cell_volume 537.523251
_symmetry_space_group_name_H-M "P -1"
_symmetry_group_IT_number 2
_symmetry_cell_setting 'triclinic'
loop_
_space_group_symop_operation_xyz
x,y,z
-x,-y,-z
loop_
_atom_site_type_symbol
_atom_site_label
_atom_site_fract_x
_atom_site_fract_y
_atom_site_fract_z
Si Si1 0.655540 0.478927 0.304285
Si Si2 0.927044 0.311482 0.184499
Si Si3 0.690819 0.113664 0.617146
Si Si4 0.229295 0.874102 0.155729
Si Si5 0.852431 0.907027 0.639739
Si Si6 0.374517 0.641255 0.200622
O O1 0.704847 0.324497 0.459756
O O2 0.451419 0.322598 0.284854
O O3 0.507605 0.536835 0.309695
O O4 0.938407 0.720958 0.164066
O O5 0.009147 0.173006 0.238880
O O6 0.107540 0.451060 0.218643
O O7 0.619901 0.121704 0.284020
O O8 0.000000 0.500000 0.000000
O O9 0.788860 0.135267 0.725979
O O10 0.848666 0.084717 0.584929
O O11 0.330390 0.745204 0.217317
O O12 0.428105 0.137261 0.980713
O O13 0.000000 0.000000 0.500000
#
# Coordination Sequence:
#
# PCOD9047598 Si02
#       6
#     2   2   2   2   2   2
#     4  11  24  42  69  93 133 171 214 268 322 387
#     4  11  23  45  69  97 128 170 220 272 318 385
#     4  12  25  42  67 102 130 167 221 269 323 382
#     4  11  24  44  63  97 136 172 212 264 321 393
#     4  11  25  44  68  96 128 172 219 270 325 379
#     4  10  24  44  68  93 133 176 213 257 331 382
#
# _framework density 22.324615999999999
#
# number of rings (size 3 to 8) (size 9 to 14) (size 15 to 20)
#    0.000    1.000    3.333    2.500    4.667    2.667 
#    3.000    0.000    0.000    0.000    0.000    0.000 
#    0.000    0.000    0.000    0.000    0.000    0.000 
#
# Total GULP energy -67159.519366 kJ/mol
# GULP energy per Si atom -5596.626614 kJ/mol
# Density = 2.227380 g / cm^3
# Si number density = 22.324616 Si / 1000 Ang^3
#
#
#
# Elastic Constant Matrix: (Units=GPa)
#
#
# Indices 1 2 3 4 5 6 
#
# 1 152.6836 47.0839 50.2185 8.8650 22.0155 -23.3986
# 2 47.0839 51.7837 20.6433 -13.3941 -2.6216 -16.9800
# 3 50.2185 20.6433 89.6739 -5.8500 11.8407 -9.7324
# 4 8.8650 -13.3941 -5.8500 31.3730 3.1690 -6.3287
# 5 22.0155 -2.6216 11.8407 3.1690 34.6627 -3.8552
# 6 -23.3986 -16.9800 -9.7324 -6.3287 -3.8552 30.5846
#
#
#
# Elastic Compliance Matrix: (Units=1/GPa)
#
#
# Indices 1 2 3 4 5 6 
#
# 1 0.013961 -0.014846 -0.004306 -0.010731 -0.007775 -0.002132
# 2 -0.014846 0.048323 -0.000233 0.028066 0.013140 0.022860
# 3 -0.004306 -0.000233 0.014415 0.004406 -0.002413 0.001771
# 4 -0.010731 0.028066 0.004406 0.051244 0.004973 0.020005
# 5 -0.007775 0.013140 -0.002413 0.004973 0.035832 0.006125
# 6 -0.002132 0.022860 0.001771 0.020005 0.006125 0.049231
#
#
# Mechanical properties :
#
#
# Convention : Reuss Voigt Hill
#
# Bulk Modulus (GPa) = 26.36492 58.89251 42.62872
# Shear Modulus (GPa) = 18.90935 31.07044 24.98989
#
# Velocity S-wave (km/s) = 2.91351 3.73467 3.34935
# Velocity P-wave (km/s) = 4.81181 6.71077 5.83900
#
# Compressibility (1/GPa) = 0.03792918
#
# Stress axis : x y z
#
# Youngs Moduli (GPa) = 71.62693 20.69401 69.37393
#
# Poissons Ratio (x) = 0.30722 0.29870
# Poissons Ratio (y) = 1.06337 0.01619
# Poissons Ratio (z) = 0.30840 0.00483
#
# Static dielectric constant tensor:
#      x y z
#    x 1.835260 0.001870 0.015390 
#    y 0.001870 1.820850 -0.028220 
#    z 0.015390 -0.028220 1.815430 
# 
# From -- ./inp_files/26177.got.cif
#   From: 2010.05.17/outbox.cif.g08.bks.cpg/sg2_14_cif.got.tgz:26177.got - 2010.06.03 11:33:40.
