data_PCOD9047586
_publ_section_title
;
Structure prediction by ZEFSAII (Michael W. Deem and Ramdas Pophale) SiO2 
 PCOD9047586
Probable space group: P -1
;
_chemical_formula_sum "Si O2"
_cell_formula_units_Z 16
_cell_length_a 7.865058
_cell_length_b 23.695214
_cell_length_c 8.832790
_cell_angle_alpha 130.564692
_cell_angle_beta 52.669252
_cell_angle_gamma 148.266857
_cell_volume 651.838343
_symmetry_space_group_name_H-M "P -1"
_symmetry_group_IT_number 2
_symmetry_cell_setting 'triclinic'
loop_
_space_group_symop_operation_xyz
x,y,z
-x,-y,-z
loop_
_atom_site_type_symbol
_atom_site_label
_atom_site_fract_x
_atom_site_fract_y
_atom_site_fract_z
Si Si1 0.227208 0.634400 0.453622
Si Si2 0.095446 0.210207 0.087720
Si Si3 0.283019 0.774744 0.900674
Si Si4 0.562296 0.813877 0.362235
Si Si5 0.301065 0.378963 0.826694
Si Si6 0.488145 0.420424 0.458893
Si Si7 0.306582 0.995380 0.826330
Si Si8 0.827704 0.030240 0.486017
O O1 0.303838 0.700717 0.679751
O O2 0.249594 0.700028 0.418365
O O3 0.500539 0.644801 0.289185
O O4 0.870591 0.505579 0.433360
O O5 0.324900 0.314824 0.261431
O O6 0.888104 0.215624 0.113385
O O7 0.305356 0.213893 0.869977
O O8 0.866627 0.095601 0.107951
O O9 0.622155 0.901268 0.986646
O O10 0.047355 0.710310 0.060545
O O11 0.825150 0.895561 0.498487
O O12 0.577636 0.895781 0.409467
O O13 0.303456 0.383315 0.652153
O O14 0.500000 0.500000 0.000000
O O15 0.500000 0.500000 0.500000
O O16 0.665585 0.054121 0.708612
O O17 0.150598 0.944880 0.657645
#
# Coordination Sequence:
#
# PCOD9047586 Si02
#       8
#     2   2   2   2   2   2   2   2
#     4  12  26  48  79 105 142 200 240 300 373 430
#     4  12  25  45  70 108 151 192 240 314 358 429
#     4  12  25  48  75 109 148 194 244 302 373 434
#     4  11  25  45  71 103 151 190 242 297 367 437
#     4  12  26  51  76 108 145 190 250 303 363 440
#     4  12  28  48  74 109 147 188 249 306 363 442
#     4  11  25  43  73 105 144 193 245 297 370 428
#     4  10  24  44  68 107 143 195 240 300 358 441
#
# _framework density 24.545963
#
# number of rings (size 3 to 8) (size 9 to 14) (size 15 to 20)
#    0.000    0.500    5.000    1.500    8.750    2.000 
#    0.000    0.000    0.000    0.000    0.000    0.000 
#    0.000    0.000    0.000    0.000    0.000    0.000 
#
# Total GULP energy -89766.691492 kJ/mol
# GULP energy per Si atom -5610.418218 kJ/mol
# Density = 2.449010 g / cm^3
# Si number density = 24.545963 Si / 1000 Ang^3
#
#
#
# Elastic Constant Matrix: (Units=GPa)
#
#
# Indices 1 2 3 4 5 6 
#
# 1 48.2934 11.9424 10.4397 -6.3456 12.7810 -11.2148
# 2 11.9424 149.0712 55.7066 -5.5239 17.1892 -6.3065
# 3 10.4397 55.7066 152.9147 3.0098 4.4562 0.4018
# 4 -6.3456 -5.5239 3.0098 55.7446 -3.3738 8.5547
# 5 12.7810 17.1892 4.4562 -3.3738 46.1918 -0.9211
# 6 -11.2148 -6.3065 0.4018 8.5547 -0.9211 37.6728
#
#
#
# Elastic Compliance Matrix: (Units=1/GPa)
#
#
# Indices 1 2 3 4 5 6 
#
# 1 0.024522 -0.000380 -0.001399 0.001410 -0.006271 0.006778
# 2 -0.000380 0.008189 -0.002896 0.000600 -0.002597 0.001089
# 3 -0.001399 -0.002896 0.007687 -0.000697 0.000656 -0.000809
# 4 0.001410 0.000600 -0.000697 0.018814 0.000754 -0.003726
# 5 -0.006271 -0.002597 0.000656 0.000754 0.024305 -0.001885
# 6 0.006778 0.001089 -0.000809 -0.003726 -0.001885 0.029553
#
#
# Mechanical properties :
#
#
# Convention : Reuss Voigt Hill
#
# Bulk Modulus (GPa) = 32.20802 56.27297 44.24049
# Shear Modulus (GPa) = 37.65981 46.06787 41.86384
#
# Velocity S-wave (km/s) = 3.92121 4.33690 4.13428
# Velocity P-wave (km/s) = 5.80096 6.93207 6.39159
#
# Compressibility (1/GPa) = 0.03104817
#
# Stress axis : x y z
#
# Youngs Moduli (GPa) = 40.78010 122.11954 130.09169
#
# Poissons Ratio (x) = 0.04638 0.18194
# Poissons Ratio (y) = 0.01549 0.37677
# Poissons Ratio (z) = 0.05703 0.35368
#
# Static dielectric constant tensor:
#      x y z
#    x 1.979080 0.005560 -0.022230 
#    y 0.005560 1.935950 -0.002140 
#    z -0.022230 -0.002140 1.877390 
# 
# From -- ./inp_files/226446.got.cif
#   From: 2010.05.17/outbox.cif.g08.bks.cpg/sg2_114_cif.got.tgz:226446.got - 2010.06.03 11:33:40.
