data_PCOD9047224
_publ_section_title
;
Structure prediction by ZEFSAII (Michael W. Deem and Ramdas Pophale) SiO2 
 PCOD9047224
Probable space group: P -1
;
_chemical_formula_sum "Si O2"
_cell_formula_units_Z 14
_cell_length_a 5.107018
_cell_length_b 26.680288
_cell_length_c 9.333871
_cell_angle_alpha 32.159420
_cell_angle_beta 126.190230
_cell_angle_gamma 123.077076
_cell_volume 543.213967
_symmetry_space_group_name_H-M "P -1"
_symmetry_group_IT_number 2
_symmetry_cell_setting 'triclinic'
loop_
_space_group_symop_operation_xyz
x,y,z
-x,-y,-z
loop_
_atom_site_type_symbol
_atom_site_label
_atom_site_fract_x
_atom_site_fract_y
_atom_site_fract_z
Si Si1 0.279045 0.568057 0.002677
Si Si2 0.169503 0.723965 0.141194
Si Si3 0.531642 0.767169 0.659675
Si Si4 0.918442 0.490903 0.330191
Si Si5 0.045757 0.027891 0.234562
Si Si6 0.420934 0.862997 0.670516
Si Si7 0.471977 0.130983 0.876375
O O1 0.613475 0.551988 0.069646
O O2 0.223438 0.529129 0.239996
O O3 0.266696 0.679824 0.742821
O O4 0.000000 0.500000 0.000000
O O5 0.193621 0.619831 0.460465
O O6 0.272723 0.797606 0.122931
O O7 0.409876 0.764175 0.993105
O O8 0.820720 0.726298 0.943769
O O9 0.401154 0.839178 0.555964
O O10 0.639063 0.814564 0.429232
O O11 0.000000 0.500000 0.500000
O O12 0.259035 0.070898 0.334637
O O13 0.134261 0.921815 0.495334
O O14 0.321265 0.951724 0.911952
O O15 0.197659 0.086740 0.003789
#
# Coordination Sequence:
#
# PCOD9047224 Si02
#       7
#     2   2   2   2   2   2   2
#     4  12  28  47  71 105 142 183 234 293 350 417
#     4  11  25  45  70 101 141 182 235 286 347 413
#     4  12  26  44  72 103 137 184 236 285 347 416
#     4  12  25  46  73 100 139 186 231 288 356 417
#     4  10  24  46  69 102 140 182 227 282 351 408
#     4  10  24  43  74  98 140 182 230 285 344 412
#     4  11  26  44  69 101 141 182 227 287 344 410
#
# _framework density 25.772532000000002
#
# number of rings (size 3 to 8) (size 9 to 14) (size 15 to 20)
#    0.000    0.857    2.857    2.571    6.000    5.143 
#    0.000    0.000    0.000    0.000    0.000    0.000 
#    0.000    0.000    0.000    0.000    0.000    0.000 
#
# Total GULP energy -78450.203973 kJ/mol
# GULP energy per Si atom -5603.585998 kJ/mol
# Density = 2.571387 g / cm^3
# Si number density = 25.772532 Si / 1000 Ang^3
#
#
#
# Elastic Constant Matrix: (Units=GPa)
#
#
# Indices 1 2 3 4 5 6 
#
# 1 84.9538 31.9596 24.0977 -1.3789 -12.2539 -16.0151
# 2 31.9596 137.2368 36.3975 -0.6225 -3.7940 -10.6747
# 3 24.0977 36.3975 96.5048 -8.7540 -28.8740 -17.0071
# 4 -1.3789 -0.6225 -8.7540 52.3177 1.7966 -4.1887
# 5 -12.2539 -3.7940 -28.8740 1.7966 42.8259 1.4305
# 6 -16.0151 -10.6747 -17.0071 -4.1887 1.4305 38.0266
#
#
#
# Elastic Compliance Matrix: (Units=1/GPa)
#
#
# Indices 1 2 3 4 5 6 
#
# 1 0.014382 -0.002690 -0.000699 0.000514 0.003220 0.004925
# 2 -0.002690 0.008728 -0.003358 -0.000464 -0.002236 -0.000151
# 3 -0.000699 -0.003358 0.016096 0.002761 0.010042 0.005888
# 4 0.000514 -0.000464 0.002761 0.019827 0.001020 0.003467
# 5 0.003220 -0.002236 0.010042 0.001020 0.030662 0.004179
# 6 0.004925 -0.000151 0.005888 0.003467 0.004179 0.031187
#
#
# Mechanical properties :
#
#
# Convention : Reuss Voigt Hill
#
# Bulk Modulus (GPa) = 38.89075 55.95608 47.42342
# Shear Modulus (GPa) = 34.97824 41.71674 38.34749
#
# Velocity S-wave (km/s) = 3.68800 4.02761 3.86154
# Velocity P-wave (km/s) = 5.76697 6.58692 6.19053
#
# Compressibility (1/GPa) = 0.02571305
#
# Stress axis : x y z
#
# Youngs Moduli (GPa) = 69.52945 114.57517 62.12726
#
# Poissons Ratio (x) = 0.30815 0.04344
# Poissons Ratio (y) = 0.18700 0.20862
# Poissons Ratio (z) = 0.04861 0.38474
#
# Static dielectric constant tensor:
#      x y z
#    x 2.032790 -0.005770 0.032580 
#    y -0.005770 2.019030 0.002060 
#    z 0.032580 0.002060 2.044620 
# 
# From -- ./inp_files/142204.got.cif
#   From: 2010.05.17/outbox.cif.g08.bks.cpg/sg2_72_cif.got.tgz:142204.got - 2010.06.03 11:33:40.
