data_PCOD9047172
_publ_section_title
;
Structure prediction by ZEFSAII (Michael W. Deem and Ramdas Pophale) SiO2 
 PCOD9047172
Probable space group: P -1
;
_chemical_formula_sum "Si O2"
_cell_formula_units_Z 16
_cell_length_a 15.126540
_cell_length_b 16.533843
_cell_length_c 5.588492
_cell_angle_alpha 112.411629
_cell_angle_beta 106.457464
_cell_angle_gamma 28.886757
_cell_volume 620.187360
_symmetry_space_group_name_H-M "P -1"
_symmetry_group_IT_number 2
_symmetry_cell_setting 'triclinic'
loop_
_space_group_symop_operation_xyz
x,y,z
-x,-y,-z
loop_
_atom_site_type_symbol
_atom_site_label
_atom_site_fract_x
_atom_site_fract_y
_atom_site_fract_z
Si Si1 0.223888 0.402599 0.455747
Si Si2 0.241248 0.499722 0.973670
Si Si3 0.455211 0.765058 0.695778
Si Si4 0.465421 0.626839 0.186726
Si Si5 0.140530 0.199367 0.496470
Si Si6 0.096906 0.026647 0.226090
Si Si7 0.283762 0.163238 0.064927
Si Si8 0.972398 0.877198 0.221667
O O1 0.437680 0.256265 0.422720
O O2 0.200539 0.327572 0.242282
O O3 0.071991 0.592634 0.443321
O O4 0.186294 0.452556 0.763320
O O5 0.401376 0.350305 0.112934
O O6 0.076411 0.700133 0.132794
O O7 0.348446 0.474098 0.840863
O O8 0.439614 0.676871 0.497469
O O9 0.245443 0.962563 0.789211
O O10 0.287999 0.816126 0.136582
O O11 0.500000 0.500000 0.000000
O O12 0.144031 0.091446 0.360584
O O13 0.241467 0.149016 0.270883
O O14 0.216523 0.176561 0.777327
O O15 0.994179 0.095969 0.478931
O O16 0.987128 0.108853 0.985531
O O17 0.500000 0.000000 0.000000
#
# Coordination Sequence:
#
# PCOD9047172 Si02
#       8
#     2   2   2   2   2   2   2   2
#     4  11  26  43  70 100 139 187 245 295 355 427
#     4  11  23  42  75 103 138 196 240 291 366 428
#     4  10  24  43  73 103 141 191 237 296 364 432
#     4  10  24  46  71 107 147 185 239 298 360 433
#     4  12  26  48  69  99 144 191 241 296 359 426
#     4  11  23  45  73 100 140 190 231 292 360 422
#     4  12  30  44  68 105 143 189 240 303 358 413
#     4  11  23  43  71 106 138 182 245 289 347 435
#
# _framework density 25.798655
#
# number of rings (size 3 to 8) (size 9 to 14) (size 15 to 20)
#    0.000    1.000    2.500    2.625   12.250    0.500 
#    0.000    3.125    0.000    0.000    0.000    0.000 
#    0.000    0.000    0.000    0.000    0.000    0.000 
#
# Total GULP energy -89437.990849 kJ/mol
# GULP energy per Si atom -5589.874428 kJ/mol
# Density = 2.573994 g / cm^3
# Si number density = 25.798655 Si / 1000 Ang^3
#
#
#
# Elastic Constant Matrix: (Units=GPa)
#
#
# Indices 1 2 3 4 5 6 
#
# 1 89.9454 29.7444 50.1415 12.8643 12.1946 -5.1154
# 2 29.7444 134.1175 53.5477 15.3522 7.1088 4.8753
# 3 50.1415 53.5477 187.4267 -2.8333 11.4200 22.6279
# 4 12.8643 15.3522 -2.8333 59.1045 9.3983 1.0479
# 5 12.1946 7.1088 11.4200 9.3983 44.6588 10.2639
# 6 -5.1154 4.8753 22.6279 1.0479 10.2639 43.1246
#
#
#
# Elastic Compliance Matrix: (Units=1/GPa)
#
#
# Indices 1 2 3 4 5 6 
#
# 1 0.014941 -0.001406 -0.004021 -0.002625 -0.003405 0.004915
# 2 -0.001406 0.008886 -0.002197 -0.002103 -0.000036 0.000041
# 3 -0.004021 -0.002197 0.007577 0.001869 0.000099 -0.004273
# 4 -0.002625 -0.002103 0.001869 0.018645 -0.003178 -0.000751
# 5 -0.003405 -0.000036 0.000099 -0.003178 0.025449 -0.006432
# 6 0.004915 0.000041 -0.004273 -0.000751 -0.006432 0.027558
#
#
# Mechanical properties :
#
#
# Convention : Reuss Voigt Hill
#
# Bulk Modulus (GPa) = 61.89665 75.37297 68.63481
# Shear Modulus (GPa) = 40.42351 47.91465 44.16908
#
# Velocity S-wave (km/s) = 3.96268 4.31426 4.14220
# Velocity P-wave (km/s) = 6.70682 7.35503 7.03839
#
# Compressibility (1/GPa) = 0.01615596
#
# Stress axis : x y z
#
# Youngs Moduli (GPa) = 66.92967 112.53284 131.97696
#
# Poissons Ratio (x) = 0.15820 0.53070
# Poissons Ratio (y) = 0.09409 0.28999
# Poissons Ratio (z) = 0.26913 0.24727
#
# Static dielectric constant tensor:
#      x y z
#    x 2.116060 0.028820 -0.153310 
#    y 0.028820 2.022650 0.030600 
#    z -0.153310 0.030600 2.305040 
# 
# From -- ./inp_files/111537.got.cif
#   From: 2010.05.17/outbox.cif.g08.bks.cpg/sg2_56_cif.got.tgz:111537.got - 2010.06.03 11:33:40.
