data_PCOD9047707
_publ_section_title
;
Structure prediction by ZEFSAII (Michael W. Deem and Ramdas Pophale) SiO2 
 PCOD9047707
Probable space group: P -1
;
_chemical_formula_sum "Si O2"
_cell_formula_units_Z 12
_cell_length_a 14.911002
_cell_length_b 9.206617
_cell_length_c 8.565368
_cell_angle_alpha 57.480921
_cell_angle_beta 40.328323
_cell_angle_gamma 48.161850
_cell_volume 565.917541
_symmetry_space_group_name_H-M "P -1"
_symmetry_group_IT_number 2
_symmetry_cell_setting 'triclinic'
loop_
_space_group_symop_operation_xyz
x,y,z
-x,-y,-z
loop_
_atom_site_type_symbol
_atom_site_label
_atom_site_fract_x
_atom_site_fract_y
_atom_site_fract_z
Si Si1 0.927566 0.357964 0.716181
Si Si2 0.336852 0.184224 0.662792
Si Si3 0.591764 0.028979 0.001482
Si Si4 0.990228 0.330686 0.004933
Si Si5 0.627621 0.573174 0.774320
Si Si6 0.107726 0.954000 0.535710
O O1 0.775192 0.433752 0.764085
O O2 0.000000 0.500000 0.500000
O O3 0.909304 0.380227 0.914113
O O4 0.039458 0.136351 0.640884
O O5 0.177554 0.184940 0.813724
O O6 0.333316 0.377254 0.479587
O O7 0.500000 0.000000 0.500000
O O8 0.336312 0.153098 0.868099
O O9 0.725824 0.076269 0.730250
O O10 0.458319 0.214320 0.158523
O O11 0.500000 0.000000 0.000000
O O12 0.000000 0.500000 0.000000
O O13 0.906103 0.224770 0.266338
O O14 0.500000 0.500000 0.000000
O O15 0.000000 0.000000 0.500000
#
# Coordination Sequence:
#
# PCOD9047707 Si02
#       6
#     2   2   2   2   2   2
#     4  12  25  45  71 104 140 184 234 285 353 419
#     4  10  24  44  69  95 142 178 227 281 356 398
#     4  11  25  44  70 100 139 180 230 286 349 416
#     4  12  27  46  73 103 140 187 238 297 347 417
#     4  11  25  44  70 100 139 180 230 286 349 416
#     4  12  25  45  71 104 140 184 234 285 353 419
#
# _framework density 21.204502999999999
#
# number of rings (size 3 to 8) (size 9 to 14) (size 15 to 20)
#    0.000    0.667    3.333    3.500    9.333    1.333 
#    0.000    1.667    0.000    0.000    0.000    0.000 
#    0.000    0.000    0.000    0.000    0.000    0.000 
#
# Total GULP energy -67003.092236 kJ/mol
# GULP energy per Si atom -5583.591020 kJ/mol
# Density = 2.115624 g / cm^3
# Si number density = 21.204503 Si / 1000 Ang^3
#
#
#
# Elastic Constant Matrix: (Units=GPa)
#
#
# Indices 1 2 3 4 5 6 
#
# 1 83.3442 6.5768 39.1676 -18.9728 11.2248 -12.0237
# 2 6.5768 87.2247 18.7100 6.2760 16.6537 12.6073
# 3 39.1676 18.7100 164.5345 -28.1686 13.3448 -12.5405
# 4 -18.9728 6.2760 -28.1686 36.3193 -17.7889 -4.5136
# 5 11.2248 16.6537 13.3448 -17.7889 48.8337 1.7001
# 6 -12.0237 12.6073 -12.5405 -4.5136 1.7001 45.0292
#
#
#
# Elastic Compliance Matrix: (Units=1/GPa)
#
#
# Indices 1 2 3 4 5 6 
#
# 1 0.015458 -0.002162 -0.001725 0.007914 0.000363 0.005032
# 2 -0.002162 0.015401 -0.002927 -0.010580 -0.007584 -0.006479
# 3 -0.001725 -0.002927 0.008162 0.007155 0.001656 0.003287
# 4 0.007914 -0.010580 0.007155 0.048903 0.017254 0.011319
# 5 0.000363 -0.007584 0.001656 0.017254 0.028697 0.003328
# 6 0.005032 -0.006479 0.003287 0.011319 0.003328 0.027290
#
#
# Mechanical properties :
#
#
# Convention : Reuss Voigt Hill
#
# Bulk Modulus (GPa) = 39.37806 51.55691 45.46748
# Shear Modulus (GPa) = 30.11986 44.07971 37.09978
#
# Velocity S-wave (km/s) = 3.77297 4.56432 4.18738
# Velocity P-wave (km/s) = 6.13118 7.22110 6.69834
#
# Compressibility (1/GPa) = 0.02539485
#
# Stress axis : x y z
#
# Youngs Moduli (GPa) = 64.68993 64.93011 122.51426
#
# Poissons Ratio (x) = 0.14035 0.21135
# Poissons Ratio (y) = 0.13984 0.35857
# Poissons Ratio (z) = 0.11160 0.19004
#
# Static dielectric constant tensor:
#      x y z
#    x 1.230990 -0.048820 -0.567420 
#    y -0.048820 1.819620 0.003820 
#    z -0.567420 0.003820 0.916380 
# 
# From -- ./inp_files/152341.got.cif
#   From: 2010.05.17/outbox.cif.g08.bks.cpg/sg2_77_cif.got.tgz:152341.got - 2010.06.03 11:33:40.
