data_PCOD9047120
_publ_section_title
;
Structure prediction by ZEFSAII (Michael W. Deem and Ramdas Pophale) SiO2 
 PCOD9047120
Probable space group: P -1
;
_chemical_formula_sum "Si O2"
_cell_formula_units_Z 12
_cell_length_a 4.888151
_cell_length_b 9.016356
_cell_length_c 16.645042
_cell_angle_alpha 132.171227
_cell_angle_beta 72.218900
_cell_angle_gamma 94.268749
_cell_volume 508.790904
_symmetry_space_group_name_H-M "P -1"
_symmetry_group_IT_number 2
_symmetry_cell_setting 'triclinic'
loop_
_space_group_symop_operation_xyz
x,y,z
-x,-y,-z
loop_
_atom_site_type_symbol
_atom_site_label
_atom_site_fract_x
_atom_site_fract_y
_atom_site_fract_z
Si Si1 0.467530 0.398240 0.576027
Si Si2 0.506596 0.398622 0.763936
Si Si3 0.094350 0.312725 0.340513
Si Si4 0.429283 0.042558 0.329024
Si Si5 0.657984 0.058890 0.145452
Si Si6 0.942457 0.674660 0.888012
O O1 0.472495 0.365514 0.659190
O O2 0.734820 0.513614 0.578055
O O3 0.473430 0.193435 0.451647
O O4 0.189990 0.562039 0.629784
O O5 0.763534 0.521715 0.805205
O O6 0.197030 0.535301 0.866524
O O7 0.570899 0.181445 0.721649
O O8 0.128542 0.146822 0.348891
O O9 0.328418 0.183951 0.209877
O O10 0.667465 0.037239 0.233650
O O11 0.722046 0.839733 0.019039
O O12 0.872585 0.191348 0.133781
#
# Coordination Sequence:
#
# PCOD9047120 Si02
#       6
#     2   2   2   2   2   2
#     4  12  23  45  71 104 142 184 233 285 346 421
#     4  12  26  44  72 106 146 182 226 291 363 409
#     4  10  24  43  72 102 134 187 240 280 339 412
#     4  10  25  47  71 108 142 183 231 294 351 414
#     4   9  24  48  75 101 137 185 245 281 347 407
#     4  11  25  48  71 103 141 186 236 290 342 426
#
# _framework density 23.585329000000002
#
# number of rings (size 3 to 8) (size 9 to 14) (size 15 to 20)
#    1.000    0.333    1.667    2.500    0.000    8.000 
#    0.000    5.833    0.000    0.000    0.000    0.000 
#    0.000    0.000    0.000    0.000    0.000    0.000 
#
# Total GULP energy -67102.973522 kJ/mol
# GULP energy per Si atom -5591.914460 kJ/mol
# Density = 2.353165 g / cm^3
# Si number density = 23.585329 Si / 1000 Ang^3
#
#
#
# Elastic Constant Matrix: (Units=GPa)
#
#
# Indices 1 2 3 4 5 6 
#
# 1 163.8503 67.5791 42.7150 21.9541 -12.3683 -10.4010
# 2 67.5791 198.3305 79.4380 43.5829 0.5985 -17.5215
# 3 42.7150 79.4380 155.5735 21.1500 -2.1120 3.5338
# 4 21.9541 43.5829 21.1500 32.1708 3.2551 -0.3446
# 5 -12.3683 0.5985 -2.1120 3.2551 26.5049 -0.6286
# 6 -10.4010 -17.5215 3.5338 -0.3446 -0.6286 18.1208
#
#
#
# Elastic Compliance Matrix: (Units=1/GPa)
#
#
# Indices 1 2 3 4 5 6 
#
# 1 0.007885 -0.001164 -0.001131 -0.003439 0.004126 0.003699
# 2 -0.001164 0.009977 -0.003583 -0.010309 0.000437 0.009497
# 3 -0.001131 -0.003583 0.008727 -0.000187 0.000134 -0.005815
# 4 -0.003439 -0.010309 -0.000187 0.048164 -0.007569 -0.011251
# 5 0.004126 0.000437 0.000134 -0.007569 0.040680 0.004032
# 6 0.003699 0.009497 -0.005815 -0.011251 0.004032 0.067551
#
#
# Mechanical properties :
#
#
# Convention : Reuss Voigt Hill
#
# Bulk Modulus (GPa) = 67.41745 99.69093 83.55419
# Shear Modulus (GPa) = 25.03946 37.22745 31.13346
#
# Velocity S-wave (km/s) = 3.26184 3.97724 3.63717
# Velocity P-wave (km/s) = 6.54467 7.96563 7.28985
#
# Compressibility (1/GPa) = 0.01483295
#
# Stress axis : x y z
#
# Youngs Moduli (GPa) = 126.82379 100.23357 114.58202
#
# Poissons Ratio (x) = 0.11664 0.12963
# Poissons Ratio (y) = 0.14758 0.41056
# Poissons Ratio (z) = 0.14348 0.35915
#
# Static dielectric constant tensor:
#      x y z
#    x 1.945870 0.014120 -0.013380 
#    y 0.014120 1.876980 -0.082810 
#    z -0.013380 -0.082810 1.994390 
# 
# From -- ./inp_files/548376.got.cif
#   From: 2010.05.17/outbox.cif.g08.bks.cpg/sg2_275_cif.got.tgz:548376.got - 2010.06.03 11:33:40.
