data_PCOD9047182
_publ_section_title
;
Structure prediction by ZEFSAII (Michael W. Deem and Ramdas Pophale) SiO2 
 PCOD9047182
Probable space group: P -1
;
_chemical_formula_sum "Si O2"
_cell_formula_units_Z 16
_cell_length_a 14.169196
_cell_length_b 8.992310
_cell_length_c 5.573777
_cell_angle_alpha 79.936754
_cell_angle_beta 93.110623
_cell_angle_gamma 102.102151
_cell_volume 683.595169
_symmetry_space_group_name_H-M "P -1"
_symmetry_group_IT_number 2
_symmetry_cell_setting 'triclinic'
loop_
_space_group_symop_operation_xyz
x,y,z
-x,-y,-z
loop_
_atom_site_type_symbol
_atom_site_label
_atom_site_fract_x
_atom_site_fract_y
_atom_site_fract_z
Si Si1 0.259818 0.993555 0.046512
Si Si2 0.647238 0.278299 0.753601
Si Si3 0.812693 0.471374 0.957948
Si Si4 0.899048 0.382425 0.499506
Si Si5 0.111953 0.167883 0.238713
Si Si6 0.446344 0.253981 0.972579
Si Si7 0.562565 0.433742 0.326741
Si Si8 0.100377 0.920088 0.680160
O O1 0.302411 0.865469 0.231292
O O2 0.182779 0.075827 0.141042
O O3 0.354477 0.120481 0.964544
O O4 0.199038 0.917037 0.832339
O O5 0.700496 0.390567 0.937156
O O6 0.649020 0.379939 0.488144
O O7 0.535172 0.227891 0.826832
O O8 0.853945 0.394118 0.752775
O O9 0.843083 0.652918 0.848531
O O10 0.851239 0.436461 0.234292
O O11 0.909999 0.208815 0.492415
O O12 0.000000 0.500000 0.500000
O O13 0.998209 0.130445 0.165970
O O14 0.107769 0.092173 0.526630
O O15 0.495784 0.287696 0.230031
O O16 0.412679 0.415167 0.875405
O O17 0.500000 0.500000 0.500000
#
# Coordination Sequence:
#
# PCOD9047182 Si02
#       8
#     2   2   2   2   2   2   2   2
#     4  12  26  45  72 105 151 197 252 311 392 453
#     4  11  25  44  70 109 149 195 250 313 374 460
#     4  12  28  46  80 116 150 206 256 317 388 457
#     4  12  26  50  79 111 154 202 262 320 381 456
#     4  11  28  44  73 107 149 202 254 315 383 458
#     4  10  24  43  73 105 145 193 248 317 378 460
#     4   9  22  43  68 100 143 183 249 311 377 441
#     4  11  26  50  70 107 154 195 256 319 386 459
#
# _framework density 23.405667000000001
#
# number of rings (size 3 to 8) (size 9 to 14) (size 15 to 20)
#    0.000    1.000    2.500    1.875   10.500    2.500 
#    0.000    0.000    0.000    0.000    0.000    0.000 
#    0.000    0.000    0.000    0.000    0.000    0.000 
#
# Total GULP energy -89401.485145 kJ/mol
# GULP energy per Si atom -5587.592822 kJ/mol
# Density = 2.335240 g / cm^3
# Si number density = 23.405667 Si / 1000 Ang^3
#
#
#
# Elastic Constant Matrix: (Units=GPa)
#
#
# Indices 1 2 3 4 5 6 
#
# 1 127.7739 63.6741 40.8589 3.2559 4.6670 12.8415
# 2 63.6741 117.2224 22.7015 -6.2640 7.0864 4.7936
# 3 40.8589 22.7015 94.8217 4.8038 23.3007 -3.5793
# 4 3.2559 -6.2640 4.8038 33.8474 -6.0365 -3.0056
# 5 4.6670 7.0864 23.3007 -6.0365 52.5959 4.3637
# 6 12.8415 4.7936 -3.5793 -3.0056 4.3637 54.5541
#
#
#
# Elastic Compliance Matrix: (Units=1/GPa)
#
#
# Indices 1 2 3 4 5 6 
#
# 1 0.012500 -0.006011 -0.004392 -0.001648 0.001700 -0.002929
# 2 -0.006011 0.012008 -0.000228 0.002755 -0.000713 0.000554
# 3 -0.004392 -0.000228 0.014286 -0.002579 -0.006400 0.002361
# 4 -0.001648 0.002755 -0.002579 0.031487 0.004419 0.001358
# 5 0.001700 -0.000713 -0.006400 0.004419 0.022493 -0.002313
# 6 -0.002929 0.000554 0.002361 0.001358 -0.002313 0.019386
#
#
# Mechanical properties :
#
#
# Convention : Reuss Voigt Hill
#
# Bulk Modulus (GPa) = 57.03966 66.03190 61.53578
# Shear Modulus (GPa) = 35.90240 42.37168 39.13704
#
# Velocity S-wave (km/s) = 3.92078 4.25940 4.09359
# Velocity P-wave (km/s) = 6.70221 7.24314 6.97792
#
# Compressibility (1/GPa) = 0.01753166
#
# Stress axis : x y z
#
# Youngs Moduli (GPa) = 79.99689 83.28090 69.99870
#
# Poissons Ratio (x) = 0.50057 0.30746
# Poissons Ratio (y) = 0.48083 0.01597
# Poissons Ratio (z) = 0.35138 0.01900
#
# Static dielectric constant tensor:
#      x y z
#    x 1.956770 0.004830 -0.024300 
#    y 0.004830 1.866580 -0.010810 
#    z -0.024300 -0.010810 1.950880 
# 
# From -- ./inp_files/90158.got.cif
#   From: 2010.05.17/outbox.cif.g08.bks.cpg/sg2_46_cif.got.tgz:90158.got - 2010.06.03 11:33:40.
