data_PCOD9047148
_publ_section_title
;
Structure prediction by ZEFSAII (Michael W. Deem and Ramdas Pophale) SiO2 
 PCOD9047148
Probable space group: P -1
;
_chemical_formula_sum "Si O2"
_cell_formula_units_Z 16
_cell_length_a 9.059206
_cell_length_b 26.633287
_cell_length_c 13.710898
_cell_angle_alpha 149.353898
_cell_angle_beta 48.414538
_cell_angle_gamma 151.653018
_cell_volume 738.587943
_symmetry_space_group_name_H-M "P -1"
_symmetry_group_IT_number 2
_symmetry_cell_setting 'triclinic'
loop_
_space_group_symop_operation_xyz
x,y,z
-x,-y,-z
loop_
_atom_site_type_symbol
_atom_site_label
_atom_site_fract_x
_atom_site_fract_y
_atom_site_fract_z
Si Si1 0.069953 0.549368 0.940334
Si Si2 0.274482 0.574570 0.426551
Si Si3 0.283920 0.276921 0.149074
Si Si4 0.118479 0.365792 0.972089
Si Si5 0.671503 0.208901 0.508012
Si Si6 0.765110 0.927906 0.704651
Si Si7 0.704682 0.018194 0.520246
Si Si8 0.607032 0.605378 0.503224
O O1 0.434330 0.657824 0.933170
O O2 0.038151 0.643865 0.069418
O O3 0.784048 0.367589 0.710569
O O4 0.000000 0.500000 0.000000
O O5 0.117737 0.439323 0.187182
O O6 0.470626 0.746589 0.582634
O O7 0.539613 0.619388 0.449693
O O8 0.000000 0.500000 0.500000
O O9 0.323117 0.408435 0.324689
O O10 0.398624 0.316816 0.277981
O O11 0.941860 0.081193 0.951208
O O12 0.500000 0.500000 0.000000
O O13 0.924135 0.185003 0.765867
O O14 0.391978 0.079953 0.332962
O O15 0.020141 0.290582 0.479483
O O16 0.530461 0.131062 0.547223
O O17 0.044726 0.960085 0.602389
O O18 0.500000 0.000000 0.500000
#
# Coordination Sequence:
#
# PCOD9047148 Si02
#       8
#     2   2   2   2   2   2   2   2
#     4  11  22  41  67  97 134 183 224 272 348 403
#     4  12  27  46  72 100 141 185 231 286 347 408
#     4  10  24  43  72  95 138 176 229 283 339 412
#     4  12  25  43  67 100 139 180 230 286 338 407
#     4  11  24  42  67 100 138 175 227 284 338 410
#     4  12  25  45  66 104 139 175 232 290 341 406
#     4  12  25  43  69 103 141 179 229 284 346 410
#     4  10  25  46  70  98 134 183 232 271 350 418
#
# _framework density 21.662958
#
# number of rings (size 3 to 8) (size 9 to 14) (size 15 to 20)
#    0.000    0.750    2.500    4.125    8.750    2.000 
#    0.000    0.000    0.000    0.000    0.000    0.000 
#    0.000    0.000    0.000    0.000    0.000    0.000 
#
# Total GULP energy -89456.714220 kJ/mol
# GULP energy per Si atom -5591.044639 kJ/mol
# Density = 2.161365 g / cm^3
# Si number density = 21.662958 Si / 1000 Ang^3
#
#
#
# Elastic Constant Matrix: (Units=GPa)
#
#
# Indices 1 2 3 4 5 6 
#
# 1 113.4054 15.5790 22.6222 -3.1954 10.2741 -10.1476
# 2 15.5790 116.9512 33.6071 -3.4703 -2.1985 -8.7760
# 3 22.6222 33.6071 147.9375 13.3117 15.6962 -5.5905
# 4 -3.1954 -3.4703 13.3117 31.7636 -3.4007 -3.6955
# 5 10.2741 -2.1985 15.6962 -3.4007 25.5982 -1.7282
# 6 -10.1476 -8.7760 -5.5905 -3.6955 -1.7282 33.0753
#
#
#
# Elastic Compliance Matrix: (Units=1/GPa)
#
#
# Indices 1 2 3 4 5 6 
#
# 1 0.009666 -0.000830 -0.000989 0.001273 -0.003003 0.002564
# 2 -0.000830 0.009721 -0.002580 0.002684 0.003266 0.002359
# 3 -0.000989 -0.002580 0.008498 -0.004592 -0.005670 -0.000361
# 4 0.001273 0.002684 -0.004592 0.035175 0.007522 0.004650
# 5 -0.003003 0.003266 -0.005670 0.007522 0.045175 0.002188
# 6 0.002564 0.002359 -0.000361 0.004650 0.002188 0.032219
#
#
# Mechanical properties :
#
#
# Convention : Reuss Voigt Hill
#
# Bulk Modulus (GPa) = 52.39009 57.99008 55.19008
# Shear Modulus (GPa) = 32.13085 38.51982 35.32534
#
# Velocity S-wave (km/s) = 3.85543 4.22138 4.04255
# Velocity P-wave (km/s) = 6.63746 7.11248 6.87907
#
# Compressibility (1/GPa) = 0.01908758
#
# Stress axis : x y z
#
# Youngs Moduli (GPa) = 103.45068 102.87409 117.67354
#
# Poissons Ratio (x) = 0.08537 0.11635
# Poissons Ratio (y) = 0.08585 0.30362
# Poissons Ratio (z) = 0.10229 0.26544
#
# Static dielectric constant tensor:
#      x y z
#    x 1.735510 0.026260 -0.000540 
#    y 0.026260 1.762170 -0.019750 
#    z -0.000540 -0.019750 1.832790 
# 
# From -- ./inp_files/508920.got.cif
#   From: 2010.05.17/outbox.cif.g08.bks.cpg/sg2_255_cif.got.tgz:508920.got - 2010.06.03 11:33:40.
