data_PCOD9047005
_publ_section_title
;
Structure prediction by ZEFSAII (Michael W. Deem and Ramdas Pophale) SiO2 
 PCOD9047005
Probable space group: P -1
;
_chemical_formula_sum "Si O2"
_cell_formula_units_Z 14
_cell_length_a 8.142867
_cell_length_b 9.657377
_cell_length_c 9.134125
_cell_angle_alpha 124.652497
_cell_angle_beta 107.237709
_cell_angle_gamma 81.346068
_cell_volume 564.192693
_symmetry_space_group_name_H-M "P -1"
_symmetry_group_IT_number 2
_symmetry_cell_setting 'triclinic'
loop_
_space_group_symop_operation_xyz
x,y,z
-x,-y,-z
loop_
_atom_site_type_symbol
_atom_site_label
_atom_site_fract_x
_atom_site_fract_y
_atom_site_fract_z
Si Si1 0.524268 0.081988 0.210059
Si Si2 0.835787 0.329245 0.362840
Si Si3 0.830072 0.699621 0.037948
Si Si4 0.330156 0.390832 0.351884
Si Si5 0.803025 0.416828 0.062105
Si Si6 0.389148 0.882293 0.290496
Si Si7 0.983797 0.974214 0.655853
O O1 0.683658 0.210621 0.321082
O O2 0.369228 0.200928 0.295134
O O3 0.509394 0.919592 0.207193
O O4 0.500000 0.000000 0.000000
O O5 0.822768 0.506684 0.551524
O O6 0.800091 0.362735 0.200584
O O7 0.991369 0.211467 0.383013
O O8 0.794920 0.613445 0.134130
O O9 0.866043 0.899000 0.167242
O O10 0.696167 0.631111 0.841391
O O11 0.011618 0.635249 0.982433
O O12 0.500000 0.500000 0.500000
O O13 0.661459 0.315062 0.863908
O O14 0.500000 0.000000 0.500000
O O15 0.198121 0.955103 0.300159
O O16 0.000000 0.000000 0.500000
#
# Coordination Sequence:
#
# PCOD9047005 Si02
#       7
#     2   2   2   2   2   2   2
#     4  11  22  44  70 104 143 187 240 300 358 423
#     4  11  24  45  73 101 150 184 249 294 365 444
#     4  10  24  45  69  99 152 183 243 300 361 433
#     4  10  25  42  71 106 142 195 235 298 365 433
#     4  10  24  43  70 104 141 197 235 303 369 426
#     4  11  25  43  74 107 147 189 249 300 366 437
#     4  11  26  46  76 111 141 196 245 302 370 434
#
# _framework density 24.814216999999999
#
# number of rings (size 3 to 8) (size 9 to 14) (size 15 to 20)
#    0.000    1.429    1.429    1.714   12.000    2.857 
#    0.000    2.857    0.000    0.000    0.000    0.000 
#    0.000    0.000    0.000    0.000    0.000    0.000 
#
# Total GULP energy -78054.738634 kJ/mol
# GULP energy per Si atom -5575.338474 kJ/mol
# Density = 2.475774 g / cm^3
# Si number density = 24.814217 Si / 1000 Ang^3
#
#
#
# Elastic Constant Matrix: (Units=GPa)
#
#
# Indices 1 2 3 4 5 6 
#
# 1 80.0595 27.2522 15.1023 7.6876 7.9021 9.2919
# 2 27.2522 126.5295 27.7902 13.8249 0.3824 12.2634
# 3 15.1023 27.7902 127.9349 4.7557 21.3931 4.1114
# 4 7.6876 13.8249 4.7557 44.5409 -1.9190 -13.6884
# 5 7.9021 0.3824 21.3931 -1.9190 43.8918 4.6802
# 6 9.2919 12.2634 4.1114 -13.6884 4.6802 38.6749
#
#
#
# Elastic Compliance Matrix: (Units=1/GPa)
#
#
# Indices 1 2 3 4 5 6 
#
# 1 0.014249 -0.002288 -0.000638 -0.002806 -0.001997 -0.003382
# 2 -0.002288 0.009516 -0.001793 -0.003432 0.001444 -0.003666
# 3 -0.000638 -0.001793 0.009012 -0.000441 -0.004295 0.000127
# 4 -0.002806 -0.003432 -0.000441 0.027612 0.000732 0.011493
# 5 -0.001997 0.001444 -0.004295 0.000732 0.025506 -0.002349
# 6 -0.003382 -0.003666 0.000127 0.011493 -0.002349 0.032170
#
#
# Mechanical properties :
#
#
# Convention : Reuss Voigt Hill
#
# Bulk Modulus (GPa) = 42.84924 52.75701 47.80312
# Shear Modulus (GPa) = 36.95960 43.04680 40.00320
#
# Velocity S-wave (km/s) = 3.86353 4.16957 4.01946
# Velocity P-wave (km/s) = 6.09983 6.66988 6.39122
#
# Compressibility (1/GPa) = 0.02333764
#
# Stress axis : x y z
#
# Youngs Moduli (GPa) = 70.18005 105.08700 110.96608
#
# Poissons Ratio (x) = 0.24049 0.07081
# Poissons Ratio (y) = 0.16060 0.19896
# Poissons Ratio (z) = 0.04478 0.18842
#
# Static dielectric constant tensor:
#      x y z
#    x 1.885120 -0.081570 0.023420 
#    y -0.081570 1.986720 0.012120 
#    z 0.023420 0.012120 1.967390 
# 
# From -- ./inp_files/160251.got.cif
#   From: 2010.05.17/outbox.cif.g08.bks.cpg/sg2_81_cif.got.tgz:160251.got - 2010.06.03 11:33:40.
