data_PCOD9047273
_publ_section_title
;
Structure prediction by ZEFSAII (Michael W. Deem and Ramdas Pophale) SiO2 
 PCOD9047273
Probable space group: P -1
;
_chemical_formula_sum "Si O2"
_cell_formula_units_Z 16
_cell_length_a 13.273420
_cell_length_b 8.135088
_cell_length_c 11.494626
_cell_angle_alpha 88.525025
_cell_angle_beta 74.875653
_cell_angle_gamma 34.514177
_cell_volume 636.983053
_symmetry_space_group_name_H-M "P -1"
_symmetry_group_IT_number 2
_symmetry_cell_setting 'triclinic'
loop_
_space_group_symop_operation_xyz
x,y,z
-x,-y,-z
loop_
_atom_site_type_symbol
_atom_site_label
_atom_site_fract_x
_atom_site_fract_y
_atom_site_fract_z
Si Si1 0.590506 0.324321 0.825424
Si Si2 0.858255 0.244560 0.815259
Si Si3 0.642926 0.066644 0.586206
Si Si4 0.200711 0.231051 0.692853
Si Si5 0.643622 0.693962 0.663890
Si Si6 0.705248 0.021635 0.011828
Si Si7 0.921390 0.424527 0.960625
Si Si8 0.205065 0.603642 0.613798
O O1 0.756807 0.204689 0.843467
O O2 0.652464 0.189757 0.681189
O O3 0.408627 0.691894 0.879807
O O4 0.589837 0.176779 0.920441
O O5 0.718547 0.538023 0.768715
O O6 0.872891 0.309354 0.933519
O O7 0.064795 0.929882 0.699845
O O8 0.420591 0.354769 0.602173
O O9 0.777336 0.893720 0.434585
O O10 0.676388 0.844071 0.637479
O O11 0.045873 0.342357 0.818093
O O12 0.152393 0.486328 0.671499
O O13 0.419161 0.950386 0.689774
O O14 0.776129 0.428606 0.530346
O O15 0.932504 0.769275 0.971390
O O16 0.734390 0.788487 0.035289
#
# Coordination Sequence:
#
# PCOD9047273 Si02
#       8
#     2   2   2   2   2   2   2   2
#     4  11  23  41  61  86 116 153 195 239 289 341
#     4  12  23  34  56  88 120 148 191 244 286 336
#     4   9  19  39  64  86 116 156 192 231 288 350
#     4   9  19  39  64  86 116 156 192 231 288 350
#     4   9  19  35  57  88 122 154 187 230 287 348
#     4  10  24  44  62  78 112 156 200 242 284 342
#     4  11  23  41  61  86 116 153 195 239 289 341
#     4   9  19  35  57  88 122 154 187 230 287 348
#
# _framework density 25.118407999999999
#
# number of rings (size 3 to 8) (size 9 to 14) (size 15 to 20)
#    0.000    2.000    0.000    4.875    0.000    3.000 
#    0.000   16.250    0.000    0.000    0.000    0.000 
#    0.000    0.000    0.000    0.000    0.000    0.000 
#
# Total GULP energy -89446.435252 kJ/mol
# GULP energy per Si atom -5590.402203 kJ/mol
# Density = 2.506124 g / cm^3
# Si number density = 25.118408 Si / 1000 Ang^3
#
#
#
# Elastic Constant Matrix: (Units=GPa)
#
#
# Indices 1 2 3 4 5 6 
#
# 1 60.5657 0.3733 27.5015 12.4149 19.1024 3.5968
# 2 0.3733 125.2383 35.8769 22.5987 7.6396 14.6973
# 3 27.5015 35.8769 140.4482 19.1759 26.2439 9.0305
# 4 12.4149 22.5987 19.1759 32.8602 17.0720 4.2869
# 5 19.1024 7.6396 26.2439 17.0720 46.1543 4.0733
# 6 3.5968 14.6973 9.0305 4.2869 4.0733 10.2822
#
#
#
# Elastic Compliance Matrix: (Units=1/GPa)
#
#
# Indices 1 2 3 4 5 6 
#
# 1 0.020593 0.002351 -0.002760 -0.004480 -0.005318 -0.004165
# 2 0.002351 0.011153 -0.001908 -0.006735 0.001908 -0.013036
# 3 -0.002760 -0.001908 0.009024 -0.000968 -0.003085 -0.002607
# 4 -0.004480 -0.006735 -0.000968 0.044074 -0.012667 -0.001312
# 5 -0.005318 0.001908 -0.003085 -0.012667 0.030426 -0.004929
# 6 -0.004165 -0.013036 -0.002607 -0.001312 -0.004929 0.122136
#
#
# Mechanical properties :
#
#
# Convention : Reuss Voigt Hill
#
# Bulk Modulus (GPa) = 27.67292 50.41728 39.04510
# Shear Modulus (GPa) = 19.67845 35.35939 27.51892
#
# Velocity S-wave (km/s) = 2.80201 3.75601 3.31353
# Velocity P-wave (km/s) = 4.63781 6.23904 5.49704
#
# Compressibility (1/GPa) = 0.03613641
#
# Stress axis : x y z
#
# Youngs Moduli (GPa) = 48.56117 89.65988 110.81419
#
# Poissons Ratio (x) = -0.21077 0.30580
# Poissons Ratio (y) = -0.11416 0.21144
# Poissons Ratio (z) = 0.13401 0.17107
#
# Static dielectric constant tensor:
#      x y z
#    x 2.078170 0.030740 -0.135560 
#    y 0.030740 1.961570 -0.006890 
#    z -0.135560 -0.006890 2.111060 
# 
# From -- ./inp_files/274905.got.cif
#   From: 2010.05.17/outbox.cif.g08.bks.cpg/sg2_138_cif.got.tgz:274905.got - 2010.06.03 11:33:40.
