data_PCOD9047652
_publ_section_title
;
Structure prediction by ZEFSAII (Michael W. Deem and Ramdas Pophale) SiO2 
 PCOD9047652
Probable space group: P -1
;
_chemical_formula_sum "Si O2"
_cell_formula_units_Z 14
_cell_length_a 9.792910
_cell_length_b 12.197052
_cell_length_c 8.840220
_cell_angle_alpha 101.197443
_cell_angle_beta 36.502276
_cell_angle_gamma 107.302266
_cell_volume 597.818878
_symmetry_space_group_name_H-M "P -1"
_symmetry_group_IT_number 2
_symmetry_cell_setting 'triclinic'
loop_
_space_group_symop_operation_xyz
x,y,z
-x,-y,-z
loop_
_atom_site_type_symbol
_atom_site_label
_atom_site_fract_x
_atom_site_fract_y
_atom_site_fract_z
Si Si1 0.559987 0.168128 0.230636
Si Si2 0.225261 0.162245 0.255199
Si Si3 0.220395 0.035125 0.927355
Si Si4 0.435639 0.281796 0.664491
Si Si5 0.216183 0.439154 0.748352
Si Si6 0.945003 0.306867 0.696031
Si Si7 0.408070 0.611521 0.150136
O O1 0.341012 0.130054 0.298746
O O2 0.523337 0.256528 0.415057
O O3 0.632525 0.061279 0.216473
O O4 0.769963 0.237348 0.958216
O O5 0.004411 0.212018 0.508463
O O6 0.162875 0.063076 0.159267
O O7 0.411535 0.273802 0.048436
O O8 0.365546 0.156547 0.767165
O O9 0.000000 0.000000 0.000000
O O10 0.217055 0.340463 0.847044
O O11 0.605844 0.363837 0.652872
O O12 0.500000 0.500000 0.500000
O O13 0.160614 0.379464 0.619078
O O14 0.000000 0.500000 0.000000
O O15 0.831716 0.392303 0.724621
O O16 0.500000 0.500000 0.000000
#
# Coordination Sequence:
#
# PCOD9047652 Si02
#       7
#     2   2   2   2   2   2   2
#     4  11  23  46  71  97 143 187 235 297 366 432
#     4  10  24  45  67  99 138 183 238 291 357 445
#     4  11  25  43  71 103 138 184 235 302 372 427
#     4  11  24  46  70 107 144 182 244 302 359 439
#     4  12  26  45  75 105 145 198 246 298 364 439
#     4  11  24  45  69 100 141 186 241 294 356 446
#     4  10  24  44  69 100 141 186 236 298 369 421
#
# _framework density 23.418464
#
# number of rings (size 3 to 8) (size 9 to 14) (size 15 to 20)
#    0.000    1.143    1.429    3.429    6.000    1.143 
#    5.143    0.000    0.000    0.000    0.000    0.000 
#    0.000    0.000    0.000    0.000    0.000    0.000 
#
# Total GULP energy -78283.059079 kJ/mol
# GULP energy per Si atom -5591.647077 kJ/mol
# Density = 2.336516 g / cm^3
# Si number density = 23.418464 Si / 1000 Ang^3
#
#
#
# Elastic Constant Matrix: (Units=GPa)
#
#
# Indices 1 2 3 4 5 6 
#
# 1 165.7232 60.6937 25.3465 23.6431 -5.0175 -7.3006
# 2 60.6937 121.0092 29.7303 29.9422 -12.8230 -18.8829
# 3 25.3465 29.7303 87.8164 22.5628 6.4281 -2.0297
# 4 23.6431 29.9422 22.5628 42.9978 -1.8493 -4.2415
# 5 -5.0175 -12.8230 6.4281 -1.8493 34.6066 14.4349
# 6 -7.3006 -18.8829 -2.0297 -4.2415 14.4349 52.5916
#
#
#
# Elastic Compliance Matrix: (Units=1/GPa)
#
#
# Indices 1 2 3 4 5 6 
#
# 1 0.007547 -0.003278 -0.000684 -0.001535 0.000047 -0.000292
# 2 -0.003278 0.012505 -0.002062 -0.005426 0.003144 0.002655
# 3 -0.000684 -0.002062 0.014039 -0.005691 -0.003909 0.000320
# 4 -0.001535 -0.005426 -0.005691 0.030884 0.000484 -0.000023
# 5 0.000047 0.003144 -0.003909 0.000484 0.034322 -0.008397
# 6 -0.000292 0.002655 0.000320 -0.000023 -0.008397 0.022242
#
#
# Mechanical properties :
#
#
# Convention : Reuss Voigt Hill
#
# Bulk Modulus (GPa) = 45.36855 67.34332 56.35593
# Shear Modulus (GPa) = 35.47741 43.29110 39.38426
#
# Velocity S-wave (km/s) = 3.89644 4.30419 4.10538
# Velocity P-wave (km/s) = 6.29746 7.31576 6.82562
#
# Compressibility (1/GPa) = 0.02204170
#
# Stress axis : x y z
#
# Youngs Moduli (GPa) = 132.50592 79.97076 71.23169
#
# Poissons Ratio (x) = 0.26214 0.04874
# Poissons Ratio (y) = 0.43435 0.14687
# Poissons Ratio (z) = 0.09067 0.16489
#
# Static dielectric constant tensor:
#      x y z
#    x 1.882250 -0.010410 0.010320 
#    y -0.010410 1.895530 -0.047140 
#    z 0.010320 -0.047140 1.925910 
# 
# From -- ./inp_files/56345.got.cif
#   From: 2010.05.17/outbox.cif.g08.bks.cpg/sg2_29_cif.got.tgz:56345.got - 2010.06.03 11:33:40.
