data_PCOD9047558
_publ_section_title
;
Structure prediction by ZEFSAII (Michael W. Deem and Ramdas Pophale) SiO2 
 PCOD9047558
Probable space group: P -1
;
_chemical_formula_sum "Si O2"
_cell_formula_units_Z 14
_cell_length_a 17.402904
_cell_length_b 7.945888
_cell_length_c 10.802017
_cell_angle_alpha 134.291175
_cell_angle_beta 31.684858
_cell_angle_gamma 124.965382
_cell_volume 560.707812
_symmetry_space_group_name_H-M "P -1"
_symmetry_group_IT_number 2
_symmetry_cell_setting 'triclinic'
loop_
_space_group_symop_operation_xyz
x,y,z
-x,-y,-z
loop_
_atom_site_type_symbol
_atom_site_label
_atom_site_fract_x
_atom_site_fract_y
_atom_site_fract_z
Si Si1 0.854854 0.270314 0.621185
Si Si2 0.549511 0.641299 0.653648
Si Si3 0.161166 0.862883 0.703535
Si Si4 0.651705 0.933534 0.870951
Si Si5 0.155221 0.609995 0.845281
Si Si6 0.683492 0.722156 0.189611
Si Si7 0.185198 0.115810 0.145178
O O1 0.824587 0.271772 0.515813
O O2 0.765238 0.054629 0.685709
O O3 0.028022 0.232783 0.384816
O O4 0.798031 0.497328 0.894550
O O5 0.718792 0.568368 0.364711
O O6 0.463052 0.405520 0.646183
O O7 0.553529 0.750678 0.842759
O O8 0.456103 0.851710 0.822564
O O9 0.181935 0.701682 0.715112
O O10 0.269283 0.076115 0.679529
O O11 0.000000 0.000000 0.000000
O O12 0.749902 0.810443 0.777449
O O13 0.000000 0.500000 0.000000
O O14 0.155907 0.840385 0.047569
O O15 0.693162 0.844129 0.104861
#
# Coordination Sequence:
#
# PCOD9047558 Si02
#       7
#     2   2   2   2   2   2   2
#     4  11  22  46  71 100 143 179 225 291 334 402
#     4  10  24  47  63  97 139 182 229 278 347 413
#     4  11  24  43  70 107 136 177 234 279 338 415
#     4  10  24  45  66  99 136 182 233 276 344 407
#     4  11  25  45  69 102 134 178 227 287 350 405
#     4  10  24  44  68 103 139 182 229 278 351 400
#     4  11  23  42  68 104 134 180 233 280 337 408
#
# _framework density 24.968443000000001
#
# number of rings (size 3 to 8) (size 9 to 14) (size 15 to 20)
#    0.000    1.429    2.857    1.714    2.000    5.714 
#   12.857    0.000    0.000    0.000    0.000    0.000 
#    0.000    0.000    0.000    0.000    0.000    0.000 
#
# Total GULP energy -78383.804875 kJ/mol
# GULP energy per Si atom -5598.843205 kJ/mol
# Density = 2.491161 g / cm^3
# Si number density = 24.968443 Si / 1000 Ang^3
#
#
#
# Elastic Constant Matrix: (Units=GPa)
#
#
# Indices 1 2 3 4 5 6 
#
# 1 121.3030 26.0979 26.1127 7.2321 6.0160 12.2477
# 2 26.0979 99.9680 41.0120 14.5730 1.2872 26.1876
# 3 26.1127 41.0120 83.1726 -6.2033 -2.8256 12.9157
# 4 7.2321 14.5730 -6.2033 31.0612 3.7051 1.6501
# 5 6.0160 1.2872 -2.8256 3.7051 30.3665 -2.7387
# 6 12.2477 26.1876 12.9157 1.6501 -2.7387 41.8442
#
#
#
# Elastic Compliance Matrix: (Units=1/GPa)
#
#
# Indices 1 2 3 4 5 6 
#
# 1 0.009317 -0.000628 -0.002591 -0.002076 -0.001950 -0.001580
# 2 -0.000628 0.016435 -0.007404 -0.008536 -0.000900 -0.007539
# 3 -0.002591 -0.007404 0.017096 0.007314 0.001519 -0.000074
# 4 -0.002076 -0.008536 0.007314 0.038402 -0.003054 0.001978
# 5 -0.001950 -0.000900 0.001519 -0.003054 0.034142 0.003020
# 6 -0.001580 -0.007539 -0.000074 0.001978 0.003020 0.029221
#
#
# Mechanical properties :
#
#
# Convention : Reuss Voigt Hill
#
# Bulk Modulus (GPa) = 46.28955 54.54319 50.41637
# Shear Modulus (GPa) = 28.89191 34.73577 31.81384
#
# Velocity S-wave (km/s) = 3.40536 3.73391 3.57341
# Velocity P-wave (km/s) = 5.83451 6.36252 6.10423
#
# Compressibility (1/GPa) = 0.02160315
#
# Stress axis : x y z
#
# Youngs Moduli (GPa) = 107.33487 60.84523 58.49331
#
# Poissons Ratio (x) = 0.03818 0.15157
# Poissons Ratio (y) = 0.06735 0.43306
# Poissons Ratio (z) = 0.27814 0.45047
#
# Static dielectric constant tensor:
#      x y z
#    x 1.969150 -0.043730 0.028810 
#    y -0.043730 1.974860 0.004060 
#    z 0.028810 0.004060 1.998700 
# 
# From -- ./inp_files/333923.got.cif
#   From: 2010.05.17/outbox.cif.g08.bks.cpg/sg2_167_cif.got.tgz:333923.got - 2010.06.03 11:33:40.
