data_PCOD9047072
_publ_section_title
;
Structure prediction by ZEFSAII (Michael W. Deem and Ramdas Pophale) SiO2 
 PCOD9047072
Probable space group: P -1
;
_chemical_formula_sum "Si O2"
_cell_formula_units_Z 14
_cell_length_a 12.066399
_cell_length_b 7.202940
_cell_length_c 6.931362
_cell_angle_alpha 95.411626
_cell_angle_beta 96.047235
_cell_angle_gamma 87.040915
_cell_volume 595.877817
_symmetry_space_group_name_H-M "P -1"
_symmetry_group_IT_number 2
_symmetry_cell_setting 'triclinic'
loop_
_space_group_symop_operation_xyz
x,y,z
-x,-y,-z
loop_
_atom_site_type_symbol
_atom_site_label
_atom_site_fract_x
_atom_site_fract_y
_atom_site_fract_z
Si Si1 0.586918 0.468720 0.687995
Si Si2 0.003709 0.782287 0.549205
Si Si3 0.808801 0.267770 0.685107
Si Si4 0.891732 0.424609 0.086803
Si Si5 0.766732 0.843439 0.636291
Si Si6 0.437587 0.150820 0.644562
Si Si7 0.298437 0.266439 0.976754
O O1 0.500000 0.500000 0.500000
O O2 0.708061 0.406536 0.623563
O O3 0.533181 0.283432 0.747212
O O4 0.610039 0.613552 0.878260
O O5 0.074111 0.685531 0.383586
O O6 0.069383 0.707493 0.742517
O O7 0.876768 0.742027 0.562909
O O8 0.000000 0.000000 0.500000
O O9 0.774883 0.060965 0.605288
O O10 0.827828 0.291384 0.916081
O O11 0.798351 0.594174 0.119977
O O12 0.000000 0.500000 0.000000
O O13 0.656056 0.770181 0.514358
O O14 0.761500 0.830989 0.864792
O O15 0.360522 0.129831 0.820000
O O16 0.500000 0.000000 0.500000
#
# Coordination Sequence:
#
# PCOD9047072 Si02
#       7
#     2   2   2   2   2   2   2
#     4  11  23  47  69 105 144 185 246 302 365 431
#     4  10  24  43  71 104 144 190 237 298 363 439
#     4  10  25  44  69 101 147 191 240 296 366 441
#     4  11  24  44  69 107 144 191 242 302 367 435
#     4  11  23  45  68 107 138 189 246 295 368 440
#     4  12  26  47  71 100 144 192 245 302 370 437
#     4  11  26  44  74 106 145 189 244 309 365 435
#
# _framework density 23.494751000000001
#
# number of rings (size 3 to 8) (size 9 to 14) (size 15 to 20)
#    0.000    1.143    4.286    0.429    4.000    5.714 
#    0.000    0.000    0.000    0.000    0.000    0.000 
#    0.000    0.000    0.000    0.000    0.000    0.000 
#
# Total GULP energy -78053.080636 kJ/mol
# GULP energy per Si atom -5575.220045 kJ/mol
# Density = 2.344128 g / cm^3
# Si number density = 23.494751 Si / 1000 Ang^3
#
#
#
# Elastic Constant Matrix: (Units=GPa)
#
#
# Indices 1 2 3 4 5 6 
#
# 1 151.5097 44.8295 60.0847 6.1858 -8.9427 -35.0936
# 2 44.8295 84.4296 54.4979 0.4914 1.7389 -4.3644
# 3 60.0847 54.4979 133.7340 -5.5208 -0.7851 -28.8433
# 4 6.1858 0.4914 -5.5208 36.7128 -4.3192 3.8418
# 5 -8.9427 1.7389 -0.7851 -4.3192 50.1125 2.4190
# 6 -35.0936 -4.3644 -28.8433 3.8418 2.4190 32.4964
#
#
#
# Elastic Compliance Matrix: (Units=1/GPa)
#
#
# Indices 1 2 3 4 5 6 
#
# 1 0.011036 -0.004812 -0.000774 -0.002885 0.001353 0.010825
# 2 -0.004812 0.018771 -0.007481 0.000267 -0.001157 -0.009260
# 3 -0.000774 -0.007481 0.012981 0.001180 -0.000034 0.009544
# 4 -0.002885 0.000267 0.001180 0.028748 0.002242 -0.005598
# 5 0.001353 -0.001157 -0.000034 0.002242 0.020454 -0.000512
# 6 0.010825 -0.009260 0.009544 -0.005598 -0.000512 0.050390
#
#
# Mechanical properties :
#
#
# Convention : Reuss Voigt Hill
#
# Bulk Modulus (GPa) = 60.04095 76.49973 68.27034
# Shear Modulus (GPa) = 28.72503 37.88176 33.30340
#
# Velocity S-wave (km/s) = 3.50038 4.01976 3.76903
# Velocity P-wave (km/s) = 6.47668 7.36041 6.93265
#
# Compressibility (1/GPa) = 0.01665530
#
# Stress axis : x y z
#
# Youngs Moduli (GPa) = 90.61370 53.27301 77.03814
#
# Poissons Ratio (x) = 0.25633 0.05962
# Poissons Ratio (y) = 0.43600 0.57630
# Poissons Ratio (z) = 0.07013 0.39852
#
# Static dielectric constant tensor:
#      x y z
#    x 1.945750 0.066800 0.003610 
#    y 0.066800 2.012690 -0.048900 
#    z 0.003610 -0.048900 2.011100 
# 
# From -- ./inp_files/60728.got.cif
#   From: 2010.05.17/outbox.cif.g08.bks.cpg/sg2_31_cif.got.tgz:60728.got - 2010.06.03 11:33:40.
