data_PCOD9047229
_publ_section_title
;
Structure prediction by ZEFSAII (Michael W. Deem and Ramdas Pophale) SiO2 
 PCOD9047229
Probable space group: P -1
;
_chemical_formula_sum "Si O2"
_cell_formula_units_Z 14
_cell_length_a 10.202751
_cell_length_b 7.882898
_cell_length_c 12.194682
_cell_angle_alpha 48.183303
_cell_angle_beta 62.569796
_cell_angle_gamma 48.122934
_cell_volume 544.043187
_symmetry_space_group_name_H-M "P -1"
_symmetry_group_IT_number 2
_symmetry_cell_setting 'triclinic'
loop_
_space_group_symop_operation_xyz
x,y,z
-x,-y,-z
loop_
_atom_site_type_symbol
_atom_site_label
_atom_site_fract_x
_atom_site_fract_y
_atom_site_fract_z
Si Si1 0.823230 0.512882 0.087907
Si Si2 0.195717 0.059061 0.770755
Si Si3 0.274599 0.314659 0.168798
Si Si4 0.557649 0.605707 0.724071
Si Si5 0.614210 0.084024 0.027132
Si Si6 0.064227 0.666271 0.650456
Si Si7 0.909941 0.324892 0.599375
O O1 0.833057 0.368093 0.260736
O O2 0.783015 0.464540 0.001306
O O3 0.000000 0.500000 0.000000
O O4 0.699070 0.829473 0.026953
O O5 0.152363 0.355379 0.701722
O O6 0.022580 0.114365 0.746712
O O7 0.365126 0.882702 0.698257
O O8 0.258412 0.919053 0.926826
O O9 0.316434 0.394787 0.231712
O O10 0.129826 0.247026 0.274067
O O11 0.465542 0.079465 0.156058
O O12 0.541356 0.353836 0.867406
O O13 0.696974 0.508305 0.612964
O O14 0.053787 0.809772 0.477489
O O15 0.000000 0.500000 0.500000
#
# Coordination Sequence:
#
# PCOD9047229 Si02
#       7
#     2   2   2   2   2   2   2
#     4   9  19  36  57  81 104 150 186 222 273 326
#     4   9  18  33  51  82 111 144 177 220 282 318
#     4  10  17  34  57  79 112 141 179 228 270 322
#     4  11  21  35  55  89 114 139 178 236 278 322
#     4  10  21  35  52  88 116 134 184 231 280 325
#     4   9  18  34  53  83 108 144 192 221 263 324
#     4  10  19  35  53  79 118 144 184 224 272 323
#
# _framework density 25.733250999999999
#
# number of rings (size 3 to 8) (size 9 to 14) (size 15 to 20)
#    0.000    2.286    2.857    2.143    0.000    2.857 
#   10.286    0.000    0.000    4.286    0.000    0.000 
#    0.000    0.000    0.000    0.000    0.000    0.000 
#
# Total GULP energy -77961.960767 kJ/mol
# GULP energy per Si atom -5568.711483 kJ/mol
# Density = 2.567468 g / cm^3
# Si number density = 25.733251 Si / 1000 Ang^3
#
#
#
# Elastic Constant Matrix: (Units=GPa)
#
#
# Indices 1 2 3 4 5 6 
#
# 1 72.8710 2.6200 2.4196 9.4042 11.5282 13.7555
# 2 2.6200 66.7161 5.4648 11.3707 -14.0112 -19.5786
# 3 2.4196 5.4648 72.7118 14.7376 9.7542 2.3472
# 4 9.4042 11.3707 14.7376 48.9255 2.9094 4.9464
# 5 11.5282 -14.0112 9.7542 2.9094 54.9200 18.5234
# 6 13.7555 -19.5786 2.3472 4.9464 18.5234 41.7483
#
#
#
# Elastic Compliance Matrix: (Units=1/GPa)
#
#
# Indices 1 2 3 4 5 6 
#
# 1 0.015301 -0.002197 0.000492 -0.001955 -0.002090 -0.004940
# 2 -0.002197 0.019247 -0.001057 -0.004822 0.002721 0.009174
# 3 0.000492 -0.001057 0.015058 -0.004241 -0.002922 0.000294
# 4 -0.001955 -0.004822 -0.004241 0.023634 0.000107 -0.004226
# 5 -0.002090 0.002721 -0.002922 0.000107 0.022509 -0.007871
# 6 -0.004940 0.009174 0.000294 -0.004226 -0.007871 0.033860
#
#
# Mechanical properties :
#
#
# Convention : Reuss Voigt Hill
#
# Bulk Modulus (GPa) = 22.68493 25.92307 24.30400
# Shear Modulus (GPa) = 33.37191 42.57172 37.97182
#
# Velocity S-wave (km/s) = 3.60507 4.07178 3.84551
# Velocity P-wave (km/s) = 5.11501 5.67463 5.40207
#
# Compressibility (1/GPa) = 0.04408213
#
# Stress axis : x y z
#
# Youngs Moduli (GPa) = 65.35522 51.95616 66.40974
#
# Poissons Ratio (x) = 0.11413 -0.03267
# Poissons Ratio (y) = 0.14357 0.07021
# Poissons Ratio (z) = -0.03216 0.05493
#
# Static dielectric constant tensor:
#      x y z
#    x 2.180750 -0.012270 0.045180 
#    y -0.012270 2.158930 -0.106660 
#    z 0.045180 -0.106660 2.211550 
# 
# From -- ./inp_files/418841.got.cif
#   From: 2010.05.17/outbox.cif.g08.bks.cpg/sg2_210_cif.got.tgz:418841.got - 2010.06.03 11:33:40.
