data_PCOD9047722
_publ_section_title
;
Structure prediction by ZEFSAII (Michael W. Deem and Ramdas Pophale) SiO2 
 PCOD9047722
Probable space group: P -1
;
_chemical_formula_sum "Si O2"
_cell_formula_units_Z 16
_cell_length_a 17.029824
_cell_length_b 9.307784
_cell_length_c 7.608779
_cell_angle_alpha 61.322178
_cell_angle_beta 87.210218
_cell_angle_gamma 129.301758
_cell_volume 699.677423
_symmetry_space_group_name_H-M "P -1"
_symmetry_group_IT_number 2
_symmetry_cell_setting 'triclinic'
loop_
_space_group_symop_operation_xyz
x,y,z
-x,-y,-z
loop_
_atom_site_type_symbol
_atom_site_label
_atom_site_fract_x
_atom_site_fract_y
_atom_site_fract_z
Si Si1 0.538542 0.233113 0.448115
Si Si2 0.710119 0.433120 0.642666
Si Si3 0.315268 0.074344 0.515830
Si Si4 0.063058 0.767608 0.879865
Si Si5 0.917700 0.214807 0.720681
Si Si6 0.309924 0.955938 0.227751
Si Si7 0.412269 0.556897 0.052767
Si Si8 0.021982 0.047209 0.760167
O O1 0.622351 0.337961 0.544751
O O2 0.421247 0.153233 0.564207
O O3 0.500000 0.000000 0.500000
O O4 0.597216 0.422342 0.166374
O O5 0.719585 0.252501 0.752738
O O6 0.658846 0.424229 0.833471
O O7 0.838798 0.705406 0.428907
O O8 0.370279 0.314046 0.263975
O O9 0.198437 0.957779 0.689624
O O10 0.282353 0.890081 0.477510
O O11 0.998239 0.836121 0.791587
O O12 0.063701 0.782487 0.078953
O O13 0.000000 0.500000 0.000000
O O14 0.780600 0.044578 0.812920
O O15 0.000000 0.500000 0.500000
O O16 0.952665 0.103956 0.679200
O O17 0.449019 0.206704 0.052227
O O18 0.000000 0.000000 0.000000
#
# Coordination Sequence:
#
# PCOD9047722 Si02
#       8
#     2   2   2   2   2   2   2   2
#     4  11  24  41  71 106 140 185 226 280 355 411
#     4  12  23  45  72 101 144 182 232 288 341 424
#     4  11  24  45  65 101 144 172 233 291 345 418
#     4  11  25  45  70  98 136 184 235 296 347 418
#     4  11  23  44  71 100 135 186 235 282 357 412
#     4  11  23  42  71  97 140 183 223 290 348 411
#     4  11  25  44  69 106 142 183 232 285 347 420
#     4  10  24  44  69  99 137 183 237 287 351 417
#
# _framework density 22.867681000000001
#
# number of rings (size 3 to 8) (size 9 to 14) (size 15 to 20)
#    0.000    1.000    5.000    2.625    3.500    4.500 
#    0.000    3.750    0.000    0.000    0.000    0.000 
#    0.000    0.000    0.000    0.000    0.000    0.000 
#
# Total GULP energy -89463.904933 kJ/mol
# GULP energy per Si atom -5591.494058 kJ/mol
# Density = 2.281563 g / cm^3
# Si number density = 22.867681 Si / 1000 Ang^3
#
#
#
# Elastic Constant Matrix: (Units=GPa)
#
#
# Indices 1 2 3 4 5 6 
#
# 1 166.7485 31.7897 29.7222 -5.0637 -14.4571 -37.7466
# 2 31.7897 49.5145 5.1216 -3.1608 -7.2143 -23.0293
# 3 29.7222 5.1216 99.7635 -6.9683 -21.1482 -20.0137
# 4 -5.0637 -3.1608 -6.9683 30.3067 -7.8765 4.5398
# 5 -14.4571 -7.2143 -21.1482 -7.8765 32.3264 8.9952
# 6 -37.7466 -23.0293 -20.0137 4.5398 8.9952 41.2946
#
#
#
# Elastic Compliance Matrix: (Units=1/GPa)
#
#
# Indices 1 2 3 4 5 6 
#
# 1 0.007889 -0.002401 -0.000954 0.000341 0.001018 0.005151
# 2 -0.002401 0.028753 0.003082 0.002196 0.003933 0.014236
# 3 -0.000954 0.003082 0.013322 0.004781 0.008788 0.004864
# 4 0.000341 0.002196 0.004781 0.038574 0.014133 -0.003465
# 5 0.001018 0.003933 0.008788 0.014133 0.042409 -0.003408
# 6 0.005151 0.014236 0.004864 -0.003465 -0.003408 0.040345
#
#
# Mechanical properties :
#
#
# Convention : Reuss Voigt Hill
#
# Bulk Modulus (GPa) = 20.23475 49.92150 35.07813
# Shear Modulus (GPa) = 26.55188 37.41175 31.98181
#
# Velocity S-wave (km/s) = 3.41120 4.04915 3.74379
# Velocity P-wave (km/s) = 4.93790 6.61353 5.83617
#
# Compressibility (1/GPa) = 0.04941992
#
# Stress axis : x y z
#
# Youngs Moduli (GPa) = 126.75101 34.77867 75.06204
#
# Poissons Ratio (x) = 0.08349 0.07162
# Poissons Ratio (y) = 0.30429 -0.23136
# Poissons Ratio (z) = 0.12095 -0.10720
#
# Static dielectric constant tensor:
#      x y z
#    x 1.956130 -0.013000 0.055140 
#    y -0.013000 1.888150 -0.002480 
#    z 0.055140 -0.002480 1.847480 
# 
# From -- ./inp_files/271342.got.cif
#   From: 2010.05.17/outbox.cif.g08.bks.cpg/sg2_136_cif.got.tgz:271342.got - 2010.06.03 11:33:40.
