data_PCOD9047805
_publ_section_title
;
Structure prediction by ZEFSAII (Michael W. Deem and Ramdas Pophale) SiO2 
 PCOD9047805
Probable space group: P -1
;
_chemical_formula_sum "Si O2"
_cell_formula_units_Z 10
_cell_length_a 6.928755
_cell_length_b 5.586537
_cell_length_c 19.038575
_cell_angle_alpha 62.879297
_cell_angle_beta 135.154542
_cell_angle_gamma 86.469677
_cell_volume 365.430060
_symmetry_space_group_name_H-M "P -1"
_symmetry_group_IT_number 2
_symmetry_cell_setting 'triclinic'
loop_
_space_group_symop_operation_xyz
x,y,z
-x,-y,-z
loop_
_atom_site_type_symbol
_atom_site_label
_atom_site_fract_x
_atom_site_fract_y
_atom_site_fract_z
Si Si1 0.308735 0.835151 0.453111
Si Si2 0.575177 0.738996 0.778254
Si Si3 0.185930 0.838744 0.995398
Si Si4 0.802647 0.431142 0.139273
Si Si5 0.541393 0.601170 0.317332
O O1 0.500000 0.500000 0.500000
O O2 0.302396 0.679314 0.545503
O O3 0.500000 0.000000 0.500000
O O4 0.998273 0.111396 0.284886
O O5 0.706273 0.536675 0.912414
O O6 0.381386 0.609822 0.705810
O O7 0.895401 0.613320 0.823659
O O8 0.367815 0.138962 0.685929
O O9 0.555245 0.747299 0.087035
O O10 0.000000 0.000000 0.000000
O O11 0.880990 0.105381 0.828013
O O12 0.500000 0.500000 0.000000
#
# Coordination Sequence:
#
# PCOD9047805 Si02
#       5
#     2   2   2   2   2
#     4  12  23  45  69 105 144 186 236 298 352 426
#     4  11  23  44  70 100 145 179 235 291 351 415
#     4  10  24  44  70 107 144 183 239 299 349 426
#     4  12  24  44  77 106 138 195 244 285 368 424
#     4  11  21  43  69  96 143 185 225 291 355 407
#
# _framework density 27.365017999999999
#
# number of rings (size 3 to 8) (size 9 to 14) (size 15 to 20)
#    0.000    0.800    6.000    0.600    0.000    3.200 
#    7.200    5.000    0.000    0.000    0.000    0.000 
#    0.000    0.000    0.000    0.000    0.000    0.000 
#
# Total GULP energy -55774.227729 kJ/mol
# GULP energy per Si atom -5577.422773 kJ/mol
# Density = 2.730273 g / cm^3
# Si number density = 27.365018 Si / 1000 Ang^3
#
#
#
# Elastic Constant Matrix: (Units=GPa)
#
#
# Indices 1 2 3 4 5 6 
#
# 1 108.2935 34.8723 90.7903 -13.5016 -23.9902 8.0188
# 2 34.8723 201.6063 60.5092 -12.4960 -13.8361 15.1480
# 3 90.7903 60.5092 253.4148 -18.3207 -32.8833 20.7000
# 4 -13.5016 -12.4960 -18.3207 48.5611 -0.0511 -16.9878
# 5 -23.9902 -13.8361 -32.8833 -0.0511 70.5082 -13.2064
# 6 8.0188 15.1480 20.7000 -16.9878 -13.2064 41.0749
#
#
#
# Elastic Compliance Matrix: (Units=1/GPa)
#
#
# Indices 1 2 3 4 5 6 
#
# 1 0.014048 -0.000882 -0.004404 0.002663 0.002899 0.001835
# 2 -0.000882 0.005494 -0.000846 0.000430 0.000159 -0.001198
# 3 -0.004404 -0.000846 0.005977 0.000311 0.000854 -0.001437
# 4 0.002663 0.000430 0.000311 0.025284 0.003145 0.010633
# 5 0.002899 0.000159 0.000854 0.003145 0.016650 0.005599
# 6 0.001835 -0.001198 -0.001437 0.010633 0.005599 0.031351
#
#
# Mechanical properties :
#
#
# Convention : Reuss Voigt Hill
#
# Bulk Modulus (GPa) = 75.44279 103.96202 89.70241
# Shear Modulus (GPa) = 43.29499 57.17169 50.23334
#
# Velocity S-wave (km/s) = 3.98191 4.57576 4.28913
# Velocity P-wave (km/s) = 6.98354 8.12343 7.57496
#
# Compressibility (1/GPa) = 0.01325508
#
# Stress axis : x y z
#
# Youngs Moduli (GPa) = 71.18235 182.00440 167.32112
#
# Poissons Ratio (x) = 0.16056 0.73684
# Poissons Ratio (y) = 0.06280 0.14159
# Poissons Ratio (z) = 0.31347 0.15401
#
# Static dielectric constant tensor:
#      x y z
#    x 2.292700 -0.042230 0.076360 
#    y -0.042230 2.369860 0.057150 
#    z 0.076360 0.057150 2.157410 
# 
# From -- ./inp_files/605841.got.cif
#   From: 2010.05.17/outbox.cif.g08.bks.cpg/sg2_303_cif.got.tgz:605841.got - 2010.06.03 11:33:40.
