data_PCOD9047681
_publ_section_title
;
Structure prediction by ZEFSAII (Michael W. Deem and Ramdas Pophale) SiO2 
 PCOD9047681
Probable space group: P -1
;
_chemical_formula_sum "Si O2"
_cell_formula_units_Z 16
_cell_length_a 8.924198
_cell_length_b 25.082083
_cell_length_c 22.398553
_cell_angle_alpha 17.196190
_cell_angle_beta 141.360272
_cell_angle_gamma 151.632855
_cell_volume 637.948207
_symmetry_space_group_name_H-M "P -1"
_symmetry_group_IT_number 2
_symmetry_cell_setting 'triclinic'
loop_
_space_group_symop_operation_xyz
x,y,z
-x,-y,-z
loop_
_atom_site_type_symbol
_atom_site_label
_atom_site_fract_x
_atom_site_fract_y
_atom_site_fract_z
Si Si1 0.220147 0.790593 0.822436
Si Si2 0.775341 0.602032 0.704492
Si Si3 0.777351 0.737865 0.376808
Si Si4 0.355836 0.622639 0.638482
Si Si5 0.312944 0.899529 0.460845
Si Si6 0.522066 0.609317 0.826181
Si Si7 0.945093 0.885622 0.041238
Si Si8 0.779422 0.313022 0.688597
O O1 0.868848 0.714167 0.793690
O O2 0.478587 0.087849 0.610874
O O3 0.388170 0.825099 0.774019
O O4 0.168780 0.578320 0.069624
O O5 0.645408 0.659154 0.655737
O O6 0.431193 0.412313 0.758433
O O7 0.122673 0.858161 0.505640
O O8 0.500000 0.500000 0.500000
O O9 0.569484 0.770165 0.317153
O O10 0.987117 0.721889 0.503002
O O11 0.048158 0.979512 0.157637
O O12 0.271211 0.476492 0.831341
O O13 0.026931 0.460105 0.666413
O O14 0.489517 0.801905 0.626145
O O15 0.500000 0.500000 0.000000
O O16 0.257151 0.917521 0.090326
O O17 0.000000 0.000000 0.000000
O O18 0.000000 0.500000 0.500000
#
# Coordination Sequence:
#
# PCOD9047681 Si02
#       8
#     2   2   2   2   2   2   2   2
#     4  11  23  46  71  95 140 183 229 296 351 407
#     4  11  23  44  67 102 137 178 233 289 348 419
#     4  12  22  39  65  99 135 182 225 286 343 415
#     4  10  24  44  69 104 141 181 235 289 345 424
#     4  11  22  42  67  98 136 172 234 283 341 420
#     4  11  23  46  72 101 138 185 233 291 355 416
#     4  11  24  41  65  98 139 187 230 281 351 414
#     4  11  24  43  66 102 142 180 234 284 345 426
#
# _framework density 25.080407000000001
#
# number of rings (size 3 to 8) (size 9 to 14) (size 15 to 20)
#    0.000    1.000    2.500    6.375    1.750    0.500 
#    2.250    2.500    0.000    0.000    0.000    0.000 
#    0.000    0.000    0.000    0.000    0.000    0.000 
#
# Total GULP energy -89430.390008 kJ/mol
# GULP energy per Si atom -5589.399376 kJ/mol
# Density = 2.502332 g / cm^3
# Si number density = 25.080407 Si / 1000 Ang^3
#
#
#
# Elastic Constant Matrix: (Units=GPa)
#
#
# Indices 1 2 3 4 5 6 
#
# 1 160.7707 57.5570 35.6145 4.2252 -4.7848 7.1163
# 2 57.5570 127.3810 29.8908 22.4592 4.7939 0.5106
# 3 35.6145 29.8908 64.7971 28.4548 -5.6723 -4.7882
# 4 4.2252 22.4592 28.4548 39.5188 2.8557 0.8429
# 5 -4.7848 4.7939 -5.6723 2.8557 59.1182 9.5416
# 6 7.1163 0.5106 -4.7882 0.8429 9.5416 53.3617
#
#
#
# Elastic Compliance Matrix: (Units=1/GPa)
#
#
# Indices 1 2 3 4 5 6 
#
# 1 0.008639 -0.003526 -0.005385 0.004958 0.000515 -0.001772
# 2 -0.003526 0.010546 -0.000790 -0.004982 -0.001067 0.000568
# 3 -0.005385 -0.000790 0.027613 -0.019118 0.002714 0.003020
# 4 0.004958 -0.004982 -0.019118 0.041615 -0.002633 -0.002515
# 5 0.000515 -0.001067 0.002714 -0.002633 0.017911 -0.002976
# 6 -0.001772 0.000568 0.003020 -0.002515 -0.002976 0.019814
#
#
# Mechanical properties :
#
#
# Convention : Reuss Voigt Hill
#
# Bulk Modulus (GPa) = 36.50249 66.56369 51.53309
# Shear Modulus (GPa) = 32.32664 45.72553 39.02608
#
# Velocity S-wave (km/s) = 3.59405 4.27448 3.94895
# Velocity P-wave (km/s) = 5.63992 7.13858 6.43304
#
# Compressibility (1/GPa) = 0.02739539
#
# Stress axis : x y z
#
# Youngs Moduli (GPa) = 115.75734 94.82641 36.21506
#
# Poissons Ratio (x) = 0.33439 0.19500
# Poissons Ratio (y) = 0.40820 0.02861
# Poissons Ratio (z) = 0.62330 0.07491
#
# Static dielectric constant tensor:
#      x y z
#    x 2.051970 -0.011080 -0.077260 
#    y -0.011080 2.179350 -0.036840 
#    z -0.077260 -0.036840 2.105820 
# 
# From -- ./inp_files/591948.got.cif
#   From: 2010.05.17/outbox.cif.g08.bks.cpg/sg2_296_cif.got.tgz:591948.got - 2010.06.03 11:33:40.
