data_PCOD9047906
_publ_section_title
;
Structure prediction by ZEFSAII (Michael W. Deem and Ramdas Pophale) SiO2 
 PCOD9047906
Probable space group: P -1
;
_chemical_formula_sum "Si O2"
_cell_formula_units_Z 10
_cell_length_a 13.774997
_cell_length_b 8.871746
_cell_length_c 9.279412
_cell_angle_alpha 63.514447
_cell_angle_beta 49.304948
_cell_angle_gamma 30.821982
_cell_volume 421.154714
_symmetry_space_group_name_H-M "P -1"
_symmetry_group_IT_number 2
_symmetry_cell_setting 'triclinic'
loop_
_space_group_symop_operation_xyz
x,y,z
-x,-y,-z
loop_
_atom_site_type_symbol
_atom_site_label
_atom_site_fract_x
_atom_site_fract_y
_atom_site_fract_z
Si Si1 0.233256 0.781423 0.464638
Si Si2 0.636675 0.191076 0.942280
Si Si3 0.503330 0.026118 0.814751
Si Si4 0.303468 0.930175 0.598592
Si Si5 0.011553 0.672379 0.986055
O O1 0.346442 0.807472 0.245443
O O2 0.205206 0.894541 0.601387
O O3 0.443165 0.411412 0.436960
O O4 0.000000 0.000000 0.500000
O O5 0.500000 0.500000 0.000000
O O6 0.534310 0.128378 0.127941
O O7 0.893809 0.919350 0.877863
O O8 0.681937 0.917111 0.579071
O O9 0.283898 0.393968 0.856628
O O10 0.500000 0.000000 0.000000
O O11 0.128288 0.155933 0.803957
O O12 0.000000 0.500000 0.000000
#
# Coordination Sequence:
#
# PCOD9047906 Si02
#       5
#     2   2   2   2   2
#     4  11  24  45  74 111 144 189 245 302 371 436
#     4  11  22  45  68 102 144 185 240 302 359 428
#     4  11  24  45  71 104 144 188 248 299 360 433
#     4  11  24  48  75 105 150 193 242 304 365 437
#     4  10  24  44  71 106 146 189 244 296 365 437
#
# _framework density 23.744242
#
# number of rings (size 3 to 8) (size 9 to 14) (size 15 to 20)
#    0.000    1.200    4.000    1.200    0.000    5.600 
#    7.200    4.000    0.000    0.000    0.000    0.000 
#    0.000    0.000    0.000    0.000    0.000    0.000 
#
# Total GULP energy -55754.564719 kJ/mol
# GULP energy per Si atom -5575.456472 kJ/mol
# Density = 2.369020 g / cm^3
# Si number density = 23.744242 Si / 1000 Ang^3
#
#
#
# Elastic Constant Matrix: (Units=GPa)
#
#
# Indices 1 2 3 4 5 6 
#
# 1 115.3183 37.8930 32.5217 3.9292 12.4895 1.6672
# 2 37.8930 122.9992 24.3557 -9.1135 8.3340 5.7991
# 3 32.5217 24.3557 134.5921 -19.4707 27.6849 21.8232
# 4 3.9292 -9.1135 -19.4707 47.7543 13.7920 10.0437
# 5 12.4895 8.3340 27.6849 13.7920 48.6792 -0.1966
# 6 1.6672 5.7991 21.8232 10.0437 -0.1966 36.5266
#
#
#
# Elastic Compliance Matrix: (Units=1/GPa)
#
#
# Indices 1 2 3 4 5 6 
#
# 1 0.010561 -0.003071 -0.003056 -0.003442 0.000541 0.002781
# 2 -0.003071 0.009507 0.000289 0.003259 -0.001937 -0.002448
# 3 -0.003056 0.000289 0.013660 0.011192 -0.010250 -0.011200
# 4 -0.003442 0.003259 0.011192 0.034490 -0.015879 -0.016616
# 5 0.000541 -0.001937 -0.010250 -0.015879 0.031108 0.010940
# 6 0.002781 -0.002448 -0.011200 -0.016616 0.010940 0.038958
#
#
# Mechanical properties :
#
#
# Convention : Reuss Voigt Hill
#
# Bulk Modulus (GPa) = 45.35144 62.49449 53.92297
# Shear Modulus (GPa) = 31.78397 45.13462 38.45929
#
# Velocity S-wave (km/s) = 3.66265 4.36462 4.02895
# Velocity P-wave (km/s) = 6.08508 7.19562 6.66352
#
# Compressibility (1/GPa) = 0.02205002
#
# Stress axis : x y z
#
# Youngs Moduli (GPa) = 94.68512 105.18177 73.20896
#
# Poissons Ratio (x) = 0.32305 0.22375
# Poissons Ratio (y) = 0.29081 -0.02113
# Poissons Ratio (z) = 0.28939 -0.03035
#
# Static dielectric constant tensor:
#      x y z
#    x 2.057770 -0.045380 -0.061530 
#    y -0.045380 1.901150 0.020350 
#    z -0.061530 0.020350 2.008990 
# 
# From -- ./inp_files/144198.got.cif
#   From: 2010.05.17/outbox.cif.g08.bks.cpg/sg2_73_cif.got.tgz:144198.got - 2010.06.03 11:33:40.
