data_PCOD9047797
_publ_section_title
;
Structure prediction by ZEFSAII (Michael W. Deem and Ramdas Pophale) SiO2 
 PCOD9047797
Probable space group: P -1
;
_chemical_formula_sum "Si O2"
_cell_formula_units_Z 14
_cell_length_a 25.467150
_cell_length_b 15.980591
_cell_length_c 5.108513
_cell_angle_alpha 114.885130
_cell_angle_beta 107.945103
_cell_angle_gamma 18.678513
_cell_volume 573.940420
_symmetry_space_group_name_H-M "P -1"
_symmetry_group_IT_number 2
_symmetry_cell_setting 'triclinic'
loop_
_space_group_symop_operation_xyz
x,y,z
-x,-y,-z
loop_
_atom_site_type_symbol
_atom_site_label
_atom_site_fract_x
_atom_site_fract_y
_atom_site_fract_z
Si Si1 0.084020 0.321440 0.141602
Si Si2 0.530238 0.251215 0.847081
Si Si3 0.471620 0.152512 0.862358
Si Si4 0.423283 0.523904 0.522159
Si Si5 0.142995 0.698400 0.383928
Si Si6 0.218593 0.442061 0.540009
Si Si7 0.051669 0.165608 0.984806
O O1 0.000000 0.500000 0.500000
O O2 0.287572 0.012655 0.085644
O O3 0.042929 0.279372 0.001560
O O4 0.000000 0.500000 0.000000
O O5 0.509052 0.174215 0.737238
O O6 0.524212 0.306421 0.620238
O O7 0.398203 0.506109 0.190805
O O8 0.358008 0.244030 0.719196
O O9 0.658580 0.816320 0.792552
O O10 0.335491 0.412363 0.199257
O O11 0.500000 0.500000 0.500000
O O12 0.246811 0.824618 0.801454
O O13 0.168937 0.625313 0.624090
O O14 0.062008 0.732173 0.192878
O O15 0.000000 0.000000 0.500000
O O16 0.041146 0.678402 0.670801
#
# Coordination Sequence:
#
# PCOD9047797 Si02
#       7
#     2   2   2   2   2   2   2
#     4  12  28  48  75 110 147 193 252 306 376 450
#     4  12  27  46  77 106 148 193 247 307 373 448
#     4  10  24  44  70 106 140 196 243 309 369 444
#     4  12  27  48  72 108 148 195 245 305 374 441
#     4  11  25  43  72 106 147 194 248 311 371 453
#     4  10  24  46  69 101 147 188 250 303 377 438
#     4  11  27  43  74 103 147 196 245 311 374 446
#
# _framework density 24.392775
#
# number of rings (size 3 to 8) (size 9 to 14) (size 15 to 20)
#    0.000    0.857    1.429    3.429   12.000    1.143 
#    0.000    0.000    0.000    0.000    0.000    0.000 
#    0.000    0.000    0.000    0.000    0.000    0.000 
#
# Total GULP energy -78110.941437 kJ/mol
# GULP energy per Si atom -5579.352960 kJ/mol
# Density = 2.433726 g / cm^3
# Si number density = 24.392775 Si / 1000 Ang^3
#
#
#
# Elastic Constant Matrix: (Units=GPa)
#
#
# Indices 1 2 3 4 5 6 
#
# 1 156.2909 55.5031 22.3952 2.9933 -6.2222 8.6706
# 2 55.5031 107.9951 55.3832 22.5271 -20.8409 20.1124
# 3 22.3952 55.3832 91.2812 18.8239 -14.6630 7.8254
# 4 2.9933 22.5271 18.8239 53.1974 -3.7629 -4.8403
# 5 -6.2222 -20.8409 -14.6630 -3.7629 50.4374 0.2048
# 6 8.6706 20.1124 7.8254 -4.8403 0.2048 42.0162
#
#
#
# Elastic Compliance Matrix: (Units=1/GPa)
#
#
# Indices 1 2 3 4 5 6 
#
# 1 0.007994 -0.005028 0.000580 0.001491 -0.000815 0.000825
# 2 -0.005028 0.019361 -0.008011 -0.005422 0.004676 -0.007386
# 3 0.000580 -0.008011 0.016324 -0.002285 0.001335 0.000405
# 4 0.001491 -0.005422 -0.002285 0.022222 -0.001084 0.005279
# 5 -0.000815 0.004676 0.001335 -0.001084 0.021976 -0.002551
# 6 0.000825 -0.007386 0.000405 0.005279 -0.002551 0.027711
#
#
# Mechanical properties :
#
#
# Convention : Reuss Voigt Hill
#
# Bulk Modulus (GPa) = 53.29900 69.12556 61.21228
# Shear Modulus (GPa) = 34.06947 43.94924 39.00936
#
# Velocity S-wave (km/s) = 3.74130 4.24929 4.00336
# Velocity P-wave (km/s) = 6.36874 7.24398 6.82042
#
# Compressibility (1/GPa) = 0.01876208
#
# Stress axis : x y z
#
# Youngs Moduli (GPa) = 125.09419 51.65081 61.25853
#
# Poissons Ratio (x) = 0.25970 -0.03554
# Poissons Ratio (y) = 0.62896 0.49072
# Poissons Ratio (z) = -0.07257 0.41376
#
# Static dielectric constant tensor:
#      x y z
#    x 2.093050 0.249620 -0.134390 
#    y 0.249620 2.320940 -0.183100 
#    z -0.134390 -0.183100 2.335580 
# 
# From -- ./inp_files/124360.got.cif
#   From: 2010.05.17/outbox.cif.g08.bks.cpg/sg2_63_cif.got.tgz:124360.got - 2010.06.03 11:33:40.
