data_PCOD9047218
_publ_section_title
;
Structure prediction by ZEFSAII (Michael W. Deem and Ramdas Pophale) SiO2 
 PCOD9047218
Probable space group: P -1
;
_chemical_formula_sum "Si O2"
_cell_formula_units_Z 14
_cell_length_a 9.894501
_cell_length_b 9.398369
_cell_length_c 11.059754
_cell_angle_alpha 113.196340
_cell_angle_beta 46.817426
_cell_angle_gamma 129.414313
_cell_volume 577.875003
_symmetry_space_group_name_H-M "P -1"
_symmetry_group_IT_number 2
_symmetry_cell_setting 'triclinic'
loop_
_space_group_symop_operation_xyz
x,y,z
-x,-y,-z
loop_
_atom_site_type_symbol
_atom_site_label
_atom_site_fract_x
_atom_site_fract_y
_atom_site_fract_z
Si Si1 0.401427 0.174849 0.883791
Si Si2 0.574802 0.504293 0.720219
Si Si3 0.736890 0.362543 0.114878
Si Si4 0.778696 0.192116 0.800860
Si Si5 0.108226 0.086495 0.272673
Si Si6 0.255790 0.951249 0.658942
Si Si7 0.797879 0.395544 0.357044
O O1 0.514154 0.383964 0.837862
O O2 0.599773 0.152727 0.796298
O O3 0.266691 0.046603 0.810164
O O4 0.241612 0.125482 0.078235
O O5 0.375812 0.528591 0.817353
O O6 0.785616 0.712419 0.668279
O O7 0.373384 0.599710 0.447417
O O8 0.684359 0.306904 0.267989
O O9 0.683716 0.210155 0.995181
O O10 0.000000 0.500000 0.000000
O O11 0.996385 0.395647 0.715309
O O12 0.847156 0.045270 0.720247
O O13 0.856146 0.999067 0.359961
O O14 0.118521 0.729578 0.683936
O O15 0.500000 0.000000 0.500000
#
# Coordination Sequence:
#
# PCOD9047218 Si02
#       7
#     2   2   2   2   2   2   2
#     4  12  26  48  76 106 149 187 245 302 361 432
#     4  12  26  45  75 108 148 192 243 292 374 424
#     4  10  24  43  74 106 144 188 245 293 361 427
#     4  11  26  49  76 107 145 191 243 299 363 432
#     4  12  28  46  74 110 146 194 243 297 358 437
#     4  12  28  47  73 107 147 186 247 297 364 425
#     4  11  26  47  74 102 150 190 238 299 364 427
#
# _framework density 24.226690000000001
#
# number of rings (size 3 to 8) (size 9 to 14) (size 15 to 20)
#    0.000    0.571    2.857    3.429   12.000    2.857 
#    0.000    0.000    0.000    0.000    0.000    0.000 
#    0.000    0.000    0.000    0.000    0.000    0.000 
#
# Total GULP energy -78483.904347 kJ/mol
# GULP energy per Si atom -5605.993168 kJ/mol
# Density = 2.417155 g / cm^3
# Si number density = 24.226690 Si / 1000 Ang^3
#
#
#
# Elastic Constant Matrix: (Units=GPa)
#
#
# Indices 1 2 3 4 5 6 
#
# 1 145.7100 12.0135 12.8032 8.9787 -40.4303 -5.0790
# 2 12.0135 97.2615 1.6641 7.9592 -13.1856 -4.3190
# 3 12.8032 1.6641 69.7776 7.6014 -0.7096 6.1705
# 4 8.9787 7.9592 7.6014 42.6211 0.3027 2.0033
# 5 -40.4303 -13.1856 -0.7096 0.3027 25.2503 4.5976
# 6 -5.0790 -4.3190 6.1705 2.0033 4.5976 39.6101
#
#
#
# Elastic Compliance Matrix: (Units=1/GPa)
#
#
# Indices 1 2 3 4 5 6 
#
# 1 0.013145 0.001604 -0.001893 -0.002875 0.021911 -0.000243
# 2 0.001604 0.011470 -0.000264 -0.002523 0.008463 0.000643
# 3 -0.001893 -0.000264 0.015091 -0.002121 -0.002310 -0.002247
# 4 -0.002875 -0.002523 -0.002121 0.025002 -0.006123 -0.000867
# 5 0.021911 0.008463 -0.002310 -0.006123 0.080004 -0.004884
# 6 -0.000243 0.000643 -0.002247 -0.000867 -0.004884 0.026246
#
#
# Mechanical properties :
#
#
# Convention : Reuss Voigt Hill
#
# Bulk Modulus (GPa) = 25.90579 40.63452 33.27016
# Shear Modulus (GPa) = 27.03697 40.58084 33.80891
#
# Velocity S-wave (km/s) = 3.34428 4.09717 3.73972
# Velocity P-wave (km/s) = 5.06247 6.26031 5.69298
#
# Compressibility (1/GPa) = 0.03860141
#
# Stress axis : x y z
#
# Youngs Moduli (GPa) = 76.07197 87.18118 66.26400
#
# Poissons Ratio (x) = -0.13981 0.12542
# Poissons Ratio (y) = -0.12199 0.01747
# Poissons Ratio (z) = 0.14398 0.02299
#
# Static dielectric constant tensor:
#      x y z
#    x 1.882320 0.008220 0.018770 
#    y 0.008220 1.940940 -0.038490 
#    z 0.018770 -0.038490 1.941620 
# 
# From -- ./inp_files/382825.got.cif
#   From: 2010.05.17/outbox.cif.g08.bks.cpg/sg2_192_cif.got.tgz:382825.got - 2010.06.03 11:33:40.
