data_PCOD9047197
_publ_section_title
;
Structure prediction by ZEFSAII (Michael W. Deem and Ramdas Pophale) SiO2 
 PCOD9047197
Probable space group: P -1
;
_chemical_formula_sum "Si O2"
_cell_formula_units_Z 14
_cell_length_a 17.307688
_cell_length_b 17.115832
_cell_length_c 11.661694
_cell_angle_alpha 22.699979
_cell_angle_beta 137.895836
_cell_angle_gamma 151.490036
_cell_volume 590.360204
_symmetry_space_group_name_H-M "P -1"
_symmetry_group_IT_number 2
_symmetry_cell_setting 'triclinic'
loop_
_space_group_symop_operation_xyz
x,y,z
-x,-y,-z
loop_
_atom_site_type_symbol
_atom_site_label
_atom_site_fract_x
_atom_site_fract_y
_atom_site_fract_z
Si Si1 0.842671 0.204045 0.409480
Si Si2 0.402680 0.079738 0.266976
Si Si3 0.329787 0.240118 0.589971
Si Si4 0.532766 0.703910 0.565350
Si Si5 0.861063 0.164494 0.855716
Si Si6 0.134223 0.327792 0.267053
Si Si7 0.841040 0.687239 0.412512
O O1 0.993592 0.234166 0.544065
O O2 0.760620 0.136611 0.533339
O O3 0.673656 0.946307 0.489308
O O4 0.917912 0.514089 0.027600
O O5 0.500000 0.000000 0.500000
O O6 0.322120 0.983098 0.183720
O O7 0.494014 0.415200 0.936510
O O8 0.500000 0.500000 0.500000
O O9 0.369139 0.153751 0.641660
O O10 0.298817 0.431515 0.253178
O O11 0.179327 0.951749 0.899298
O O12 0.342421 0.561705 0.524899
O O13 0.000000 0.500000 0.500000
O O14 0.889724 0.988923 0.059671
O O15 0.176779 0.376942 0.383191
O O16 0.000000 0.000000 0.500000
#
# Coordination Sequence:
#
# PCOD9047197 Si02
#       7
#     2   2   2   2   2   2   2
#     4  12  27  44  73 108 150 194 233 323 381 426
#     4  11  25  45  70 105 145 192 254 298 371 446
#     4  11  20  46  75  98 145 193 248 303 357 444
#     4  11  24  48  72 108 149 191 247 305 370 446
#     4  10  24  43  73 109 137 202 251 296 364 441
#     4  11  24  44  68 104 141 189 253 299 360 450
#     4  10  24  47  69 104 152 186 249 301 373 439
#
# _framework density 23.714337
#
# number of rings (size 3 to 8) (size 9 to 14) (size 15 to 20)
#    0.000    1.143    4.286    2.571    6.000    2.857 
#    5.143    0.000    0.000    0.000    0.000    0.000 
#    0.000    0.000    0.000    0.000    0.000    0.000 
#
# Total GULP energy -77983.410539 kJ/mol
# GULP energy per Si atom -5570.243610 kJ/mol
# Density = 2.366036 g / cm^3
# Si number density = 23.714337 Si / 1000 Ang^3
#
#
#
# Elastic Constant Matrix: (Units=GPa)
#
#
# Indices 1 2 3 4 5 6 
#
# 1 85.2571 51.5811 21.1192 19.4659 -4.0242 32.3682
# 2 51.5811 188.8742 57.6221 21.5689 24.3086 13.4015
# 3 21.1192 57.6221 127.1730 17.3023 13.0492 22.6267
# 4 19.4659 21.5689 17.3023 41.6536 8.6319 4.3970
# 5 -4.0242 24.3086 13.0492 8.6319 30.1790 11.9893
# 6 32.3682 13.4015 22.6267 4.3970 11.9893 46.1910
#
#
#
# Elastic Compliance Matrix: (Units=1/GPa)
#
#
# Indices 1 2 3 4 5 6 
#
# 1 0.029458 -0.008667 0.002701 -0.012604 0.022965 -0.024212
# 2 -0.008667 0.009284 -0.003289 0.002049 -0.010819 0.007604
# 3 0.002701 -0.003289 0.010282 -0.003603 0.002042 -0.006163
# 4 -0.012604 0.002049 -0.003603 0.032366 -0.015364 0.010910
# 5 0.022965 -0.010819 0.002042 -0.015364 0.059524 -0.027942
# 6 -0.024212 0.007604 -0.006163 0.010910 -0.027942 0.045642
#
#
# Mechanical properties :
#
#
# Convention : Reuss Voigt Hill
#
# Bulk Modulus (GPa) = 32.77171 73.54992 53.16081
# Shear Modulus (GPa) = 23.23024 41.67019 32.45021
#
# Velocity S-wave (km/s) = 3.13323 4.19641 3.70317
# Velocity P-wave (km/s) = 5.19027 7.38662 6.38361
#
# Compressibility (1/GPa) = 0.03051412
#
# Stress axis : x y z
#
# Youngs Moduli (GPa) = 33.94686 107.71473 97.25826
#
# Poissons Ratio (x) = 0.93361 -0.26273
# Poissons Ratio (y) = 0.29423 0.31985
# Poissons Ratio (z) = -0.09170 0.35424
#
# Static dielectric constant tensor:
#      x y z
#    x 1.920230 -0.027370 -0.012240 
#    y -0.027370 1.873970 0.020490 
#    z -0.012240 0.020490 2.006400 
# 
# From -- ./inp_files/466511.got.cif
#   From: 2010.05.17/outbox.cif.g08.bks.cpg/sg2_234_cif.got.tgz:466511.got - 2010.06.03 11:33:40.
