data_PCOD9047841
_publ_section_title
;
Structure prediction by ZEFSAII (Michael W. Deem and Ramdas Pophale) SiO2 
 PCOD9047841
Probable space group: P -1
;
_chemical_formula_sum "Si O2"
_cell_formula_units_Z 15
_cell_length_a 10.724600
_cell_length_b 6.887533
_cell_length_c 13.860523
_cell_angle_alpha 119.607655
_cell_angle_beta 59.545945
_cell_angle_gamma 87.018114
_cell_volume 702.086136
_symmetry_space_group_name_H-M "P -1"
_symmetry_group_IT_number 2
_symmetry_cell_setting 'triclinic'
loop_
_space_group_symop_operation_xyz
x,y,z
-x,-y,-z
loop_
_atom_site_type_symbol
_atom_site_label
_atom_site_fract_x
_atom_site_fract_y
_atom_site_fract_z
Si Si1 0.608229 0.420348 0.032033
Si Si2 0.198812 0.664112 0.549270
Si Si3 0.672808 0.345889 0.296422
Si Si4 0.421635 0.848096 0.436709
Si Si5 0.139498 0.104677 0.169951
Si Si6 0.363727 0.292458 0.221807
Si Si7 0.000000 0.000000 0.000000
Si Si8 0.546054 0.931296 0.218117
O O1 0.490704 0.377602 0.145049
O O2 0.655642 0.645274 0.095212
O O3 0.500000 0.500000 0.000000
O O4 0.759938 0.170470 0.900899
O O5 0.293413 0.573159 0.591007
O O6 0.250840 0.879599 0.548015
O O7 0.257746 0.472425 0.391556
O O8 0.016379 0.762637 0.671759
O O9 0.538568 0.570427 0.350771
O O10 0.624326 0.114008 0.267120
O O11 0.834265 0.237269 0.147012
O O12 0.421903 0.922575 0.344298
O O13 0.500000 0.000000 0.500000
O O14 0.252793 0.246650 0.174840
O O15 0.086896 0.078985 0.076236
O O16 0.463242 0.042117 0.177605
#
# Coordination Sequence:
#
# PCOD9047841 Si02
#       8
#     2   2   2   2   2   2   1   2
#     4  12  26  45  72 105 135 183 239 281 347 421
#     4  11  23  44  68 103 142 184 229 291 354 402
#     4  11  23  44  68 101 144 182 236 283 349 411
#     4  12  22  40  68 102 136 182 235 278 337 418
#     4  11  25  46  69 102 145 180 232 289 354 410
#     4  12  24  45  74  98 138 185 233 289 345 417
#     4  10  24  44  70  98 138 186 222 290 354 408
#     4  12  22  40  74  97 135 183 237 287 333 413
#
# _framework density 21.364899000000001
#
# number of rings (size 3 to 8) (size 9 to 14) (size 15 to 20)
#    0.000    0.533    5.333    3.600    1.867    0.000 
#    2.400    6.000    0.000    0.000    0.000    0.000 
#    0.000    0.000    0.000    0.000    0.000    0.000 
#
# Total GULP energy -83545.895657 kJ/mol
# GULP energy per Si atom -5569.726377 kJ/mol
# Density = 2.131627 g / cm^3
# Si number density = 21.364899 Si / 1000 Ang^3
#
#
#
# Elastic Constant Matrix: (Units=GPa)
#
#
# Indices 1 2 3 4 5 6 
#
# 1 98.4220 28.9611 27.5557 9.9214 3.5746 -5.0703
# 2 28.9611 106.8884 30.7207 4.2655 -1.7652 4.7894
# 3 27.5557 30.7207 102.6677 9.2317 4.3236 -10.6587
# 4 9.9214 4.2655 9.2317 31.3344 -0.5727 15.6844
# 5 3.5746 -1.7652 4.3236 -0.5727 36.0717 1.5891
# 6 -5.0703 4.7894 -10.6587 15.6844 1.5891 22.4288
#
#
#
# Elastic Compliance Matrix: (Units=1/GPa)
#
#
# Indices 1 2 3 4 5 6 
#
# 1 0.012646 -0.003339 -0.000701 -0.007789 -0.001845 0.008816
# 2 -0.003339 0.011651 -0.004058 0.005162 0.001862 -0.008913
# 3 -0.000701 -0.004058 0.013793 -0.010870 -0.002618 0.015049
# 4 -0.007789 0.005162 -0.010870 0.063392 0.005658 -0.052760
# 5 -0.001845 0.001862 -0.002618 0.005658 0.028755 -0.008053
# 6 0.008816 -0.008913 0.015049 -0.052760 -0.008053 0.093099
#
#
# Mechanical properties :
#
#
# Convention : Reuss Voigt Hill
#
# Bulk Modulus (GPa) = 45.67939 53.60591 49.64265
# Shear Modulus (GPa) = 20.25692 32.68301 26.46996
#
# Velocity S-wave (km/s) = 3.08253 3.91545 3.52369
# Velocity P-wave (km/s) = 5.83920 6.75175 6.31199
#
# Compressibility (1/GPa) = 0.02189171
#
# Stress axis : x y z
#
# Youngs Moduli (GPa) = 79.07801 85.83152 72.50243
#
# Poissons Ratio (x) = 0.28662 0.05086
# Poissons Ratio (y) = 0.26407 0.29420
# Poissons Ratio (z) = 0.05547 0.34829
#
# Static dielectric constant tensor:
#      x y z
#    x 1.793330 0.038200 0.041450 
#    y 0.038200 1.775990 -0.005360 
#    z 0.041450 -0.005360 1.824820 
# 
# From -- ./inp_files/511140.got.cif
#   From: 2010.05.17/outbox.cif.g08.bks.cpg/sg2_256_cif.got.tgz:511140.got - 2010.06.03 11:33:40.
