data_PCOD9047850
_publ_section_title
;
Structure prediction by ZEFSAII (Michael W. Deem and Ramdas Pophale) SiO2 
 PCOD9047850
Probable space group: P -1
;
_chemical_formula_sum "Si O2"
_cell_formula_units_Z 16
_cell_length_a 18.866809
_cell_length_b 11.910645
_cell_length_c 15.425531
_cell_angle_alpha 152.261959
_cell_angle_beta 152.484324
_cell_angle_gamma 44.419555
_cell_volume 703.869630
_symmetry_space_group_name_H-M "P -1"
_symmetry_group_IT_number 2
_symmetry_cell_setting 'triclinic'
loop_
_space_group_symop_operation_xyz
x,y,z
-x,-y,-z
loop_
_atom_site_type_symbol
_atom_site_label
_atom_site_fract_x
_atom_site_fract_y
_atom_site_fract_z
Si Si1 0.695839 0.642458 0.903139
Si Si2 0.883422 0.133029 0.865078
Si Si3 0.384650 0.161371 0.753733
Si Si4 0.810600 0.482453 0.177746
Si Si5 0.018037 0.548427 0.153497
Si Si6 0.606052 0.870085 0.784859
Si Si7 0.107521 0.894640 0.867008
Si Si8 0.667558 0.037644 0.255590
O O1 0.651073 0.791387 0.875038
O O2 0.558060 0.366968 0.575339
O O3 0.879415 0.666090 0.103542
O O4 0.702505 0.783078 0.096158
O O5 0.716563 0.939397 0.512500
O O6 0.841197 0.320291 0.017361
O O7 0.971363 0.306951 0.998340
O O8 0.014133 0.979577 0.904625
O O9 0.343859 0.414899 0.910901
O O10 0.562446 0.133555 0.917176
O O11 0.325656 0.956571 0.629692
O O12 0.811704 0.298307 0.133759
O O13 0.967429 0.736210 0.539209
O O14 0.200309 0.728009 0.485703
O O15 0.000000 0.500000 0.000000
O O16 0.750781 0.900119 0.893889
O O17 0.500000 0.000000 0.000000
#
# Coordination Sequence:
#
# PCOD9047850 Si02
#       8
#     2   2   2   2   2   2   2   2
#     4  11  24  40  64  96 137 178 225 268 338 410
#     4  11  22  42  70  96 132 176 224 278 339 403
#     4  11  23  43  64  97 140 170 223 280 333 401
#     4  10  24  45  70  98 128 181 231 284 337 403
#     4  12  23  40  64  96 132 180 218 271 341 404
#     4  11  23  42  64  99 139 179 218 287 338 396
#     4  10  24  44  70  99 134 171 232 288 337 397
#     4  12  25  40  63 101 137 177 225 273 331 409
#
# _framework density 22.731483000000001
#
# number of rings (size 3 to 8) (size 9 to 14) (size 15 to 20)
#    0.000    1.000    3.750    2.250    7.000    0.500 
#    0.000    0.625    0.000    0.000    0.000    0.000 
#    0.000    0.000    0.000    0.000    0.000    0.000 
#
# Total GULP energy -89173.882119 kJ/mol
# GULP energy per Si atom -5573.367632 kJ/mol
# Density = 2.267974 g / cm^3
# Si number density = 22.731483 Si / 1000 Ang^3
#
#
#
# Elastic Constant Matrix: (Units=GPa)
#
#
# Indices 1 2 3 4 5 6 
#
# 1 110.2570 6.2953 28.3756 3.5314 -11.1078 -27.7369
# 2 6.2953 90.2216 -9.1964 -2.0290 9.8317 -25.4121
# 3 28.3756 -9.1964 61.2415 -1.5134 3.9311 -3.6456
# 4 3.5314 -2.0290 -1.5134 21.2766 -15.3495 1.6851
# 5 -11.1078 9.8317 3.9311 -15.3495 18.4529 3.6236
# 6 -27.7369 -25.4121 -3.6456 1.6851 3.6236 37.5565
#
#
#
# Elastic Compliance Matrix: (Units=1/GPa)
#
#
# Indices 1 2 3 4 5 6 
#
# 1 0.014079 -0.001347 -0.007150 0.008098 0.016102 0.006876
# 2 -0.001347 0.021032 0.006827 -0.028045 -0.040545 0.019069
# 3 -0.007150 0.006827 0.022330 -0.017082 -0.027882 0.004963
# 4 0.008098 -0.028045 -0.017082 0.168121 0.170899 -0.038686
# 5 0.016102 -0.040545 -0.027882 0.170899 0.243282 -0.049389
# 6 0.006876 0.019069 0.004963 -0.038686 -0.049389 0.051590
#
#
# Mechanical properties :
#
#
# Convention : Reuss Voigt Hill
#
# Bulk Modulus (GPa) = 18.48368 34.74101 26.61234
# Shear Modulus (GPa) = 9.22836 31.20690 20.21763
#
# Velocity S-wave (km/s) = 2.01706 3.70922 2.98553
# Velocity P-wave (km/s) = 3.68425 5.80179 4.85976
#
# Compressibility (1/GPa) = 0.05410179
#
# Stress axis : x y z
#
# Youngs Moduli (GPa) = 71.02687 47.54573 44.78298
#
# Poissons Ratio (x) = 0.06405 0.32019
# Poissons Ratio (y) = 0.09568 -0.30574
# Poissons Ratio (z) = 0.50783 -0.32460
#
# Static dielectric constant tensor:
#      x y z
#    x 1.836190 -0.053600 -0.015220 
#    y -0.053600 2.047510 -0.008260 
#    z -0.015220 -0.008260 1.885320 
# 
# From -- ./inp_files/297450.got.cif
#   From: 2010.05.17/outbox.cif.g08.bks.cpg/sg2_149_cif.got.tgz:297450.got - 2010.06.03 11:33:40.
