data_PCOD9047133
_publ_section_title
;
Structure prediction by ZEFSAII (Michael W. Deem and Ramdas Pophale) SiO2 
 PCOD9047133
Probable space group: P -1
;
_chemical_formula_sum "Si O2"
_cell_formula_units_Z 14
_cell_length_a 13.515296
_cell_length_b 7.927404
_cell_length_c 9.128364
_cell_angle_alpha 114.965257
_cell_angle_beta 89.793730
_cell_angle_gamma 46.029021
_cell_volume 568.341448
_symmetry_space_group_name_H-M "P -1"
_symmetry_group_IT_number 2
_symmetry_cell_setting 'triclinic'
loop_
_space_group_symop_operation_xyz
x,y,z
-x,-y,-z
loop_
_atom_site_type_symbol
_atom_site_label
_atom_site_fract_x
_atom_site_fract_y
_atom_site_fract_z
Si Si1 0.430812 0.497308 0.196894
Si Si2 0.981840 0.821180 0.156241
Si Si3 0.532439 0.840879 0.696039
Si Si4 0.750820 0.866180 0.616343
Si Si5 0.701024 0.532557 0.050819
Si Si6 0.337279 0.591190 0.692673
Si Si7 0.020437 0.418525 0.222537
O O1 0.388056 0.377699 0.249033
O O2 0.593535 0.325462 0.201353
O O3 0.325083 0.831979 0.326697
O O4 0.418905 0.435842 0.011377
O O5 0.010565 0.621688 0.202686
O O6 0.131785 0.735004 0.119148
O O7 0.973378 0.747310 0.964140
O O8 0.816563 0.151409 0.303929
O O9 0.629714 0.875839 0.650091
O O10 0.533505 0.688095 0.511723
O O11 0.365998 0.163515 0.857028
O O12 0.872053 0.622723 0.404213
O O13 0.837725 0.782123 0.738505
O O14 0.705881 0.482840 0.202968
#
# Coordination Sequence:
#
# PCOD9047133 Si02
#       7
#     2   2   2   2   2   2   2
#     4  12  27  45  75 106 146 185 240 294 357 421
#     4  11  25  43  73 102 148 184 240 288 360 418
#     4  12  27  45  75 106 146 185 240 294 357 421
#     4  11  24  48  72 105 144 188 240 291 356 420
#     4  12  26  46  72 107 147 187 238 293 357 424
#     4  12  26  46  72 107 147 187 238 293 357 424
#     4  10  24  43  72 105 143 190 238 292 351 428
#
# _framework density 24.63308
#
# number of rings (size 3 to 8) (size 9 to 14) (size 15 to 20)
#    0.000    0.571    1.429    5.571    8.000    2.286 
#    0.000    5.000    0.000    0.000    0.000    0.000 
#    0.000    0.000    0.000    0.000    0.000    0.000 
#
# Total GULP energy -78454.197849 kJ/mol
# GULP energy per Si atom -5603.871275 kJ/mol
# Density = 2.457701 g / cm^3
# Si number density = 24.633080 Si / 1000 Ang^3
#
#
#
# Elastic Constant Matrix: (Units=GPa)
#
#
# Indices 1 2 3 4 5 6 
#
# 1 64.3619 25.6324 10.7172 2.5343 -0.7638 -4.6105
# 2 25.6324 114.7711 8.1245 9.3722 -6.7107 9.6759
# 3 10.7172 8.1245 63.2859 4.7678 -0.6273 -5.3028
# 4 2.5343 9.3722 4.7678 36.6252 5.5976 -4.1048
# 5 -0.7638 -6.7107 -0.6273 5.5976 19.2222 3.8599
# 6 -4.6105 9.6759 -5.3028 -4.1048 3.8599 38.5533
#
#
#
# Elastic Compliance Matrix: (Units=1/GPa)
#
#
# Indices 1 2 3 4 5 6 
#
# 1 0.017776 -0.004233 -0.002279 0.000759 -0.001695 0.003125
# 2 -0.004233 0.010679 -0.000678 -0.003657 0.005449 -0.004214
# 3 -0.002279 -0.000678 0.016567 -0.001650 0.000298 0.001971
# 4 0.000759 -0.003657 -0.001650 0.030707 -0.011282 0.005180
# 5 -0.001695 0.005449 0.000298 -0.011282 0.058885 -0.008626
# 6 0.003125 -0.004214 0.001971 0.005180 -0.008626 0.029056
#
#
# Mechanical properties :
#
#
# Convention : Reuss Voigt Hill
#
# Bulk Modulus (GPa) = 32.63499 36.81857 34.72678
# Shear Modulus (GPa) = 26.55848 32.07647 29.31747
#
# Velocity S-wave (km/s) = 3.28710 3.61247 3.45362
# Velocity P-wave (km/s) = 5.26155 5.69027 5.48011
#
# Compressibility (1/GPa) = 0.03064196
#
# Stress axis : x y z
#
# Youngs Moduli (GPa) = 56.25426 93.64246 60.36219
#
# Poissons Ratio (x) = 0.39642 0.13757
# Poissons Ratio (y) = 0.23814 0.04091
# Poissons Ratio (z) = 0.12820 0.06346
#
# Static dielectric constant tensor:
#      x y z
#    x 1.968140 -0.009230 -0.016980 
#    y -0.009230 1.952380 0.009720 
#    z -0.016980 0.009720 1.941520 
# 
# From -- ./inp_files/174710.got.cif
#   From: 2010.05.17/outbox.cif.g08.bks.cpg/sg2_88_cif.got.tgz:174710.got - 2010.06.03 11:33:40.
