data_PCOD9047914
_publ_section_title
;
Structure prediction by ZEFSAII (Michael W. Deem and Ramdas Pophale) SiO2 
 PCOD9047914
Probable space group: P -1
;
_chemical_formula_sum "Si O2"
_cell_formula_units_Z 16
_cell_length_a 19.884820
_cell_length_b 8.778680
_cell_length_c 5.257401
_cell_angle_alpha 84.031244
_cell_angle_beta 129.769775
_cell_angle_gamma 118.737457
_cell_volume 589.621822
_symmetry_space_group_name_H-M "P -1"
_symmetry_group_IT_number 2
_symmetry_cell_setting 'triclinic'
loop_
_space_group_symop_operation_xyz
x,y,z
-x,-y,-z
loop_
_atom_site_type_symbol
_atom_site_label
_atom_site_fract_x
_atom_site_fract_y
_atom_site_fract_z
Si Si1 0.867657 0.235702 0.690928
Si Si2 0.441412 0.510512 0.106314
Si Si3 0.163623 0.353140 0.271085
Si Si4 0.724899 0.880004 0.077161
Si Si5 0.460392 0.083697 0.598679
Si Si6 0.089636 0.004818 0.879244
Si Si7 0.705307 0.281510 0.607672
Si Si8 0.135498 0.503001 0.683942
O O1 0.796635 0.278178 0.682823
O O2 0.919525 0.399843 0.584363
O O3 0.790904 0.046233 0.398461
O O4 0.934657 0.188058 0.040811
O O5 0.500000 0.500000 0.500000
O O6 0.460399 0.711517 0.147256
O O7 0.500000 0.500000 0.000000
O O8 0.329832 0.319744 0.896444
O O9 0.119788 0.144356 0.159868
O O10 0.104283 0.390148 0.889898
O O11 0.279971 0.524447 0.450281
O O12 0.148565 0.393242 0.512573
O O13 0.805281 0.908932 0.046997
O O14 0.633542 0.900951 0.743868
O O15 0.500000 0.000000 0.500000
O O16 0.397369 0.910139 0.663616
O O17 0.000000 0.000000 0.500000
O O18 0.747424 0.321459 0.993127
#
# Coordination Sequence:
#
# PCOD9047914 Si02
#       8
#     2   2   2   2   2   2   2   2
#     4  11  20  43  79  99 145 201 251 308 392 445
#     4  10  24  44  71 107 152 197 250 305 382 454
#     4   9  22  42  70 103 143 185 248 306 381 443
#     4  11  24  46  72 100 158 201 248 321 388 446
#     4  11  22  42  71 110 142 198 258 310 369 463
#     4  12  28  47  74 112 149 200 260 317 389 464
#     4   9  19  41  69  97 143 187 239 299 375 434
#     4   9  19  41  73 102 136 196 243 302 379 448
#
# _framework density 27.136036000000001
#
# number of rings (size 3 to 8) (size 9 to 14) (size 15 to 20)
#    0.750    1.000    2.500    0.750    5.250    0.500 
#    0.000    8.750    0.000    0.000    0.000    0.000 
#    0.000    0.000    0.000    0.000    0.000    0.000 
#
# Total GULP energy -89484.684116 kJ/mol
# GULP energy per Si atom -5592.792757 kJ/mol
# Density = 2.707427 g / cm^3
# Si number density = 27.136036 Si / 1000 Ang^3
#
#
#
# Elastic Constant Matrix: (Units=GPa)
#
#
# Indices 1 2 3 4 5 6 
#
# 1 115.4509 40.6729 43.3490 19.7647 -18.5377 -15.1608
# 2 40.6729 225.8476 37.1753 -11.3419 -1.7439 -23.8920
# 3 43.3490 37.1753 103.6891 -8.4284 -11.2895 -14.6767
# 4 19.7647 -11.3419 -8.4284 70.4348 -8.3128 -4.5123
# 5 -18.5377 -1.7439 -11.2895 -8.3128 53.1085 8.2977
# 6 -15.1608 -23.8920 -14.6767 -4.5123 8.2977 38.7337
#
#
#
# Elastic Compliance Matrix: (Units=1/GPa)
#
#
# Indices 1 2 3 4 5 6 
#
# 1 0.012018 -0.001493 -0.004364 -0.003772 0.002446 0.001166
# 2 -0.001493 0.005165 -0.000843 0.001228 -0.000742 0.002584
# 3 -0.004364 -0.000843 0.012499 0.002887 0.001152 0.002597
# 4 -0.003772 0.001228 0.002887 0.016106 0.001559 0.001917
# 5 0.002446 -0.000742 0.001152 0.001559 0.020665 -0.003309
# 6 0.001166 0.002584 0.002597 0.001917 -0.003309 0.029784
#
#
# Mechanical properties :
#
#
# Convention : Reuss Voigt Hill
#
# Bulk Modulus (GPa) = 61.42108 76.37575 68.89842
# Shear Modulus (GPa) = 43.45456 54.04143 48.74800
#
# Velocity S-wave (km/s) = 4.00604 4.46746 4.24303
# Velocity P-wave (km/s) = 6.63939 7.40389 7.03204
#
# Compressibility (1/GPa) = 0.01628105
#
# Stress axis : x y z
#
# Youngs Moduli (GPa) = 83.20956 193.62394 80.00880
#
# Poissons Ratio (x) = 0.28910 0.34918
# Poissons Ratio (y) = 0.12424 0.06742
# Poissons Ratio (z) = 0.36314 0.16317
#
# Static dielectric constant tensor:
#      x y z
#    x 2.133880 -0.001560 0.051150 
#    y -0.001560 2.223100 -0.033810 
#    z 0.051150 -0.033810 2.158480 
# 
# From -- ./inp_files/116989.got.cif
#   From: 2010.05.17/outbox.cif.g08.bks.cpg/sg2_59_cif.got.tgz:116989.got - 2010.06.03 11:33:40.
