data_PCOD9047024
_publ_section_title
;
Structure prediction by ZEFSAII (Michael W. Deem and Ramdas Pophale) SiO2 
 PCOD9047024
Probable space group: P -1
;
_chemical_formula_sum "Si O2"
_cell_formula_units_Z 14
_cell_length_a 17.338393
_cell_length_b 11.618825
_cell_length_c 12.790568
_cell_angle_alpha 141.766041
_cell_angle_beta 154.640979
_cell_angle_gamma 39.357463
_cell_volume 663.140430
_symmetry_space_group_name_H-M "P -1"
_symmetry_group_IT_number 2
_symmetry_cell_setting 'triclinic'
loop_
_space_group_symop_operation_xyz
x,y,z
-x,-y,-z
loop_
_atom_site_type_symbol
_atom_site_label
_atom_site_fract_x
_atom_site_fract_y
_atom_site_fract_z
Si Si1 0.484649 0.794634 0.135907
Si Si2 0.958937 0.631824 0.853454
Si Si3 0.309060 0.652083 0.399284
Si Si4 0.641638 0.425574 0.368632
Si Si5 0.812218 0.073467 0.964300
Si Si6 0.074541 0.321941 0.390786
Si Si7 0.401232 0.835189 0.445531
O O1 0.434557 0.684301 0.895376
O O2 0.297218 0.287419 0.630075
O O3 0.340647 0.792088 0.052039
O O4 0.471222 0.020937 0.265959
O O5 0.820463 0.495475 0.600010
O O6 0.014353 0.632025 0.799805
O O7 0.862824 0.856733 0.914332
O O8 0.132548 0.568474 0.097525
O O9 0.500000 0.500000 0.500000
O O10 0.313187 0.701085 0.560982
O O11 0.299044 0.810227 0.410302
O O12 0.503321 0.625014 0.378401
O O13 0.719983 0.072514 0.736545
O O14 0.008428 0.844024 0.777278
O O15 0.000000 0.500000 0.500000
#
# Coordination Sequence:
#
# PCOD9047024 Si02
#       7
#     2   2   2   2   2   2   2
#     4  12  25  43  69 109 141 175 223 286 351 402
#     4  12  22  44  71  98 136 182 231 281 343 411
#     4  10  24  43  70  94 132 189 232 277 334 404
#     4  11  25  43  68  99 138 183 227 273 335 413
#     4  12  23  44  70 105 138 178 225 287 353 401
#     4  12  25  39  68 107 143 176 224 284 348 414
#     4  11  21  45  69  97 139 177 226 281 344 402
#
# _framework density 21.111667000000001
#
# number of rings (size 3 to 8) (size 9 to 14) (size 15 to 20)
#    0.000    0.571    4.286    4.714    2.000    2.286 
#    0.000    0.714    0.000    0.000    0.000    0.000 
#    0.000    0.000    0.000    0.000    0.000    0.000 
#
# Total GULP energy -78205.512446 kJ/mol
# GULP energy per Si atom -5586.108032 kJ/mol
# Density = 2.106362 g / cm^3
# Si number density = 21.111667 Si / 1000 Ang^3
#
#
#
# Elastic Constant Matrix: (Units=GPa)
#
#
# Indices 1 2 3 4 5 6 
#
# 1 114.1675 35.5983 43.7564 2.7363 -4.5680 -1.8157
# 2 35.5983 67.0509 50.6049 2.6434 -13.6268 -12.2824
# 3 43.7564 50.6049 143.9567 3.5853 -9.3500 2.9445
# 4 2.7363 2.6434 3.5853 34.9445 -3.1657 -0.2393
# 5 -4.5680 -13.6268 -9.3500 -3.1657 35.4276 0.9038
# 6 -1.8157 -12.2824 2.9445 -0.2393 0.9038 30.4480
#
#
#
# Elastic Compliance Matrix: (Units=1/GPa)
#
#
# Indices 1 2 3 4 5 6 
#
# 1 0.010868 -0.004962 -0.001585 -0.000405 -0.000932 -0.001176
# 2 -0.004962 0.026881 -0.007686 -0.000112 0.007379 0.011071
# 3 -0.001585 -0.007686 0.010200 -0.000406 -0.000399 -0.004173
# 4 -0.000405 -0.000112 -0.000406 0.028915 0.002378 0.000127
# 5 -0.000932 0.007379 -0.000399 0.002378 0.030999 0.002058
# 6 -0.001176 0.011071 -0.004173 0.000127 0.002058 0.037582
#
#
# Mechanical properties :
#
#
# Convention : Reuss Voigt Hill
#
# Bulk Modulus (GPa) = 51.32877 65.01050 58.16963
# Shear Modulus (GPa) = 27.71544 33.17838 30.44691
#
# Velocity S-wave (km/s) = 3.62719 3.96860 3.80173
# Velocity P-wave (km/s) = 6.47362 7.20140 6.84719
#
# Compressibility (1/GPa) = 0.01948225
#
# Stress axis : x y z
#
# Youngs Moduli (GPa) = 92.01657 37.20100 98.04230
#
# Poissons Ratio (x) = 0.18459 0.15543
# Poissons Ratio (y) = 0.45659 0.75351
# Poissons Ratio (z) = 0.14588 0.28591
#
# Static dielectric constant tensor:
#      x y z
#    x 1.791850 0.001920 0.038300 
#    y 0.001920 1.824340 -0.016360 
#    z 0.038300 -0.016360 1.751980 
# 
# From -- ./inp_files/464163.got.cif
#   From: 2010.05.17/outbox.cif.g08.bks.cpg/sg2_233_cif.got.tgz:464163.got - 2010.06.03 11:33:40.
