data_PCOD9047289
_publ_section_title
;
Structure prediction by ZEFSAII (Michael W. Deem and Ramdas Pophale) SiO2 
 PCOD9047289
Probable space group: P -1
;
_chemical_formula_sum "Si O2"
_cell_formula_units_Z 14
_cell_length_a 7.533439
_cell_length_b 8.532612
_cell_length_c 17.022759
_cell_angle_alpha 119.502635
_cell_angle_beta 143.225949
_cell_angle_gamma 51.928565
_cell_volume 515.694571
_symmetry_space_group_name_H-M "P -1"
_symmetry_group_IT_number 2
_symmetry_cell_setting 'triclinic'
loop_
_space_group_symop_operation_xyz
x,y,z
-x,-y,-z
loop_
_atom_site_type_symbol
_atom_site_label
_atom_site_fract_x
_atom_site_fract_y
_atom_site_fract_z
Si Si1 0.778052 0.080646 0.615088
Si Si2 0.640032 0.998255 0.790426
Si Si3 0.770861 0.144659 0.141068
Si Si4 0.671017 0.273794 0.466205
Si Si5 0.594777 0.565273 0.193782
Si Si6 0.175355 0.259195 0.057445
Si Si7 0.567762 0.478526 0.329070
O O1 0.860573 0.124685 0.567208
O O2 0.621681 0.298915 0.651958
O O3 0.500000 0.000000 0.500000
O O4 0.072898 0.932330 0.736296
O O5 0.537421 0.846945 0.667817
O O6 0.734723 0.916318 0.890766
O O7 0.948623 0.001886 0.852570
O O8 0.382972 0.230066 0.764375
O O9 0.752597 0.355988 0.153997
O O10 0.394455 0.189788 0.038294
O O11 0.500000 0.500000 0.500000
O O12 0.782407 0.329174 0.435906
O O13 0.740577 0.496377 0.315319
O O14 0.208564 0.625003 0.063893
O O15 0.303699 0.402970 0.185246
#
# Coordination Sequence:
#
# PCOD9047289 Si02
#       7
#     2   2   2   2   2   2   2
#     4  11  19  38  64  94 127 172 216 266 320 383
#     4  11  22  45  67  95 137 163 217 276 311 386
#     4  11  23  41  69  94 128 179 211 253 344 375
#     4   9  19  36  66  91 127 172 206 267 321 368
#     4  11  22  44  64  96 134 164 219 273 309 393
#     4  10  24  44  63  98 134 162 222 271 311 393
#     4   9  18  37  62  87 130 165 202 273 311 366
#
# _framework density 27.147855
#
# number of rings (size 3 to 8) (size 9 to 14) (size 15 to 20)
#    0.000    1.714    2.857    2.143    0.000    1.143 
#   10.286   12.857    0.000    0.000    0.000    0.000 
#    0.000    0.000    0.000    0.000    0.000    0.000 
#
# Total GULP energy -78207.014270 kJ/mol
# GULP energy per Si atom -5586.215305 kJ/mol
# Density = 2.708607 g / cm^3
# Si number density = 27.147855 Si / 1000 Ang^3
#
#
#
# Elastic Constant Matrix: (Units=GPa)
#
#
# Indices 1 2 3 4 5 6 
#
# 1 66.3667 6.8579 26.7676 -10.7861 15.7983 26.9586
# 2 6.8579 188.0834 32.4273 -18.1176 -3.6786 19.9793
# 3 26.7676 32.4273 74.9629 13.2102 7.2566 20.5025
# 4 -10.7861 -18.1176 13.2102 48.3974 15.5762 -14.3930
# 5 15.7983 -3.6786 7.2566 15.5762 51.7217 -7.4382
# 6 26.9586 19.9793 20.5025 -14.3930 -7.4382 53.1720
#
#
#
# Elastic Compliance Matrix: (Units=1/GPa)
#
#
# Indices 1 2 3 4 5 6 
#
# 1 0.026436 0.002233 -0.008286 0.009579 -0.011077 -0.010004
# 2 0.002233 0.006375 -0.003839 0.003930 -0.001036 -0.001129
# 3 -0.008286 -0.003839 0.021216 -0.011272 0.001911 -0.005321
# 4 0.009579 0.003930 -0.011272 0.032138 -0.009979 0.005316
# 5 -0.011077 -0.001036 0.001911 -0.009979 0.026279 0.006244
# 6 -0.010004 -0.001129 -0.005321 0.005316 0.006244 0.028668
#
#
# Mechanical properties :
#
#
# Convention : Reuss Voigt Hill
#
# Bulk Modulus (GPa) = 29.20074 51.27984 40.24029
# Shear Modulus (GPa) = 29.01754 48.21557 38.61656
#
# Velocity S-wave (km/s) = 3.27291 4.21888 3.77563
# Velocity P-wave (km/s) = 5.00620 6.53161 5.81911
#
# Compressibility (1/GPa) = 0.03424571
#
# Stress axis : x y z
#
# Youngs Moduli (GPa) = 37.82662 156.85233 47.13433
#
# Poissons Ratio (x) = -0.35031 0.39053
# Poissons Ratio (y) = -0.08448 0.18094
# Poissons Ratio (z) = 0.31341 0.60214
#
# Static dielectric constant tensor:
#      x y z
#    x 2.148440 -0.026670 0.028390 
#    y -0.026670 2.246480 0.129350 
#    z 0.028390 0.129350 2.170540 
# 
# From -- ./inp_files/556450.got.cif
#   From: 2010.05.17/outbox.cif.g08.bks.cpg/sg2_279_cif.got.tgz:556450.got - 2010.06.03 11:33:40.
