data_PCOD9047957
_publ_section_title
;
Structure prediction by ZEFSAII (Michael W. Deem and Ramdas Pophale) SiO2 
 PCOD9047957
Probable space group: P -1
;
_chemical_formula_sum "Si O2"
_cell_formula_units_Z 15
_cell_length_a 4.973448
_cell_length_b 14.721642
_cell_length_c 11.079471
_cell_angle_alpha 81.504011
_cell_angle_beta 71.849999
_cell_angle_gamma 120.732784
_cell_volume 614.028426
_symmetry_space_group_name_H-M "P -1"
_symmetry_group_IT_number 2
_symmetry_cell_setting 'triclinic'
loop_
_space_group_symop_operation_xyz
x,y,z
-x,-y,-z
loop_
_atom_site_type_symbol
_atom_site_label
_atom_site_fract_x
_atom_site_fract_y
_atom_site_fract_z
Si Si1 0.866237 0.357241 0.386202
Si Si2 0.863724 0.149080 0.325592
Si Si3 0.745558 0.174157 0.868971
Si Si4 0.135987 0.310959 0.569270
Si Si5 0.224257 0.934024 0.326243
Si Si6 0.216499 0.211378 0.007463
Si Si7 0.000000 0.000000 0.500000
Si Si8 0.233724 0.525628 0.079328
O O1 0.868750 0.256020 0.343493
O O2 0.499598 0.330750 0.485585
O O3 0.092789 0.388650 0.472007
O O4 0.024612 0.451091 0.240422
O O5 0.459826 0.044335 0.361563
O O6 0.014898 0.107303 0.408909
O O7 0.078462 0.173490 0.168816
O O8 0.700851 0.069635 0.822608
O O9 0.374149 0.151915 0.934660
O O10 0.033002 0.290980 0.729253
O O11 0.907916 0.192313 0.973263
O O12 0.822367 0.179139 0.604489
O O13 0.882775 0.928991 0.397809
O O14 0.541395 0.342988 0.942525
O O15 0.500000 0.500000 0.000000
O O16 0.000000 0.500000 0.000000
#
# Coordination Sequence:
#
# PCOD9047957 Si02
#       8
#     2   2   2   2   2   2   1   2
#     4  12  24  45  75 109 139 187 243 309 369 408
#     4  12  27  40  74 108 149 188 244 296 373 422
#     4  10  26  48  70 100 155 193 236 292 358 441
#     4  10  24  44  72 101 146 188 235 300 352 420
#     4  10  25  41  71 100 147 187 239 294 356 424
#     4  12  27  49  72 105 148 195 239 291 369 443
#     4  12  24  42  68 108 140 186 250 298 350 418
#     4  12  26  48  76 111 145 186 243 307 363 431
#
# _framework density 24.428837000000001
#
# number of rings (size 3 to 8) (size 9 to 14) (size 15 to 20)
#    0.800    0.000    2.667    3.600    5.600    1.067 
#    0.000    4.000    0.000    0.000    0.000    0.000 
#    0.000    0.000    0.000    0.000    0.000    0.000 
#
# Total GULP energy -83593.460920 kJ/mol
# GULP energy per Si atom -5572.897395 kJ/mol
# Density = 2.437324 g / cm^3
# Si number density = 24.428837 Si / 1000 Ang^3
#
#
#
# Elastic Constant Matrix: (Units=GPa)
#
#
# Indices 1 2 3 4 5 6 
#
# 1 106.8455 -8.0820 25.7066 -3.2277 2.1293 -25.7449
# 2 -8.0820 52.5365 18.3270 3.6130 1.2553 -8.5424
# 3 25.7066 18.3270 168.9264 -12.4825 -5.6365 -16.4672
# 4 -3.2277 3.6130 -12.4825 33.3321 -9.2621 -5.8163
# 5 2.1293 1.2553 -5.6365 -9.2621 44.9573 7.3006
# 6 -25.7449 -8.5424 -16.4672 -5.8163 7.3006 17.9994
#
#
#
# Elastic Compliance Matrix: (Units=1/GPa)
#
#
# Indices 1 2 3 4 5 6 
#
# 1 0.018557 0.008263 -0.000178 0.005255 -0.005615 0.034277
# 2 0.008263 0.024970 -0.001761 0.000218 -0.005200 0.024238
# 3 -0.000178 -0.001761 0.007099 0.004168 0.000760 0.006443
# 4 0.005255 0.000218 0.004168 0.037039 0.004387 0.021623
# 5 -0.005615 -0.005200 0.000760 0.004387 0.026779 -0.019249
# 6 0.034277 0.024238 0.006443 0.021623 -0.019249 0.136778
#
#
# Mechanical properties :
#
#
# Convention : Reuss Voigt Hill
#
# Bulk Modulus (GPa) = 15.80415 44.46796 30.13605
# Shear Modulus (GPa) = 19.25545 38.74819 29.00182
#
# Velocity S-wave (km/s) = 2.81058 3.98699 3.44931
# Velocity P-wave (km/s) = 4.12505 6.27992 5.31288
#
# Compressibility (1/GPa) = 0.06327453
#
# Stress axis : x y z
#
# Youngs Moduli (GPa) = 53.88767 40.04766 140.85899
#
# Poissons Ratio (x) = -0.33092 0.02508
# Poissons Ratio (y) = -0.44528 0.24807
# Poissons Ratio (z) = 0.00959 0.07053
#
# Static dielectric constant tensor:
#      x y z
#    x 2.609130 -0.000990 -0.749980 
#    y -0.000990 1.925980 0.231240 
#    z -0.749980 0.231240 2.348800 
# 
# From -- ./inp_files/366179.got.cif
#   From: 2010.05.17/outbox.cif.g08.bks.cpg/sg2_184_cif.got.tgz:366179.got - 2010.06.03 11:33:40.
