data_PCOD9047376
_publ_section_title
;
Structure prediction by ZEFSAII (Michael W. Deem and Ramdas Pophale) SiO2 
 PCOD9047376
Probable space group: P -1
;
_chemical_formula_sum "Si O2"
_cell_formula_units_Z 15
_cell_length_a 12.329944
_cell_length_b 11.329016
_cell_length_c 9.666254
_cell_angle_alpha 119.395263
_cell_angle_beta 40.599113
_cell_angle_gamma 130.688947
_cell_volume 666.249043
_symmetry_space_group_name_H-M "P -1"
_symmetry_group_IT_number 2
_symmetry_cell_setting 'triclinic'
loop_
_space_group_symop_operation_xyz
x,y,z
-x,-y,-z
loop_
_atom_site_type_symbol
_atom_site_label
_atom_site_fract_x
_atom_site_fract_y
_atom_site_fract_z
Si Si1 0.500000 0.500000 0.500000
Si Si2 0.878159 0.617845 0.020648
Si Si3 0.145678 0.154013 0.035117
Si Si4 0.058310 0.922254 0.520450
Si Si5 0.691300 0.205024 0.290242
Si Si6 0.538382 0.162978 0.708199
Si Si7 0.453955 0.214038 0.314676
Si Si8 0.755607 0.278017 0.845263
O O1 0.713149 0.593230 0.272211
O O2 0.430713 0.356934 0.368093
O O3 0.860019 0.704982 0.953955
O O4 0.856718 0.453401 0.902513
O O5 0.093787 0.724039 0.929273
O O6 0.078161 0.132122 0.246562
O O7 0.360363 0.182640 0.843819
O O8 0.000000 0.000000 0.000000
O O9 0.101418 0.789934 0.346759
O O10 0.262442 0.063236 0.452435
O O11 0.000000 0.000000 0.500000
O O12 0.682586 0.210506 0.466764
O O13 0.584726 0.289587 0.369466
O O14 0.561548 0.022858 0.275243
O O15 0.650908 0.255833 0.786928
O O16 0.584724 0.183146 0.065514
#
# Coordination Sequence:
#
# PCOD9047376 Si02
#       8
#     1   2   2   2   2   2   2   2
#     4  10  24  44  66 102 140 176 236 292 346 406
#     4  11  25  45  72 105 142 188 232 295 351 426
#     4  12  24  42  71 103 137 182 238 291 343 417
#     4  12  26  42  69 103 140 185 235 291 354 418
#     4  11  23  40  71  97 135 186 232 280 345 417
#     4  11  23  42  66 103 137 180 229 289 345 417
#     4  11  24  43  68  98 140 185 231 294 342 425
#     4  11  26  45  67 100 147 181 232 291 361 413
#
# _framework density 22.514102000000001
#
# number of rings (size 3 to 8) (size 9 to 14) (size 15 to 20)
#    0.000    0.800    2.667    4.400    1.867    5.867 
#    0.000    0.000    0.000    0.000    0.000    0.000 
#    0.000    0.000    0.000    0.000    0.000    0.000 
#
# Total GULP energy -83698.221958 kJ/mol
# GULP energy per Si atom -5579.881464 kJ/mol
# Density = 2.246286 g / cm^3
# Si number density = 22.514102 Si / 1000 Ang^3
#
#
#
# Elastic Constant Matrix: (Units=GPa)
#
#
# Indices 1 2 3 4 5 6 
#
# 1 100.2473 3.7302 28.0769 -5.4721 -7.0213 -1.2736
# 2 3.7302 52.9611 29.4695 -5.7152 -1.2020 -10.5240
# 3 28.0769 29.4695 143.7774 -13.4608 -1.1441 0.2155
# 4 -5.4721 -5.7152 -13.4608 43.5225 0.8442 -3.0002
# 5 -7.0213 -1.2020 -1.1441 0.8442 38.6922 -1.9894
# 6 -1.2736 -10.5240 0.2155 -3.0002 -1.9894 19.7635
#
#
#
# Elastic Compliance Matrix: (Units=1/GPa)
#
#
# Indices 1 2 3 4 5 6 
#
# 1 0.010761 0.000903 -0.002193 0.000860 0.001976 0.001528
# 2 0.000903 0.024663 -0.004985 0.002734 0.001433 0.013805
# 3 -0.002193 -0.004985 0.008549 0.001537 -0.000472 -0.002703
# 4 0.000860 0.002734 0.001537 0.024276 0.000023 0.005182
# 5 0.001976 0.001433 -0.000472 0.000023 0.026417 0.003558
# 6 0.001528 0.013805 -0.002703 0.005182 0.003558 0.059222
#
#
# Mechanical properties :
#
#
# Convention : Reuss Voigt Hill
#
# Bulk Modulus (GPa) = 31.82211 46.61545 39.21878
# Shear Modulus (GPa) = 28.26307 36.10957 32.18632
#
# Velocity S-wave (km/s) = 3.54693 4.00917 3.78512
# Velocity P-wave (km/s) = 5.56231 6.49471 6.04651
#
# Compressibility (1/GPa) = 0.03142469
#
# Stress axis : x y z
#
# Youngs Moduli (GPa) = 92.93209 40.54731 116.96987
#
# Poissons Ratio (x) = -0.03663 0.25646
# Poissons Ratio (y) = -0.08395 0.58306
# Poissons Ratio (z) = 0.20375 0.20212
#
# Static dielectric constant tensor:
#      x y z
#    x 1.891870 -0.054580 -0.021830 
#    y -0.054580 1.882870 0.033340 
#    z -0.021830 0.033340 1.789030 
# 
# From -- ./inp_files/262882.got.cif
#   From: 2010.05.17/outbox.cif.g08.bks.cpg/sg2_132_cif.got.tgz:262882.got - 2010.06.03 11:33:40.
