data_PCOD9047770
_publ_section_title
;
Structure prediction by ZEFSAII (Michael W. Deem and Ramdas Pophale) SiO2 
 PCOD9047770
Probable space group: P -1
;
_chemical_formula_sum "Si O2"
_cell_formula_units_Z 16
_cell_length_a 16.059043
_cell_length_b 19.751968
_cell_length_c 10.020311
_cell_angle_alpha 55.888936
_cell_angle_beta 46.540772
_cell_angle_gamma 19.369698
_cell_volume 712.092379
_symmetry_space_group_name_H-M "P -1"
_symmetry_group_IT_number 2
_symmetry_cell_setting 'triclinic'
loop_
_space_group_symop_operation_xyz
x,y,z
-x,-y,-z
loop_
_atom_site_type_symbol
_atom_site_label
_atom_site_fract_x
_atom_site_fract_y
_atom_site_fract_z
Si Si1 0.635353 0.884610 0.336961
Si Si2 0.755398 0.249141 0.853852
Si Si3 0.190631 0.748797 0.912625
Si Si4 0.356322 0.286282 0.843132
Si Si5 0.331022 0.435691 0.474147
Si Si6 0.566591 0.106335 0.089665
Si Si7 0.309446 0.398850 0.230210
Si Si8 0.194295 0.081272 0.434054
O O1 0.997078 0.633028 0.241264
O O2 0.500000 0.000000 0.500000
O O3 0.557453 0.014761 0.185951
O O4 0.451261 0.929656 0.430924
O O5 0.454872 0.505647 0.896189
O O6 0.000093 0.125786 0.618477
O O7 0.905931 0.167814 0.921728
O O8 0.600422 0.262343 0.010670
O O9 0.355924 0.719892 0.709596
O O10 0.917067 0.896978 0.963008
O O11 0.367463 0.349978 0.650386
O O12 0.604520 0.056549 0.768751
O O13 0.445159 0.237499 0.952913
O O14 0.000000 0.500000 0.000000
O O15 0.278068 0.433558 0.385922
O O16 0.055332 0.681487 0.538130
O O17 0.377773 0.262474 0.254532
#
# Coordination Sequence:
#
# PCOD9047770 Si02
#       8
#     2   2   2   2   2   2   2   2
#     4  12  24  42  70 106 135 175 233 289 343 400
#     4   9  19  42  71 106 136 175 226 290 356 398
#     4   9  19  40  69 103 140 170 228 289 347 407
#     4  12  29  48  64  98 145 193 230 275 345 425
#     4  10  24  44  70 103 136 184 228 282 351 413
#     4  12  27  43  70 105 140 183 228 289 347 403
#     4  11  24  42  75 109 139 171 232 301 343 406
#     4  11  24  45  73  96 139 192 229 280 350 414
#
# _framework density 22.468995
#
# number of rings (size 3 to 8) (size 9 to 14) (size 15 to 20)
#    0.000    1.250    2.500    3.000    5.250    5.000 
#    0.000    1.250    0.000    0.000    0.000    0.000 
#    0.000    0.000    0.000    0.000    0.000    0.000 
#
# Total GULP energy -89450.471171 kJ/mol
# GULP energy per Si atom -5590.654448 kJ/mol
# Density = 2.241785 g / cm^3
# Si number density = 22.468995 Si / 1000 Ang^3
#
#
#
# Elastic Constant Matrix: (Units=GPa)
#
#
# Indices 1 2 3 4 5 6 
#
# 1 45.9646 31.3981 12.8999 7.7582 -0.5799 3.4380
# 2 31.3981 119.6285 41.2213 -0.4153 -7.0988 -1.7201
# 3 12.8999 41.2213 84.9456 6.4504 10.1191 3.5118
# 4 7.7582 -0.4153 6.4504 43.8356 -0.8283 -3.9547
# 5 -0.5799 -7.0988 10.1191 -0.8283 29.2686 4.8726
# 6 3.4380 -1.7201 3.5118 -3.9547 4.8726 40.8746
#
#
#
# Elastic Compliance Matrix: (Units=1/GPa)
#
#
# Indices 1 2 3 4 5 6 
#
# 1 0.027964 -0.007459 0.000011 -0.005316 -0.000897 -0.003074
# 2 -0.007459 0.012630 -0.005810 0.002505 0.004773 0.001331
# 3 0.000011 -0.005810 0.015628 -0.002577 -0.006712 -0.001037
# 4 -0.005316 0.002505 -0.002577 0.024452 0.001594 0.002950
# 5 -0.000897 0.004773 -0.006712 0.001594 0.038264 -0.003554
# 6 -0.003074 0.001331 -0.001037 0.002950 -0.003554 0.025578
#
#
# Mechanical properties :
#
#
# Convention : Reuss Voigt Hill
#
# Bulk Modulus (GPa) = 33.66415 46.84194 40.25305
# Shear Modulus (GPa) = 27.63421 33.79707 30.71564
#
# Velocity S-wave (km/s) = 3.51077 3.88256 3.70134
# Velocity P-wave (km/s) = 5.60794 6.40248 6.01834
#
# Compressibility (1/GPa) = 0.02970519
#
# Stress axis : x y z
#
# Youngs Moduli (GPa) = 35.76034 79.17601 63.98661
#
# Poissons Ratio (x) = 0.59058 -0.00068
# Poissons Ratio (y) = 0.26674 0.37177
# Poissons Ratio (z) = -0.00038 0.46002
#
# Static dielectric constant tensor:
#      x y z
#    x 1.759920 -0.089420 0.092130 
#    y -0.089420 1.573610 0.176590 
#    z 0.092130 0.176590 1.737400 
# 
# From -- ./inp_files/319330.got.cif
#   From: 2010.05.17/outbox.cif.g08.bks.cpg/sg2_160_cif.got.tgz:319330.got - 2010.06.03 11:33:40.
