data_PCOD9047434
_publ_section_title
;
Structure prediction by ZEFSAII (Michael W. Deem and Ramdas Pophale) SiO2 
 PCOD9047434
Probable space group: P -1
;
_chemical_formula_sum "Si O2"
_cell_formula_units_Z 14
_cell_length_a 8.640404
_cell_length_b 17.965348
_cell_length_c 10.394485
_cell_angle_alpha 144.322184
_cell_angle_beta 113.209641
_cell_angle_gamma 45.602669
_cell_volume 610.799528
_symmetry_space_group_name_H-M "P -1"
_symmetry_group_IT_number 2
_symmetry_cell_setting 'triclinic'
loop_
_space_group_symop_operation_xyz
x,y,z
-x,-y,-z
loop_
_atom_site_type_symbol
_atom_site_label
_atom_site_fract_x
_atom_site_fract_y
_atom_site_fract_z
Si Si1 0.539975 0.769732 0.944520
Si Si2 0.408802 0.346727 0.741923
Si Si3 0.022373 0.420073 0.536296
Si Si4 0.331615 0.042709 0.621051
Si Si5 0.719139 0.970865 0.997842
Si Si6 0.187269 0.685808 0.286684
Si Si7 0.973017 0.988972 0.822669
O O1 0.765574 0.558969 0.715915
O O2 0.310744 0.861362 0.086256
O O3 0.641169 0.855792 0.128349
O O4 0.422553 0.846911 0.874723
O O5 0.209594 0.401908 0.655365
O O6 0.552873 0.147691 0.557463
O O7 0.597079 0.340397 0.727319
O O8 0.281258 0.492250 0.021109
O O9 0.109415 0.227311 0.286649
O O10 0.000000 0.500000 0.500000
O O11 0.500000 0.000000 0.500000
O O12 0.056176 0.172574 0.677052
O O13 0.889553 0.965986 0.135492
O O14 0.500000 0.000000 0.000000
O O15 0.095576 0.792659 0.541619
O O16 0.000000 0.000000 0.000000
#
# Coordination Sequence:
#
# PCOD9047434 Si02
#       7
#     2   2   2   2   2   2   2
#     4  11  23  43  65  99 138 177 229 285 347 415
#     4  11  26  45  72 104 140 183 239 296 345 418
#     4  12  24  41  72 105 136 181 234 284 347 421
#     4  12  24  46  70  99 140 183 236 288 356 420
#     4  11  22  43  70  94 136 185 224 288 341 405
#     4  11  24  47  70 103 139 184 237 294 351 418
#     4  10  24  44  67 100 140 180 229 287 351 413
#
# _framework density 22.920779
#
# number of rings (size 3 to 8) (size 9 to 14) (size 15 to 20)
#    0.000    0.857    5.714    1.286    2.000    1.143 
#   10.286    0.000    0.000    0.000    0.000    0.000 
#    0.000    0.000    0.000    0.000    0.000    0.000 
#
# Total GULP energy -78113.051009 kJ/mol
# GULP energy per Si atom -5579.503643 kJ/mol
# Density = 2.286861 g / cm^3
# Si number density = 22.920779 Si / 1000 Ang^3
#
#
#
# Elastic Constant Matrix: (Units=GPa)
#
#
# Indices 1 2 3 4 5 6 
#
# 1 67.4732 24.5512 11.7170 10.4660 0.2999 -33.0155
# 2 24.5512 78.7944 40.4286 7.4719 0.6427 -32.3306
# 3 11.7170 40.4286 194.8348 18.8309 -1.0922 -17.6256
# 4 10.4660 7.4719 18.8309 42.7248 -7.7976 -5.6753
# 5 0.2999 0.6427 -1.0922 -7.7976 35.1787 -0.4851
# 6 -33.0155 -32.3306 -17.6256 -5.6753 -0.4851 38.8315
#
#
#
# Elastic Compliance Matrix: (Units=1/GPa)
#
#
# Indices 1 2 3 4 5 6 
#
# 1 0.026102 0.001392 0.000606 -0.003990 -0.000796 0.023033
# 2 0.001392 0.020773 -0.002795 -0.000532 -0.000360 0.017127
# 3 0.000606 -0.002795 0.005942 -0.002253 -0.000261 0.000553
# 4 -0.003990 -0.000532 -0.002253 0.026407 0.005814 -0.000926
# 5 -0.000796 -0.000360 -0.000261 0.005814 0.029722 0.000126
# 6 0.023033 0.017127 0.000553 -0.000926 0.000126 0.059713
#
#
# Mechanical properties :
#
#
# Convention : Reuss Voigt Hill
#
# Bulk Modulus (GPa) = 19.52245 54.94402 37.23323
# Shear Modulus (GPa) = 26.69105 40.97403 33.83254
#
# Velocity S-wave (km/s) = 3.41617 4.23263 3.84613
# Velocity P-wave (km/s) = 4.90878 6.92172 6.00026
#
# Compressibility (1/GPa) = 0.05122309
#
# Stress axis : x y z
#
# Youngs Moduli (GPa) = 38.31113 48.13960 168.28134
#
# Poissons Ratio (x) = -0.06700 -0.10205
# Poissons Ratio (y) = -0.05332 0.47039
# Poissons Ratio (z) = -0.02323 0.13456
#
# Static dielectric constant tensor:
#      x y z
#    x 0.954630 -0.095730 0.132150 
#    y -0.095730 1.865680 -0.050180 
#    z 0.132150 -0.050180 1.833810 
# 
# From -- ./inp_files/260851.got.cif
#   From: 2010.05.17/outbox.cif.g08.bks.cpg/sg2_131_cif.got.tgz:260851.got - 2010.06.03 11:33:40.
