data_PCOD9047085
_publ_section_title
;
Structure prediction by ZEFSAII (Michael W. Deem and Ramdas Pophale) SiO2 
 PCOD9047085
Probable space group: P -1
;
_chemical_formula_sum "Si O2"
_cell_formula_units_Z 14
_cell_length_a 15.018169
_cell_length_b 30.393580
_cell_length_c 11.454819
_cell_angle_alpha 158.836440
_cell_angle_beta 151.169544
_cell_angle_gamma 17.732692
_cell_volume 571.401257
_symmetry_space_group_name_H-M "P -1"
_symmetry_group_IT_number 2
_symmetry_cell_setting 'triclinic'
loop_
_space_group_symop_operation_xyz
x,y,z
-x,-y,-z
loop_
_atom_site_type_symbol
_atom_site_label
_atom_site_fract_x
_atom_site_fract_y
_atom_site_fract_z
Si Si1 0.848204 0.782817 0.238561
Si Si2 0.876731 0.131525 0.824878
Si Si3 0.822538 0.886402 0.060362
Si Si4 0.420095 0.783635 0.710535
Si Si5 0.645799 0.545775 0.832172
Si Si6 0.838073 0.451936 0.207019
Si Si7 0.349292 0.846665 0.035561
O O1 0.026278 0.644789 0.215880
O O2 0.673435 0.995557 0.591712
O O3 0.614191 0.805307 0.980650
O O4 0.082051 0.666418 0.110150
O O5 0.043405 0.161266 0.032105
O O6 0.841477 0.017952 0.443613
O O7 0.545919 0.331664 0.970121
O O8 0.081016 0.993072 0.826495
O O9 0.025867 0.693544 0.890688
O O10 0.500000 0.000000 0.000000
O O11 0.515710 0.651892 0.383371
O O12 0.476388 0.717190 0.743990
O O13 0.500000 0.500000 0.500000
O O14 0.549283 0.697389 0.003085
O O15 0.000000 0.500000 0.500000
O O16 0.000000 0.000000 0.000000
#
# Coordination Sequence:
#
# PCOD9047085 Si02
#       7
#     2   2   2   2   2   2   2
#     4  11  25  47  74 101 149 191 241 309 365 442
#     4  11  26  45  72 108 146 191 244 298 372 438
#     4  11  25  44  73 106 149 193 238 301 369 442
#     4  11  25  47  70 108 143 188 244 303 371 438
#     4  12  26  44  73 106 142 190 249 300 359 442
#     4  10  24  43  71 108 145 184 242 303 371 435
#     4  12  24  47  72 100 148 195 241 300 371 428
#
# _framework density 24.501172
#
# number of rings (size 3 to 8) (size 9 to 14) (size 15 to 20)
#    0.000    0.857    2.857    3.000   10.000    1.143 
#    0.000    0.000    0.000    0.000    0.000    0.000 
#    0.000    0.000    0.000    0.000    0.000    0.000 
#
# Total GULP energy -78094.655788 kJ/mol
# GULP energy per Si atom -5578.189699 kJ/mol
# Density = 2.444541 g / cm^3
# Si number density = 24.501172 Si / 1000 Ang^3
#
#
#
# Elastic Constant Matrix: (Units=GPa)
#
#
# Indices 1 2 3 4 5 6 
#
# 1 114.6181 13.9583 16.9209 13.5201 14.9654 14.2377
# 2 13.9583 88.9090 20.6616 17.6411 24.2455 13.1794
# 3 16.9209 20.6616 91.3196 11.3059 17.0675 -4.5444
# 4 13.5201 17.6411 11.3059 35.9922 2.4544 11.2020
# 5 14.9654 24.2455 17.0675 2.4544 37.3538 6.1277
# 6 14.2377 13.1794 -4.5444 11.2020 6.1277 34.7159
#
#
#
# Elastic Compliance Matrix: (Units=1/GPa)
#
#
# Indices 1 2 3 4 5 6 
#
# 1 0.009915 0.000505 -0.001234 -0.002410 -0.003070 -0.003100
# 2 0.000505 0.015456 -0.001367 -0.005862 -0.008763 -0.002815
# 3 -0.001234 -0.001367 0.013240 -0.004240 -0.005217 0.005047
# 4 -0.002410 -0.005862 -0.004240 0.035559 0.005991 -0.009873
# 5 -0.003070 -0.008763 -0.005217 0.005991 0.036410 -0.004457
# 6 -0.003100 -0.002815 0.005047 -0.009873 -0.004457 0.035779
#
#
# Mechanical properties :
#
#
# Convention : Reuss Voigt Hill
#
# Bulk Modulus (GPa) = 29.05347 44.21424 36.63385
# Shear Modulus (GPa) = 30.85984 37.83279 34.34631
#
# Velocity S-wave (km/s) = 3.55283 3.93379 3.74815
# Velocity P-wave (km/s) = 5.35853 6.22237 5.80654
#
# Compressibility (1/GPa) = 0.03441930
#
# Stress axis : x y z
#
# Youngs Moduli (GPa) = 100.85251 64.70006 75.53032
#
# Poissons Ratio (x) = -0.03267 0.09318
# Poissons Ratio (y) = -0.05092 0.10326
# Poissons Ratio (z) = 0.12442 0.08846
#
# Static dielectric constant tensor:
#      x y z
#    x 2.270970 -0.064190 -0.167580 
#    y -0.064190 1.911640 0.066230 
#    z -0.167580 0.066230 2.069390 
# 
# From -- ./inp_files/458421.got.cif
#   From: 2010.05.17/outbox.cif.g08.bks.cpg/sg2_230_cif.got.tgz:458421.got - 2010.06.03 11:33:40.
