data_PCOD9047874
_publ_section_title
;
Structure prediction by ZEFSAII (Michael W. Deem and Ramdas Pophale) SiO2 
 PCOD9047874
Probable space group: P -1
;
_chemical_formula_sum "Si O2"
_cell_formula_units_Z 16
_cell_length_a 5.315396
_cell_length_b 9.387368
_cell_length_c 18.700538
_cell_angle_alpha 52.096858
_cell_angle_beta 65.461472
_cell_angle_gamma 79.734874
_cell_volume 665.915623
_symmetry_space_group_name_H-M "P -1"
_symmetry_group_IT_number 2
_symmetry_cell_setting 'triclinic'
loop_
_space_group_symop_operation_xyz
x,y,z
-x,-y,-z
loop_
_atom_site_type_symbol
_atom_site_label
_atom_site_fract_x
_atom_site_fract_y
_atom_site_fract_z
Si Si1 0.148515 0.778769 0.604334
Si Si2 0.755769 0.628256 0.818176
Si Si3 0.408594 0.074525 0.913126
Si Si4 0.987964 0.282262 0.957034
Si Si5 0.438215 0.887379 0.266858
Si Si6 0.034159 0.130224 0.560987
Si Si7 0.154401 0.773077 0.853907
Si Si8 0.563203 0.528312 0.567647
O O1 0.366064 0.636067 0.608518
O O2 0.887093 0.680758 0.709115
O O3 0.078940 0.837999 0.514353
O O4 0.227701 0.966145 0.581403
O O5 0.807647 0.423482 0.896807
O O6 0.437356 0.671802 0.845771
O O7 0.952260 0.736762 0.821694
O O8 0.619588 0.085167 0.818880
O O9 0.271932 0.259643 0.888253
O O10 0.500000 0.000000 0.000000
O O11 0.178231 0.916145 0.964405
O O12 0.012348 0.306422 0.031746
O O13 0.448686 0.673566 0.339247
O O14 0.207399 0.933776 0.335672
O O15 0.716177 0.016681 0.216592
O O16 0.164848 0.327506 0.508673
O O17 0.500000 0.500000 0.500000
#
# Coordination Sequence:
#
# PCOD9047874 Si02
#       8
#     2   2   2   2   2   2   2   2
#     4  11  26  44  72 102 144 190 245 303 371 428
#     4  12  26  45  75 109 143 195 242 305 366 443
#     4  10  24  44  71 102 144 191 240 305 368 441
#     4  10  24  45  68 106 144 188 243 300 367 441
#     4  11  24  47  69 104 140 191 245 299 376 431
#     4  11  25  48  68 104 144 191 245 307 365 447
#     4  11  27  45  74 107 146 190 245 299 373 438
#     4  12  26  43  71 103 141 194 246 306 368 443
#
# _framework density 24.027066000000001
#
# number of rings (size 3 to 8) (size 9 to 14) (size 15 to 20)
#    0.000    1.000    2.500    2.250    8.750    1.000 
#    4.500    0.000    0.000    0.000    0.000    0.000 
#    0.000    0.000    0.000    0.000    0.000    0.000 
#
# Total GULP energy -89423.185575 kJ/mol
# GULP energy per Si atom -5588.949098 kJ/mol
# Density = 2.397238 g / cm^3
# Si number density = 24.027066 Si / 1000 Ang^3
#
#
#
# Elastic Constant Matrix: (Units=GPa)
#
#
# Indices 1 2 3 4 5 6 
#
# 1 57.3931 27.8737 28.7219 13.3433 2.7465 1.8232
# 2 27.8737 141.2928 50.4434 -10.1709 -0.3604 -6.3740
# 3 28.7219 50.4434 159.6645 34.1368 5.5097 -7.5883
# 4 13.3433 -10.1709 34.1368 50.8662 4.3438 10.9223
# 5 2.7465 -0.3604 5.5097 4.3438 31.7212 -4.6228
# 6 1.8232 -6.3740 -7.5883 10.9223 -4.6228 30.5267
#
#
#
# Elastic Compliance Matrix: (Units=1/GPa)
#
#
# Indices 1 2 3 4 5 6 
#
# 1 0.021439 -0.004132 -0.001435 -0.005228 -0.001053 -0.000789
# 2 -0.004132 0.009483 -0.003435 0.005373 0.000252 -0.000511
# 3 -0.001435 -0.003435 0.009442 -0.007617 0.000138 0.004462
# 4 -0.005228 0.005373 -0.007617 0.030101 -0.004010 -0.011837
# 5 -0.001053 0.000252 0.000138 -0.004010 0.033105 0.006598
# 6 -0.000789 -0.000511 0.004462 -0.011837 0.006598 0.039042
#
#
# Mechanical properties :
#
#
# Convention : Reuss Voigt Hill
#
# Bulk Modulus (GPa) = 44.71804 63.60315 54.16060
# Shear Modulus (GPa) = 29.74958 39.37692 34.56325
#
# Velocity S-wave (km/s) = 3.52258 4.05267 3.79689
# Velocity P-wave (km/s) = 5.93268 6.95901 6.46624
#
# Compressibility (1/GPa) = 0.02236234
#
# Stress axis : x y z
#
# Youngs Moduli (GPa) = 46.64339 105.44959 105.90787
#
# Poissons Ratio (x) = 0.43570 0.15194
# Poissons Ratio (y) = 0.19272 0.36375
# Poissons Ratio (z) = 0.06692 0.36218
#
# Static dielectric constant tensor:
#      x y z
#    x 1.992430 -0.019240 -0.045660 
#    y -0.019240 2.015890 0.016410 
#    z -0.045660 0.016410 1.936960 
# 
# From -- ./inp_files/547867.got.cif
#   From: 2010.05.17/outbox.cif.g08.bks.cpg/sg2_274_cif.got.tgz:547867.got - 2010.06.03 11:33:40.
