data_PCOD9047087
_publ_section_title
;
Structure prediction by ZEFSAII (Michael W. Deem and Ramdas Pophale) SiO2 
 PCOD9047087
Probable space group: P -1
;
_chemical_formula_sum "Si O2"
_cell_formula_units_Z 16
_cell_length_a 18.255256
_cell_length_b 28.401581
_cell_length_c 5.478682
_cell_angle_alpha 47.871018
_cell_angle_beta 132.006452
_cell_angle_gamma 161.889488
_cell_volume 648.663209
_symmetry_space_group_name_H-M "P -1"
_symmetry_group_IT_number 2
_symmetry_cell_setting 'triclinic'
loop_
_space_group_symop_operation_xyz
x,y,z
-x,-y,-z
loop_
_atom_site_type_symbol
_atom_site_label
_atom_site_fract_x
_atom_site_fract_y
_atom_site_fract_z
Si Si1 0.883615 0.374216 0.319354
Si Si2 0.352398 0.350226 0.748745
Si Si3 0.389083 0.625260 0.623589
Si Si4 0.482222 0.175549 0.470194
Si Si5 0.231094 0.897862 0.864469
Si Si6 0.780952 0.919241 0.229398
Si Si7 0.515918 0.064815 0.500268
Si Si8 0.936943 0.809652 0.827470
O O1 0.741660 0.316184 0.436635
O O2 0.665311 0.213628 0.247938
O O3 0.107200 0.459593 0.554588
O O4 0.000000 0.500000 0.000000
O O5 0.500000 0.500000 0.500000
O O6 0.203063 0.246955 0.528169
O O7 0.516958 0.385969 0.032987
O O8 0.211372 0.278816 0.941142
O O9 0.467293 0.732867 0.577039
O O10 0.546952 0.736906 0.352620
O O11 0.409727 0.060196 0.772533
O O12 0.273693 0.076297 0.160571
O O13 0.021609 0.792482 0.950900
O O14 0.260060 0.925922 0.538506
O O15 0.307287 0.869325 0.148806
O O16 0.000000 0.000000 0.500000
O O17 0.847679 0.015664 0.231208
O O18 0.500000 0.000000 0.500000
#
# Coordination Sequence:
#
# PCOD9047087 Si02
#       8
#     2   2   2   2   2   2   2   2
#     4  11  25  47  71 109 152 206 257 327 397 473
#     4  12  30  52  75 111 157 208 265 322 396 474
#     4  12  26  46  74 105 154 200 256 320 392 472
#     4  11  24  45  74 107 153 195 256 322 393 468
#     4  10  24  43  71 110 142 196 253 325 386 456
#     4  12  24  43  74 110 145 190 255 314 388 454
#     4  10  25  46  74 105 152 197 269 317 397 467
#     4  12  26  48  80 108 152 198 259 324 392 462
#
# _framework density 24.666114
#
# number of rings (size 3 to 8) (size 9 to 14) (size 15 to 20)
#    0.000    0.750    3.750    2.250    8.750    1.000 
#    4.500    0.000    0.000    0.000    0.000    0.000 
#    0.000    0.000    0.000    0.000    0.000    0.000 
#
# Total GULP energy -89085.996061 kJ/mol
# GULP energy per Si atom -5567.874754 kJ/mol
# Density = 2.460997 g / cm^3
# Si number density = 24.666114 Si / 1000 Ang^3
#
#
#
# Elastic Constant Matrix: (Units=GPa)
#
#
# Indices 1 2 3 4 5 6 
#
# 1 118.4150 16.8944 18.5705 0.3063 3.4038 13.0932
# 2 16.8944 91.2410 41.7226 -7.1805 -14.0109 8.3832
# 3 18.5705 41.7226 90.8775 -2.0801 12.7481 9.2894
# 4 0.3063 -7.1805 -2.0801 50.9231 -1.8075 4.3549
# 5 3.4038 -14.0109 12.7481 -1.8075 42.2065 5.0446
# 6 13.0932 8.3832 9.2894 4.3549 5.0446 45.6738
#
#
#
# Elastic Compliance Matrix: (Units=1/GPa)
#
#
# Indices 1 2 3 4 5 6 
#
# 1 0.009013 -0.001076 -0.001063 -0.000088 -0.000515 -0.002105
# 2 -0.001076 0.016691 -0.008353 0.002513 0.008526 -0.002238
# 3 -0.001063 -0.008353 0.016151 -0.000732 -0.007532 -0.000546
# 4 -0.000088 0.002513 -0.000732 0.020252 0.002224 -0.002464
# 5 -0.000515 0.008526 -0.007532 0.002224 0.029334 -0.003337
# 6 -0.002105 -0.002238 -0.000546 -0.002464 -0.003337 0.023623
#
#
# Mechanical properties :
#
#
# Convention : Reuss Voigt Hill
#
# Bulk Modulus (GPa) = 47.90815 50.54539 49.22677
# Shear Modulus (GPa) = 34.96396 42.65042 38.80719
#
# Velocity S-wave (km/s) = 3.76904 4.16277 3.97079
# Velocity P-wave (km/s) = 6.19723 6.60615 6.40495
#
# Compressibility (1/GPa) = 0.02087327
#
# Stress axis : x y z
#
# Youngs Moduli (GPa) = 110.95426 59.91115 61.91387
#
# Poissons Ratio (x) = 0.06444 0.06578
# Poissons Ratio (y) = 0.11934 0.51717
# Poissons Ratio (z) = 0.11789 0.50044
#
# Static dielectric constant tensor:
#      x y z
#    x 2.132770 0.124570 -0.156560 
#    y 0.124570 2.017350 0.017130 
#    z -0.156560 0.017130 2.220270 
# 
# From -- ./inp_files/113211.got.cif
#   From: 2010.05.17/outbox.cif.g08.bks.cpg/sg2_57_cif.got.tgz:113211.got - 2010.06.03 11:33:40.
