data_PCOD9047767
_publ_section_title
;
Structure prediction by ZEFSAII (Michael W. Deem and Ramdas Pophale) SiO2 
 PCOD9047767
Probable space group: P -1
;
_chemical_formula_sum "Si O2"
_cell_formula_units_Z 16
_cell_length_a 19.959983
_cell_length_b 16.616660
_cell_length_c 6.825552
_cell_angle_alpha 77.549106
_cell_angle_beta 77.450836
_cell_angle_gamma 19.971166
_cell_volume 754.288466
_symmetry_space_group_name_H-M "P -1"
_symmetry_group_IT_number 2
_symmetry_cell_setting 'triclinic'
loop_
_space_group_symop_operation_xyz
x,y,z
-x,-y,-z
loop_
_atom_site_type_symbol
_atom_site_label
_atom_site_fract_x
_atom_site_fract_y
_atom_site_fract_z
Si Si1 0.740140 0.264881 0.238035
Si Si2 0.685483 0.214002 0.668759
Si Si3 0.612800 0.864593 0.200589
Si Si4 0.525187 0.093249 0.408316
Si Si5 0.090410 0.605893 0.252314
Si Si6 0.000152 0.126536 0.034657
Si Si7 0.257667 0.019945 0.421502
Si Si8 0.017430 0.380737 0.058383
O O1 0.751335 0.209315 0.473354
O O2 0.506207 0.540373 0.220455
O O3 0.851962 0.082011 0.106318
O O4 0.849427 0.228960 0.161221
O O5 0.641203 0.178536 0.604988
O O6 0.864206 0.994516 0.813194
O O7 0.473607 0.972103 0.379267
O O8 0.811883 0.590769 0.188329
O O9 0.651714 0.909646 0.251502
O O10 0.500000 0.000000 0.000000
O O11 0.306396 0.342485 0.330796
O O12 0.605334 0.085655 0.457085
O O13 0.101908 0.681794 0.102813
O O14 0.938118 0.780664 0.436164
O O15 0.007674 0.634274 0.128973
O O16 0.191246 0.149590 0.206900
O O17 0.000000 0.500000 0.000000
#
# Coordination Sequence:
#
# PCOD9047767 Si02
#       8
#     2   2   2   2   2   2   2   2
#     4  10  24  44  70 103 134 178 225 276 348 415
#     4  11  23  45  70 100 139 178 223 282 343 410
#     4  11  22  43  66  92 130 175 231 276 334 400
#     4  11  26  42  66  96 132 176 226 282 335 397
#     4  12  25  45  67  98 139 177 226 288 332 409
#     4  11  23  45  71 101 136 177 228 278 344 411
#     4  12  26  44  66 101 138 175 230 282 337 406
#     4  12  25  43  70  95 135 185 228 277 345 399
#
# _framework density 21.212043000000001
#
# number of rings (size 3 to 8) (size 9 to 14) (size 15 to 20)
#    0.000    0.750    5.000    2.250    1.750    4.000 
#   11.250    0.000    0.000    0.000    0.000    0.000 
#    0.000    0.000    0.000    0.000    0.000    0.000 
#
# Total GULP energy -89408.760126 kJ/mol
# GULP energy per Si atom -5588.047508 kJ/mol
# Density = 2.116376 g / cm^3
# Si number density = 21.212043 Si / 1000 Ang^3
#
#
#
# Elastic Constant Matrix: (Units=GPa)
#
#
# Indices 1 2 3 4 5 6 
#
# 1 111.3540 16.6597 40.5341 -5.3747 -2.4568 8.0231
# 2 16.6597 60.0236 37.0264 -3.9082 -7.7013 1.9046
# 3 40.5341 37.0264 99.9429 -11.3010 -2.1289 1.5064
# 4 -5.3747 -3.9082 -11.3010 38.6389 -1.1411 -0.9014
# 5 -2.4568 -7.7013 -2.1289 -1.1411 29.8518 -6.1872
# 6 8.0231 1.9046 1.5064 -0.9014 -6.1872 27.8802
#
#
#
# Elastic Compliance Matrix: (Units=1/GPa)
#
#
# Indices 1 2 3 4 5 6 
#
# 1 0.010765 -0.000312 -0.004190 0.000171 -0.000080 -0.002862
# 2 -0.000312 0.022379 -0.008053 0.000022 0.005206 0.000152
# 3 -0.004190 -0.008053 0.014990 0.002974 -0.001073 0.000804
# 4 0.000171 0.000022 0.002974 0.026843 0.001461 0.000981
# 5 -0.000080 0.005206 -0.001073 0.001461 0.036444 0.007860
# 6 -0.002862 0.000152 0.000804 0.000981 0.007860 0.038414
#
#
# Mechanical properties :
#
#
# Convention : Reuss Voigt Hill
#
# Bulk Modulus (GPa) = 43.43243 51.08455 47.25849
# Shear Modulus (GPa) = 27.37961 31.08087 29.23024
#
# Velocity S-wave (km/s) = 3.59661 3.83201 3.71617
# Velocity P-wave (km/s) = 6.14551 6.61167 6.38284
#
# Compressibility (1/GPa) = 0.02302427
#
# Stress axis : x y z
#
# Youngs Moduli (GPa) = 92.89529 44.68474 66.71203
#
# Poissons Ratio (x) = 0.01393 0.27950
# Poissons Ratio (y) = 0.02895 0.53726
# Poissons Ratio (z) = 0.38920 0.35986
#
# Static dielectric constant tensor:
#      x y z
#    x 1.784960 0.000810 -0.000810 
#    y 0.000810 1.741640 0.018030 
#    z -0.000810 0.018030 1.772780 
# 
# From -- ./inp_files/120037.got.cif
#   From: 2010.05.17/outbox.cif.g08.bks.cpg/sg2_61_cif.got.tgz:120037.got - 2010.06.03 11:33:40.
