data_PCOD9047659
_publ_section_title
;
Structure prediction by ZEFSAII (Michael W. Deem and Ramdas Pophale) SiO2 
 PCOD9047659
Probable space group: P -1
;
_chemical_formula_sum "Si O2"
_cell_formula_units_Z 16
_cell_length_a 9.189476
_cell_length_b 10.883271
_cell_length_c 8.015907
_cell_angle_alpha 124.442695
_cell_angle_beta 95.457373
_cell_angle_gamma 95.195029
_cell_volume 647.893494
_symmetry_space_group_name_H-M "P -1"
_symmetry_group_IT_number 2
_symmetry_cell_setting 'triclinic'
loop_
_space_group_symop_operation_xyz
x,y,z
-x,-y,-z
loop_
_atom_site_type_symbol
_atom_site_label
_atom_site_fract_x
_atom_site_fract_y
_atom_site_fract_z
Si Si1 0.847856 0.036806 0.447041
Si Si2 0.837758 0.287605 0.416584
Si Si3 0.596243 0.904704 0.554225
Si Si4 0.879324 0.410987 0.053950
Si Si5 0.305136 0.200052 0.991490
Si Si6 0.640191 0.609677 0.177395
Si Si7 0.355761 0.838720 0.014748
Si Si8 0.879465 0.636350 0.685558
O O1 0.750034 0.957964 0.523446
O O2 0.823026 0.206388 0.531808
O O3 0.793839 0.954667 0.203238
O O4 0.000000 0.000000 0.500000
O O5 0.731664 0.200440 0.196439
O O6 0.809797 0.459350 0.536091
O O7 0.013379 0.299532 0.404754
O O8 0.574877 0.724810 0.383818
O O9 0.500000 0.000000 0.500000
O O10 0.607409 0.983719 0.795297
O O11 0.770435 0.525448 0.192834
O O12 0.748226 0.257761 0.927040
O O13 0.994905 0.361476 0.157639
O O14 0.000000 0.500000 0.000000
O O15 0.480754 0.202601 0.013186
O O16 0.239031 0.263873 0.196431
O O17 0.284831 0.306366 0.913803
O O18 0.500000 0.500000 0.000000
#
# Coordination Sequence:
#
# PCOD9047659 Si02
#       8
#     2   2   2   2   2   2   2   2
#     4  11  27  45  72 103 140 185 236 293 353 430
#     4  10  26  48  68 100 143 185 236 293 359 417
#     4  11  23  43  69 103 142 182 235 287 354 418
#     4  11  22  37  70 101 140 185 229 295 348 410
#     4  11  23  44  68 106 140 180 243 284 357 421
#     4  11  21  39  65 107 142 179 235 292 348 418
#     4  11  24  47  68 102 147 183 233 298 349 423
#     4  10  24  44  69 101 141 186 234 290 360 423
#
# _framework density 24.695418
#
# number of rings (size 3 to 8) (size 9 to 14) (size 15 to 20)
#    0.000    1.250    5.000    0.000    8.750    2.500 
#    0.000    0.000    0.000    0.000    0.000    0.000 
#    0.000    0.000    0.000    0.000    0.000    0.000 
#
# Total GULP energy -89215.526928 kJ/mol
# GULP energy per Si atom -5575.970433 kJ/mol
# Density = 2.463921 g / cm^3
# Si number density = 24.695418 Si / 1000 Ang^3
#
#
#
# Elastic Constant Matrix: (Units=GPa)
#
#
# Indices 1 2 3 4 5 6 
#
# 1 141.1099 23.7668 67.4894 11.5209 13.8553 -17.2791
# 2 23.7668 76.5666 13.6902 5.3106 8.6801 -6.2887
# 3 67.4894 13.6902 105.2667 29.4112 5.7951 -14.2958
# 4 11.5209 5.3106 29.4112 32.0061 -5.8083 -6.2387
# 5 13.8553 8.6801 5.7951 -5.8083 36.7180 1.6208
# 6 -17.2791 -6.2887 -14.2958 -6.2387 1.6208 26.8103
#
#
#
# Elastic Compliance Matrix: (Units=1/GPa)
#
#
# Indices 1 2 3 4 5 6 
#
# 1 0.011312 -0.001853 -0.007260 0.003238 -0.002343 0.003880
# 2 -0.001853 0.014246 0.000420 -0.002263 -0.003182 0.002037
# 3 -0.007260 0.000420 0.018631 -0.014658 -0.002712 0.002106
# 4 0.003238 -0.002263 -0.014658 0.046292 0.008773 0.003982
# 5 -0.002343 -0.003182 -0.002712 0.008773 0.030843 -0.003526
# 6 0.003880 0.002037 0.002106 0.003982 -0.003526 0.042540
#
#
# Mechanical properties :
#
#
# Convention : Reuss Voigt Hill
#
# Bulk Modulus (GPa) = 37.31333 59.20400 48.25866
# Shear Modulus (GPa) = 26.29024 33.64000 29.96512
#
# Velocity S-wave (km/s) = 3.26633 3.69480 3.48715
# Velocity P-wave (km/s) = 5.41917 6.49829 5.98311
#
# Compressibility (1/GPa) = 0.02680007
#
# Stress axis : x y z
#
# Youngs Moduli (GPa) = 88.40123 70.19602 53.67511
#
# Poissons Ratio (x) = 0.13011 0.38970
# Poissons Ratio (y) = 0.16385 -0.02252
# Poissons Ratio (z) = 0.64182 -0.02945
#
# Static dielectric constant tensor:
#      x y z
#    x 1.805400 0.011860 0.065800 
#    y 0.011860 2.171710 0.194160 
#    z 0.065800 0.194160 2.080840 
# 
# From -- ./inp_files/190924.got.cif
#   From: 2010.05.17/outbox.cif.g08.bks.cpg/sg2_96_cif.got.tgz:190924.got - 2010.06.03 11:33:40.
