data_PCOD9047955
_publ_section_title
;
Structure prediction by ZEFSAII (Michael W. Deem and Ramdas Pophale) SiO2 
 PCOD9047955
Probable space group: P -1
;
_chemical_formula_sum "Si O2"
_cell_formula_units_Z 12
_cell_length_a 7.208619
_cell_length_b 14.565504
_cell_length_c 11.416206
_cell_angle_alpha 151.761586
_cell_angle_beta 119.026527
_cell_angle_gamma 56.265888
_cell_volume 471.622456
_symmetry_space_group_name_H-M "P -1"
_symmetry_group_IT_number 2
_symmetry_cell_setting 'triclinic'
loop_
_space_group_symop_operation_xyz
x,y,z
-x,-y,-z
loop_
_atom_site_type_symbol
_atom_site_label
_atom_site_fract_x
_atom_site_fract_y
_atom_site_fract_z
Si Si1 0.061548 0.398819 0.662980
Si Si2 0.544839 0.145865 0.427800
Si Si3 0.985109 0.703807 0.800273
Si Si4 0.525709 0.274560 0.063194
Si Si5 0.300567 0.544817 0.086798
Si Si6 0.291812 0.838806 0.764220
O O1 0.297674 0.291701 0.550079
O O2 0.951544 0.624345 0.829168
O O3 0.902686 0.262805 0.434605
O O4 0.129014 0.442027 0.862687
O O5 0.734385 0.217140 0.632753
O O6 0.585527 0.160804 0.319447
O O7 0.542777 0.923268 0.210170
O O8 0.222386 0.742713 0.914397
O O9 0.000000 0.500000 0.500000
O O10 0.817329 0.924416 0.965181
O O11 0.380045 0.450371 0.132538
O O12 0.546882 0.281202 0.218110
O O13 0.500000 0.500000 0.000000
#
# Coordination Sequence:
#
# PCOD9047955 Si02
#       6
#     2   2   2   2   2   2
#     4  11  24  48  73  97 144 189 233 280 349 418
#     4  11  25  45  68 108 142 179 236 286 349 413
#     4  12  23  43  71 104 137 183 231 286 352 411
#     4  12  23  43  74 100 139 184 230 289 349 411
#     4  10  24  44  72 101 139 192 231 279 349 421
#     4  12  27  43  74 107 140 180 233 297 345 410
#
# _framework density 25.444082999999999
#
# number of rings (size 3 to 8) (size 9 to 14) (size 15 to 20)
#    0.000    0.667    6.667    2.000    0.000    6.667 
#    0.000    1.667    0.000    0.000    0.000    0.000 
#    0.000    0.000    0.000    0.000    0.000    0.000 
#
# Total GULP energy -67162.460762 kJ/mol
# GULP energy per Si atom -5596.871730 kJ/mol
# Density = 2.538617 g / cm^3
# Si number density = 25.444083 Si / 1000 Ang^3
#
#
#
# Elastic Constant Matrix: (Units=GPa)
#
#
# Indices 1 2 3 4 5 6 
#
# 1 103.0901 17.6695 46.9184 8.5552 5.9791 -2.1431
# 2 17.6695 79.9260 56.7241 8.0548 -11.0358 8.4685
# 3 46.9184 56.7241 211.1665 -0.7076 28.9647 4.1245
# 4 8.5552 8.0548 -0.7076 37.6426 7.6579 11.6253
# 5 5.9791 -11.0358 28.9647 7.6579 39.9501 3.4629
# 6 -2.1431 8.4685 4.1245 11.6253 3.4629 29.0185
#
#
#
# Elastic Compliance Matrix: (Units=1/GPa)
#
#
# Indices 1 2 3 4 5 6 
#
# 1 0.011232 -0.000672 -0.002419 -0.003340 0.000296 0.002672
# 2 -0.000672 0.020197 -0.006867 -0.005449 0.012070 -0.004225
# 3 -0.002419 -0.006867 0.008263 0.003824 -0.008268 0.000106
# 4 -0.003340 -0.005449 0.003824 0.034080 -0.009292 -0.011744
# 5 0.000296 0.012070 -0.008268 -0.009292 0.036351 -0.002941
# 6 0.002672 -0.004225 0.000106 -0.011744 -0.002941 0.040932
#
#
# Mechanical properties :
#
#
# Convention : Reuss Voigt Hill
#
# Bulk Modulus (GPa) = 50.56892 70.75630 60.66261
# Shear Modulus (GPa) = 28.15896 39.51362 33.83629
#
# Velocity S-wave (km/s) = 3.33032 3.94504 3.65064
# Velocity P-wave (km/s) = 5.89115 6.97280 6.45468
#
# Compressibility (1/GPa) = 0.01977499
#
# Stress axis : x y z
#
# Youngs Moduli (GPa) = 89.03182 49.51173 121.02725
#
# Poissons Ratio (x) = 0.03327 0.29277
# Poissons Ratio (y) = 0.05983 0.83114
# Poissons Ratio (z) = 0.21537 0.34002
#
# Static dielectric constant tensor:
#      x y z
#    x 2.054310 -0.000450 -0.002690 
#    y -0.000450 2.009330 -0.003910 
#    z -0.002690 -0.003910 2.067050 
# 
# From -- ./inp_files/397986.got.cif
#   From: 2010.05.17/outbox.cif.g08.bks.cpg/sg2_199_cif.got.tgz:397986.got - 2010.06.03 11:33:40.
