data_PCOD9047959
_publ_section_title
;
Structure prediction by ZEFSAII (Michael W. Deem and Ramdas Pophale) SiO2 
 PCOD9047959
Probable space group: P -1
;
_chemical_formula_sum "Si O2"
_cell_formula_units_Z 12
_cell_length_a 8.687070
_cell_length_b 9.615459
_cell_length_c 11.983450
_cell_angle_alpha 108.229073
_cell_angle_beta 68.656679
_cell_angle_gamma 150.577856
_cell_volume 457.978275
_symmetry_space_group_name_H-M "P -1"
_symmetry_group_IT_number 2
_symmetry_cell_setting 'triclinic'
loop_
_space_group_symop_operation_xyz
x,y,z
-x,-y,-z
loop_
_atom_site_type_symbol
_atom_site_label
_atom_site_fract_x
_atom_site_fract_y
_atom_site_fract_z
Si Si1 0.000000 0.500000 0.500000
Si Si2 0.032218 0.694891 0.320122
Si Si3 0.842786 0.696091 0.683466
Si Si4 0.000000 0.000000 0.500000
Si Si5 0.227019 0.483448 0.016467
Si Si6 0.274871 0.197351 0.845689
Si Si7 0.608516 0.203071 0.159445
O O1 0.852493 0.314036 0.608241
O O2 0.003293 0.665295 0.599144
O O3 0.706422 0.372099 0.284631
O O4 0.976868 0.816909 0.405009
O O5 0.272921 0.876849 0.197606
O O6 0.476386 0.382225 0.726717
O O7 0.881789 0.840136 0.610579
O O8 0.993356 0.878723 0.801313
O O9 0.475582 0.679775 0.101778
O O10 0.891485 0.302744 0.090197
O O11 0.170657 0.273218 0.942057
O O12 0.385727 0.687928 0.921258
#
# Coordination Sequence:
#
# PCOD9047959 Si02
#       7
#     1   2   2   1   2   2   2
#     4  10  26  44  68 100 136 178 226 286 352 410
#     4  11  25  44  70 102 139 181 233 291 351 417
#     4  11  25  44  70 102 139 181 233 291 351 417
#     4  10  24  44  72 102 136 182 236 288 348 418
#     4  10  25  44  70 104 142 188 235 290 350 420
#     4  11  25  44  70 102 142 184 235 288 351 417
#     4  11  25  44  70 102 142 184 235 288 351 417
#
# _framework density 26.202116
#
# number of rings (size 3 to 8) (size 9 to 14) (size 15 to 20)
#    0.000    1.333    0.000    3.000    0.000   21.333 
#    0.000    0.000    0.000    4.000    0.000    0.000 
#    0.000    0.000    0.000    0.000    0.000    0.000 
#
# Total GULP energy -66893.526486 kJ/mol
# GULP energy per Si atom -5574.460540 kJ/mol
# Density = 2.614248 g / cm^3
# Si number density = 26.202116 Si / 1000 Ang^3
#
#
#
# Elastic Constant Matrix: (Units=GPa)
#
#
# Indices 1 2 3 4 5 6 
#
# 1 63.3634 21.8379 19.3655 -9.2610 -34.8292 -24.3381
# 2 21.8379 90.3091 14.1261 -1.7060 2.4579 -9.2728
# 3 19.3655 14.1261 97.0214 -26.9658 -23.0761 -6.1016
# 4 -9.2610 -1.7060 -26.9658 -14.5418 -75.4197 3.1999
# 5 -34.8292 2.4579 -23.0761 -75.4197 -30.9366 3.3169
# 6 -24.3381 -9.2728 -6.1016 3.1999 3.3169 51.4957
#
#
#
# Elastic Compliance Matrix: (Units=1/GPa)
#
#
# Indices 1 2 3 4 5 6 
#
# 1 0.021794 -0.003670 -0.005312 -0.008712 0.001387 0.009462
# 2 -0.003670 0.012097 -0.000407 0.002267 -0.000104 0.000261
# 3 -0.005312 -0.000407 0.010701 0.000471 -0.003303 -0.001132
# 4 -0.008712 0.002267 0.000471 0.009724 -0.014425 -0.003328
# 5 0.001387 -0.000104 -0.003303 -0.014425 0.003832 0.000895
# 6 0.009462 0.000261 -0.001132 -0.003328 0.000895 0.023953
#
#
# Mechanical properties :
#
#
# Convention : Reuss Voigt Hill
#
# Bulk Modulus (GPa) = 38.73904 40.15033 39.44469
# Shear Modulus (GPa) = 45.66944 14.22774 29.94859
#
# Velocity S-wave (km/s) = 4.17942 2.33276 3.38447
# Velocity P-wave (km/s) = 6.17307 4.75524 5.50995
#
# Compressibility (1/GPa) = 0.02581375
#
# Stress axis : x y z
#
# Youngs Moduli (GPa) = 45.88410 82.66768 93.45327
#
# Poissons Ratio (x) = 0.30339 0.49643
# Poissons Ratio (y) = 0.16839 0.03801
# Poissons Ratio (z) = 0.24374 0.03362
#
# Static dielectric constant tensor:
#      x y z
#    x 2.051310 0.035510 0.011440 
#    y 0.035510 1.967510 -0.016850 
#    z 0.011440 -0.016850 1.983750 
# 
# From -- ./inp_files/25109.got.cif
#   From: 2010.05.17/outbox.cif.g08.bks.cpg/sg2_13_cif.got.tgz:25109.got - 2010.06.03 11:33:40.
