data_PCOD9047581
_publ_section_title
;
Structure prediction by ZEFSAII (Michael W. Deem and Ramdas Pophale) SiO2 
 PCOD9047581
Probable space group: P -1
;
_chemical_formula_sum "Si O2"
_cell_formula_units_Z 15
_cell_length_a 11.360560
_cell_length_b 12.401656
_cell_length_c 12.099059
_cell_angle_alpha 53.326783
_cell_angle_beta 62.782988
_cell_angle_gamma 24.154179
_cell_volume 539.157600
_symmetry_space_group_name_H-M "P -1"
_symmetry_group_IT_number 2
_symmetry_cell_setting 'triclinic'
loop_
_space_group_symop_operation_xyz
x,y,z
-x,-y,-z
loop_
_atom_site_type_symbol
_atom_site_label
_atom_site_fract_x
_atom_site_fract_y
_atom_site_fract_z
Si Si1 0.000000 0.500000 0.500000
Si Si2 0.709643 0.606232 0.382161
Si Si3 0.095279 0.568325 0.833553
Si Si4 0.815961 0.082830 0.727956
Si Si5 0.168052 0.748842 0.003308
Si Si6 0.598786 0.693855 0.711300
Si Si7 0.653653 0.267037 0.393125
Si Si8 0.582885 0.837424 0.858521
O O1 0.962660 0.400641 0.491415
O O2 0.738048 0.677089 0.582431
O O3 0.814238 0.460326 0.308096
O O4 0.468816 0.724413 0.466384
O O5 0.605001 0.854635 0.252137
O O6 0.856995 0.888421 0.792972
O O7 0.922844 0.587010 0.864435
O O8 0.374079 0.288959 0.969903
O O9 0.003929 0.002490 0.609468
O O10 0.028975 0.879614 0.865281
O O11 0.541045 0.422049 0.685768
O O12 0.140731 0.628314 0.143470
O O13 0.500000 0.500000 0.000000
O O14 0.000000 0.000000 0.000000
O O15 0.434819 0.732903 0.681896
O O16 0.466824 0.876758 0.769571
#
# Coordination Sequence:
#
# PCOD9047581 Si02
#       8
#     1   2   2   2   2   2   2   2
#     4  10  24  44  68 106 144 188 238 308 372 442
#     4  11  26  47  72 107 146 196 247 305 375 449
#     4  11  26  47  72 103 151 191 252 300 369 447
#     4  12  25  48  71 111 144 197 247 307 368 445
#     4  12  23  44  71 108 146 192 250 310 372 431
#     4  11  22  44  72 108 143 190 245 316 368 442
#     4  11  28  45  78 107 149 191 249 308 378 435
#     4  11  25  47  72 107 141 199 247 306 369 443
#
# _framework density 27.821179999999998
#
# number of rings (size 3 to 8) (size 9 to 14) (size 15 to 20)
#    0.000    0.800    5.333    0.400    3.733    6.400 
#    2.400    0.000    0.000    0.000    0.000    0.000 
#    0.000    0.000    0.000    0.000    0.000    0.000 
#
# Total GULP energy -83691.776885 kJ/mol
# GULP energy per Si atom -5579.451792 kJ/mol
# Density = 2.775786 g / cm^3
# Si number density = 27.821180 Si / 1000 Ang^3
#
#
#
# Elastic Constant Matrix: (Units=GPa)
#
#
# Indices 1 2 3 4 5 6 
#
# 1 151.5065 62.5027 30.8034 17.3827 -5.8652 23.3642
# 2 62.5027 138.6922 10.9312 9.1654 -1.2705 35.3829
# 3 30.8034 10.9312 93.9035 16.6906 10.8502 22.5102
# 4 17.3827 9.1654 16.6906 53.1392 10.3026 -3.4500
# 5 -5.8652 -1.2705 10.8502 10.3026 46.2018 8.0868
# 6 23.3642 35.3829 22.5102 -3.4500 8.0868 37.8026
#
#
#
# Elastic Compliance Matrix: (Units=1/GPa)
#
#
# Indices 1 2 3 4 5 6 
#
# 1 0.009005 -0.003162 -0.001907 -0.002416 0.002430 -0.002210
# 2 -0.003162 0.011428 0.002623 -0.002830 0.001846 -0.010957
# 3 -0.001907 0.002623 0.014335 -0.004855 -0.000684 -0.010109
# 4 -0.002416 -0.002830 -0.004855 0.023534 -0.006336 0.010536
# 5 0.002430 0.001846 -0.000684 -0.006336 0.025112 -0.008772
# 6 -0.002210 -0.010957 -0.010109 0.010536 -0.008772 0.046933
#
#
# Mechanical properties :
#
#
# Convention : Reuss Voigt Hill
#
# Bulk Modulus (GPa) = 33.47231 65.84186 49.65708
# Shear Modulus (GPa) = 34.43599 46.08637 40.26118
#
# Velocity S-wave (km/s) = 3.52200 4.07445 3.80826
# Velocity P-wave (km/s) = 5.34759 6.77144 6.10119
#
# Compressibility (1/GPa) = 0.02987544
#
# Stress axis : x y z
#
# Youngs Moduli (GPa) = 111.05377 87.50686 69.76036
#
# Poissons Ratio (x) = 0.27669 0.13305
# Poissons Ratio (y) = 0.35114 -0.18300
# Poissons Ratio (z) = 0.21180 -0.22955
#
# Static dielectric constant tensor:
#      x y z
#    x 2.347420 0.027700 0.186450 
#    y 0.027700 2.109800 0.034770 
#    z 0.186450 0.034770 2.332440 
# 
# From -- ./inp_files/69977.got.cif
#   From: 2010.05.17/outbox.cif.g08.bks.cpg/sg2_35_cif.got.tgz:69977.got - 2010.06.03 11:33:40.
