data_PCOD9047725
_publ_section_title
;
Structure prediction by ZEFSAII (Michael W. Deem and Ramdas Pophale) SiO2 
 PCOD9047725
Probable space group: P -1
;
_chemical_formula_sum "Si O2"
_cell_formula_units_Z 14
_cell_length_a 8.324807
_cell_length_b 8.770604
_cell_length_c 9.695095
_cell_angle_alpha 78.391346
_cell_angle_beta 95.298035
_cell_angle_gamma 113.818263
_cell_volume 634.289882
_symmetry_space_group_name_H-M "P -1"
_symmetry_group_IT_number 2
_symmetry_cell_setting 'triclinic'
loop_
_space_group_symop_operation_xyz
x,y,z
-x,-y,-z
loop_
_atom_site_type_symbol
_atom_site_label
_atom_site_fract_x
_atom_site_fract_y
_atom_site_fract_z
Si Si1 0.376303 0.564079 0.384100
Si Si2 0.326681 0.889895 0.422435
Si Si3 0.851527 0.848122 0.097590
Si Si4 0.949941 0.978121 0.662860
Si Si5 0.851782 0.484245 0.097896
Si Si6 0.989934 0.322714 0.362505
Si Si7 0.475319 0.646098 0.061326
O O1 0.500000 0.500000 0.500000
O O2 0.380130 0.752028 0.374374
O O3 0.419992 0.567824 0.224143
O O4 0.176431 0.436530 0.421066
O O5 0.160907 0.781645 0.524362
O O6 0.500000 0.000000 0.500000
O O7 0.237035 0.009397 0.323654
O O8 0.849848 0.668010 0.085859
O O9 0.649678 0.816054 0.058880
O O10 0.904850 0.885899 0.254954
O O11 0.000000 0.000000 0.000000
O O12 0.962841 0.797896 0.719980
O O13 0.000000 0.000000 0.500000
O O14 0.906694 0.433350 0.255398
O O15 0.680920 0.339587 0.042397
O O16 0.000000 0.500000 0.000000
O O17 0.500000 0.500000 0.000000
#
# Coordination Sequence:
#
# PCOD9047725 Si02
#       7
#     2   2   2   2   2   2   2
#     4  12  26  43  75 105 138 187 238 287 354 417
#     4  11  26  44  67 107 143 178 231 290 350 413
#     4  11  25  44  71  99 138 185 230 288 358 407
#     4  10  24  44  69  99 144 178 230 289 352 406
#     4  11  22  46  71 101 137 181 245 285 340 424
#     4  11  24  44  74  99 141 187 233 285 349 412
#     4  10  26  44  69 100 143 184 237 285 346 421
#
# _framework density 22.071923999999999
#
# number of rings (size 3 to 8) (size 9 to 14) (size 15 to 20)
#    0.000    1.143    1.429    3.000   14.000    1.143 
#    0.000    2.857    0.000    0.000    0.000    0.000 
#    0.000    0.000    0.000    0.000    0.000    0.000 
#
# Total GULP energy -78098.468480 kJ/mol
# GULP energy per Si atom -5578.462034 kJ/mol
# Density = 2.202169 g / cm^3
# Si number density = 22.071924 Si / 1000 Ang^3
#
#
#
# Elastic Constant Matrix: (Units=GPa)
#
#
# Indices 1 2 3 4 5 6 
#
# 1 127.3191 52.9413 42.6737 20.5331 25.7950 20.7324
# 2 52.9413 106.2566 33.5919 28.1344 4.7158 11.5055
# 3 42.6737 33.5919 93.0555 17.5145 0.6452 11.0030
# 4 20.5331 28.1344 17.5145 45.8106 1.1198 2.0645
# 5 25.7950 4.7158 0.6452 1.1198 41.8599 13.1901
# 6 20.7324 11.5055 11.0030 2.0645 13.1901 63.3727
#
#
#
# Elastic Compliance Matrix: (Units=1/GPa)
#
#
# Indices 1 2 3 4 5 6 
#
# 1 0.012764 -0.004347 -0.003833 -0.001362 -0.006889 -0.001243
# 2 -0.004347 0.013693 -0.001765 -0.005785 0.001602 -0.000903
# 3 -0.003833 -0.001765 0.013741 -0.002461 0.002831 -0.001320
# 4 -0.001362 -0.005785 -0.002461 0.026878 0.000513 0.000941
# 5 -0.006889 0.001602 0.002831 0.000513 0.029364 -0.004657
# 6 -0.001243 -0.000903 -0.001320 0.000941 -0.004657 0.017518
#
#
# Mechanical properties :
#
#
# Convention : Reuss Voigt Hill
#
# Bulk Modulus (GPa) = 49.24252 65.00502 57.12377
# Shear Modulus (GPa) = 35.55706 43.37027 39.46366
#
# Velocity S-wave (km/s) = 4.01804 4.43759 4.23301
# Velocity P-wave (km/s) = 6.62455 7.46804 7.05890
#
# Compressibility (1/GPa) = 0.02030765
#
# Stress axis : x y z
#
# Youngs Moduli (GPa) = 78.34359 73.02764 72.77446
#
# Poissons Ratio (x) = 0.31745 0.27897
# Poissons Ratio (y) = 0.34056 0.12847
# Poissons Ratio (z) = 0.30031 0.12891
#
# Static dielectric constant tensor:
#      x y z
#    x 1.869640 -0.076290 0.046870 
#    y -0.076290 1.689620 0.074990 
#    z 0.046870 0.074990 1.753450 
# 
# From -- ./inp_files/158151.got.cif
#   From: 2010.05.17/outbox.cif.g08.bks.cpg/sg2_80_cif.got.tgz:158151.got - 2010.06.03 11:33:40.
