data_PCOD9047591
_publ_section_title
;
Structure prediction by ZEFSAII (Michael W. Deem and Ramdas Pophale) SiO2 
 PCOD9047591
Probable space group: P -1
;
_chemical_formula_sum "Si O2"
_cell_formula_units_Z 14
_cell_length_a 7.721807
_cell_length_b 8.764386
_cell_length_c 12.228986
_cell_angle_alpha 72.301349
_cell_angle_beta 116.869096
_cell_angle_gamma 126.057895
_cell_volume 596.006418
_symmetry_space_group_name_H-M "P -1"
_symmetry_group_IT_number 2
_symmetry_cell_setting 'triclinic'
loop_
_space_group_symop_operation_xyz
x,y,z
-x,-y,-z
loop_
_atom_site_type_symbol
_atom_site_label
_atom_site_fract_x
_atom_site_fract_y
_atom_site_fract_z
Si Si1 0.130152 0.886801 0.204084
Si Si2 0.264914 0.084273 0.972117
Si Si3 0.011206 0.501493 0.316186
Si Si4 0.311324 0.476877 0.596880
Si Si5 0.254807 0.121320 0.403298
Si Si6 0.266069 0.818797 0.870331
Si Si7 0.723382 0.917613 0.343887
O O1 0.148408 0.704894 0.252790
O O2 0.222107 0.032371 0.098417
O O3 0.231903 0.995160 0.322209
O O4 0.860165 0.816278 0.132658
O O5 0.538025 0.201870 0.013598
O O6 0.161422 0.885781 0.919974
O O7 0.825912 0.503225 0.345330
O O8 0.890847 0.350442 0.218339
O O9 0.171271 0.467478 0.449644
O O10 0.563448 0.662224 0.619229
O O11 0.320543 0.288746 0.644541
O O12 0.329489 0.068763 0.548365
O O13 0.996078 0.063105 0.368894
O O14 0.387449 0.005810 0.786618
#
# Coordination Sequence:
#
# PCOD9047591 Si02
#       7
#     2   2   2   2   2   2   2
#     4  11  23  45  66  96 135 175 226 274 325 400
#     4  10  24  44  68  90 128 187 224 270 333 383
#     4  11  24  40  65 100 138 167 227 275 325 412
#     4  11  24  41  64 105 138 175 214 266 350 404
#     4  11  22  40  70  95 135 176 214 272 340 386
#     4  11  23  44  68  96 132 175 224 278 329 389
#     4  11  23  43  66  99 138 171 219 279 327 407
#
# _framework density 23.48968
#
# number of rings (size 3 to 8) (size 9 to 14) (size 15 to 20)
#    0.000    1.143    2.857    3.000    4.000    1.714 
#    0.000    5.714    0.000    0.000    0.000    0.000 
#    0.000    0.000    0.000    0.000    0.000    0.000 
#
# Total GULP energy -78318.957904 kJ/mol
# GULP energy per Si atom -5594.211279 kJ/mol
# Density = 2.343622 g / cm^3
# Si number density = 23.489680 Si / 1000 Ang^3
#
#
#
# Elastic Constant Matrix: (Units=GPa)
#
#
# Indices 1 2 3 4 5 6 
#
# 1 35.9878 19.9768 13.4667 -1.4664 3.3910 2.6193
# 2 19.9768 131.2717 34.8034 17.0348 3.2608 3.1188
# 3 13.4667 34.8034 86.7381 17.4930 -16.4466 -14.7120
# 4 -1.4664 17.0348 17.4930 36.7677 -8.0002 -5.1491
# 5 3.3910 3.2608 -16.4466 -8.0002 50.4408 -0.6823
# 6 2.6193 3.1188 -14.7120 -5.1491 -0.6823 35.7457
#
#
#
# Elastic Compliance Matrix: (Units=1/GPa)
#
#
# Indices 1 2 3 4 5 6 
#
# 1 0.032857 -0.003921 -0.005700 0.004625 -0.003132 -0.003805
# 2 -0.003921 0.009715 -0.003334 -0.003883 -0.002102 -0.002532
# 3 -0.005700 -0.003334 0.016916 -0.004539 0.005491 0.007122
# 4 0.004625 -0.003883 -0.004539 0.032542 0.003661 0.002889
# 5 -0.003132 -0.002102 0.005491 0.003661 0.022592 0.003631
# 6 -0.003805 -0.002532 0.007122 0.002889 0.003631 0.031892
#
#
# Mechanical properties :
#
#
# Convention : Reuss Voigt Hill
#
# Bulk Modulus (GPa) = 29.78140 43.38794 36.58467
# Shear Modulus (GPa) = 27.23080 36.97423 32.10251
#
# Velocity S-wave (km/s) = 3.40849 3.97175 3.70085
# Velocity P-wave (km/s) = 5.31004 6.28842 5.81982
#
# Compressibility (1/GPa) = 0.03357800
#
# Stress axis : x y z
#
# Youngs Moduli (GPa) = 30.43486 102.93749 59.11506
#
# Poissons Ratio (x) = 0.40360 0.33696
# Poissons Ratio (y) = 0.11933 0.19710
# Poissons Ratio (z) = 0.17348 0.34320
#
# Static dielectric constant tensor:
#      x y z
#    x 2.022410 0.013800 0.007130 
#    y 0.013800 1.842590 -0.006560 
#    z 0.007130 -0.006560 1.886720 
# 
# From -- ./inp_files/378896.got.cif
#   From: 2010.05.17/outbox.cif.g08.bks.cpg/sg2_190_cif.got.tgz:378896.got - 2010.06.03 11:33:40.
