data_PCOD9047816
_publ_section_title
;
Structure prediction by ZEFSAII (Michael W. Deem and Ramdas Pophale) SiO2 
 PCOD9047816
Probable space group: P -1
;
_chemical_formula_sum "Si O2"
_cell_formula_units_Z 14
_cell_length_a 9.186662
_cell_length_b 8.920895
_cell_length_c 20.572922
_cell_angle_alpha 46.892022
_cell_angle_beta 144.545376
_cell_angle_gamma 138.770723
_cell_volume 633.432136
_symmetry_space_group_name_H-M "P -1"
_symmetry_group_IT_number 2
_symmetry_cell_setting 'triclinic'
loop_
_space_group_symop_operation_xyz
x,y,z
-x,-y,-z
loop_
_atom_site_type_symbol
_atom_site_label
_atom_site_fract_x
_atom_site_fract_y
_atom_site_fract_z
Si Si1 0.895169 0.194310 0.409964
Si Si2 0.801183 0.372088 0.526670
Si Si3 0.798486 0.866682 0.025170
Si Si4 0.183598 0.605150 0.814395
Si Si5 0.152049 0.448081 0.166925
Si Si6 0.267043 0.791426 0.015501
Si Si7 0.372464 0.092871 0.348246
O O1 0.831378 0.270755 0.293968
O O2 0.620421 0.117925 0.380678
O O3 0.147526 0.423017 0.466600
O O4 0.000000 0.000000 0.500000
O O5 0.505141 0.214549 0.430363
O O6 0.000000 0.500000 0.500000
O O7 0.844408 0.174560 0.638916
O O8 0.476941 0.761892 0.912484
O O9 0.832188 0.646583 0.127747
O O10 0.883955 0.073797 0.045445
O O11 0.000000 0.000000 0.000000
O O12 0.930947 0.562413 0.785783
O O13 0.229753 0.251431 0.230906
O O14 0.878542 0.399423 0.037527
O O15 0.372190 0.690026 0.143943
O O16 0.500000 0.000000 0.000000
#
# Coordination Sequence:
#
# PCOD9047816 Si02
#       7
#     2   2   2   2   2   2   2
#     4  11  27  45  67 101 138 178 228 283 341 401
#     4   9  22  45  66  92 126 177 221 278 328 392
#     4  11  24  45  66  97 136 179 218 273 342 392
#     4  11  26  42  66 101 139 173 224 278 332 407
#     4  11  25  41  66 102 129 174 228 269 335 405
#     4  11  24  42  66  96 136 176 220 273 332 409
#     4  10  24  44  70  94 130 178 228 276 330 406
#
# _framework density 22.101815999999999
#
# number of rings (size 3 to 8) (size 9 to 14) (size 15 to 20)
#    0.000    1.429    2.857    0.000   12.000    2.857 
#    0.000    0.000    0.000    0.000    0.000    0.000 
#    0.000    0.000    0.000    0.000    0.000    0.000 
#
# Total GULP energy -78017.077841 kJ/mol
# GULP energy per Si atom -5572.648417 kJ/mol
# Density = 2.205151 g / cm^3
# Si number density = 22.101816 Si / 1000 Ang^3
#
#
#
# Elastic Constant Matrix: (Units=GPa)
#
#
# Indices 1 2 3 4 5 6 
#
# 1 132.6775 30.4916 63.2594 -25.0540 -10.6472 -8.5244
# 2 30.4916 107.0801 49.7122 -39.6236 -2.6729 -22.9423
# 3 63.2594 49.7122 124.9073 -42.0329 -11.6493 -14.0468
# 4 -25.0540 -39.6236 -42.0329 44.7787 -4.0572 -4.5523
# 5 -10.6472 -2.6729 -11.6493 -4.0572 27.5905 -9.7998
# 6 -8.5244 -22.9423 -14.0468 -4.5523 -9.7998 43.9556
#
#
#
# Elastic Compliance Matrix: (Units=1/GPa)
#
#
# Indices 1 2 3 4 5 6 
#
# 1 0.010246 0.000681 -0.003658 0.003492 0.003838 0.002391
# 2 0.000681 0.021038 0.002759 0.024571 0.013296 0.017504
# 3 -0.003658 0.002759 0.017862 0.019532 0.013331 0.011434
# 4 0.003492 0.024571 0.019532 0.071061 0.034807 0.034864
# 5 0.003838 0.013296 0.013331 0.034807 0.060038 0.028934
# 6 0.002391 0.017504 0.011434 0.034864 0.028934 0.046065
#
#
# Mechanical properties :
#
#
# Convention : Reuss Voigt Hill
#
# Bulk Modulus (GPa) = 20.52936 72.39903 46.46420
# Shear Modulus (GPa) = 20.57757 38.01175 29.29466
#
# Velocity S-wave (km/s) = 3.05460 4.15160 3.64461
# Velocity P-wave (km/s) = 4.66363 7.47056 6.22731
#
# Compressibility (1/GPa) = 0.04871072
#
# Stress axis : x y z
#
# Youngs Moduli (GPa) = 97.60162 47.53201 55.98385
#
# Poissons Ratio (x) = -0.03237 0.20479
# Poissons Ratio (y) = -0.06647 -0.15446
# Poissons Ratio (z) = 0.35702 -0.13114
#
# Static dielectric constant tensor:
#      x y z
#    x 1.819590 0.114600 -0.045340 
#    y 0.114600 1.982720 -0.127330 
#    z -0.045340 -0.127330 2.091010 
# 
# From -- ./inp_files/53160.got.cif
#   From: 2010.05.17/outbox.cif.g08.bks.cpg/sg2_27_cif.got.tgz:53160.got - 2010.06.03 11:33:40.
