data_PCOD9047550
_publ_section_title
;
Structure prediction by ZEFSAII (Michael W. Deem and Ramdas Pophale) SiO2 
 PCOD9047550
Probable space group: P -1
;
_chemical_formula_sum "Si O2"
_cell_formula_units_Z 13
_cell_length_a 9.464751
_cell_length_b 4.953038
_cell_length_c 16.924618
_cell_angle_alpha 107.189205
_cell_angle_beta 37.132806
_cell_angle_gamma 109.424928
_cell_volume 451.048688
_symmetry_space_group_name_H-M "P -1"
_symmetry_group_IT_number 2
_symmetry_cell_setting 'triclinic'
loop_
_space_group_symop_operation_xyz
x,y,z
-x,-y,-z
loop_
_atom_site_type_symbol
_atom_site_label
_atom_site_fract_x
_atom_site_fract_y
_atom_site_fract_z
Si Si1 0.722138 0.156229 0.863444
Si Si2 0.452346 0.325541 0.853440
Si Si3 0.211055 0.517456 0.709939
Si Si4 0.168632 0.808990 0.447239
Si Si5 0.928976 0.282975 0.354769
Si Si6 0.500000 0.000000 0.500000
Si Si7 0.224753 0.732551 0.896081
O O1 0.587002 0.321156 0.874205
O O2 0.931267 0.384688 0.833125
O O3 0.864205 0.893255 0.757566
O O4 0.500000 0.000000 0.000000
O O5 0.603971 0.202816 0.706813
O O6 0.414675 0.626471 0.860864
O O7 0.226815 0.067445 0.939353
O O8 0.036478 0.391005 0.637600
O O9 0.370576 0.277729 0.599257
O O10 0.284547 0.664762 0.773289
O O11 0.255905 0.861146 0.507231
O O12 0.000000 0.500000 0.500000
O O13 0.000000 0.000000 0.500000
O O14 0.738496 0.220731 0.357886
O O15 0.000000 0.500000 0.000000
#
# Coordination Sequence:
#
# PCOD9047550 Si02
#       7
#     2   2   2   2   2   1   2
#     4  11  26  46  75 108 147 198 256 315 375 455
#     4  12  27  49  77 111 154 201 254 317 388 448
#     4  11  26  47  76 107 149 200 256 313 384 456
#     4  12  25  45  70 107 149 187 240 305 381 447
#     4  11  25  43  74 103 144 189 252 303 378 443
#     4  10  24  44  68 102 142 186 246 302 372 444
#     4  12  29  50  77 111 156 204 256 313 385 464
#
# _framework density 28.821722000000001
#
# number of rings (size 3 to 8) (size 9 to 14) (size 15 to 20)
#    0.000    0.615    1.538    4.615   12.923    0.615 
#    0.000    0.000    0.000    0.000    0.000    0.000 
#    0.000    0.000    0.000    0.000    0.000    0.000 
#
# Total GULP energy -72424.226844 kJ/mol
# GULP energy per Si atom -5571.094373 kJ/mol
# Density = 2.875612 g / cm^3
# Si number density = 28.821722 Si / 1000 Ang^3
#
#
#
# Elastic Constant Matrix: (Units=GPa)
#
#
# Indices 1 2 3 4 5 6 
#
# 1 175.7185 83.7043 60.9679 -8.3396 0.7809 -22.5710
# 2 83.7043 205.1781 24.2040 -11.1678 5.7738 -22.0887
# 3 60.9679 24.2040 111.6101 -12.4493 -5.8074 -7.5135
# 4 -8.3396 -11.1678 -12.4493 48.8216 6.4056 -9.2936
# 5 0.7809 5.7738 -5.8074 6.4056 62.4850 -18.0223
# 6 -22.5710 -22.0887 -7.5135 -9.2936 -18.0223 69.8117
#
#
#
# Elastic Compliance Matrix: (Units=1/GPa)
#
#
# Indices 1 2 3 4 5 6 
#
# 1 0.008647 -0.002899 -0.003975 0.000060 0.000221 0.001516
# 2 -0.002899 0.006209 0.000446 0.001300 -0.000291 0.001173
# 3 -0.003975 0.000446 0.011390 0.002318 0.001018 0.000653
# 4 0.000060 0.001300 0.002318 0.022173 -0.001222 0.003317
# 5 0.000221 -0.000291 0.001018 -0.001222 0.017532 0.004452
# 6 0.001516 0.001173 0.000653 0.003317 0.004452 0.016847
#
#
# Mechanical properties :
#
#
# Convention : Reuss Voigt Hill
#
# Bulk Modulus (GPa) = 74.67720 92.25101 83.46411
# Shear Modulus (GPa) = 49.94130 57.79905 53.87017
#
# Velocity S-wave (km/s) = 4.16717 4.48303 4.32798
# Velocity P-wave (km/s) = 7.00857 7.67292 7.34825
#
# Compressibility (1/GPa) = 0.01339097
#
# Stress axis : x y z
#
# Youngs Moduli (GPa) = 115.64124 161.05537 87.79734
#
# Poissons Ratio (x) = 0.46684 0.34898
# Poissons Ratio (y) = 0.33520 -0.03914
# Poissons Ratio (z) = 0.45965 -0.07180
#
# Static dielectric constant tensor:
#      x y z
#    x 5.892220 0.030020 1.551830 
#    y 0.030020 2.120800 -0.190730 
#    z 1.551830 -0.190730 3.555480 
# 
# From -- ./inp_files/553499.got.cif
#   From: 2010.05.17/outbox.cif.g08.bks.cpg/sg2_277_cif.got.tgz:553499.got - 2010.06.03 11:33:40.
