data_PCOD9047020
_publ_section_title
;
Structure prediction by ZEFSAII (Michael W. Deem and Ramdas Pophale) SiO2 
 PCOD9047020
Probable space group: P -1
;
_chemical_formula_sum "Si O2"
_cell_formula_units_Z 16
_cell_length_a 7.927275
_cell_length_b 11.204041
_cell_length_c 17.979907
_cell_angle_alpha 153.165820
_cell_angle_beta 106.117045
_cell_angle_gamma 63.159318
_cell_volume 611.297033
_symmetry_space_group_name_H-M "P -1"
_symmetry_group_IT_number 2
_symmetry_cell_setting 'triclinic'
loop_
_space_group_symop_operation_xyz
x,y,z
-x,-y,-z
loop_
_atom_site_type_symbol
_atom_site_label
_atom_site_fract_x
_atom_site_fract_y
_atom_site_fract_z
Si Si1 0.284218 0.057206 0.479218
Si Si2 0.554325 0.973195 0.660521
Si Si3 0.122593 0.138913 0.660922
Si Si4 0.685382 0.375316 0.395497
Si Si5 0.366976 0.730219 0.044712
Si Si6 0.347494 0.001504 0.043832
Si Si7 0.900123 0.407063 0.570202
Si Si8 0.078047 0.175604 0.976863
O O1 0.340220 0.913737 0.324372
O O2 0.190916 0.996205 0.507612
O O3 0.105587 0.379129 0.611704
O O4 0.500000 0.000000 0.500000
O O5 0.610737 0.626613 0.462283
O O6 0.318925 0.150677 0.721458
O O7 0.623412 0.990376 0.760490
O O8 0.091783 0.904354 0.575638
O O9 0.953539 0.483401 0.834187
O O10 0.500000 0.500000 0.500000
O O11 0.866993 0.385932 0.467606
O O12 0.768908 0.043375 0.188230
O O13 0.139087 0.794113 0.048669
O O14 0.422564 0.739079 0.969354
O O15 0.500000 0.500000 0.000000
O O16 0.268669 0.310393 0.251797
O O17 0.167587 0.025595 0.983620
O O18 0.500000 0.000000 0.000000
#
# Coordination Sequence:
#
# PCOD9047020 Si02
#       8
#     2   2   2   2   2   2   2   2
#     4  10  24  43  70 108 147 196 253 318 376 460
#     4  11  24  47  75 105 155 204 262 315 394 469
#     4  11  24  47  74 116 154 203 263 324 393 469
#     4  12  26  48  76 109 153 207 259 325 392 475
#     4  12  27  52  80 115 160 208 266 332 397 478
#     4  12  29  51  79 118 164 210 262 334 403 472
#     4  12  24  47  79 107 157 205 261 315 393 478
#     4  12  28  49  80 117 158 209 264 334 396 471
#
# _framework density 26.173853000000001
#
# number of rings (size 3 to 8) (size 9 to 14) (size 15 to 20)
#    0.000    0.500    5.000    2.250    1.750    3.500 
#    2.250    0.000    0.000    0.000    0.000    0.000 
#    0.000    0.000    0.000    0.000    0.000    0.000 
#
# Total GULP energy -89259.922590 kJ/mol
# GULP energy per Si atom -5578.745162 kJ/mol
# Density = 2.611428 g / cm^3
# Si number density = 26.173853 Si / 1000 Ang^3
#
#
#
# Elastic Constant Matrix: (Units=GPa)
#
#
# Indices 1 2 3 4 5 6 
#
# 1 125.3579 53.1187 30.1986 5.2092 -26.9185 6.2250
# 2 53.1187 185.6775 62.4092 1.2955 -18.1547 -5.4374
# 3 30.1986 62.4092 113.0270 7.5019 -23.2369 13.8951
# 4 5.2092 1.2955 7.5019 52.7071 -0.8670 8.6224
# 5 -26.9185 -18.1547 -23.2369 -0.8670 22.9713 -12.5422
# 6 6.2250 -5.4374 13.8951 8.6224 -12.5422 44.0464
#
#
#
# Elastic Compliance Matrix: (Units=1/GPa)
#
#
# Indices 1 2 3 4 5 6 
#
# 1 0.011611 -0.002166 0.000750 -0.001305 0.013702 0.002012
# 2 -0.002166 0.007406 -0.003618 0.000131 0.001109 0.002652
# 3 0.000750 -0.003618 0.013051 -0.001438 0.010386 -0.001431
# 4 -0.001305 0.000131 -0.001438 0.019975 -0.004622 -0.004572
# 5 0.013702 0.001109 0.010386 -0.004622 0.081134 0.018932
# 6 0.002012 0.002652 -0.001431 -0.004572 0.018932 0.029483
#
#
# Mechanical properties :
#
#
# Convention : Reuss Voigt Hill
#
# Bulk Modulus (GPa) = 45.45162 79.50171 62.47667
# Shear Modulus (GPa) = 27.76814 42.50067 35.13441
#
# Velocity S-wave (km/s) = 3.26070 4.03399 3.66778
# Velocity P-wave (km/s) = 5.61953 7.22066 6.46982
#
# Compressibility (1/GPa) = 0.02200141
#
# Stress axis : x y z
#
# Youngs Moduli (GPa) = 86.12565 135.01874 76.62121
#
# Poissons Ratio (x) = 0.29245 -0.05747
# Poissons Ratio (y) = 0.18654 0.27719
# Poissons Ratio (z) = -0.06459 0.48844
#
# Static dielectric constant tensor:
#      x y z
#    x 2.203230 -0.056470 -0.087370 
#    y -0.056470 2.079490 0.077140 
#    z -0.087370 0.077140 2.357660 
# 
# From -- ./inp_files/559417.got.cif
#   From: 2010.05.17/outbox.cif.g08.bks.cpg/sg2_280_cif.got.tgz:559417.got - 2010.06.03 11:33:40.
