data_PCOD9047727
_publ_section_title
;
Structure prediction by ZEFSAII (Michael W. Deem and Ramdas Pophale) SiO2 
 PCOD9047727
Probable space group: P -1
;
_chemical_formula_sum "Si O2"
_cell_formula_units_Z 14
_cell_length_a 19.729628
_cell_length_b 7.769097
_cell_length_c 17.051653
_cell_angle_alpha 134.080471
_cell_angle_beta 160.645001
_cell_angle_gamma 43.689139
_cell_volume 597.315078
_symmetry_space_group_name_H-M "P -1"
_symmetry_group_IT_number 2
_symmetry_cell_setting 'triclinic'
loop_
_space_group_symop_operation_xyz
x,y,z
-x,-y,-z
loop_
_atom_site_type_symbol
_atom_site_label
_atom_site_fract_x
_atom_site_fract_y
_atom_site_fract_z
Si Si1 0.332974 0.579679 0.296307
Si Si2 0.187498 0.958987 0.486384
Si Si3 0.127307 0.850260 0.664016
Si Si4 0.907145 0.600596 0.599501
Si Si5 0.802847 0.884339 0.730505
Si Si6 0.672407 0.715043 0.964056
Si Si7 0.837999 0.506143 0.775648
O O1 0.291808 0.455181 0.128693
O O2 0.606339 0.462867 0.551211
O O3 0.338419 0.865679 0.382791
O O4 0.097378 0.549990 0.074497
O O5 0.040462 0.134203 0.445422
O O6 0.161080 0.141198 0.440544
O O7 0.417273 0.816146 0.729229
O O8 0.101111 0.734808 0.290345
O O9 0.208621 0.575685 0.629755
O O10 0.726337 0.978727 0.094904
O O11 0.000000 0.000000 0.500000
O O12 0.837229 0.671984 0.634743
O O13 0.161436 0.449199 0.841405
O O14 0.740954 0.764130 0.703064
O O15 0.000000 0.000000 0.000000
#
# Coordination Sequence:
#
# PCOD9047727 Si02
#       7
#     2   2   2   2   2   2   2
#     4  12  23  43  63 101 139 174 231 284 339 420
#     4  12  24  45  69 101 137 183 236 282 349 419
#     4  10  24  44  70 100 136 181 234 286 347 412
#     4  11  22  44  69 102 138 180 232 289 345 414
#     4  12  22  40  69  96 135 177 221 283 346 405
#     4  11  24  45  70  98 142 182 227 293 345 409
#     4  12  22  38  68  95 133 186 219 282 353 399
#
# _framework density 23.438216000000001
#
# number of rings (size 3 to 8) (size 9 to 14) (size 15 to 20)
#    0.000    0.571    5.714    3.000    0.000    3.429 
#    0.000    4.286    0.000    0.000    0.000    0.000 
#    0.000    0.000    0.000    0.000    0.000    0.000 
#
# Total GULP energy -77943.866092 kJ/mol
# GULP energy per Si atom -5567.419007 kJ/mol
# Density = 2.338487 g / cm^3
# Si number density = 23.438216 Si / 1000 Ang^3
#
#
#
# Elastic Constant Matrix: (Units=GPa)
#
#
# Indices 1 2 3 4 5 6 
#
# 1 103.1512 20.9696 16.4639 26.6473 -2.2522 8.6891
# 2 20.9696 140.8418 36.8204 27.9938 -9.4750 17.3317
# 3 16.4639 36.8204 73.3880 9.2672 -5.9618 -9.4982
# 4 26.6473 27.9938 9.2672 42.7276 1.1390 -11.9697
# 5 -2.2522 -9.4750 -5.9618 1.1390 27.4863 3.9758
# 6 8.6891 17.3317 -9.4982 -11.9697 3.9758 57.8006
#
#
#
# Elastic Compliance Matrix: (Units=1/GPa)
#
#
# Indices 1 2 3 4 5 6 
#
# 1 0.012875 0.001586 -0.002919 -0.009918 0.002116 -0.005090
# 2 0.001586 0.011166 -0.005327 -0.009120 0.004162 -0.006637
# 3 -0.002919 -0.005327 0.017337 0.003061 0.000767 0.005466
# 4 -0.009918 -0.009120 0.003061 0.038788 -0.006813 0.013230
# 5 0.002116 0.004162 0.000767 -0.006813 0.039241 -0.005550
# 6 -0.005090 -0.006637 0.005466 0.013230 -0.005550 0.024076
#
#
# Mechanical properties :
#
#
# Convention : Reuss Voigt Hill
#
# Bulk Modulus (GPa) = 35.63998 51.76542 43.70270
# Shear Modulus (GPa) = 30.09215 41.81137 35.95176
#
# Velocity S-wave (km/s) = 3.58703 4.22820 3.92075
# Velocity P-wave (km/s) = 5.69163 6.78018 6.25961
#
# Compressibility (1/GPa) = 0.02805838
#
# Stress axis : x y z
#
# Youngs Moduli (GPa) = 77.66954 89.55723 57.67970
#
# Poissons Ratio (x) = -0.14205 0.16835
# Poissons Ratio (y) = -0.12320 0.30728
# Poissons Ratio (z) = 0.22669 0.47711
#
# Static dielectric constant tensor:
#      x y z
#    x 1.524810 0.263770 0.260640 
#    y 0.263770 1.724220 -0.173550 
#    z 0.260640 -0.173550 1.936450 
# 
# From -- ./inp_files/577641.got.cif
#   From: 2010.05.17/outbox.cif.g08.bks.cpg/sg2_289_cif.got.tgz:577641.got - 2010.06.03 11:33:40.
