data_PCOD9047963
_publ_section_title
;
Structure prediction by ZEFSAII (Michael W. Deem and Ramdas Pophale) SiO2 
 PCOD9047963
Probable space group: P -1
;
_chemical_formula_sum "Si O2"
_cell_formula_units_Z 16
_cell_length_a 9.553360
_cell_length_b 13.424716
_cell_length_c 15.436162
_cell_angle_alpha 26.733025
_cell_angle_beta 115.014953
_cell_angle_gamma 128.238141
_cell_volume 650.463690
_symmetry_space_group_name_H-M "P -1"
_symmetry_group_IT_number 2
_symmetry_cell_setting 'triclinic'
loop_
_space_group_symop_operation_xyz
x,y,z
-x,-y,-z
loop_
_atom_site_type_symbol
_atom_site_label
_atom_site_fract_x
_atom_site_fract_y
_atom_site_fract_z
Si Si1 0.839042 0.514825 0.104167
Si Si2 0.770310 0.285017 0.439072
Si Si3 0.081114 0.832430 0.184646
Si Si4 0.603540 0.022429 0.320492
Si Si5 0.573443 0.849788 0.082914
Si Si6 0.744137 0.749192 0.497420
Si Si7 0.887941 0.851574 0.277078
Si Si8 0.875972 0.083590 0.484279
O O1 0.712500 0.380783 0.263434
O O2 0.710187 0.344271 0.119388
O O3 0.970763 0.404727 0.234674
O O4 0.964379 0.835501 0.894757
O O5 0.795588 0.066644 0.572268
O O6 0.964039 0.559178 0.309295
O O7 0.615905 0.154734 0.574863
O O8 0.005628 0.779532 0.304401
O O9 0.304580 0.998999 0.090243
O O10 0.000000 0.000000 0.000000
O O11 0.699521 0.941890 0.482563
O O12 0.656054 0.920978 0.330429
O O13 0.397494 0.533362 0.269963
O O14 0.726376 0.840091 0.187771
O O15 0.500000 0.000000 0.000000
O O16 0.781498 0.672469 0.473077
O O17 0.955820 0.947288 0.441040
#
# Coordination Sequence:
#
# PCOD9047963 Si02
#       8
#     2   2   2   2   2   2   2   2
#     4   8  17  33  57  74 108 142 192 209 272 323
#     4   9  15  33  59  79  98 139 200 225 252 326
#     4  10  17  34  58  80 106 148 185 217 270 339
#     4   9  19  32  60  84 103 148 194 226 264 331
#     4  11  22  39  59  81 111 151 189 222 271 339
#     4  12  22  34  56  87 118 137 181 243 280 313
#     4  11  22  36  54  86 116 145 179 233 284 321
#     4   8  18  35  53  82 105 149 183 222 270 333
#
# _framework density 24.597836000000001
#
# number of rings (size 3 to 8) (size 9 to 14) (size 15 to 20)
#    1.500    0.500    2.500    5.250    0.000    0.500 
#    0.000    3.750    0.000    3.000    0.000    0.000 
#    0.000    0.000    0.000    0.000    0.000    0.000 
#
# Total GULP energy -89170.149838 kJ/mol
# GULP energy per Si atom -5573.134365 kJ/mol
# Density = 2.454185 g / cm^3
# Si number density = 24.597836 Si / 1000 Ang^3
#
#
#
# Elastic Constant Matrix: (Units=GPa)
#
#
# Indices 1 2 3 4 5 6 
#
# 1 113.6422 10.9173 23.9168 -0.2598 -28.9671 -8.4023
# 2 10.9173 41.2627 29.7445 -6.0760 -7.0888 -14.8944
# 3 23.9168 29.7445 14.4548 -12.3297 -14.7928 4.0538
# 4 -0.2598 -6.0760 -12.3297 31.5316 -0.5898 4.5256
# 5 -28.9671 -7.0888 -14.7928 -0.5898 39.7229 1.8029
# 6 -8.4023 -14.8944 4.0538 4.5256 1.8029 36.9641
#
#
#
# Elastic Compliance Matrix: (Units=1/GPa)
#
#
# Indices 1 2 3 4 5 6 
#
# 1 0.010195 -0.005947 0.006256 0.001751 0.008793 -0.001408
# 2 -0.005947 -0.000846 0.038584 0.016282 0.010505 -0.008430
# 3 0.006256 0.038584 -0.048530 -0.015161 -0.007963 0.024536
# 4 0.001751 0.016282 -0.015161 0.028162 -0.001283 0.005236
# 5 0.008793 0.010505 -0.007963 -0.001283 0.030214 0.005789
# 6 -0.001408 -0.008430 0.024536 0.005236 0.005789 0.019722
#
#
# Mechanical properties :
#
#
# Convention : Reuss Voigt Hill
#
# Bulk Modulus (GPa) = 25.90271 33.16855 29.53563
# Shear Modulus (GPa) = -192.31177 28.62912 -81.84132
#
# Velocity S-wave (km/s) = -8.85167 3.41528 -5.77443
# Velocity P-wave (km/s) = 9.69103 5.39127 5.69431
#
# Compressibility (1/GPa) = 0.03860600
#
# Stress axis : x y z
#
# Youngs Moduli (GPa) = 98.08286 -1182.29962 -20.60579
#
# Poissons Ratio (x) = -7.03156 0.12892
# Poissons Ratio (y) = 0.58333 0.79506
# Poissons Ratio (z) = -0.61365 45.61802
#
# Static dielectric constant tensor:
#      x y z
#    x 2.035280 -0.082840 -0.013340 
#    y -0.082840 2.071320 0.080740 
#    z -0.013340 0.080740 1.936750 
# 
# From -- ./inp_files/561126.got.cif
#   From: 2010.05.17/outbox.cif.g08.bks.cpg/sg2_281_cif.got.tgz:561126.got - 2010.06.03 11:33:40.
