data_PCOD9047471
_publ_section_title
;
Structure prediction by ZEFSAII (Michael W. Deem and Ramdas Pophale) SiO2 
 PCOD9047471
Probable space group: P -1
;
_chemical_formula_sum "Si O2"
_cell_formula_units_Z 14
_cell_length_a 11.376916
_cell_length_b 24.884171
_cell_length_c 14.254117
_cell_angle_alpha 20.464018
_cell_angle_beta 42.185008
_cell_angle_gamma 32.943147
_cell_volume 745.167987
_symmetry_space_group_name_H-M "P -1"
_symmetry_group_IT_number 2
_symmetry_cell_setting 'triclinic'
loop_
_space_group_symop_operation_xyz
x,y,z
-x,-y,-z
loop_
_atom_site_type_symbol
_atom_site_label
_atom_site_fract_x
_atom_site_fract_y
_atom_site_fract_z
Si Si1 0.190811 0.322045 0.984247
Si Si2 0.038841 0.054698 0.739221
Si Si3 0.639327 0.268385 0.295141
Si Si4 0.930232 0.973879 0.445513
Si Si5 0.288984 0.219799 0.295690
Si Si6 0.267754 0.272899 0.430838
Si Si7 0.323641 0.882373 0.030230
O O1 0.162121 0.151264 0.280537
O O2 0.226375 0.346637 0.032718
O O3 0.411597 0.256715 0.907404
O O4 0.967596 0.518106 0.756992
O O5 0.083683 0.973188 0.741344
O O6 0.090403 0.207628 0.452167
O O7 0.794921 0.151458 0.764307
O O8 0.211677 0.897024 0.972706
O O9 0.456171 0.234347 0.450862
O O10 0.812865 0.166775 0.443827
O O11 0.794553 0.160588 0.288004
O O12 0.500000 0.500000 0.000000
O O13 0.334501 0.272662 0.282336
O O14 0.500000 0.000000 0.500000
O O15 0.252868 0.098255 0.733585
#
# Coordination Sequence:
#
# PCOD9047471 Si02
#       7
#     2   2   2   2   2   2   2
#     4  11  19  33  58  84 108 143 181 227 279 331
#     4   9  19  37  59  81 113 150 174 222 282 332
#     4  11  21  36  57  85 109 143 190 238 269 312
#     4  10  21  37  59  83 109 143 189 231 275 316
#     4  10  17  34  57  83 110 141 180 228 281 324
#     4  11  20  33  56  82 111 145 184 227 275 324
#     4  10  20  37  57  81 119 145 175 220 281 339
#
# _framework density 18.787710000000001
#
# number of rings (size 3 to 8) (size 9 to 14) (size 15 to 20)
#    0.000    1.714    5.714    1.286    0.000    0.000 
#    0.000    8.571    0.000    1.714    0.000    0.000 
#    0.000    0.000    0.000    0.000    0.000    0.000 
#
# Total GULP energy -78091.736832 kJ/mol
# GULP energy per Si atom -5577.981202 kJ/mol
# Density = 1.874495 g / cm^3
# Si number density = 18.787710 Si / 1000 Ang^3
#
#
#
# Elastic Constant Matrix: (Units=GPa)
#
#
# Indices 1 2 3 4 5 6 
#
# 1 83.4751 28.0506 12.5994 -2.1278 -1.3619 -11.0841
# 2 28.0506 127.8938 43.1330 -1.6633 -1.1492 -19.5690
# 3 12.5994 43.1330 38.2527 -13.0086 -2.2491 -2.4096
# 4 -2.1278 -1.6633 -13.0086 34.1572 -3.0394 -1.5361
# 5 -1.3619 -1.1492 -2.2491 -3.0394 15.0685 -4.1158
# 6 -11.0841 -19.5690 -2.4096 -1.5361 -4.1158 33.4028
#
#
#
# Elastic Compliance Matrix: (Units=1/GPa)
#
#
# Indices 1 2 3 4 5 6 
#
# 1 0.013362 -0.001655 -0.002117 0.000264 0.001787 0.003544
# 2 -0.001655 0.015369 -0.018549 -0.006223 -0.001175 0.006686
# 3 -0.002117 -0.018549 0.054899 0.020442 0.009200 -0.005536
# 4 0.000264 -0.006223 0.020442 0.037749 0.010472 0.000943
# 5 0.001787 -0.001175 0.009200 0.010472 0.072653 0.010002
# 6 0.003544 0.006686 -0.005536 0.000943 0.010002 0.035907
#
#
# Mechanical properties :
#
#
# Convention : Reuss Voigt Hill
#
# Bulk Modulus (GPa) = 25.64893 46.35419 36.00156
# Shear Modulus (GPa) = 17.38663 27.58161 22.48412
#
# Velocity S-wave (km/s) = 3.04538 3.83569 3.46315
# Velocity P-wave (km/s) = 5.10367 6.65905 5.93255
#
# Compressibility (1/GPa) = 0.03898798
#
# Stress axis : x y z
#
# Youngs Moduli (GPa) = 74.84088 65.06475 18.21527
#
# Poissons Ratio (x) = 0.10768 0.03856
# Poissons Ratio (y) = 0.12386 0.33788
# Poissons Ratio (z) = 0.15843 1.20690
#
# Static dielectric constant tensor:
#      x y z
#    x 1.706840 -0.003400 -0.003510 
#    y -0.003400 1.675630 -0.016450 
#    z -0.003510 -0.016450 1.646800 
# 
# From -- ./inp_files/457473.got.cif
#   From: 2010.05.17/outbox.cif.g08.bks.cpg/sg2_229_cif.got.tgz:457473.got - 2010.06.03 11:33:40.
