data_PCOD9047105
_publ_section_title
;
Structure prediction by ZEFSAII (Michael W. Deem and Ramdas Pophale) SiO2 
 PCOD9047105
Probable space group: P -1
;
_chemical_formula_sum "Si O2"
_cell_formula_units_Z 12
_cell_length_a 7.277708
_cell_length_b 6.977244
_cell_length_c 13.275688
_cell_angle_alpha 104.466737
_cell_angle_beta 121.417269
_cell_angle_gamma 105.194621
_cell_volume 490.261998
_symmetry_space_group_name_H-M "P -1"
_symmetry_group_IT_number 2
_symmetry_cell_setting 'triclinic'
loop_
_space_group_symop_operation_xyz
x,y,z
-x,-y,-z
loop_
_atom_site_type_symbol
_atom_site_label
_atom_site_fract_x
_atom_site_fract_y
_atom_site_fract_z
Si Si1 0.776585 0.713191 0.678732
Si Si2 0.231337 0.853215 0.954579
Si Si3 0.515333 0.781718 0.438750
Si Si4 0.523398 0.190959 0.233877
Si Si5 0.293794 0.471599 0.858348
Si Si6 0.795688 0.935044 0.347910
O O1 0.738142 0.777879 0.564517
O O2 0.715526 0.453361 0.627855
O O3 0.561924 0.724802 0.683099
O O4 0.024954 0.862901 0.829023
O O5 0.163504 0.592244 0.897558
O O6 0.500000 0.000000 0.000000
O O7 0.286657 0.969393 0.093879
O O8 0.555846 0.791727 0.332003
O O9 0.500000 0.000000 0.500000
O O10 0.609353 0.377989 0.195789
O O11 0.735631 0.125154 0.310744
O O12 0.176353 0.221162 0.748958
O O13 0.500000 0.500000 0.000000
O O14 0.000000 0.000000 0.500000
#
# Coordination Sequence:
#
# PCOD9047105 Si02
#       6
#     2   2   2   2   2   2
#     4  11  24  45  71 100 141 180 231 290 344 417
#     4  10  24  43  71  99 138 182 229 289 349 407
#     4  11  25  45  67 102 139 184 231 278 352 415
#     4  11  23  46  67 102 138 180 233 285 349 411
#     4  11  24  45  67  97 141 179 233 284 347 414
#     4  12  27  42  71 105 140 183 232 287 344 418
#
# _framework density 24.476707999999999
#
# number of rings (size 3 to 8) (size 9 to 14) (size 15 to 20)
#    0.000    1.000    5.000    0.500    7.000    0.667 
#    0.000    1.667    0.000    0.000    0.000    0.000 
#    0.000    0.000    0.000    0.000    0.000    0.000 
#
# Total GULP energy -67071.541383 kJ/mol
# GULP energy per Si atom -5589.295115 kJ/mol
# Density = 2.442100 g / cm^3
# Si number density = 24.476708 Si / 1000 Ang^3
#
#
#
# Elastic Constant Matrix: (Units=GPa)
#
#
# Indices 1 2 3 4 5 6 
#
# 1 27.1715 29.7442 11.7637 3.7083 -3.2654 -7.6390
# 2 29.7442 148.7245 52.8812 -11.0767 -2.0199 -18.8659
# 3 11.7637 52.8812 163.9567 -4.3678 19.2866 -12.9532
# 4 3.7083 -11.0767 -4.3678 58.5058 -13.9287 -12.0275
# 5 -3.2654 -2.0199 19.2866 -13.9287 51.0586 -4.8800
# 6 -7.6390 -18.8659 -12.9532 -12.0275 -4.8800 33.7430
#
#
#
# Elastic Compliance Matrix: (Units=1/GPa)
#
#
# Indices 1 2 3 4 5 6 
#
# 1 0.049322 -0.009243 -0.000554 -0.003277 0.002581 0.004990
# 2 -0.009243 0.010323 -0.002478 0.003784 0.002205 0.004396
# 3 -0.000554 -0.002478 0.007331 -0.000442 -0.002954 0.000718
# 4 -0.003277 0.003784 -0.000442 0.021688 0.006974 0.009943
# 5 0.002581 0.002205 -0.002954 0.006974 0.023484 0.006565
# 6 0.004990 0.004396 0.000718 0.009943 0.006565 0.037993
#
#
# Mechanical properties :
#
#
# Convention : Reuss Voigt Hill
#
# Bulk Modulus (GPa) = 23.57077 58.73676 41.15376
# Shear Modulus (GPa) = 26.47876 45.02572 35.75224
#
# Velocity S-wave (km/s) = 3.29263 4.29363 3.82601
# Velocity P-wave (km/s) = 4.90979 6.97348 6.03057
#
# Compressibility (1/GPa) = 0.04242542
#
# Stress axis : x y z
#
# Youngs Moduli (GPa) = 20.27497 96.87372 136.41540
#
# Poissons Ratio (x) = 0.89541 0.07561
# Poissons Ratio (y) = 0.18740 0.33798
# Poissons Ratio (z) = 0.01124 0.24001
#
# Static dielectric constant tensor:
#      x y z
#    x 2.062520 0.053800 0.000100 
#    y 0.053800 1.999430 0.030930 
#    z 0.000100 0.030930 1.965950 
# 
# From -- ./inp_files/59523.got.cif
#   From: 2010.05.17/outbox.cif.g08.bks.cpg/sg2_30_cif.got.tgz:59523.got - 2010.06.03 11:33:40.
