data_PCOD9047068
_publ_section_title
;
Structure prediction by ZEFSAII (Michael W. Deem and Ramdas Pophale) SiO2 
 PCOD9047068
Probable space group: P -1
;
_chemical_formula_sum "Si O2"
_cell_formula_units_Z 14
_cell_length_a 7.594236
_cell_length_b 7.623350
_cell_length_c 16.912457
_cell_angle_alpha 112.621802
_cell_angle_beta 145.096229
_cell_angle_gamma 78.685917
_cell_volume 503.792460
_symmetry_space_group_name_H-M "P -1"
_symmetry_group_IT_number 2
_symmetry_cell_setting 'triclinic'
loop_
_space_group_symop_operation_xyz
x,y,z
-x,-y,-z
loop_
_atom_site_type_symbol
_atom_site_label
_atom_site_fract_x
_atom_site_fract_y
_atom_site_fract_z
Si Si1 0.791848 0.589395 0.067216
Si Si2 0.764320 0.908735 0.710244
Si Si3 0.888749 0.183264 0.026160
Si Si4 0.303023 0.573874 0.760519
Si Si5 0.807677 0.056324 0.279180
Si Si6 0.625372 0.772162 0.382500
Si Si7 0.260465 0.626844 0.373043
O O1 0.022962 0.701051 0.239178
O O2 0.500000 0.500000 0.000000
O O3 0.943567 0.410862 0.061472
O O4 0.619075 0.666651 0.944386
O O5 0.463143 0.761903 0.536650
O O6 0.023216 0.942664 0.742589
O O7 0.631599 0.101778 0.716092
O O8 0.924190 0.813497 0.822280
O O9 0.510170 0.108372 0.869117
O O10 0.000000 0.000000 0.000000
O O11 0.285072 0.733558 0.716033
O O12 0.327107 0.371231 0.694248
O O13 0.990647 0.525633 0.692671
O O14 0.063128 0.071838 0.445573
O O15 0.522438 0.636017 0.400343
#
# Coordination Sequence:
#
# PCOD9047068 Si02
#       7
#     2   2   2   2   2   2   2
#     4  10  24  43  71 104 138 189 234 289 350 420
#     4  11  25  46  72 104 140 193 228 297 351 418
#     4  12  28  45  71 108 142 184 236 290 357 422
#     4  11  25  45  74 105 141 191 229 300 349 413
#     4  11  26  47  70 104 147 181 240 286 356 424
#     4  11  26  44  75 107 142 186 238 293 350 421
#     4  10  24  43  71  97 146 176 245 271 361 403
#
# _framework density 27.78922
#
# number of rings (size 3 to 8) (size 9 to 14) (size 15 to 20)
#    0.000    1.143    0.000    5.143   14.000    6.286 
#    0.000    0.000    0.000    0.000    0.000    0.000 
#    0.000    0.000    0.000    0.000    0.000    0.000 
#
# Total GULP energy -78209.193460 kJ/mol
# GULP energy per Si atom -5586.370961 kJ/mol
# Density = 2.772597 g / cm^3
# Si number density = 27.789220 Si / 1000 Ang^3
#
#
#
# Elastic Constant Matrix: (Units=GPa)
#
#
# Indices 1 2 3 4 5 6 
#
# 1 79.1900 31.0587 37.3664 7.4913 -6.6879 -15.4962
# 2 31.0587 77.4893 -18.5165 -8.8423 3.7596 -7.6456
# 3 37.3664 -18.5165 141.5858 -10.1723 10.3092 9.2116
# 4 7.4913 -8.8423 -10.1723 42.0224 -0.8296 -3.6991
# 5 -6.6879 3.7596 10.3092 -0.8296 35.9610 7.1210
# 6 -15.4962 -7.6456 9.2116 -3.6991 7.1210 45.9814
#
#
#
# Elastic Compliance Matrix: (Units=1/GPa)
#
#
# Indices 1 2 3 4 5 6 
#
# 1 0.025338 -0.013314 -0.010043 -0.009034 0.007498 0.006449
# 2 -0.013314 0.021215 0.007416 0.008438 -0.006474 -0.000764
# 3 -0.010043 0.007416 0.011689 0.005794 -0.005223 -0.003218
# 4 -0.009034 0.008438 0.005794 0.028519 -0.003574 0.000046
# 5 0.007498 -0.006474 -0.005223 -0.003574 0.031833 -0.002721
# 6 0.006449 -0.000764 -0.003218 0.000046 -0.002721 0.024864
#
#
# Mechanical properties :
#
#
# Convention : Reuss Voigt Hill
#
# Bulk Modulus (GPa) = 37.93697 44.23137 41.08417
# Shear Modulus (GPa) = 27.15506 41.35005 34.25256
#
# Velocity S-wave (km/s) = 3.12938 3.86163 3.51463
# Velocity P-wave (km/s) = 5.17095 5.98617 5.59343
#
# Compressibility (1/GPa) = 0.02635951
#
# Stress axis : x y z
#
# Youngs Moduli (GPa) = 39.46575 47.13646 85.55007
#
# Poissons Ratio (x) = 0.62758 0.85917
# Poissons Ratio (y) = 0.52545 -0.63440
# Poissons Ratio (z) = 0.39635 -0.34954
#
# Static dielectric constant tensor:
#      x y z
#    x 2.263070 -0.001760 0.116840 
#    y -0.001760 2.247910 0.104360 
#    z 0.116840 0.104360 2.266500 
# 
# From -- ./inp_files/190154.got.cif
#   From: 2010.05.17/outbox.cif.g08.bks.cpg/sg2_96_cif.got.tgz:190154.got - 2010.06.03 11:33:40.
