data_PCOD9047940
_publ_section_title
;
Structure prediction by ZEFSAII (Michael W. Deem and Ramdas Pophale) SiO2 
 PCOD9047940
Probable space group: P -1
;
_chemical_formula_sum "Si O2"
_cell_formula_units_Z 16
_cell_length_a 11.363612
_cell_length_b 11.580478
_cell_length_c 12.017781
_cell_angle_alpha 148.642179
_cell_angle_beta 122.039046
_cell_angle_gamma 71.616329
_cell_volume 662.803459
_symmetry_space_group_name_H-M "P -1"
_symmetry_group_IT_number 2
_symmetry_cell_setting 'triclinic'
loop_
_space_group_symop_operation_xyz
x,y,z
-x,-y,-z
loop_
_atom_site_type_symbol
_atom_site_label
_atom_site_fract_x
_atom_site_fract_y
_atom_site_fract_z
Si Si1 0.915883 0.717136 0.333369
Si Si2 0.784371 0.412350 0.348713
Si Si3 0.989149 0.150084 0.284734
Si Si4 0.540224 0.187298 0.516178
Si Si5 0.227817 0.312381 0.982734
Si Si6 0.932249 0.646415 0.839292
Si Si7 0.612169 0.746257 0.297709
Si Si8 0.478161 0.076653 0.927076
O O1 0.030772 0.866888 0.605012
O O2 0.766797 0.738015 0.326299
O O3 0.947689 0.471883 0.160471
O O4 0.903061 0.764061 0.235688
O O5 0.878095 0.617799 0.485421
O O6 0.832188 0.511481 0.577487
O O7 0.613580 0.308327 0.159517
O O8 0.850247 0.196859 0.197310
O O9 0.009228 0.911602 0.059853
O O10 0.669829 0.429843 0.792716
O O11 0.409146 0.213213 0.548702
O O12 0.580469 0.965462 0.402896
O O13 0.514065 0.121842 0.319725
O O14 0.170724 0.351237 0.106727
O O15 0.330663 0.146375 0.898128
O O16 0.500000 0.500000 0.000000
O O17 0.500000 0.000000 0.000000
#
# Coordination Sequence:
#
# PCOD9047940 Si02
#       8
#     2   2   2   2   2   2   2   2
#     4  11  25  44  68 104 142 177 236 292 342 425
#     4  10  24  47  67 102 140 176 249 290 336 418
#     4  10  24  44  71  99 134 190 232 293 349 407
#     4  11  25  42  74 102 140 190 219 295 363 406
#     4  12  26  46  68 107 144 180 239 284 352 433
#     4  11  25  46  72  99 142 194 232 284 353 416
#     4  11  23  46  68 103 146 176 236 291 347 425
#     4  12  26  46  72 104 143 188 234 293 350 425
#
# _framework density 24.139885
#
# number of rings (size 3 to 8) (size 9 to 14) (size 15 to 20)
#    0.000    1.000    2.500    2.250    5.250    4.500 
#    4.500    0.000    0.000    0.000    0.000    0.000 
#    0.000    0.000    0.000    0.000    0.000    0.000 
#
# Total GULP energy -89555.781697 kJ/mol
# GULP energy per Si atom -5597.236356 kJ/mol
# Density = 2.408494 g / cm^3
# Si number density = 24.139885 Si / 1000 Ang^3
#
#
#
# Elastic Constant Matrix: (Units=GPa)
#
#
# Indices 1 2 3 4 5 6 
#
# 1 93.5891 26.1237 15.3662 -1.6971 -24.3667 8.5547
# 2 26.1237 89.3201 32.1612 -2.8882 -16.9487 -4.0948
# 3 15.3662 32.1612 91.9759 -2.1247 -17.7236 2.9109
# 4 -1.6971 -2.8882 -2.1247 41.4834 9.4709 -13.9013
# 5 -24.3667 -16.9487 -17.7236 9.4709 50.7172 -5.7066
# 6 8.5547 -4.0948 2.9109 -13.9013 -5.7066 39.6736
#
#
#
# Elastic Compliance Matrix: (Units=1/GPa)
#
#
# Indices 1 2 3 4 5 6 
#
# 1 0.013165 -0.003021 -0.000068 -0.001909 0.005305 -0.003051
# 2 -0.003021 0.014118 -0.004128 0.001253 0.001942 0.003130
# 3 -0.000068 -0.004128 0.012948 -0.000730 0.003117 -0.001169
# 4 -0.001909 0.001253 -0.000730 0.028521 -0.004968 0.009873
# 5 0.005305 0.001942 0.003117 -0.004968 0.025009 0.000684
# 6 -0.003051 0.003130 -0.001169 0.009873 0.000684 0.029830
#
#
# Mechanical properties :
#
#
# Convention : Reuss Voigt Hill
#
# Bulk Modulus (GPa) = 38.76442 46.90973 42.83708
# Shear Modulus (GPa) = 34.10082 39.79045 36.94564
#
# Velocity S-wave (km/s) = 3.76258 4.06437 3.91638
# Velocity P-wave (km/s) = 5.91347 6.44205 6.18341
#
# Compressibility (1/GPa) = 0.02579685
#
# Stress axis : x y z
#
# Youngs Moduli (GPa) = 75.95994 70.83142 77.23169
#
# Poissons Ratio (x) = 0.21396 0.00529
# Poissons Ratio (y) = 0.22945 0.31880
# Poissons Ratio (z) = 0.00520 0.29238
#
# Static dielectric constant tensor:
#      x y z
#    x 1.904670 0.043950 0.013200 
#    y 0.043950 1.976480 0.007310 
#    z 0.013200 0.007310 1.925100 
# 
# From -- ./inp_files/429293.got.cif
#   From: 2010.05.17/outbox.cif.g08.bks.cpg/sg2_215_cif.got.tgz:429293.got - 2010.06.03 11:33:40.
