data_PCOD9047761
_publ_section_title
;
Structure prediction by ZEFSAII (Michael W. Deem and Ramdas Pophale) SiO2 
 PCOD9047761
Probable space group: P -1
;
_chemical_formula_sum "Si O2"
_cell_formula_units_Z 13
_cell_length_a 11.054352
_cell_length_b 18.683924
_cell_length_c 7.101311
_cell_angle_alpha 103.725931
_cell_angle_beta 100.195110
_cell_angle_gamma 21.439828
_cell_volume 516.813967
_symmetry_space_group_name_H-M "P -1"
_symmetry_group_IT_number 2
_symmetry_cell_setting 'triclinic'
loop_
_space_group_symop_operation_xyz
x,y,z
-x,-y,-z
loop_
_atom_site_type_symbol
_atom_site_label
_atom_site_fract_x
_atom_site_fract_y
_atom_site_fract_z
Si Si1 0.145188 0.859650 0.252999
Si Si2 0.200306 0.507760 0.559279
Si Si3 0.500000 0.500000 0.500000
Si Si4 0.719613 0.337674 0.137450
Si Si5 0.856007 0.764510 0.950450
Si Si6 0.118710 0.369135 0.813782
Si Si7 0.125442 0.031985 0.367768
O O1 0.488682 0.689271 0.348770
O O2 0.003618 0.018704 0.258217
O O3 0.229576 0.761204 0.038569
O O4 0.918935 0.947677 0.406660
O O5 0.309242 0.525702 0.519051
O O6 0.898020 0.687393 0.733828
O O7 0.100346 0.512643 0.361262
O O8 0.387315 0.552370 0.274036
O O9 0.890925 0.310575 0.069630
O O10 0.883499 0.228348 0.326192
O O11 0.916318 0.684627 0.104200
O O12 0.500000 0.000000 0.000000
O O13 0.506081 0.159499 0.727965
O O14 0.000000 0.500000 0.000000
#
# Coordination Sequence:
#
# PCOD9047761 Si02
#       7
#     2   2   1   2   2   2   2
#     4  11  26  45  77 104 143 192 240 304 358 427
#     4  11  27  46  71 110 144 186 246 291 364 429
#     4  10  24  44  70 102 144 186 232 304 344 426
#     4  11  24  46  73 105 146 184 248 294 363 420
#     4  11  26  46  71 111 142 195 234 298 367 429
#     4  12  29  48  76 104 152 192 237 301 361 434
#     4  11  25  46  70 109 139 193 241 303 352 432
#
# _framework density 25.154122000000001
#
# number of rings (size 3 to 8) (size 9 to 14) (size 15 to 20)
#    0.000    0.923    3.077    1.385    8.615    6.769 
#    0.000    0.000    0.000    0.000    0.000    0.000 
#    0.000    0.000    0.000    0.000    0.000    0.000 
#
# Total GULP energy -72605.319119 kJ/mol
# GULP energy per Si atom -5585.024548 kJ/mol
# Density = 2.509687 g / cm^3
# Si number density = 25.154122 Si / 1000 Ang^3
#
#
#
# Elastic Constant Matrix: (Units=GPa)
#
#
# Indices 1 2 3 4 5 6 
#
# 1 119.5267 18.8482 61.2765 -2.3764 -14.1177 20.6660
# 2 18.8482 75.8952 45.1894 16.5025 -7.9703 8.3421
# 3 61.2765 45.1894 216.5651 19.7251 13.2464 -8.3788
# 4 -2.3764 16.5025 19.7251 42.9856 4.5100 -8.9162
# 5 -14.1177 -7.9703 13.2464 4.5100 56.0525 8.1432
# 6 20.6660 8.3421 -8.3788 -8.9162 8.1432 37.2622
#
#
#
# Elastic Compliance Matrix: (Units=1/GPa)
#
#
# Indices 1 2 3 4 5 6 
#
# 1 0.012981 0.001374 -0.004682 -0.000364 0.006049 -0.009969
# 2 0.001374 0.018669 -0.004304 -0.007613 0.005942 -0.009030
# 3 -0.004682 -0.004304 0.007370 -0.000258 -0.004401 0.006118
# 4 -0.000364 -0.007613 -0.000258 0.028828 -0.004858 0.009808
# 5 0.006049 0.005942 -0.004401 -0.004858 0.023375 -0.011945
# 6 -0.009969 -0.009030 0.006118 0.009808 -0.011945 0.040720
#
#
# Mechanical properties :
#
#
# Convention : Reuss Voigt Hill
#
# Bulk Modulus (GPa) = 42.02359 73.62390 57.82375
# Shear Modulus (GPa) = 32.23744 46.37158 39.30451
#
# Velocity S-wave (km/s) = 3.58382 4.29826 3.95720
# Velocity P-wave (km/s) = 5.81960 7.34616 6.62698
#
# Compressibility (1/GPa) = 0.02379616
#
# Stress axis : x y z
#
# Youngs Moduli (GPa) = 77.03696 53.56397 135.68963
#
# Poissons Ratio (x) = -0.07361 0.63532
# Poissons Ratio (y) = -0.10586 0.58399
# Poissons Ratio (z) = 0.36070 0.23053
#
# Static dielectric constant tensor:
#      x y z
#    x 3.623750 1.343100 1.813240 
#    y 1.343100 3.419640 1.644100 
#    z 1.813240 1.644100 4.145910 
# 
# From -- ./inp_files/83293.got.cif
#   From: 2010.05.17/outbox.cif.g08.bks.cpg/sg2_42_cif.got.tgz:83293.got - 2010.06.03 11:33:40.
