data_PCOD9047393
_publ_section_title
;
Structure prediction by ZEFSAII (Michael W. Deem and Ramdas Pophale) SiO2 
 PCOD9047393
Probable space group: P -1
;
_chemical_formula_sum "Si O2"
_cell_formula_units_Z 15
_cell_length_a 8.355245
_cell_length_b 17.310169
_cell_length_c 5.567198
_cell_angle_alpha 78.806708
_cell_angle_beta 119.305003
_cell_angle_gamma 119.757063
_cell_volume 608.290277
_symmetry_space_group_name_H-M "P -1"
_symmetry_group_IT_number 2
_symmetry_cell_setting 'triclinic'
loop_
_space_group_symop_operation_xyz
x,y,z
-x,-y,-z
loop_
_atom_site_type_symbol
_atom_site_label
_atom_site_fract_x
_atom_site_fract_y
_atom_site_fract_z
Si Si1 0.284217 0.206954 0.124593
Si Si2 0.919177 0.712814 0.426736
Si Si3 0.224653 0.608034 0.043327
Si Si4 0.173987 0.445971 0.907016
Si Si5 0.444984 0.383599 0.393873
Si Si6 0.500000 0.000000 0.000000
Si Si7 0.383416 0.805288 0.912055
Si Si8 0.038377 0.961077 0.799406
O O1 0.432927 0.304931 0.267745
O O2 0.432775 0.168460 0.161368
O O3 0.129873 0.142641 0.249278
O O4 0.144567 0.223652 0.814337
O O5 0.743463 0.666325 0.526438
O O6 0.153652 0.771698 0.654547
O O7 0.906456 0.629835 0.309936
O O8 0.204338 0.546026 0.835951
O O9 0.338846 0.574637 0.338019
O O10 0.363881 0.714012 0.063896
O O11 0.005765 0.590889 0.998668
O O12 0.383595 0.447092 0.157952
O O13 0.445812 0.892994 0.059089
O O14 0.270390 0.975776 0.949792
O O15 0.000000 0.000000 0.500000
O O16 0.000000 0.000000 0.000000
#
# Coordination Sequence:
#
# PCOD9047393 Si02
#       8
#     2   2   2   2   2   1   2   2
#     4  11  26  47  72 104 147 195 252 315 388 469
#     4  11  24  44  73 102 143 187 246 300 384 456
#     4  11  23  43  70 101 147 190 245 304 384 454
#     4  10  24  44  66 106 143 191 242 307 372 470
#     4  11  22  43  69 100 143 187 239 306 371 462
#     4  12  30  48  82 112 158 202 270 330 404 470
#     4  12  25  47  72 107 145 203 250 322 389 466
#     4  12  30  53  81 117 157 206 271 337 403 479
#
# _framework density 24.659281
#
# number of rings (size 3 to 8) (size 9 to 14) (size 15 to 20)
#    0.000    0.800    4.000    2.000    7.467    2.667 
#    2.400    0.000    0.000    0.000    0.000    0.000 
#    0.000    0.000    0.000    0.000    0.000    0.000 
#
# Total GULP energy -83690.357630 kJ/mol
# GULP energy per Si atom -5579.357175 kJ/mol
# Density = 2.460316 g / cm^3
# Si number density = 24.659281 Si / 1000 Ang^3
#
#
#
# Elastic Constant Matrix: (Units=GPa)
#
#
# Indices 1 2 3 4 5 6 
#
# 1 164.5776 38.1794 28.5871 -7.6146 11.2505 4.1982
# 2 38.1794 149.0145 11.9934 -5.6258 -9.7659 -0.0769
# 3 28.5871 11.9934 45.1826 -10.9001 4.3226 12.6158
# 4 -7.6146 -5.6258 -10.9001 25.3479 8.6449 -11.4738
# 5 11.2505 -9.7659 4.3226 8.6449 31.5707 9.8749
# 6 4.1982 -0.0769 12.6158 -11.4738 9.8749 50.7970
#
#
#
# Elastic Compliance Matrix: (Units=1/GPa)
#
#
# Indices 1 2 3 4 5 6 
#
# 1 0.007467 -0.001771 -0.003793 0.002214 -0.003783 0.001558
# 2 -0.001771 0.007463 -0.001270 -0.000760 0.003437 -0.000367
# 3 -0.003793 -0.001270 0.029005 0.011242 -0.005035 -0.003374
# 4 0.002214 -0.000760 0.011242 0.059672 -0.023625 0.015095
# 5 -0.003783 0.003437 -0.005035 -0.023625 0.045170 -0.012549
# 6 0.001558 -0.000367 -0.003374 0.015095 -0.012549 0.026244
#
#
# Mechanical properties :
#
#
# Convention : Reuss Voigt Hill
#
# Bulk Modulus (GPa) = 33.03977 57.36608 45.20293
# Shear Modulus (GPa) = 25.15351 40.21076 32.68214
#
# Velocity S-wave (km/s) = 3.19728 4.04252 3.64448
# Velocity P-wave (km/s) = 5.20170 6.71589 6.00670
#
# Compressibility (1/GPa) = 0.03026655
#
# Stress axis : x y z
#
# Youngs Moduli (GPa) = 133.91650 133.99096 34.47646
#
# Poissons Ratio (x) = 0.23736 0.13078
# Poissons Ratio (y) = 0.23723 0.04378
# Poissons Ratio (z) = 0.50797 0.17016
#
# Static dielectric constant tensor:
#      x y z
#    x 1.901470 -0.019540 -0.061680 
#    y -0.019540 1.971290 -0.012840 
#    z -0.061680 -0.012840 2.023840 
# 
# From -- ./inp_files/47584.got.cif
#   From: 2010.05.17/outbox.cif.g08.bks.cpg/sg2_24_cif.got.tgz:47584.got - 2010.06.03 11:33:40.
