data_PCOD9047864
_publ_section_title
;
Structure prediction by ZEFSAII (Michael W. Deem and Ramdas Pophale) SiO2 
 PCOD9047864
Probable space group: P -1
;
_chemical_formula_sum "Si O2"
_cell_formula_units_Z 16
_cell_length_a 6.500574
_cell_length_b 11.526493
_cell_length_c 22.977001
_cell_angle_alpha 30.530971
_cell_angle_beta 59.908871
_cell_angle_gamma 49.468634
_cell_volume 657.095624
_symmetry_space_group_name_H-M "P -1"
_symmetry_group_IT_number 2
_symmetry_cell_setting 'triclinic'
loop_
_space_group_symop_operation_xyz
x,y,z
-x,-y,-z
loop_
_atom_site_type_symbol
_atom_site_label
_atom_site_fract_x
_atom_site_fract_y
_atom_site_fract_z
Si Si1 0.440413 0.103157 0.030815
Si Si2 0.088890 0.235276 0.694993
Si Si3 0.408875 0.045481 0.335365
Si Si4 0.570021 0.230973 0.071366
Si Si5 0.120341 0.715798 0.536099
Si Si6 0.647718 0.188140 0.337027
Si Si7 0.048112 0.346295 0.156712
Si Si8 0.489044 0.432044 0.706832
O O1 0.588610 0.218495 0.003640
O O2 0.499254 0.841783 0.168813
O O3 0.135496 0.350656 0.964063
O O4 0.500000 0.000000 0.000000
O O5 0.293791 0.083783 0.679527
O O6 0.156489 0.455273 0.613322
O O7 0.772806 0.371948 0.662761
O O8 0.170510 0.015169 0.829079
O O9 0.312872 0.830993 0.437985
O O10 0.435173 0.134017 0.356881
O O11 0.197834 0.294175 0.220162
O O12 0.298432 0.209025 0.135714
O O13 0.500000 0.500000 0.000000
O O14 0.217611 0.634994 0.623348
O O15 0.825267 0.947038 0.458972
O O16 0.509201 0.448652 0.282444
O O17 0.847060 0.227294 0.246577
#
# Coordination Sequence:
#
# PCOD9047864 Si02
#       8
#     2   2   2   2   2   2   2   2
#     4  12  25  45  73 106 144 186 234 298 355 421
#     4  11  25  43  72 106 138 181 232 294 347 421
#     4  10  25  44  72 103 139 182 236 287 351 417
#     4  11  25  46  73 105 142 191 236 290 361 428
#     4  11  24  46  69 100 143 185 235 285 354 415
#     4  11  25  45  70 103 138 189 231 289 348 424
#     4  10  24  44  71 101 142 184 232 287 355 425
#     4  12  26  44  69 103 143 182 236 287 356 418
#
# _framework density 24.349574
#
# number of rings (size 3 to 8) (size 9 to 14) (size 15 to 20)
#    0.000    1.000    2.500    2.625    5.250    8.000 
#    0.000    1.875    0.000    0.000    0.000    0.000 
#    0.000    0.000    0.000    0.000    0.000    0.000 
#
# Total GULP energy -89471.474435 kJ/mol
# GULP energy per Si atom -5591.967152 kJ/mol
# Density = 2.429415 g / cm^3
# Si number density = 24.349574 Si / 1000 Ang^3
#
#
#
# Elastic Constant Matrix: (Units=GPa)
#
#
# Indices 1 2 3 4 5 6 
#
# 1 96.0394 34.1567 43.7307 -12.0042 10.1440 17.3801
# 2 34.1567 48.8138 17.9421 -9.7145 6.6437 31.0367
# 3 43.7307 17.9421 113.1063 -17.3747 12.4633 15.7586
# 4 -12.0042 -9.7145 -17.3747 40.1714 -1.0470 -7.3012
# 5 10.1440 6.6437 12.4633 -1.0470 26.5979 -2.9910
# 6 17.3801 31.0367 15.7586 -7.3012 -2.9910 42.7196
#
#
#
# Elastic Compliance Matrix: (Units=1/GPa)
#
#
# Indices 1 2 3 4 5 6 
#
# 1 0.016244 -0.011851 -0.004782 0.000602 -0.000540 0.003830
# 2 -0.011851 0.052264 0.003228 0.003836 -0.013793 -0.034650
# 3 -0.004782 0.003228 0.011896 0.003546 -0.004926 -0.004527
# 4 0.000602 0.003836 0.003546 0.027534 -0.001738 0.000244
# 5 -0.000540 -0.013793 -0.004926 -0.001738 0.045166 0.014923
# 6 0.003830 -0.034650 -0.004527 0.000244 0.014923 0.049781
#
#
# Mechanical properties :
#
#
# Convention : Reuss Voigt Hill
#
# Bulk Modulus (GPa) = 18.65867 49.95762 34.30814
# Shear Modulus (GPa) = 20.19722 32.70644 26.45183
#
# Velocity S-wave (km/s) = 2.88318 3.66895 3.29954
# Velocity P-wave (km/s) = 4.33164 6.20561 5.35129
#
# Compressibility (1/GPa) = 0.05359438
#
# Stress axis : x y z
#
# Youngs Moduli (GPa) = 61.56223 19.13370 84.05920
#
# Poissons Ratio (x) = 0.22675 0.40199
# Poissons Ratio (y) = 0.72955 -0.27135
# Poissons Ratio (z) = 0.29440 -0.06177
#
# Static dielectric constant tensor:
#      x y z
#    x 1.971360 0.006400 -0.021400 
#    y 0.006400 1.942260 0.072600 
#    z -0.021400 0.072600 1.936310 
# 
# From -- ./inp_files/604382.got.cif
#   From: 2010.05.17/outbox.cif.g08.bks.cpg/sg2_303_cif.got.tgz:604382.got - 2010.06.03 11:33:40.
