data_PCOD9047599
_publ_section_title
;
Structure prediction by ZEFSAII (Michael W. Deem and Ramdas Pophale) SiO2 
 PCOD9047599
Probable space group: P -1
;
_chemical_formula_sum "Si O2"
_cell_formula_units_Z 14
_cell_length_a 23.875885
_cell_length_b 11.394749
_cell_length_c 17.474392
_cell_angle_alpha 31.245372
_cell_angle_beta 161.474775
_cell_angle_gamma 147.118627
_cell_volume 771.142805
_symmetry_space_group_name_H-M "P -1"
_symmetry_group_IT_number 2
_symmetry_cell_setting 'triclinic'
loop_
_space_group_symop_operation_xyz
x,y,z
-x,-y,-z
loop_
_atom_site_type_symbol
_atom_site_label
_atom_site_fract_x
_atom_site_fract_y
_atom_site_fract_z
Si Si1 0.395687 0.215852 0.232689
Si Si2 0.908156 0.023478 0.136266
Si Si3 0.259258 0.597442 0.499659
Si Si4 0.090256 0.289279 0.089749
Si Si5 0.870538 0.889493 0.326370
Si Si6 0.707699 0.895672 0.675193
Si Si7 0.678596 0.254803 0.811510
O O1 0.557446 0.408597 0.305955
O O2 0.300731 0.230390 0.182984
O O3 0.500000 0.000000 0.500000
O O4 0.244890 0.151883 0.008567
O O5 0.057755 0.125337 0.212738
O O6 0.961911 0.918173 0.344411
O O7 0.807510 0.228462 0.920736
O O8 0.205268 0.372213 0.606024
O O9 0.287192 0.834212 0.452498
O O10 0.094261 0.618916 0.217543
O O11 0.136187 0.153362 0.150438
O O12 0.247207 0.503701 0.188529
O O13 0.000000 0.000000 0.500000
O O14 0.716739 0.045283 0.030971
O O15 0.522429 0.792514 0.450831
#
# Coordination Sequence:
#
# PCOD9047599 Si02
#       7
#     2   2   2   2   2   2   2
#     4  10  17  34  57  85 112 141 192 241 265 327
#     4  10  20  35  59  87 109 146 200 231 275 327
#     4  11  19  37  62  80 113 153 189 230 282 328
#     4  12  21  35  61  87 116 151 182 239 286 330
#     4  10  21  37  59  85 110 148 197 235 272 334
#     4  11  22  35  58  90 119 143 189 233 289 335
#     4  10  21  37  57  82 117 147 192 231 277 331
#
# _framework density 18.154874
#
# number of rings (size 3 to 8) (size 9 to 14) (size 15 to 20)
#    0.857    0.571    7.143    1.286    0.000    3.429 
#    0.000    0.714    3.143    1.714    0.000    0.000 
#    0.000    0.000    0.000    0.000    0.000    0.000 
#
# Total GULP energy -77988.630111 kJ/mol
# GULP energy per Si atom -5570.616437 kJ/mol
# Density = 1.811355 g / cm^3
# Si number density = 18.154874 Si / 1000 Ang^3
#
#
#
# Elastic Constant Matrix: (Units=GPa)
#
#
# Indices 1 2 3 4 5 6 
#
# 1 134.7171 51.1683 37.3200 -13.2604 -14.4662 14.6916
# 2 51.1683 117.2552 24.0360 3.1648 -14.1297 6.6011
# 3 37.3200 24.0360 31.5092 9.6527 -19.3578 -3.9308
# 4 -13.2604 3.1648 9.6527 16.7199 -6.1161 -14.1762
# 5 -14.4662 -14.1297 -19.3578 -6.1161 30.9575 4.3285
# 6 14.6916 6.6011 -3.9308 -14.1762 4.3285 26.6998
#
#
#
# Elastic Compliance Matrix: (Units=1/GPa)
#
#
# Indices 1 2 3 4 5 6 
#
# 1 0.026174 -0.004613 -0.050511 0.055479 -0.011996 0.010703
# 2 -0.004613 0.011299 0.000660 -0.010574 0.002182 -0.006126
# 3 -0.050511 0.000660 0.165538 -0.143223 0.056557 -0.033211
# 4 0.055479 -0.010574 -0.143223 0.254421 -0.030932 0.091100
# 5 -0.011996 0.002182 0.056557 -0.030932 0.058559 -0.011529
# 6 0.010703 -0.006126 -0.033211 0.091100 -0.011529 0.078428
#
#
# Mechanical properties :
#
#
# Convention : Reuss Voigt Hill
#
# Bulk Modulus (GPa) = 10.62905 56.50336 33.56621
# Shear Modulus (GPa) = 6.80541 26.27258 16.53900
#
# Velocity S-wave (km/s) = 1.93821 3.80825 3.02154
# Velocity P-wave (km/s) = 3.29792 7.10828 5.54093
#
# Compressibility (1/GPa) = 0.09408175
#
# Stress axis : x y z
#
# Youngs Moduli (GPa) = 38.20654 88.50025 6.04089
#
# Poissons Ratio (x) = 0.40825 0.30513
# Poissons Ratio (y) = 0.17624 -0.00398
# Poissons Ratio (z) = 1.92987 -0.05837
#
# Static dielectric constant tensor:
#      x y z
#    x 1.669600 0.001670 0.008050 
#    y 0.001670 1.625820 0.018310 
#    z 0.008050 0.018310 1.625710 
# 
# From -- ./inp_files/199526.got.cif
#   From: 2010.05.17/outbox.cif.g08.bks.cpg/sg2_100_cif.got.tgz:199526.got - 2010.06.03 11:33:40.
