data_PCOD9047162
_publ_section_title
;
Structure prediction by ZEFSAII (Michael W. Deem and Ramdas Pophale) SiO2 
 PCOD9047162
Probable space group: P -1
;
_chemical_formula_sum "Si O2"
_cell_formula_units_Z 12
_cell_length_a 8.980692
_cell_length_b 7.239153
_cell_length_c 14.674051
_cell_angle_alpha 42.246350
_cell_angle_beta 51.777440
_cell_angle_gamma 56.474543
_cell_volume 495.791039
_symmetry_space_group_name_H-M "P -1"
_symmetry_group_IT_number 2
_symmetry_cell_setting 'triclinic'
loop_
_space_group_symop_operation_xyz
x,y,z
-x,-y,-z
loop_
_atom_site_type_symbol
_atom_site_label
_atom_site_fract_x
_atom_site_fract_y
_atom_site_fract_z
Si Si1 0.745578 0.014772 0.473908
Si Si2 0.642607 0.725058 0.439065
Si Si3 0.133147 0.221295 0.839433
Si Si4 0.789200 0.461796 0.769623
Si Si5 0.548500 0.039513 0.071148
Si Si6 0.175821 0.848497 0.326582
O O1 0.685527 0.934782 0.425141
O O2 0.720284 0.762508 0.642813
O O3 0.971737 0.007620 0.381194
O O4 0.587310 0.274092 0.472201
O O5 0.715679 0.846099 0.275472
O O6 0.758942 0.427713 0.536364
O O7 0.973049 0.452913 0.768300
O O8 0.279130 0.212099 0.871995
O O9 0.000000 0.000000 0.000000
O O10 0.843047 0.264057 0.729950
O O11 0.633857 0.324202 0.934809
O O12 0.348955 0.021569 0.202585
O O13 0.500000 0.000000 0.000000
#
# Coordination Sequence:
#
# PCOD9047162 Si02
#       6
#     2   2   2   2   2   2
#     4  10  18  32  60  81 109 138 176 220 260 318
#     4  10  19  32  56  86 105 139 182 214 262 316
#     4  10  18  33  55  79 106 141 184 216 256 320
#     4   9  16  34  56  79 104 143 181 212 261 316
#     4   9  20  32  55  78 107 144 177 216 273 313
#     4  10  17  34  57  78 110 141 170 222 266 313
#
# _framework density 24.203745999999999
#
# number of rings (size 3 to 8) (size 9 to 14) (size 15 to 20)
#    0.000    2.333    3.333    1.000    0.000    0.667 
#    0.000    4.167    7.333    5.000    0.000    0.000 
#    0.000    0.000    0.000    0.000    0.000    0.000 
#
# Total GULP energy -66998.694568 kJ/mol
# GULP energy per Si atom -5583.224547 kJ/mol
# Density = 2.414866 g / cm^3
# Si number density = 24.203746 Si / 1000 Ang^3
#
#
#
# Elastic Constant Matrix: (Units=GPa)
#
#
# Indices 1 2 3 4 5 6 
#
# 1 138.3628 58.6484 37.2245 8.0020 6.1263 -31.2538
# 2 58.6484 76.8349 47.9673 17.8549 -16.2636 -20.8581
# 3 37.2245 47.9673 137.2420 20.4222 -17.5437 -4.7513
# 4 8.0020 17.8549 20.4222 25.8115 -13.8549 -9.5205
# 5 6.1263 -16.2636 -17.5437 -13.8549 58.8030 12.7405
# 6 -31.2538 -20.8581 -4.7513 -9.5205 12.7405 38.2284
#
#
#
# Elastic Compliance Matrix: (Units=1/GPa)
#
#
# Indices 1 2 3 4 5 6 
#
# 1 0.013339 -0.008930 -0.001391 0.003422 -0.005306 0.008481
# 2 -0.008930 0.026619 -0.005007 -0.008287 0.004164 0.003150
# 3 -0.001391 -0.005007 0.010199 -0.004931 0.001585 -0.004358
# 4 0.003422 -0.008287 -0.004931 0.054215 0.006720 0.008926
# 5 -0.005306 0.004164 0.001585 0.006720 0.022428 -0.007670
# 6 0.008481 0.003150 -0.004358 0.008926 -0.007670 0.039048
#
#
# Mechanical properties :
#
#
# Convention : Reuss Voigt Hill
#
# Bulk Modulus (GPa) = 51.27661 71.12446 61.20054
# Shear Modulus (GPa) = 24.62991 38.47522 31.55256
#
# Velocity S-wave (km/s) = 3.19346 3.99135 3.61449
# Velocity P-wave (km/s) = 5.90161 7.11974 6.53910
#
# Compressibility (1/GPa) = 0.01950207
#
# Stress axis : x y z
#
# Youngs Moduli (GPa) = 74.96601 37.56730 98.04608
#
# Poissons Ratio (x) = 0.33546 0.13638
# Poissons Ratio (y) = 0.66942 0.49093
# Poissons Ratio (z) = 0.10427 0.18810
#
# Static dielectric constant tensor:
#      x y z
#    x 2.000610 0.047210 -0.052970 
#    y 0.047210 1.989580 0.006230 
#    z -0.052970 0.006230 1.910310 
# 
# From -- ./inp_files/172623.got.cif
#   From: 2010.05.17/outbox.cif.g08.bks.cpg/sg2_87_cif.got.tgz:172623.got - 2010.06.03 11:33:40.
