data_PCOD9047983
_publ_section_title
;
Structure prediction by ZEFSAII (Michael W. Deem and Ramdas Pophale) SiO2 
 PCOD9047983
Probable space group: P -1
;
_chemical_formula_sum "Si O2"
_cell_formula_units_Z 16
_cell_length_a 15.546250
_cell_length_b 7.665350
_cell_length_c 9.143269
_cell_angle_alpha 89.604708
_cell_angle_beta 38.035013
_cell_angle_gamma 84.600753
_cell_volume 664.334012
_symmetry_space_group_name_H-M "P -1"
_symmetry_group_IT_number 2
_symmetry_cell_setting 'triclinic'
loop_
_space_group_symop_operation_xyz
x,y,z
-x,-y,-z
loop_
_atom_site_type_symbol
_atom_site_label
_atom_site_fract_x
_atom_site_fract_y
_atom_site_fract_z
Si Si1 0.360237 0.333692 0.949011
Si Si2 0.847687 0.484698 0.270467
Si Si3 0.662452 0.246394 0.031846
Si Si4 0.901358 0.620704 0.513034
Si Si5 0.585125 0.661115 0.439609
Si Si6 0.392651 0.878384 0.210098
Si Si7 0.051583 0.945319 0.272396
Si Si8 0.880790 0.096601 0.265214
O O1 0.323278 0.546079 0.983178
O O2 0.373821 0.256609 0.768236
O O3 0.508450 0.272841 0.831203
O O4 0.232794 0.283619 0.217230
O O5 0.848180 0.522188 0.443763
O O6 0.725551 0.600001 0.343399
O O7 0.823343 0.285200 0.278615
O O8 0.000000 0.500000 0.000000
O O9 0.519156 0.227485 0.308169
O O10 0.667543 0.200289 0.854520
O O11 0.784264 0.119232 0.950587
O O12 0.000000 0.500000 0.500000
O O13 0.983972 0.768380 0.330802
O O14 0.500000 0.500000 0.500000
O O15 0.261050 0.970713 0.483362
O O16 0.500000 0.000000 0.000000
O O17 0.000000 0.000000 0.500000
O O18 0.982563 0.106875 0.267254
O O19 0.000000 0.000000 0.000000
#
# Coordination Sequence:
#
# PCOD9047983 Si02
#       8
#     2   2   2   2   2   2   2   2
#     4  11  23  42  76  99 138 183 245 296 360 430
#     4  12  26  47  75 112 145 191 255 307 368 444
#     4  11  23  45  71  99 141 189 239 295 362 435
#     4  12  23  43  73 106 141 186 247 306 359 435
#     4  10  24  44  72 104 139 184 242 299 359 424
#     4  12  26  48  70 106 146 193 244 299 371 448
#     4  12  25  45  69 104 144 190 236 297 377 440
#     4  12  27  44  72 104 150 192 236 305 378 438
#
# _framework density 24.084271000000001
#
# number of rings (size 3 to 8) (size 9 to 14) (size 15 to 20)
#    0.000    0.500    2.500    6.375    7.000    1.000 
#    0.000    0.625    0.000    0.000    0.000    0.000 
#    0.000    0.000    0.000    0.000    0.000    0.000 
#
# Total GULP energy -89484.368707 kJ/mol
# GULP energy per Si atom -5592.773044 kJ/mol
# Density = 2.402945 g / cm^3
# Si number density = 24.084271 Si / 1000 Ang^3
#
#
#
# Elastic Constant Matrix: (Units=GPa)
#
#
# Indices 1 2 3 4 5 6 
#
# 1 90.1648 -12.3394 63.4436 6.9755 -10.5886 -14.2449
# 2 -12.3394 37.7238 17.2053 -0.1897 -12.4908 1.3328
# 3 63.4436 17.2053 218.7197 5.2058 -15.8988 -15.5507
# 4 6.9755 -0.1897 5.2058 28.0968 -9.3686 -4.8056
# 5 -10.5886 -12.4908 -15.8988 -9.3686 54.1479 11.6942
# 6 -14.2449 1.3328 -15.5507 -4.8056 11.6942 27.9205
#
#
#
# Elastic Compliance Matrix: (Units=1/GPa)
#
#
# Indices 1 2 3 4 5 6 
#
# 1 0.016889 0.008557 -0.005056 -0.001632 0.002645 0.004003
# 2 0.008557 0.034727 -0.004830 0.001488 0.009306 -0.003624
# 3 -0.005056 -0.004830 0.006486 0.000109 -0.000502 0.001492
# 4 -0.001632 0.001488 0.000109 0.038553 0.006020 0.003271
# 5 0.002645 0.009306 -0.000502 0.006020 0.023822 -0.008316
# 6 0.004003 -0.003624 0.001492 0.003271 -0.008316 0.042909
#
#
# Mechanical properties :
#
#
# Convention : Reuss Voigt Hill
#
# Bulk Modulus (GPa) = 18.03698 53.69191 35.86445
# Shear Modulus (GPa) = 27.09641 40.58630 33.84136
#
# Velocity S-wave (km/s) = 3.35784 4.10955 3.75256
# Velocity P-wave (km/s) = 4.74751 6.69773 5.80510
#
# Compressibility (1/GPa) = 0.05544164
#
# Stress axis : x y z
#
# Youngs Moduli (GPa) = 59.21025 28.79587 154.18495
#
# Poissons Ratio (x) = -0.24639 0.77961
# Poissons Ratio (y) = -0.50664 0.74477
# Poissons Ratio (z) = 0.29939 0.13910
#
# Static dielectric constant tensor:
#      x y z
#    x 1.958210 0.062910 -0.063190 
#    y 0.062910 1.993890 -0.036690 
#    z -0.063190 -0.036690 2.063040 
# 
# From -- ./inp_files/298471.got.cif
#   From: 2010.05.17/outbox.cif.g08.bks.cpg/sg2_150_cif.got.tgz:298471.got - 2010.06.03 11:33:40.
