data_PCOD9047683
_publ_section_title
;
Structure prediction by ZEFSAII (Michael W. Deem and Ramdas Pophale) SiO2 
 PCOD9047683
Probable space group: P -1
;
_chemical_formula_sum "Si O2"
_cell_formula_units_Z 15
_cell_length_a 11.681449
_cell_length_b 6.354078
_cell_length_c 16.014678
_cell_angle_alpha 101.084398
_cell_angle_beta 129.732237
_cell_angle_gamma 116.582522
_cell_volume 587.449598
_symmetry_space_group_name_H-M "P -1"
_symmetry_group_IT_number 2
_symmetry_cell_setting 'triclinic'
loop_
_space_group_symop_operation_xyz
x,y,z
-x,-y,-z
loop_
_atom_site_type_symbol
_atom_site_label
_atom_site_fract_x
_atom_site_fract_y
_atom_site_fract_z
Si Si1 0.965567 0.874916 0.381981
Si Si2 0.518480 0.191229 0.178155
Si Si3 0.500000 0.000000 0.000000
Si Si4 0.908184 0.107085 0.212902
Si Si5 0.174546 0.040896 0.241801
Si Si6 0.268654 0.308801 0.144437
Si Si7 0.393671 0.903921 0.263156
Si Si8 0.268372 0.883644 0.434759
O O1 0.733130 0.479741 0.240997
O O2 0.161423 0.917903 0.459348
O O3 0.948859 0.043184 0.318227
O O4 0.000000 0.000000 0.500000
O O5 0.375576 0.248548 0.130926
O O6 0.567265 0.185497 0.296325
O O7 0.407016 0.888212 0.046433
O O8 0.333901 0.037347 0.912751
O O9 0.971755 0.977021 0.170706
O O10 0.090418 0.494721 0.307451
O O11 0.335814 0.347576 0.276657
O O12 0.177526 0.822355 0.172345
O O13 0.275975 0.060736 0.376215
O O14 0.326357 0.608237 0.169684
O O15 0.000000 0.000000 0.000000
O O16 0.512531 0.986548 0.412719
#
# Coordination Sequence:
#
# PCOD9047683 Si02
#       8
#     2   2   1   2   2   2   2   2
#     4  11  24  43  70 106 145 184 238 290 356 424
#     4  11  26  44  68 106 135 192 232 295 347 422
#     4  12  26  46  66  98 144 186 242 276 352 418
#     4  11  25  44  69 104 145 190 233 293 347 420
#     4  10  24  44  69 105 137 184 234 295 352 421
#     4  11  25  46  69  99 138 182 238 297 353 424
#     4  11  25  44  74 102 141 184 238 292 364 424
#     4  11  23  42  70 105 143 187 230 296 357 421
#
# _framework density 25.534106000000001
#
# number of rings (size 3 to 8) (size 9 to 14) (size 15 to 20)
#    0.000    1.067    1.333    3.600    3.733    9.067 
#    0.000    0.000    0.000    0.000    0.000    0.000 
#    0.000    0.000    0.000    0.000    0.000    0.000 
#
# Total GULP energy -83526.418817 kJ/mol
# GULP energy per Si atom -5568.427921 kJ/mol
# Density = 2.547599 g / cm^3
# Si number density = 25.534106 Si / 1000 Ang^3
#
#
#
# Elastic Constant Matrix: (Units=GPa)
#
#
# Indices 1 2 3 4 5 6 
#
# 1 229.6332 42.6666 22.8970 -22.3290 8.5453 -38.0228
# 2 42.6666 96.4600 40.6539 -26.8134 7.6864 -4.9541
# 3 22.8970 40.6539 64.3965 -31.1955 15.1377 -9.2691
# 4 -22.3290 -26.8134 -31.1955 40.7833 6.1991 -1.9813
# 5 8.5453 7.6864 15.1377 6.1991 45.1695 -19.6630
# 6 -38.0228 -4.9541 -9.2691 -1.9813 -19.6630 39.1433
#
#
#
# Elastic Compliance Matrix: (Units=1/GPa)
#
#
# Indices 1 2 3 4 5 6 
#
# 1 0.005959 -0.002121 0.001348 0.003031 0.001247 0.006619
# 2 -0.002121 0.015307 -0.007318 0.003378 -0.001213 -0.002294
# 3 0.001348 -0.007318 0.035307 0.025040 -0.012697 0.003633
# 4 0.003031 0.003378 0.025040 0.049965 -0.014395 0.004599
# 5 0.001247 -0.001213 -0.012697 -0.014395 0.034780 0.014794
# 6 0.006619 -0.002294 0.003633 0.004599 0.014794 0.040211
#
#
# Mechanical properties :
#
#
# Convention : Reuss Voigt Hill
#
# Bulk Modulus (GPa) = 24.75740 66.99163 45.87451
# Shear Modulus (GPa) = 23.67718 43.97070 33.82394
#
# Velocity S-wave (km/s) = 3.04842 4.15425 3.64353
# Velocity P-wave (km/s) = 4.70185 7.02164 5.97540
#
# Compressibility (1/GPa) = 0.04039197
#
# Stress axis : x y z
#
# Youngs Moduli (GPa) = 167.82270 65.32909 28.32302
#
# Poissons Ratio (x) = 0.13854 -0.03818
# Poissons Ratio (y) = 0.35589 0.20726
# Poissons Ratio (z) = -0.22624 0.47807
#
# Static dielectric constant tensor:
#      x y z
#    x 1.931380 0.050240 0.017080 
#    y 0.050240 1.972460 -0.152540 
#    z 0.017080 -0.152540 1.858690 
# 
# From -- ./inp_files/511051.got.cif
#   From: 2010.05.17/outbox.cif.g08.bks.cpg/sg2_256_cif.got.tgz:511051.got - 2010.06.03 11:33:40.
