data_PCOD9047534
_publ_section_title
;
Structure prediction by ZEFSAII (Michael W. Deem and Ramdas Pophale) SiO2 
 PCOD9047534
Probable space group: P -1
;
_chemical_formula_sum "Si O2"
_cell_formula_units_Z 12
_cell_length_a 11.979050
_cell_length_b 14.494601
_cell_length_c 6.682951
_cell_angle_alpha 99.899074
_cell_angle_beta 84.394503
_cell_angle_gamma 29.604102
_cell_volume 486.449642
_symmetry_space_group_name_H-M "P -1"
_symmetry_group_IT_number 2
_symmetry_cell_setting 'triclinic'
loop_
_space_group_symop_operation_xyz
x,y,z
-x,-y,-z
loop_
_atom_site_type_symbol
_atom_site_label
_atom_site_fract_x
_atom_site_fract_y
_atom_site_fract_z
Si Si1 0.859531 0.022699 0.151620
Si Si2 0.586372 0.862302 0.256980
Si Si3 0.005493 0.430861 0.271267
Si Si4 0.681023 0.289963 0.772503
Si Si5 0.844356 0.955887 0.736982
Si Si6 0.676359 0.498020 0.457048
O O1 0.555160 0.275710 0.302142
O O2 0.878313 0.922303 0.960874
O O3 0.020048 0.900679 0.285359
O O4 0.000000 0.000000 0.000000
O O5 0.798359 0.636998 0.241112
O O6 0.335401 0.988728 0.298345
O O7 0.500000 0.000000 0.500000
O O8 0.269628 0.219455 0.010338
O O9 0.879930 0.425980 0.342469
O O10 0.000000 0.500000 0.500000
O O11 0.713746 0.155032 0.785987
O O12 0.497792 0.414482 0.655549
O O13 0.500000 0.500000 0.000000
O O14 0.150038 0.709578 0.532968
#
# Coordination Sequence:
#
# PCOD9047534 Si02
#       6
#     2   2   2   2   2   2
#     4  10  24  44  68 101 143 191 246 308 365 443
#     4  11  25  47  74 115 152 196 252 318 376 456
#     4  11  25  47  76 109 155 197 254 313 380 459
#     4  11  23  47  69 104 141 190 249 305 369 449
#     4  11  24  46  71 106 144 189 244 308 373 448
#     4  12  24  45  73 103 143 200 243 305 384 446
#
# _framework density 24.668534999999999
#
# number of rings (size 3 to 8) (size 9 to 14) (size 15 to 20)
#    0.000    1.000    3.333    2.500    0.000    8.000 
#    6.000    0.000    0.000    0.000    0.000    0.000 
#    0.000    0.000    0.000    0.000    0.000    0.000 
#
# Total GULP energy -66900.581406 kJ/mol
# GULP energy per Si atom -5575.048450 kJ/mol
# Density = 2.461239 g / cm^3
# Si number density = 24.668535 Si / 1000 Ang^3
#
#
#
# Elastic Constant Matrix: (Units=GPa)
#
#
# Indices 1 2 3 4 5 6 
#
# 1 133.7903 59.7348 73.8950 3.0905 35.0901 -35.8858
# 2 59.7348 209.5860 43.4814 14.0260 0.1456 -18.0378
# 3 73.8950 43.4814 149.6176 5.9784 20.7952 -18.3513
# 4 3.0905 14.0260 5.9784 63.0018 -10.8520 9.9267
# 5 35.0901 0.1456 20.7952 -10.8520 33.8391 -3.9480
# 6 -35.8858 -18.0378 -18.3513 9.9267 -3.9480 44.8767
#
#
#
# Elastic Compliance Matrix: (Units=1/GPa)
#
#
# Indices 1 2 3 4 5 6 
#
# 1 0.019137 -0.003192 -0.004523 -0.004595 -0.017163 0.011677
# 2 -0.003192 0.005829 -0.000588 -0.000479 0.003488 -0.000037
# 3 -0.004523 -0.000588 0.009293 -0.000746 -0.001257 0.000002
# 4 -0.004595 -0.000479 -0.000746 0.019272 0.010530 -0.007509
# 5 -0.017163 0.003488 -0.001257 0.010530 0.050229 -0.010747
# 6 0.011677 -0.000037 0.000002 -0.007509 -0.010747 0.032322
#
#
# Mechanical properties :
#
#
# Convention : Reuss Voigt Hill
#
# Bulk Modulus (GPa) = 56.64185 94.13517 75.38851
# Shear Modulus (GPa) = 31.53120 49.40237 40.46679
#
# Velocity S-wave (km/s) = 3.57906 4.47995 4.05461
# Velocity P-wave (km/s) = 6.33172 8.06243 7.24891
#
# Compressibility (1/GPa) = 0.01765479
#
# Stress axis : x y z
#
# Youngs Moduli (GPa) = 52.25484 171.54442 107.60633
#
# Poissons Ratio (x) = 0.54749 0.48668
# Poissons Ratio (y) = 0.16677 0.06327
# Poissons Ratio (z) = 0.23634 0.10087
#
# Static dielectric constant tensor:
#      x y z
#    x 2.021350 0.114540 -0.104820 
#    y 0.114540 1.985710 -0.069400 
#    z -0.104820 -0.069400 2.185480 
# 
# From -- ./inp_files/317313.got.cif
#   From: 2010.05.17/outbox.cif.g08.bks.cpg/sg2_159_cif.got.tgz:317313.got - 2010.06.03 11:33:40.
