data_PCOD9047245
_publ_section_title
;
Structure prediction by ZEFSAII (Michael W. Deem and Ramdas Pophale) SiO2 
 PCOD9047245
Probable space group: P -1
;
_chemical_formula_sum "Si O2"
_cell_formula_units_Z 14
_cell_length_a 11.706001
_cell_length_b 11.890764
_cell_length_c 5.080855
_cell_angle_alpha 112.103134
_cell_angle_beta 81.240982
_cell_angle_gamma 114.866902
_cell_volume 594.481256
_symmetry_space_group_name_H-M "P -1"
_symmetry_group_IT_number 2
_symmetry_cell_setting 'triclinic'
loop_
_space_group_symop_operation_xyz
x,y,z
-x,-y,-z
loop_
_atom_site_type_symbol
_atom_site_label
_atom_site_fract_x
_atom_site_fract_y
_atom_site_fract_z
Si Si1 0.818021 0.253965 0.582759
Si Si2 0.900115 0.697745 0.355352
Si Si3 0.768818 0.385303 0.225648
Si Si4 0.686425 0.694450 0.059647
Si Si5 0.760120 0.974917 0.246474
Si Si6 0.118026 0.056880 0.306283
Si Si7 0.447386 0.579281 0.397005
O O1 0.841484 0.340724 0.386811
O O2 0.950273 0.259021 0.658995
O O3 0.730716 0.104591 0.394118
O O4 0.763625 0.314197 0.887554
O O5 0.836524 0.543099 0.302834
O O6 0.823803 0.723120 0.159419
O O7 0.872640 0.797648 0.648573
O O8 0.630658 0.352566 0.362573
O O9 0.686169 0.825957 0.030598
O O10 0.568676 0.669682 0.274851
O O11 0.649941 0.545122 0.838768
O O12 0.778884 0.946775 0.522147
O O13 0.874721 0.018340 0.028706
O O14 0.000000 0.000000 0.500000
O O15 0.500000 0.500000 0.500000
#
# Coordination Sequence:
#
# PCOD9047245 Si02
#       7
#     2   2   2   2   2   2   2
#     4  12  27  43  67  98 156 185 218 266 348 445
#     4  11  23  43  69 105 138 178 229 281 348 406
#     4  12  26  45  65 101 137 194 227 276 344 415
#     4  10  24  43  76 105 130 176 238 304 342 390
#     4  11  24  43  65 104 139 184 225 276 348 408
#     4  11  22  39  67  97 138 178 227 279 329 398
#     4  11  23  47  74 100 130 171 246 308 337 383
#
# _framework density 23.549945999999998
#
# number of rings (size 3 to 8) (size 9 to 14) (size 15 to 20)
#    0.000    0.857    2.857    3.857    4.000    3.429 
#    0.000    1.429    0.000    0.000    0.000    0.000 
#    0.000    0.000    0.000    0.000    0.000    0.000 
#
# Total GULP energy -77992.177436 kJ/mol
# GULP energy per Si atom -5570.869817 kJ/mol
# Density = 2.349635 g / cm^3
# Si number density = 23.549946 Si / 1000 Ang^3
#
#
#
# Elastic Constant Matrix: (Units=GPa)
#
#
# Indices 1 2 3 4 5 6 
#
# 1 33.1872 -2.9442 2.9586 6.3692 6.6686 -8.3574
# 2 -2.9442 123.3904 46.6598 15.0597 -6.7783 -26.2091
# 3 2.9586 46.6598 141.5674 0.0422 -20.3009 -8.3044
# 4 6.3692 15.0597 0.0422 20.3062 -13.4497 -5.3995
# 5 6.6686 -6.7783 -20.3009 -13.4497 34.0806 2.0357
# 6 -8.3574 -26.2091 -8.3044 -5.3995 2.0357 28.2932
#
#
#
# Elastic Compliance Matrix: (Units=1/GPa)
#
#
# Indices 1 2 3 4 5 6 
#
# 1 0.048412 0.010471 -0.007360 -0.036451 -0.027165 0.016838
# 2 0.010471 0.014816 -0.005853 -0.017814 -0.010362 0.012446
# 3 -0.007360 -0.005853 0.010773 0.014169 0.012442 -0.002625
# 4 -0.036451 -0.017814 0.014169 0.108851 0.055364 -0.006320
# 5 -0.027165 -0.010362 0.012442 0.055364 0.062328 -0.007890
# 6 0.016838 0.012446 -0.002625 -0.006320 -0.007890 0.050438
#
#
# Mechanical properties :
#
#
# Convention : Reuss Voigt Hill
#
# Bulk Modulus (GPa) = 14.59483 43.49929 29.04706
# Shear Modulus (GPa) = 15.43502 33.30071 24.36786
#
# Velocity S-wave (km/s) = 2.56289 3.76446 3.22021
# Velocity P-wave (km/s) = 3.86894 6.11605 5.11736
#
# Compressibility (1/GPa) = 0.06851744
#
# Stress axis : x y z
#
# Youngs Moduli (GPa) = 20.65622 67.49500 92.82864
#
# Poissons Ratio (x) = -0.70676 0.68321
# Poissons Ratio (y) = -0.21630 0.54329
# Poissons Ratio (z) = 0.15203 0.39502
#
# Static dielectric constant tensor:
#      x y z
#    x 1.836800 -0.065970 0.014910 
#    y -0.065970 1.839350 -0.057190 
#    z 0.014910 -0.057190 1.911880 
# 
# From -- ./inp_files/72164.got.cif
#   From: 2010.05.17/outbox.cif.g08.bks.cpg/sg2_37_cif.got.tgz:72164.got - 2010.06.03 11:33:40.
