data_PCOD9047303
_publ_section_title
;
Structure prediction by ZEFSAII (Michael W. Deem and Ramdas Pophale) SiO2 
 PCOD9047303
Probable space group: P -1
;
_chemical_formula_sum "Si O2"
_cell_formula_units_Z 16
_cell_length_a 14.361287
_cell_length_b 9.279063
_cell_length_c 21.401696
_cell_angle_alpha 57.364028
_cell_angle_beta 161.163167
_cell_angle_gamma 124.068897
_cell_volume 762.339240
_symmetry_space_group_name_H-M "P -1"
_symmetry_group_IT_number 2
_symmetry_cell_setting 'triclinic'
loop_
_space_group_symop_operation_xyz
x,y,z
-x,-y,-z
loop_
_atom_site_type_symbol
_atom_site_label
_atom_site_fract_x
_atom_site_fract_y
_atom_site_fract_z
Si Si1 0.823008 0.717880 0.167757
Si Si2 0.346607 0.252753 0.515865
Si Si3 0.704794 0.188380 0.254299
Si Si4 0.261383 0.606911 0.020311
Si Si5 0.595390 0.786042 0.302743
Si Si6 0.234344 0.513241 0.699961
Si Si7 0.153142 0.617916 0.280145
Si Si8 0.165279 0.953907 0.822574
O O1 0.873549 0.569136 0.282796
O O2 0.975970 0.693406 0.204693
O O3 0.925873 0.896095 0.228644
O O4 0.479350 0.725164 0.934353
O O5 0.508287 0.232041 0.687849
O O6 0.245070 0.440363 0.406142
O O7 0.558430 0.254148 0.590677
O O8 0.062203 0.100363 0.365478
O O9 0.634988 0.285237 0.250873
O O10 0.058339 0.224199 0.470590
O O11 0.592226 0.981183 0.230236
O O12 0.407656 0.639787 0.173603
O O13 0.531482 0.599421 0.147336
O O14 0.134635 0.778767 0.884448
O O15 0.029788 0.444543 0.884977
O O16 0.000000 0.500000 0.500000
O O17 0.500000 0.000000 0.000000
#
# Coordination Sequence:
#
# PCOD9047303 Si02
#       8
#     2   2   2   2   2   2   2   2
#     4  12  23  39  67  92 130 170 212 261 320 381
#     4  10  24  44  64  89 130 171 221 259 315 375
#     4  11  23  37  60  97 132 160 207 264 330 377
#     4  11  22  39  62  91 129 160 212 259 323 378
#     4  11  23  38  64  93 130 168 206 270 322 372
#     4  12  24  36  60  98 130 161 206 269 321 377
#     4  10  24  44  64  90 124 179 219 257 307 387
#     4  11  22  39  66  96 123 164 207 266 327 381
#
# _framework density 20.988032
#
# number of rings (size 3 to 8) (size 9 to 14) (size 15 to 20)
#    0.000    1.000    5.000    1.875    5.250    1.000 
#    0.000    0.625    0.000    0.000    0.000    0.000 
#    0.000    0.000    0.000    0.000    0.000    0.000 
#
# Total GULP energy -89267.762947 kJ/mol
# GULP energy per Si atom -5579.235184 kJ/mol
# Density = 2.094026 g / cm^3
# Si number density = 20.988032 Si / 1000 Ang^3
#
#
#
# Elastic Constant Matrix: (Units=GPa)
#
#
# Indices 1 2 3 4 5 6 
#
# 1 95.7948 37.1771 39.8056 8.7278 -4.7856 -11.3641
# 2 37.1771 79.2227 23.4826 4.5856 2.2894 -23.4314
# 3 39.8056 23.4826 84.2228 6.1895 -16.4631 -1.3546
# 4 8.7278 4.5856 6.1895 34.7238 -9.9960 -1.9488
# 5 -4.7856 2.2894 -16.4631 -9.9960 32.2251 4.2460
# 6 -11.3641 -23.4314 -1.3546 -1.9488 4.2460 29.3046
#
#
#
# Elastic Compliance Matrix: (Units=1/GPa)
#
#
# Indices 1 2 3 4 5 6 
#
# 1 0.015044 -0.004529 -0.005928 -0.002445 -0.001493 0.001993
# 2 -0.004529 0.021209 -0.004807 -0.002032 -0.007362 0.015911
# 3 -0.005928 -0.004807 0.017726 0.001423 0.009835 -0.006653
# 4 -0.002445 -0.002032 0.001423 0.032436 0.010822 -0.001918
# 5 -0.001493 -0.007362 0.009835 0.010822 0.041198 -0.011260
# 6 0.001993 0.015911 -0.006653 -0.001918 -0.011260 0.048816
#
#
# Mechanical properties :
#
#
# Convention : Reuss Voigt Hill
#
# Bulk Modulus (GPa) = 42.63909 51.13009 46.88459
# Shear Modulus (GPa) = 23.28035 29.83569 26.55802
#
# Velocity S-wave (km/s) = 3.33411 3.77444 3.56109
# Velocity P-wave (km/s) = 5.93142 6.58860 6.26863
#
# Compressibility (1/GPa) = 0.02345266
#
# Stress axis : x y z
#
# Youngs Moduli (GPa) = 66.47060 47.14961 56.41440
#
# Poissons Ratio (x) = 0.21353 0.33441
# Poissons Ratio (y) = 0.30103 0.27117
# Poissons Ratio (z) = 0.39402 0.22664
#
# Static dielectric constant tensor:
#      x y z
#    x 1.756570 -0.012610 -0.001330 
#    y -0.012610 1.788630 0.036920 
#    z -0.001330 0.036920 1.815040 
# 
# From -- ./inp_files/237742.got.cif
#   From: 2010.05.17/outbox.cif.g08.bks.cpg/sg2_119_cif.got.tgz:237742.got - 2010.06.03 11:33:40.
