data_PCOD9047783
_publ_section_title
;
Structure prediction by ZEFSAII (Michael W. Deem and Ramdas Pophale) SiO2 
 PCOD9047783
Probable space group: P -1
;
_chemical_formula_sum "Si O2"
_cell_formula_units_Z 16
_cell_length_a 8.991545
_cell_length_b 19.179267
_cell_length_c 11.725784
_cell_angle_alpha 38.216717
_cell_angle_beta 143.236067
_cell_angle_gamma 143.396555
_cell_volume 661.579361
_symmetry_space_group_name_H-M "P -1"
_symmetry_group_IT_number 2
_symmetry_cell_setting 'triclinic'
loop_
_space_group_symop_operation_xyz
x,y,z
-x,-y,-z
loop_
_atom_site_type_symbol
_atom_site_label
_atom_site_fract_x
_atom_site_fract_y
_atom_site_fract_z
Si Si1 0.704242 0.645320 0.919667
Si Si2 0.261175 0.534720 0.348275
Si Si3 0.770510 0.232561 0.020025
Si Si4 0.373531 0.137930 0.302222
Si Si5 0.229211 0.999041 0.772899
Si Si6 0.901982 0.276829 0.577107
Si Si7 0.264669 0.137077 0.987720
Si Si8 0.527448 0.294412 0.516462
O O1 0.612855 0.726329 0.838989
O O2 0.661153 0.668605 0.730594
O O3 0.040889 0.712302 0.050242
O O4 0.500000 0.500000 0.000000
O O5 0.500000 0.500000 0.500000
O O6 0.394922 0.620978 0.432421
O O7 0.006918 0.399553 0.402255
O O8 0.179410 0.621676 0.102208
O O9 0.827930 0.107255 0.224410
O O10 0.449146 0.163371 0.954085
O O11 0.636256 0.152418 0.520091
O O12 0.425410 0.134238 0.205239
O O13 0.058743 0.043253 0.276747
O O14 0.351377 0.144649 0.624918
O O15 0.500000 0.000000 0.000000
O O16 0.790648 0.313320 0.575576
O O17 0.148216 0.239427 0.795831
O O18 0.000000 0.000000 0.000000
#
# Coordination Sequence:
#
# PCOD9047783 Si02
#       8
#     2   2   2   2   2   2   2   2
#     4  10  24  44  70 104 137 182 242 298 356 425
#     4  12  25  43  67 101 143 181 237 293 358 425
#     4  11  23  42  66 101 142 183 232 292 358 425
#     4  10  25  43  70 100 140 183 235 297 345 424
#     4  11  21  43  73 102 135 181 240 292 349 414
#     4  11  25  46  66 101 139 183 240 290 349 430
#     4  12  26  43  68 103 143 191 231 288 364 420
#     4  11  24  42  73 101 134 188 236 298 357 417
#
# _framework density 24.184550000000002
#
# number of rings (size 3 to 8) (size 9 to 14) (size 15 to 20)
#    0.000    1.000    2.500    4.125    3.500    7.000 
#    0.000    1.875    0.000    0.000    0.000    0.000 
#    0.000    0.000    0.000    0.000    0.000    0.000 
#
# Total GULP energy -89078.008580 kJ/mol
# GULP energy per Si atom -5567.375536 kJ/mol
# Density = 2.412950 g / cm^3
# Si number density = 24.184550 Si / 1000 Ang^3
#
#
#
# Elastic Constant Matrix: (Units=GPa)
#
#
# Indices 1 2 3 4 5 6 
#
# 1 110.3159 55.9935 33.0929 4.8193 18.3943 25.1994
# 2 55.9935 98.7292 17.4028 -22.2662 -5.0327 31.1051
# 3 33.0929 17.4028 63.4523 0.0221 -5.6567 -1.0806
# 4 4.8193 -22.2662 0.0221 46.4804 3.7269 -13.6670
# 5 18.3943 -5.0327 -5.6567 3.7269 27.7796 -9.5317
# 6 25.1994 31.1051 -1.0806 -13.6670 -9.5317 56.3718
#
#
#
# Elastic Compliance Matrix: (Units=1/GPa)
#
#
# Indices 1 2 3 4 5 6 
#
# 1 0.026988 -0.012867 -0.013030 -0.010454 -0.025595 -0.012077
# 2 -0.012867 0.020167 0.002130 0.009791 0.010910 -0.001117
# 3 -0.013030 0.002130 0.023575 0.003621 0.016327 0.008740
# 4 -0.010454 0.009791 0.003621 0.028903 0.008210 0.007736
# 5 -0.025595 0.010910 0.016327 0.008210 0.063479 0.018458
# 6 -0.012077 -0.001117 0.008740 0.007736 0.018458 0.028918
#
#
# Mechanical properties :
#
#
# Convention : Reuss Voigt Hill
#
# Bulk Modulus (GPa) = 43.11331 53.94177 48.52754
# Shear Modulus (GPa) = 20.21875 37.19357 28.70616
#
# Velocity S-wave (km/s) = 2.89454 3.92587 3.44897
# Velocity P-wave (km/s) = 5.38856 6.55001 5.99747
#
# Compressibility (1/GPa) = 0.02319469
#
# Stress axis : x y z
#
# Youngs Moduli (GPa) = 37.05384 49.58681 42.41848
#
# Poissons Ratio (x) = 0.63802 0.55272
# Poissons Ratio (y) = 0.47676 -0.09034
# Poissons Ratio (z) = 0.48282 -0.10561
#
# Static dielectric constant tensor:
#      x y z
#    x 1.920880 0.014090 0.030090 
#    y 0.014090 2.013340 0.133470 
#    z 0.030090 0.133470 2.168740 
# 
# From -- ./inp_files/402908.got.cif
#   From: 2010.05.17/outbox.cif.g08.bks.cpg/sg2_202_cif.got.tgz:402908.got - 2010.06.03 11:33:40.
