data_PCOD9047949
_publ_section_title
;
Structure prediction by ZEFSAII (Michael W. Deem and Ramdas Pophale) SiO2 
 PCOD9047949
Probable space group: P -1
;
_chemical_formula_sum "Si O2"
_cell_formula_units_Z 12
_cell_length_a 5.766433
_cell_length_b 18.059261
_cell_length_c 9.225580
_cell_angle_alpha 146.882869
_cell_angle_beta 122.793462
_cell_angle_gamma 74.264167
_cell_volume 404.941993
_symmetry_space_group_name_H-M "P -1"
_symmetry_group_IT_number 2
_symmetry_cell_setting 'triclinic'
loop_
_space_group_symop_operation_xyz
x,y,z
-x,-y,-z
loop_
_atom_site_type_symbol
_atom_site_label
_atom_site_fract_x
_atom_site_fract_y
_atom_site_fract_z
Si Si1 0.106942 0.718115 0.686368
Si Si2 0.329722 0.375777 0.875470
Si Si3 0.307104 0.086818 0.515133
Si Si4 0.297129 0.151317 0.057295
Si Si5 0.818036 0.555757 0.776071
Si Si6 0.606687 0.215438 0.564038
O O1 0.470070 0.794279 0.908588
O O2 0.041347 0.549458 0.422163
O O3 0.960659 0.710014 0.463869
O O4 0.923422 0.770255 0.827898
O O5 0.401996 0.263832 0.830350
O O6 0.559228 0.372495 0.821590
O O7 0.267899 0.480161 0.141241
O O8 0.363502 0.080602 0.350885
O O9 0.500000 0.000000 0.500000
O O10 0.962492 0.009320 0.318615
O O11 0.508588 0.162407 0.283583
O O12 0.500000 0.500000 0.500000
O O13 0.069098 0.722573 0.146093
#
# Coordination Sequence:
#
# PCOD9047949 Si02
#       6
#     2   2   2   2   2   2
#     4  11  26  42  76 101 144 182 238 279 351 417
#     4   9  23  44  66  99 131 190 227 285 344 413
#     4  10  24  44  72 100 144 181 233 297 347 419
#     4  11  24  46  72 107 136 189 232 284 350 415
#     4  12  26  42  68 103 141 182 234 294 349 417
#     4   9  23  43  68  96 136 181 235 278 348 412
#
# _framework density 29.633876999999998
#
# number of rings (size 3 to 8) (size 9 to 14) (size 15 to 20)
#    1.000    0.667    1.667    1.000    7.000    4.000 
#    0.000    1.667    0.000    0.000    0.000    0.000 
#    0.000    0.000    0.000    0.000    0.000    0.000 
#
# Total GULP energy -66801.307303 kJ/mol
# GULP energy per Si atom -5566.775609 kJ/mol
# Density = 2.956643 g / cm^3
# Si number density = 29.633877 Si / 1000 Ang^3
#
#
#
# Elastic Constant Matrix: (Units=GPa)
#
#
# Indices 1 2 3 4 5 6 
#
# 1 158.3053 22.5169 47.5468 14.4774 -2.1909 2.1030
# 2 22.5169 46.5698 12.3096 -13.6392 1.3213 2.6683
# 3 47.5468 12.3096 149.4355 3.1681 29.3020 -10.1535
# 4 14.4774 -13.6392 3.1681 39.8245 1.0475 0.5886
# 5 -2.1909 1.3213 29.3020 1.0475 73.5002 19.5507
# 6 2.1030 2.6683 -10.1535 0.5886 19.5507 57.2630
#
#
#
# Elastic Compliance Matrix: (Units=1/GPa)
#
#
# Indices 1 2 3 4 5 6 
#
# 1 0.008157 -0.004534 -0.002531 -0.004345 0.001679 -0.001066
# 2 -0.004534 0.027305 -0.001152 0.011111 0.000059 -0.001444
# 3 -0.002531 -0.001152 0.008662 -0.000096 -0.004350 0.003169
# 4 -0.004345 0.011111 -0.000096 0.030526 -0.000597 -0.000485
# 5 0.001679 0.000059 -0.004350 -0.000597 0.017178 -0.006694
# 6 -0.001066 -0.001444 0.003169 -0.000485 -0.006694 0.020422
#
#
# Mechanical properties :
#
#
# Convention : Reuss Voigt Hill
#
# Bulk Modulus (GPa) = 36.11440 57.67303 46.89371
# Shear Modulus (GPa) = 36.25438 52.24669 44.25054
#
# Velocity S-wave (km/s) = 3.50152 4.20345 3.86844
# Velocity P-wave (km/s) = 5.34424 6.56222 5.98430
#
# Compressibility (1/GPa) = 0.02768979
#
# Stress axis : x y z
#
# Youngs Moduli (GPa) = 122.59574 36.62313 115.44150
#
# Poissons Ratio (x) = 0.16605 0.29223
# Poissons Ratio (y) = 0.55585 0.13298
# Poissons Ratio (z) = 0.31034 0.04219
#
# Static dielectric constant tensor:
#      x y z
#    x 2.714920 -0.001290 0.095200 
#    y -0.001290 2.534850 0.169900 
#    z 0.095200 0.169900 2.384360 
# 
# From -- ./inp_files/139665.got.cif
#   From: 2010.05.17/outbox.cif.g08.bks.cpg/sg2_70_cif.got.tgz:139665.got - 2010.06.03 11:33:40.
