data_PCOD9047142
_publ_section_title
;
Structure prediction by ZEFSAII (Michael W. Deem and Ramdas Pophale) SiO2 
 PCOD9047142
Probable space group: P -1
;
_chemical_formula_sum "Si O2"
_cell_formula_units_Z 15
_cell_length_a 5.283599
_cell_length_b 15.123711
_cell_length_c 11.523541
_cell_angle_alpha 134.010177
_cell_angle_beta 98.857081
_cell_angle_gamma 62.911789
_cell_volume 570.340774
_symmetry_space_group_name_H-M "P -1"
_symmetry_group_IT_number 2
_symmetry_cell_setting 'triclinic'
loop_
_space_group_symop_operation_xyz
x,y,z
-x,-y,-z
loop_
_atom_site_type_symbol
_atom_site_label
_atom_site_fract_x
_atom_site_fract_y
_atom_site_fract_z
Si Si1 0.500000 0.500000 0.500000
Si Si2 0.879689 0.961098 0.841396
Si Si3 0.453734 0.710427 0.553289
Si Si4 0.800128 0.230915 0.976351
Si Si5 0.643926 0.801734 0.426160
Si Si6 0.138262 0.271011 0.247052
Si Si7 0.350148 0.411069 0.949206
Si Si8 0.877926 0.901242 0.355957
O O1 0.455295 0.564613 0.418933
O O2 0.846067 0.383859 0.392476
O O3 0.143411 0.849131 0.676779
O O4 0.724186 0.877675 0.807527
O O5 0.732456 0.107773 0.900008
O O6 0.000000 0.000000 0.000000
O O7 0.633111 0.730628 0.480756
O O8 0.615906 0.681788 0.669457
O O9 0.483226 0.357131 0.036160
O O10 0.981990 0.183039 0.826495
O O11 0.015116 0.249664 0.098352
O O12 0.549224 0.724360 0.251951
O O13 0.913214 0.798439 0.371815
O O14 0.449603 0.971661 0.583849
O O15 0.500000 0.500000 0.000000
O O16 0.000000 0.500000 0.000000
O O17 0.000000 0.000000 0.500000
#
# Coordination Sequence:
#
# PCOD9047142 Si02
#       8
#     1   2   2   2   2   2   2   2
#     4  10  24  46  64 102 148 204 248 304 382 462
#     4   9  21  42  66 108 145 186 239 309 378 447
#     4  11  23  44  71 108 150 195 254 309 383 466
#     4  11  23  47  74 106 152 194 255 327 387 466
#     4  11  26  44  74 110 150 203 258 327 384 477
#     4  10  24  43  72 110 147 196 249 306 386 464
#     4  12  29  53  74 111 154 211 271 321 394 473
#     4  11  23  45  73 111 150 200 261 320 407 450
#
# _framework density 26.300063999999999
#
# number of rings (size 3 to 8) (size 9 to 14) (size 15 to 20)
#    0.000    1.333    2.667    1.200    3.733    3.200 
#   16.800    0.000    0.000    0.000    0.000    0.000 
#    0.000    0.000    0.000    0.000    0.000    0.000 
#
# Total GULP energy -83594.357782 kJ/mol
# GULP energy per Si atom -5572.957185 kJ/mol
# Density = 2.624020 g / cm^3
# Si number density = 26.300064 Si / 1000 Ang^3
#
#
#
# Elastic Constant Matrix: (Units=GPa)
#
#
# Indices 1 2 3 4 5 6 
#
# 1 74.0921 25.3327 22.1825 -11.6027 -8.3000 -7.9594
# 2 25.3327 171.9799 25.5225 -3.3396 -15.5030 17.6604
# 3 22.1825 25.5225 113.6804 -25.1057 14.1645 -6.4229
# 4 -11.6027 -3.3396 -25.1057 44.8771 -6.7203 -2.2617
# 5 -8.3000 -15.5030 14.1645 -6.7203 32.4900 -3.1880
# 6 -7.9594 17.6604 -6.4229 -2.2617 -3.1880 47.2880
#
#
#
# Elastic Compliance Matrix: (Units=1/GPa)
#
#
# Indices 1 2 3 4 5 6 
#
# 1 0.016473 -0.001873 -0.002441 0.003767 0.005520 0.003693
# 2 -0.001873 0.006962 -0.001928 -0.000709 0.003244 -0.002992
# 3 -0.002441 -0.001928 0.011577 0.004984 -0.005387 0.001757
# 4 0.003767 -0.000709 0.004984 0.026795 0.004302 0.003147
# 5 0.005520 0.003244 -0.005387 0.004302 0.037142 0.001696
# 6 0.003693 -0.002992 0.001757 0.003147 0.001696 0.023390
#
#
# Mechanical properties :
#
#
# Convention : Reuss Voigt Hill
#
# Bulk Modulus (GPa) = 44.38718 56.20309 50.29514
# Shear Modulus (GPa) = 35.12929 44.04533 39.58731
#
# Velocity S-wave (km/s) = 3.65870 4.09678 3.88392
# Velocity P-wave (km/s) = 5.89593 6.61774 6.26723
#
# Compressibility (1/GPa) = 0.02252903
#
# Stress axis : x y z
#
# Youngs Moduli (GPa) = 60.70598 143.62701 86.37922
#
# Poissons Ratio (x) = 0.26895 0.21088
# Poissons Ratio (y) = 0.11368 0.16651
# Poissons Ratio (z) = 0.14820 0.27687
#
# Static dielectric constant tensor:
#      x y z
#    x 1.788640 -0.107380 -0.422430 
#    y -0.107380 2.094710 0.029660 
#    z -0.422430 0.029660 1.719230 
# 
# From -- ./inp_files/367171.got.cif
#   From: 2010.05.17/outbox.cif.g08.bks.cpg/sg2_184_cif.got.tgz:367171.got - 2010.06.03 11:33:40.
