data_PCOD9047714
_publ_section_title
;
Structure prediction by ZEFSAII (Michael W. Deem and Ramdas Pophale) SiO2 
 PCOD9047714
Probable space group: P -1
;
_chemical_formula_sum "Si O2"
_cell_formula_units_Z 16
_cell_length_a 6.488719
_cell_length_b 10.493795
_cell_length_c 12.576934
_cell_angle_alpha 119.075123
_cell_angle_beta 67.812595
_cell_angle_gamma 108.546594
_cell_volume 683.393151
_symmetry_space_group_name_H-M "P -1"
_symmetry_group_IT_number 2
_symmetry_cell_setting 'triclinic'
loop_
_space_group_symop_operation_xyz
x,y,z
-x,-y,-z
loop_
_atom_site_type_symbol
_atom_site_label
_atom_site_fract_x
_atom_site_fract_y
_atom_site_fract_z
Si Si1 0.128480 0.162609 0.070809
Si Si2 0.965458 0.772373 0.422191
Si Si3 0.640731 0.577373 0.260265
Si Si4 0.201214 0.630370 0.490021
Si Si5 0.939291 0.663758 0.052933
Si Si6 0.380006 0.994870 0.405352
Si Si7 0.616118 0.233666 0.070740
Si Si8 0.280534 0.827467 0.733894
O O1 0.383275 0.154472 0.040419
O O2 0.990774 0.194205 0.214986
O O3 0.128461 0.292881 0.035620
O O4 0.000000 0.000000 0.000000
O O5 0.836977 0.625051 0.329823
O O6 0.779070 0.878606 0.506982
O O7 0.067609 0.747392 0.507032
O O8 0.196253 0.851807 0.353545
O O9 0.399347 0.601581 0.360727
O O10 0.612213 0.407879 0.161272
O O11 0.742966 0.677598 0.180413
O O12 0.324581 0.690471 0.598422
O O13 0.000000 0.500000 0.500000
O O14 0.178897 0.773036 0.053136
O O15 0.000000 0.500000 0.000000
O O16 0.579104 0.033513 0.296696
O O17 0.500000 0.000000 0.500000
O O18 0.652576 0.179245 0.160031
#
# Coordination Sequence:
#
# PCOD9047714 Si02
#       8
#     2   2   2   2   2   2   2   2
#     4  11  26  44  70 102 134 182 232 289 352 412
#     4  11  24  40  65  96 137 182 223 277 336 409
#     4  11  23  41  68 101 135 178 231 282 346 410
#     4  12  25  40  66 103 140 178 227 275 348 416
#     4   9  23  46  68  98 136 177 237 290 345 408
#     4  11  23  42  62  93 138 184 227 271 336 407
#     4  10  24  44  69  97 135 182 229 290 345 402
#     4  11  24  42  66  97 139 179 225 280 342 416
#
# _framework density 23.412583999999999
#
# number of rings (size 3 to 8) (size 9 to 14) (size 15 to 20)
#    0.000    1.250    2.500    1.500    3.500   12.000 
#    0.000    0.000    0.000    0.000    0.000    0.000 
#    0.000    0.000    0.000    0.000    0.000    0.000 
#
# Total GULP energy -89287.505312 kJ/mol
# GULP energy per Si atom -5580.469082 kJ/mol
# Density = 2.335930 g / cm^3
# Si number density = 23.412584 Si / 1000 Ang^3
#
#
#
# Elastic Constant Matrix: (Units=GPa)
#
#
# Indices 1 2 3 4 5 6 
#
# 1 127.7367 56.8683 39.1122 -26.5338 -9.8611 30.5900
# 2 56.8683 106.9110 49.1885 -28.7622 2.5987 25.3335
# 3 39.1122 49.1885 100.4810 -33.1743 -16.5677 12.2754
# 4 -26.5338 -28.7622 -33.1743 52.9740 14.7220 -4.6152
# 5 -9.8611 2.5987 -16.5677 14.7220 34.9551 -3.7045
# 6 30.5900 25.3335 12.2754 -4.6152 -3.7045 51.7166
#
#
#
# Elastic Compliance Matrix: (Units=1/GPa)
#
#
# Indices 1 2 3 4 5 6 
#
# 1 0.011575 -0.004206 -0.000954 0.002042 0.001816 -0.004247
# 2 -0.004206 0.016859 -0.005594 0.005320 -0.007812 -0.004527
# 3 -0.000954 -0.005594 0.015463 0.004662 0.005560 0.000449
# 4 0.002042 0.005320 0.004662 0.028161 -0.009799 -0.003109
# 5 0.001816 -0.007812 0.005560 -0.009799 0.036802 0.003195
# 6 -0.004247 -0.004527 0.000449 -0.003109 0.003195 0.023911
#
#
# Mechanical properties :
#
#
# Convention : Reuss Voigt Hill
#
# Bulk Modulus (GPa) = 44.66743 69.49630 57.08187
# Shear Modulus (GPa) = 30.91349 40.59310 35.75330
#
# Velocity S-wave (km/s) = 3.63764 4.16843 3.91205
# Velocity P-wave (km/s) = 6.06326 7.27430 6.69621
#
# Compressibility (1/GPa) = 0.02238768
#
# Stress axis : x y z
#
# Youngs Moduli (GPa) = 86.39467 59.31668 64.66970
#
# Poissons Ratio (x) = 0.24951 0.06169
# Poissons Ratio (y) = 0.36341 0.36177
# Poissons Ratio (z) = 0.08242 0.33182
#
# Static dielectric constant tensor:
#      x y z
#    x 1.935020 -0.025500 -0.052780 
#    y -0.025500 1.953850 0.019750 
#    z -0.052780 0.019750 1.951240 
# 
# From -- ./inp_files/365008.got.cif
#   From: 2010.05.17/outbox.cif.g08.bks.cpg/sg2_183_cif.got.tgz:365008.got - 2010.06.03 11:33:40.
