data_PCOD9047463
_publ_section_title
;
Structure prediction by ZEFSAII (Michael W. Deem and Ramdas Pophale) SiO2 
 PCOD9047463
Probable space group: P -1
;
_chemical_formula_sum "Si O2"
_cell_formula_units_Z 14
_cell_length_a 11.716220
_cell_length_b 8.173421
_cell_length_c 9.498012
_cell_angle_alpha 137.114655
_cell_angle_beta 72.813120
_cell_angle_gamma 85.656638
_cell_volume 528.227319
_symmetry_space_group_name_H-M "P -1"
_symmetry_group_IT_number 2
_symmetry_cell_setting 'triclinic'
loop_
_space_group_symop_operation_xyz
x,y,z
-x,-y,-z
loop_
_atom_site_type_symbol
_atom_site_label
_atom_site_fract_x
_atom_site_fract_y
_atom_site_fract_z
Si Si1 0.069272 0.061799 0.299704
Si Si2 0.891365 0.798752 0.204801
Si Si3 0.787205 0.728041 0.922429
Si Si4 0.611158 0.172623 0.611796
Si Si5 0.121708 0.541618 0.585056
Si Si6 0.352569 0.683251 0.618773
Si Si7 0.320528 0.557622 0.996392
O O1 0.089588 0.308187 0.517289
O O2 0.007279 0.187525 0.248575
O O3 0.205159 0.782837 0.084221
O O4 0.953475 0.992546 0.358303
O O5 0.878689 0.803821 0.043304
O O6 0.743986 0.884366 0.373666
O O7 0.000000 0.500000 0.000000
O O8 0.673233 0.027459 0.129271
O O9 0.824655 0.588567 0.671154
O O10 0.745252 0.550915 0.929322
O O11 0.647122 0.301487 0.542484
O O12 0.621997 0.271373 0.825975
O O13 0.450451 0.294323 0.725120
O O14 0.238274 0.593702 0.643591
O O15 0.500000 0.500000 0.500000
#
# Coordination Sequence:
#
# PCOD9047463 Si02
#       7
#     2   2   2   2   2   2   2
#     4  11  24  44  71 104 144 188 236 294 361 415
#     4  11  22  42  70 107 139 186 234 295 358 418
#     4  11  23  43  72 100 141 185 238 295 355 420
#     4  10  24  44  67 105 147 177 246 289 349 437
#     4  11  25  47  66 105 147 184 245 294 345 447
#     4  11  25  45  71 100 144 194 234 291 364 423
#     4  11  23  43  73 106 136 193 230 301 360 412
#
# _framework density 26.503741999999999
#
# number of rings (size 3 to 8) (size 9 to 14) (size 15 to 20)
#    0.000    1.143    5.714    0.000    4.000    6.857 
#    0.000    0.000    0.000    0.000    0.000    0.000 
#    0.000    0.000    0.000    0.000    0.000    0.000 
#
# Total GULP energy -78132.713870 kJ/mol
# GULP energy per Si atom -5580.908134 kJ/mol
# Density = 2.644342 g / cm^3
# Si number density = 26.503742 Si / 1000 Ang^3
#
#
#
# Elastic Constant Matrix: (Units=GPa)
#
#
# Indices 1 2 3 4 5 6 
#
# 1 173.1438 47.4412 54.9611 26.4184 -38.6217 2.2286
# 2 47.4412 70.9642 59.4676 18.4480 -10.1062 8.0695
# 3 54.9611 59.4676 182.3823 19.5474 -48.6878 -24.8798
# 4 26.4184 18.4480 19.5474 54.5926 -19.4565 -0.4477
# 5 -38.6217 -10.1062 -48.6878 -19.4565 34.6298 10.2440
# 6 2.2286 8.0695 -24.8798 -0.4477 10.2440 49.7704
#
#
#
# Elastic Compliance Matrix: (Units=1/GPa)
#
#
# Indices 1 2 3 4 5 6 
#
# 1 0.009712 -0.007307 0.002902 0.001685 0.013919 -0.000649
# 2 -0.007307 0.030403 -0.013336 -0.009642 -0.021386 -0.006954
# 3 0.002902 -0.013336 0.014905 0.005643 0.021990 0.005008
# 4 0.001685 -0.009642 0.005643 0.026546 0.021903 0.000039
# 5 0.013919 -0.021386 0.021990 0.021903 0.082238 -0.002893
# 6 -0.000649 -0.006954 0.005008 0.000039 -0.002893 0.024348
#
#
# Mechanical properties :
#
#
# Convention : Reuss Voigt Hill
#
# Bulk Modulus (GPa) = 51.17677 83.35888 67.26782
# Shear Modulus (GPa) = 21.72523 45.43994 33.58259
#
# Velocity S-wave (km/s) = 2.86615 4.14511 3.56348
# Velocity P-wave (km/s) = 5.50493 7.37762 6.50898
#
# Compressibility (1/GPa) = 0.01954012
#
# Stress axis : x y z
#
# Youngs Moduli (GPa) = 102.96136 32.89114 67.08988
#
# Poissons Ratio (x) = 0.24034 -0.19471
# Poissons Ratio (y) = 0.75235 0.89468
# Poissons Ratio (z) = -0.29882 0.43862
#
# Static dielectric constant tensor:
#      x y z
#    x 2.205750 0.051000 -0.009100 
#    y 0.051000 2.148080 0.044280 
#    z -0.009100 0.044280 2.178800 
# 
# From -- ./inp_files/418539.got.cif
#   From: 2010.05.17/outbox.cif.g08.bks.cpg/sg2_210_cif.got.tgz:418539.got - 2010.06.03 11:33:40.
