data_PCOD9047656
_publ_section_title
;
Structure prediction by ZEFSAII (Michael W. Deem and Ramdas Pophale) SiO2 
 PCOD9047656
Probable space group: P -1
;
_chemical_formula_sum "Si O2"
_cell_formula_units_Z 16
_cell_length_a 5.195295
_cell_length_b 14.435252
_cell_length_c 11.986636
_cell_angle_alpha 49.298951
_cell_angle_beta 73.914763
_cell_angle_gamma 81.535409
_cell_volume 654.135730
_symmetry_space_group_name_H-M "P -1"
_symmetry_group_IT_number 2
_symmetry_cell_setting 'triclinic'
loop_
_space_group_symop_operation_xyz
x,y,z
-x,-y,-z
loop_
_atom_site_type_symbol
_atom_site_label
_atom_site_fract_x
_atom_site_fract_y
_atom_site_fract_z
Si Si1 0.389905 0.130187 0.090481
Si Si2 0.129498 0.225945 0.847023
Si Si3 0.301136 0.981700 0.437879
Si Si4 0.145279 0.746839 0.534889
Si Si5 0.573277 0.383316 0.913197
Si Si6 0.307161 0.483835 0.641728
Si Si7 0.160590 0.416735 0.131935
Si Si8 0.713241 0.129363 0.795480
O O1 0.347150 0.078903 0.258238
O O2 0.405737 0.005650 0.115588
O O3 0.150882 0.191115 0.002842
O O4 0.608406 0.242695 0.986933
O O5 0.095478 0.371772 0.723740
O O6 0.441794 0.204604 0.786097
O O7 0.918874 0.146096 0.860940
O O8 0.346411 0.845214 0.492985
O O9 0.500000 0.000000 0.500000
O O10 0.000000 0.000000 0.500000
O O11 0.226879 0.619233 0.574637
O O12 0.096146 0.824223 0.367590
O O13 0.956160 0.702077 0.695327
O O14 0.441079 0.438508 0.775697
O O15 0.781624 0.487117 0.850380
O O16 0.393058 0.375309 0.054468
O O17 0.500000 0.500000 0.500000
O O18 0.000000 0.500000 0.000000
#
# Coordination Sequence:
#
# PCOD9047656 Si02
#       8
#     2   2   2   2   2   2   2   2
#     4  10  24  45  70 102 135 188 240 292 356 426
#     4  11  25  45  70 100 145 186 240 286 355 425
#     4  11  27  48  75 106 144 190 239 306 361 429
#     4  11  25  43  73 106 142 186 243 297 367 434
#     4  10  24  44  69 101 139 185 239 299 357 432
#     4  11  23  43  68 104 143 190 234 295 359 430
#     4  11  23  42  67  98 137 182 232 297 362 419
#     4  11  25  46  69 103 140 191 231 298 348 429
#
# _framework density 24.459757
#
# number of rings (size 3 to 8) (size 9 to 14) (size 15 to 20)
#    0.000    1.250    2.500    1.500    3.500    8.500 
#    2.250    0.000    0.000    0.000    0.000    0.000 
#    0.000    0.000    0.000    0.000    0.000    0.000 
#
# Total GULP energy -89229.949743 kJ/mol
# GULP energy per Si atom -5576.871859 kJ/mol
# Density = 2.440409 g / cm^3
# Si number density = 24.459757 Si / 1000 Ang^3
#
#
#
# Elastic Constant Matrix: (Units=GPa)
#
#
# Indices 1 2 3 4 5 6 
#
# 1 73.4937 36.2968 10.2137 2.5873 0.2027 30.2993
# 2 36.2968 168.6318 54.3720 -21.5569 7.5021 31.4254
# 3 10.2137 54.3720 158.7524 -4.4317 -4.4150 24.7552
# 4 2.5873 -21.5569 -4.4317 60.2680 1.3181 2.5147
# 5 0.2027 7.5021 -4.4150 1.3181 14.0737 6.5415
# 6 30.2993 31.4254 24.7552 2.5147 6.5415 47.2122
#
#
#
# Elastic Compliance Matrix: (Units=1/GPa)
#
#
# Indices 1 2 3 4 5 6 
#
# 1 0.020277 -0.003131 0.001986 -0.001480 0.008193 -0.013027
# 2 -0.003131 0.008316 -0.002409 0.003107 -0.004602 -0.001791
# 3 0.001986 -0.002409 0.007868 -0.000305 0.005889 -0.004596
# 4 -0.001480 0.003107 -0.000305 0.017868 -0.002690 -0.001537
# 5 0.008193 -0.004602 0.005889 -0.002690 0.083238 -0.016672
# 6 -0.013027 -0.001791 -0.004596 -0.001537 -0.016672 0.035535
#
#
# Mechanical properties :
#
#
# Convention : Reuss Voigt Hill
#
# Bulk Modulus (GPa) = 34.06736 66.96030 50.51383
# Shear Modulus (GPa) = 26.31634 44.31047 35.31341
#
# Velocity S-wave (km/s) = 3.28366 4.26087 3.80377
# Velocity P-wave (km/s) = 5.32303 7.18622 6.32363
#
# Compressibility (1/GPa) = 0.02935361
#
# Stress axis : x y z
#
# Youngs Moduli (GPa) = 49.31716 120.24446 127.09126
#
# Poissons Ratio (x) = 0.37646 -0.25235
# Poissons Ratio (y) = 0.15440 0.30614
# Poissons Ratio (z) = -0.09792 0.28965
#
# Static dielectric constant tensor:
#      x y z
#    x 2.075940 -0.094030 -0.054150 
#    y -0.094030 1.987420 -0.001080 
#    z -0.054150 -0.001080 1.900920 
# 
# From -- ./inp_files/367476.got.cif
#   From: 2010.05.17/outbox.cif.g08.bks.cpg/sg2_184_cif.got.tgz:367476.got - 2010.06.03 11:33:40.
