data_PCOD9047114
_publ_section_title
;
Structure prediction by ZEFSAII (Michael W. Deem and Ramdas Pophale) SiO2 
 PCOD9047114
Probable space group: P -1
;
_chemical_formula_sum "Si O2"
_cell_formula_units_Z 16
_cell_length_a 7.508088
_cell_length_b 15.614298
_cell_length_c 10.393535
_cell_angle_alpha 80.883591
_cell_angle_beta 130.014877
_cell_angle_gamma 63.167953
_cell_volume 628.139835
_symmetry_space_group_name_H-M "P -1"
_symmetry_group_IT_number 2
_symmetry_cell_setting 'triclinic'
loop_
_space_group_symop_operation_xyz
x,y,z
-x,-y,-z
loop_
_atom_site_type_symbol
_atom_site_label
_atom_site_fract_x
_atom_site_fract_y
_atom_site_fract_z
Si Si1 0.225120 0.879923 0.966689
Si Si2 0.180888 0.076455 0.431518
Si Si3 0.824022 0.652870 0.143208
Si Si4 0.729302 0.651119 0.814252
Si Si5 0.316574 0.036139 0.096187
Si Si6 0.797793 0.281002 0.647738
Si Si7 0.838081 0.589372 0.524496
Si Si8 0.872827 0.350241 0.211255
O O1 0.546691 0.737079 0.106094
O O2 0.354881 0.930965 0.079633
O O3 0.020596 0.947747 0.721553
O O4 0.967783 0.902955 0.938774
O O5 0.938693 0.228999 0.276689
O O6 0.500000 0.000000 0.500000
O O7 0.347979 0.022450 0.661580
O O8 0.972721 0.516214 0.249323
O O9 0.120562 0.639640 0.322627
O O10 0.000000 0.500000 0.000000
O O11 0.679444 0.706224 0.919828
O O12 0.397939 0.701896 0.573759
O O13 0.907423 0.674878 0.801675
O O14 0.154660 0.139437 0.885705
O O15 0.547919 0.323075 0.639363
O O16 0.000000 0.500000 0.500000
O O17 0.942358 0.659652 0.575358
O O18 0.500000 0.500000 0.000000
#
# Coordination Sequence:
#
# PCOD9047114 Si02
#       8
#     2   2   2   2   2   2   2   2
#     4  10  24  43  72 100 138 176 242 290 353 420
#     4  10  24  43  73 106 142 183 239 300 357 416
#     4  12  25  45  69 103 143 186 229 296 368 422
#     4  11  26  46  66  98 147 184 231 292 358 427
#     4  10  24  46  73  99 141 184 239 302 349 420
#     4  11  26  44  71 100 141 191 233 283 369 427
#     4  11  25  42  70 105 139 178 242 297 351 425
#     4  11  25  44  74 108 135 187 244 294 359 421
#
# _framework density 25.472034000000001
#
# number of rings (size 3 to 8) (size 9 to 14) (size 15 to 20)
#    0.000    1.250    2.500    1.875   17.500    1.500 
#    0.000    1.250    0.000    0.000    0.000    0.000 
#    0.000    0.000    0.000    0.000    0.000    0.000 
#
# Total GULP energy -89440.286823 kJ/mol
# GULP energy per Si atom -5590.017926 kJ/mol
# Density = 2.541406 g / cm^3
# Si number density = 25.472034 Si / 1000 Ang^3
#
#
#
# Elastic Constant Matrix: (Units=GPa)
#
#
# Indices 1 2 3 4 5 6 
#
# 1 73.9919 21.4165 35.2397 13.5496 3.7373 -15.6276
# 2 21.4165 84.8367 55.2194 4.8194 -3.6786 -16.8064
# 3 35.2397 55.2194 168.5141 14.6325 -18.0328 -1.2581
# 4 13.5496 4.8194 14.6325 49.3111 -4.4170 3.2356
# 5 3.7373 -3.6786 -18.0328 -4.4170 36.7981 3.2956
# 6 -15.6276 -16.8064 -1.2581 3.2356 3.2956 35.2407
#
#
#
# Elastic Compliance Matrix: (Units=1/GPa)
#
#
# Indices 1 2 3 4 5 6 
#
# 1 0.018457 -0.000394 -0.003786 -0.004948 -0.005151 0.008798
# 2 -0.000394 0.017062 -0.005588 -0.000584 -0.001778 0.007982
# 3 -0.003786 -0.005588 0.009052 -0.000397 0.004610 -0.004416
# 4 -0.004948 -0.000584 -0.000397 0.022436 0.003378 -0.004863
# 5 -0.005151 -0.001778 0.004610 0.003378 0.030736 -0.006152
# 6 0.008798 0.007982 -0.004416 -0.004863 -0.006152 0.036949
#
#
# Mechanical properties :
#
#
# Convention : Reuss Voigt Hill
#
# Bulk Modulus (GPa) = 39.94795 61.23266 50.59030
# Shear Modulus (GPa) = 30.75538 38.63444 34.69491
#
# Velocity S-wave (km/s) = 3.47856 3.89876 3.69464
# Velocity P-wave (km/s) = 5.64367 6.66021 6.17290
#
# Compressibility (1/GPa) = 0.02503258
#
# Stress axis : x y z
#
# Youngs Moduli (GPa) = 54.18035 58.61091 110.47249
#
# Poissons Ratio (x) = 0.02310 0.41830
# Poissons Ratio (y) = 0.02136 0.61736
# Poissons Ratio (z) = 0.20515 0.32754
#
# Static dielectric constant tensor:
#      x y z
#    x 2.094630 0.062720 -0.035750 
#    y 0.062720 2.057520 -0.035540 
#    z -0.035750 -0.035540 2.132030 
# 
# From -- ./inp_files/520925.got.cif
#   From: 2010.05.17/outbox.cif.g08.bks.cpg/sg2_261_cif.got.tgz:520925.got - 2010.06.03 11:33:40.
