data_PCOD9047213
_publ_section_title
;
Structure prediction by ZEFSAII (Michael W. Deem and Ramdas Pophale) SiO2 
 PCOD9047213
Probable space group: P -1
;
_chemical_formula_sum "Si O2"
_cell_formula_units_Z 16
_cell_length_a 5.008099
_cell_length_b 17.244975
_cell_length_c 8.910533
_cell_angle_alpha 122.358934
_cell_angle_beta 66.765346
_cell_angle_gamma 92.230025
_cell_volume 582.439697
_symmetry_space_group_name_H-M "P -1"
_symmetry_group_IT_number 2
_symmetry_cell_setting 'triclinic'
loop_
_space_group_symop_operation_xyz
x,y,z
-x,-y,-z
loop_
_atom_site_type_symbol
_atom_site_label
_atom_site_fract_x
_atom_site_fract_y
_atom_site_fract_z
Si Si1 0.807821 0.266101 0.629576
Si Si2 0.441707 0.478024 0.163208
Si Si3 0.064332 0.900178 0.140745
Si Si4 0.184753 0.412085 0.600759
Si Si5 0.548124 0.703856 0.868893
Si Si6 0.636170 0.937386 0.765092
Si Si7 0.329979 0.161954 0.616093
Si Si8 0.002271 0.197772 0.223835
O O1 0.486748 0.244089 0.718613
O O2 0.991960 0.348320 0.665936
O O3 0.025638 0.195893 0.623272
O O4 0.755666 0.256486 0.447496
O O5 0.618997 0.538778 0.285122
O O6 0.544693 0.368389 0.069747
O O7 0.091776 0.506380 0.310657
O O8 0.500000 0.500000 0.000000
O O9 0.760484 0.891393 0.277493
O O10 0.154723 0.994757 0.270510
O O11 0.312300 0.803493 0.017099
O O12 0.040741 0.889454 0.954928
O O13 0.382553 0.353963 0.364123
O O14 0.862144 0.735870 0.848143
O O15 0.475716 0.907175 0.623214
O O16 0.775736 0.843163 0.731020
O O17 0.500000 0.000000 0.000000
#
# Coordination Sequence:
#
# PCOD9047213 Si02
#       8
#     2   2   2   2   2   2   2   2
#     4  10  24  46  74 103 142 192 252 292 368 435
#     4  12  28  49  76 113 152 190 239 309 377 445
#     4  12  26  43  72 108 152 190 250 313 365 435
#     4  11  26  49  80 105 146 197 246 303 367 453
#     4  11  27  46  74 109 145 194 249 302 370 441
#     4  11  22  47  71 106 145 202 255 297 366 437
#     4  11  26  44  71 108 152 195 239 309 367 433
#     4  10  24  43  74 101 141 197 246 306 355 443
#
# _framework density 27.470656000000002
#
# number of rings (size 3 to 8) (size 9 to 14) (size 15 to 20)
#    0.000    1.000    1.250    3.375   12.250    2.000 
#    0.000    3.750    0.000    0.000    0.000    0.000 
#    0.000    0.000    0.000    0.000    0.000    0.000 
#
# Total GULP energy -89367.178226 kJ/mol
# GULP energy per Si atom -5585.448639 kJ/mol
# Density = 2.740813 g / cm^3
# Si number density = 27.470656 Si / 1000 Ang^3
#
#
#
# Elastic Constant Matrix: (Units=GPa)
#
#
# Indices 1 2 3 4 5 6 
#
# 1 102.3524 24.2899 47.3025 6.1835 24.7605 13.5991
# 2 24.2899 164.5973 41.2380 -1.2024 2.0409 20.1140
# 3 47.3025 41.2380 98.4978 2.4701 20.3413 22.1518
# 4 6.1835 -1.2024 2.4701 46.2615 18.5702 -0.6508
# 5 24.7605 2.0409 20.3413 18.5702 43.1312 11.6192
# 6 13.5991 20.1140 22.1518 -0.6508 11.6192 51.9854
#
#
#
# Elastic Compliance Matrix: (Units=1/GPa)
#
#
# Indices 1 2 3 4 5 6 
#
# 1 0.013621 -0.000668 -0.005136 0.000739 -0.005731 0.000174
# 2 -0.000668 0.007026 -0.002591 -0.000400 0.001952 -0.001881
# 3 -0.005136 -0.002591 0.015182 0.001270 -0.003756 -0.003268
# 4 0.000739 -0.000400 0.001270 0.026809 -0.013281 0.002724
# 5 -0.005731 0.001952 -0.003756 -0.013281 0.035418 -0.005738
# 6 0.000174 -0.001881 -0.003268 0.002724 -0.005738 0.022628
#
#
# Mechanical properties :
#
#
# Convention : Reuss Voigt Hill
#
# Bulk Modulus (GPa) = 52.52110 65.67869 59.09989
# Shear Modulus (GPa) = 34.76604 45.11675 39.94140
#
# Velocity S-wave (km/s) = 3.56134 4.05700 3.81723
# Velocity P-wave (km/s) = 6.00595 6.77542 6.40225
#
# Compressibility (1/GPa) = 0.01903997
#
# Stress axis : x y z
#
# Youngs Moduli (GPa) = 73.41721 142.33212 65.86642
#
# Poissons Ratio (x) = 0.09510 0.33827
# Poissons Ratio (y) = 0.04905 0.17064
# Poissons Ratio (z) = 0.37705 0.36873
#
# Static dielectric constant tensor:
#      x y z
#    x 2.239520 -0.132810 -0.382770 
#    y -0.132810 2.277530 0.378220 
#    z -0.382770 0.378220 3.373440 
# 
# From -- ./inp_files/139315.got.cif
#   From: 2010.05.17/outbox.cif.g08.bks.cpg/sg2_70_cif.got.tgz:139315.got - 2010.06.03 11:33:40.
