data_PCOD9047247
_publ_section_title
;
Structure prediction by ZEFSAII (Michael W. Deem and Ramdas Pophale) SiO2 
 PCOD9047247
Probable space group: P -1
;
_chemical_formula_sum "Si O2"
_cell_formula_units_Z 13
_cell_length_a 12.166643
_cell_length_b 12.011507
_cell_length_c 9.623447
_cell_angle_alpha 120.139378
_cell_angle_beta 141.560936
_cell_angle_gamma 38.760183
_cell_volume 525.607167
_symmetry_space_group_name_H-M "P -1"
_symmetry_group_IT_number 2
_symmetry_cell_setting 'triclinic'
loop_
_space_group_symop_operation_xyz
x,y,z
-x,-y,-z
loop_
_atom_site_type_symbol
_atom_site_label
_atom_site_fract_x
_atom_site_fract_y
_atom_site_fract_z
Si Si1 0.745830 0.183587 0.566782
Si Si2 0.500000 0.500000 0.000000
Si Si3 0.352440 0.195153 0.554361
Si Si4 0.494589 0.482386 0.293710
Si Si5 0.523949 0.017659 0.197837
Si Si6 0.819330 0.129492 0.028140
Si Si7 0.961303 0.625993 0.918472
O O1 0.712883 0.305980 0.492699
O O2 0.573521 0.336615 0.615125
O O3 0.630518 0.106271 0.369551
O O4 0.033391 0.007283 0.783425
O O5 0.422260 0.580736 0.818761
O O6 0.222017 0.697302 0.906513
O O7 0.149951 0.345813 0.330258
O O8 0.500000 0.000000 0.500000
O O9 0.306189 0.162026 0.643637
O O10 0.538084 0.218676 0.786569
O O11 0.236722 0.541333 0.111081
O O12 0.245870 0.169676 0.090153
O O13 0.500000 0.000000 0.000000
O O14 0.000000 0.000000 0.000000
O O15 0.000000 0.500000 0.000000
#
# Coordination Sequence:
#
# PCOD9047247 Si02
#       7
#     2   1   2   2   2   2   2
#     4  11  24  48  78 100 156 202 245 318 392 439
#     4  12  30  44  78 114 146 194 276 296 382 462
#     4  10  24  43  76 105 145 206 248 305 398 451
#     4  11  26  49  74 114 143 203 259 309 383 459
#     4  11  25  46  71 113 146 199 260 305 384 467
#     4  12  25  49  75 107 152 196 246 322 374 449
#     4  11  23  47  77 102 155 195 241 318 382 439
#
# _framework density 24.733298999999999
#
# number of rings (size 3 to 8) (size 9 to 14) (size 15 to 20)
#    0.000    0.923    3.077    3.692    4.308    0.615 
#    8.308    1.538    0.000    0.000    0.000    0.000 
#    0.000    0.000    0.000    0.000    0.000    0.000 
#
# Total GULP energy -72433.649714 kJ/mol
# GULP energy per Si atom -5571.819209 kJ/mol
# Density = 2.467701 g / cm^3
# Si number density = 24.733299 Si / 1000 Ang^3
#
#
#
# Elastic Constant Matrix: (Units=GPa)
#
#
# Indices 1 2 3 4 5 6 
#
# 1 92.6954 31.0908 53.9906 18.7356 -51.1128 5.2929
# 2 31.0908 80.5033 33.4993 -41.2243 -19.3453 13.0417
# 3 53.9906 33.4993 161.3660 -23.1005 -31.7226 22.3535
# 4 18.7356 -41.2243 -23.1005 36.7790 16.8864 -6.9818
# 5 -51.1128 -19.3453 -31.7226 16.8864 49.0625 -1.2457
# 6 5.2929 13.0417 22.3535 -6.9818 -1.2457 41.0569
#
#
#
# Elastic Compliance Matrix: (Units=1/GPa)
#
#
# Indices 1 2 3 4 5 6 
#
# 1 -0.011791 0.017221 0.002089 0.033919 -0.015811 0.000200
# 2 0.017221 0.004775 -0.004204 -0.017308 0.022969 -0.003695
# 3 0.002089 -0.004204 0.007549 -0.004951 0.007011 -0.003673
# 4 0.033919 -0.017308 -0.004951 -0.028765 0.035211 -0.000002
# 5 -0.015811 0.022969 0.007011 0.035211 0.005307 -0.002926
# 6 0.000200 -0.003695 -0.003673 -0.000002 -0.002926 0.027415
#
#
# Mechanical properties :
#
#
# Convention : Reuss Voigt Hill
#
# Bulk Modulus (GPa) = 32.52265 63.52511 48.02388
# Shear Modulus (GPa) = -323.11718 39.77862 -141.66928
#
# Velocity S-wave (km/s) = -11.44221 4.01472 -7.57648
# Velocity P-wave (km/s) = 12.70384 6.87244 7.55504
#
# Compressibility (1/GPa) = 0.03074780
#
# Stress axis : x y z
#
# Youngs Moduli (GPa) = -84.81389 209.41292 132.46685
#
# Poissons Ratio (x) = -3.60637 -0.27679
# Poissons Ratio (y) = 1.46061 0.55687
# Poissons Ratio (z) = 0.17722 0.88033
#
# Static dielectric constant tensor:
#      x y z
#    x 1.931700 -0.037350 -0.100440 
#    y -0.037350 1.894510 -0.056950 
#    z -0.100440 -0.056950 1.983470 
# 
# From -- ./inp_files/263223.got.cif
#   From: 2010.05.17/outbox.cif.g08.bks.cpg/sg2_132_cif.got.tgz:263223.got - 2010.06.03 11:33:40.
