data_PCOD9047715
_publ_section_title
;
Structure prediction by ZEFSAII (Michael W. Deem and Ramdas Pophale) SiO2 
 PCOD9047715
Probable space group: P -1
;
_chemical_formula_sum "Si O2"
_cell_formula_units_Z 16
_cell_length_a 21.758214
_cell_length_b 11.351759
_cell_length_c 11.953172
_cell_angle_alpha 142.311690
_cell_angle_beta 25.073122
_cell_angle_gamma 150.515276
_cell_volume 615.739325
_symmetry_space_group_name_H-M "P -1"
_symmetry_group_IT_number 2
_symmetry_cell_setting 'triclinic'
loop_
_space_group_symop_operation_xyz
x,y,z
-x,-y,-z
loop_
_atom_site_type_symbol
_atom_site_label
_atom_site_fract_x
_atom_site_fract_y
_atom_site_fract_z
Si Si1 0.454393 0.114081 0.996920
Si Si2 0.809006 0.633914 0.733922
Si Si3 0.831927 0.485959 0.216339
Si Si4 0.463430 0.139929 0.483541
Si Si5 0.550083 0.443480 0.259907
Si Si6 0.917928 0.334128 0.256348
Si Si7 0.044315 0.227854 0.167917
Si Si8 0.789680 0.815622 0.690733
O O1 0.424475 0.175549 0.216431
O O2 0.305744 0.084150 0.137476
O O3 0.638988 0.374911 0.860818
O O4 0.490245 0.922882 0.760728
O O5 0.915817 0.562751 0.428994
O O6 0.940712 0.795351 0.740679
O O7 0.727311 0.726556 0.853799
O O8 0.641405 0.227540 0.325392
O O9 0.777781 0.625706 0.484465
O O10 0.000000 0.500000 0.000000
O O11 0.913077 0.606042 0.050262
O O12 0.446979 0.357968 0.671575
O O13 0.270065 0.900354 0.655378
O O14 0.500000 0.500000 0.500000
O O15 0.754279 0.538150 0.010094
O O16 0.924889 0.286206 0.341194
O O17 0.000000 0.000000 0.000000
O O18 0.000000 0.000000 0.500000
#
# Coordination Sequence:
#
# PCOD9047715 Si02
#       8
#     2   2   2   2   2   2   2   2
#     4  10  24  44  69  98 137 185 236 284 358 421
#     4  10  24  45  68  97 138 181 235 293 344 426
#     4  12  25  45  71 108 142 180 240 287 348 428
#     4  11  24  47  71 101 143 190 232 289 358 412
#     4  11  23  43  68 102 141 184 239 296 346 421
#     4  11  24  46  72 102 139 188 234 290 353 416
#     4  11  23  41  69  98 132 179 234 287 349 415
#     4  12  25  43  67 101 143 182 227 296 358 415
#
# _framework density 25.985023000000002
#
# number of rings (size 3 to 8) (size 9 to 14) (size 15 to 20)
#    0.000    1.000    3.750    2.250    1.750    1.000 
#    2.250    0.000    0.000    0.000    0.000    0.000 
#    0.000    0.000    0.000    0.000    0.000    0.000 
#
# Total GULP energy -89390.337027 kJ/mol
# GULP energy per Si atom -5586.896064 kJ/mol
# Density = 2.592588 g / cm^3
# Si number density = 25.985023 Si / 1000 Ang^3
#
#
#
# Elastic Constant Matrix: (Units=GPa)
#
#
# Indices 1 2 3 4 5 6 
#
# 1 113.2159 25.7094 31.9132 -15.8496 -8.1985 24.9834
# 2 25.7094 89.1073 24.6952 -1.7922 -7.9091 36.7126
# 3 31.9132 24.6952 78.5467 10.6573 -4.7288 13.2602
# 4 -15.8496 -1.7922 10.6573 51.3577 9.2432 -4.4864
# 5 -8.1985 -7.9091 -4.7288 9.2432 51.4000 -0.4643
# 6 24.9834 36.7126 13.2602 -4.4864 -0.4643 39.7785
#
#
#
# Elastic Compliance Matrix: (Units=1/GPa)
#
#
# Indices 1 2 3 4 5 6 
#
# 1 0.011913 0.000370 -0.004453 0.003959 0.000782 -0.005884
# 2 0.000370 0.019171 -0.003087 -0.000535 0.002668 -0.016926
# 3 -0.004453 -0.003087 0.016343 -0.005128 0.001237 -0.000366
# 4 0.003959 -0.000535 -0.005128 0.022648 -0.003975 0.002225
# 5 0.000782 0.002668 0.001237 -0.003975 0.020787 -0.003572
# 6 -0.005884 -0.016926 -0.000366 0.002225 -0.003572 0.044787
#
#
# Mechanical properties :
#
#
# Convention : Reuss Voigt Hill
#
# Bulk Modulus (GPa) = 30.22377 49.50059 39.86218
# Shear Modulus (GPa) = 31.05226 41.74406 36.39816
#
# Velocity S-wave (km/s) = 3.46064 4.01242 3.74670
# Velocity P-wave (km/s) = 5.25590 6.36844 5.83873
#
# Compressibility (1/GPa) = 0.03308654
#
# Stress axis : x y z
#
# Youngs Moduli (GPa) = 83.94078 52.16283 61.18723
#
# Poissons Ratio (x) = -0.01931 0.27249
# Poissons Ratio (y) = -0.03107 0.18889
# Poissons Ratio (z) = 0.37382 0.16103
#
# Static dielectric constant tensor:
#      x y z
#    x 2.289200 -0.111750 0.003260 
#    y -0.111750 2.052260 -0.039670 
#    z 0.003260 -0.039670 1.738060 
# 
# From -- ./inp_files/189250.got.cif
#   From: 2010.05.17/outbox.cif.g08.bks.cpg/sg2_95_cif.got.tgz:189250.got - 2010.06.03 11:33:40.
