data_PCOD9047078
_publ_section_title
;
Structure prediction by ZEFSAII (Michael W. Deem and Ramdas Pophale) SiO2 
 PCOD9047078
Probable space group: P -1
;
_chemical_formula_sum "Si O2"
_cell_formula_units_Z 16
_cell_length_a 8.652759
_cell_length_b 26.410826
_cell_length_c 11.970884
_cell_angle_alpha 29.567248
_cell_angle_beta 138.467958
_cell_angle_gamma 148.384682
_cell_volume 707.305914
_symmetry_space_group_name_H-M "P -1"
_symmetry_group_IT_number 2
_symmetry_cell_setting 'triclinic'
loop_
_space_group_symop_operation_xyz
x,y,z
-x,-y,-z
loop_
_atom_site_type_symbol
_atom_site_label
_atom_site_fract_x
_atom_site_fract_y
_atom_site_fract_z
Si Si1 0.331890 0.911270 0.370103
Si Si2 0.494935 0.464087 0.438379
Si Si3 0.940789 0.181491 0.189466
Si Si4 0.284075 0.261451 0.004509
Si Si5 0.737619 0.351515 0.676972
Si Si6 0.794262 0.037549 0.027677
Si Si7 0.170495 0.189008 0.524278
Si Si8 0.880479 0.350253 0.222581
O O1 0.300869 0.787162 0.542629
O O2 0.102557 0.857293 0.452351
O O3 0.659197 0.033363 0.346386
O O4 0.238735 0.961897 0.123712
O O5 0.500000 0.500000 0.500000
O O6 0.604401 0.378048 0.657763
O O7 0.200275 0.387352 0.351503
O O8 0.685317 0.607891 0.213480
O O9 0.127483 0.184898 0.181760
O O10 0.133580 0.244276 0.285403
O O11 0.822985 0.260520 0.933493
O O12 0.604440 0.296738 0.091472
O O13 0.065377 0.177613 0.947825
O O14 0.485093 0.283335 0.575644
O O15 0.000000 0.500000 0.500000
O O16 0.850682 0.935267 0.283836
O O17 0.500000 0.000000 0.000000
O O18 0.000000 0.500000 0.000000
#
# Coordination Sequence:
#
# PCOD9047078 Si02
#       8
#     2   2   2   2   2   2   2   2
#     4  12  24  47  72 109 150 190 249 304 371 442
#     4  11  24  46  74 104 143 199 245 310 374 437
#     4  12  27  46  78 111 149 200 248 307 379 440
#     4  11  24  45  70 113 147 192 253 306 373 441
#     4  12  26  51  74 106 153 192 254 305 375 454
#     4  12  25  45  77 108 150 196 248 311 373 441
#     4  12  28  47  74 110 152 197 247 309 376 441
#     4  10  24  43  71 105 149 184 246 305 363 447
#
# _framework density 22.621048999999999
#
# number of rings (size 3 to 8) (size 9 to 14) (size 15 to 20)
#    0.000    0.500    5.000    2.250    1.750    4.500 
#    0.000    0.000    0.000    0.000    0.000    0.000 
#    0.000    0.000    0.000    0.000    0.000    0.000 
#
# Total GULP energy -89075.223564 kJ/mol
# GULP energy per Si atom -5567.201473 kJ/mol
# Density = 2.256956 g / cm^3
# Si number density = 22.621049 Si / 1000 Ang^3
#
#
#
# Elastic Constant Matrix: (Units=GPa)
#
#
# Indices 1 2 3 4 5 6 
#
# 1 57.6259 12.0766 7.1341 11.2830 1.9773 -3.7289
# 2 12.0766 151.9034 39.6479 -3.9600 6.2063 3.2118
# 3 7.1341 39.6479 93.2753 2.6689 6.7419 8.8097
# 4 11.2830 -3.9600 2.6689 49.9125 -6.8225 -6.0182
# 5 1.9773 6.2063 6.7419 -6.8225 35.2880 3.2115
# 6 -3.7289 3.2118 8.8097 -6.0182 3.2115 20.5949
#
#
#
# Elastic Compliance Matrix: (Units=1/GPa)
#
#
# Indices 1 2 3 4 5 6 
#
# 1 0.018827 -0.001364 -0.000904 -0.004184 -0.001729 0.003055
# 2 -0.001364 0.007548 -0.003127 0.001044 -0.000478 0.000293
# 3 -0.000904 -0.003127 0.012791 -0.001601 -0.001665 -0.005356
# 4 -0.004184 0.001044 -0.001601 0.022402 0.004173 0.005660
# 5 -0.001729 -0.000478 -0.001665 0.004173 0.029915 -0.002972
# 6 0.003055 0.000293 -0.005356 0.005660 -0.002972 0.053472
#
#
# Mechanical properties :
#
#
# Convention : Reuss Voigt Hill
#
# Bulk Modulus (GPa) = 35.24024 46.72464 40.98244
# Shear Modulus (GPa) = 30.26549 37.42215 33.84382
#
# Velocity S-wave (km/s) = 3.66175 4.07173 3.87217
# Velocity P-wave (km/s) = 5.78707 6.54259 6.17640
#
# Compressibility (1/GPa) = 0.02837665
#
# Stress axis : x y z
#
# Youngs Moduli (GPa) = 53.11440 132.47910 78.17740
#
# Poissons Ratio (x) = 0.18068 0.07068
# Poissons Ratio (y) = 0.07244 0.24448
# Poissons Ratio (z) = 0.04802 0.41429
#
# Static dielectric constant tensor:
#      x y z
#    x 1.865520 0.045980 0.006540 
#    y 0.045980 1.823280 0.003890 
#    z 0.006540 0.003890 1.878900 
# 
# From -- ./inp_files/407324.got.cif
#   From: 2010.05.17/outbox.cif.g08.bks.cpg/sg2_204_cif.got.tgz:407324.got - 2010.06.03 11:33:40.
