data_PCOD9047190
_publ_section_title
;
Structure prediction by ZEFSAII (Michael W. Deem and Ramdas Pophale) SiO2 
 PCOD9047190
Probable space group: P -1
;
_chemical_formula_sum "Si O2"
_cell_formula_units_Z 12
_cell_length_a 5.309689
_cell_length_b 19.063942
_cell_length_c 18.540616
_cell_angle_alpha 164.853131
_cell_angle_beta 67.908915
_cell_angle_gamma 112.467667
_cell_volume 452.959756
_symmetry_space_group_name_H-M "P -1"
_symmetry_group_IT_number 2
_symmetry_cell_setting 'triclinic'
loop_
_space_group_symop_operation_xyz
x,y,z
-x,-y,-z
loop_
_atom_site_type_symbol
_atom_site_label
_atom_site_fract_x
_atom_site_fract_y
_atom_site_fract_z
Si Si1 0.702632 0.855107 0.622626
Si Si2 0.186347 0.547138 0.096713
Si Si3 0.302434 0.238460 0.246650
Si Si4 0.802575 0.941805 0.298270
Si Si5 0.200263 0.529895 0.406340
Si Si6 0.484309 0.361452 0.086222
O O1 0.499529 0.696922 0.543353
O O2 0.025506 0.906651 0.634342
O O3 0.610012 0.153038 0.919680
O O4 0.630870 0.660379 0.367352
O O5 0.209378 0.840311 0.421919
O O6 0.500000 0.500000 0.000000
O O7 0.000000 0.500000 0.000000
O O8 0.073189 0.316913 0.936885
O O9 0.500000 0.500000 0.500000
O O10 0.035776 0.272899 0.358430
O O11 0.500000 0.000000 0.000000
O O12 0.810142 0.705848 0.766882
O O13 0.544432 0.793162 0.138915
O O14 0.199735 0.411692 0.208131
#
# Coordination Sequence:
#
# PCOD9047190 Si02
#       6
#     2   2   2   2   2   2
#     4  10  24  43  73 106 150 189 254 318 394 443
#     4  12  30  51  82 115 162 207 258 313 392 481
#     4  11  26  43  74 101 149 203 260 306 401 469
#     4  12  26  48  80 111 150 202 254 314 390 459
#     4   9  26  47  70 107 152 192 262 332 380 467
#     4  10  24  43  73 106 150 189 254 318 394 443
#
# _framework density 26.492418000000001
#
# number of rings (size 3 to 8) (size 9 to 14) (size 15 to 20)
#    1.000    0.333    0.000    3.000   11.667    4.000 
#    0.000    0.000    0.000    0.000    0.000    0.000 
#    0.000    0.000    0.000    0.000    0.000    0.000 
#
# Total GULP energy -67014.116180 kJ/mol
# GULP energy per Si atom -5584.509682 kJ/mol
# Density = 2.643212 g / cm^3
# Si number density = 26.492418 Si / 1000 Ang^3
#
#
#
# Elastic Constant Matrix: (Units=GPa)
#
#
# Indices 1 2 3 4 5 6 
#
# 1 103.5144 24.5626 43.0979 -9.4265 1.3670 12.4837
# 2 24.5626 76.1833 22.3321 4.7645 -0.6298 15.4421
# 3 43.0979 22.3321 195.6647 -9.5964 -5.9423 -0.6395
# 4 -9.4265 4.7645 -9.5964 33.8731 -3.9017 0.2002
# 5 1.3670 -0.6298 -5.9423 -3.9017 55.7510 2.3748
# 6 12.4837 15.4421 -0.6395 0.2002 2.3748 42.1409
#
#
#
# Elastic Compliance Matrix: (Units=1/GPa)
#
#
# Indices 1 2 3 4 5 6 
#
# 1 0.011815 -0.002874 -0.002139 0.003075 -0.000229 -0.002481
# 2 -0.002874 0.015643 -0.001330 -0.003339 0.000080 -0.004890
# 3 -0.002139 -0.001330 0.005823 0.001315 0.000701 0.001163
# 4 0.003075 -0.003339 0.001315 0.031476 0.002228 0.000058
# 5 -0.000229 0.000080 0.000701 0.002228 0.018216 -0.000988
# 6 -0.002481 -0.004890 0.001163 0.000058 -0.000988 0.026330
#
#
# Mechanical properties :
#
#
# Convention : Reuss Voigt Hill
#
# Bulk Modulus (GPa) = 48.55035 61.70528 55.12782
# Shear Modulus (GPa) = 38.80376 45.37765 42.09070
#
# Velocity S-wave (km/s) = 3.83131 4.14315 3.99028
# Velocity P-wave (km/s) = 6.15937 6.79926 6.48721
#
# Compressibility (1/GPa) = 0.02059717
#
# Stress axis : x y z
#
# Youngs Moduli (GPa) = 84.63769 63.92572 171.72585
#
# Poissons Ratio (x) = 0.18370 0.36728
# Poissons Ratio (y) = 0.24322 0.22835
# Poissons Ratio (z) = 0.18102 0.08501
#
# Static dielectric constant tensor:
#      x y z
#    x 1.902350 -0.035790 0.007900 
#    y -0.035790 2.199140 -0.050350 
#    z 0.007900 -0.050350 2.019140 
# 
# From -- ./inp_files/605181.got.cif
#   From: 2010.05.17/outbox.cif.g08.bks.cpg/sg2_303_cif.got.tgz:605181.got - 2010.06.03 11:33:40.
