data_PCOD9047732
_publ_section_title
;
Structure prediction by ZEFSAII (Michael W. Deem and Ramdas Pophale) SiO2 
 PCOD9047732
Probable space group: P -1
;
_chemical_formula_sum "Si O2"
_cell_formula_units_Z 14
_cell_length_a 12.012618
_cell_length_b 9.902157
_cell_length_c 10.538236
_cell_angle_alpha 142.864354
_cell_angle_beta 57.539842
_cell_angle_gamma 105.759588
_cell_volume 607.739158
_symmetry_space_group_name_H-M "P -1"
_symmetry_group_IT_number 2
_symmetry_cell_setting 'triclinic'
loop_
_space_group_symop_operation_xyz
x,y,z
-x,-y,-z
loop_
_atom_site_type_symbol
_atom_site_label
_atom_site_fract_x
_atom_site_fract_y
_atom_site_fract_z
Si Si1 0.606005 0.772998 0.426805
Si Si2 0.772077 0.524816 0.663056
Si Si3 0.619557 0.778908 0.709198
Si Si4 0.055177 0.194939 0.175416
Si Si5 0.901203 0.892617 0.626090
Si Si6 0.102890 0.601730 0.094436
Si Si7 0.403310 0.735516 0.301866
O O1 0.581029 0.708886 0.539939
O O2 0.480637 0.775108 0.411837
O O3 0.620689 0.035579 0.600056
O O4 0.745538 0.584987 0.146701
O O5 0.660610 0.613637 0.685079
O O6 0.807660 0.725488 0.878384
O O7 0.732747 0.329497 0.622074
O O8 0.916534 0.415189 0.420085
O O9 0.759065 0.844105 0.642023
O O10 0.500000 0.000000 0.000000
O O11 0.088095 0.102767 0.227819
O O12 0.000000 0.000000 0.000000
O O13 0.027801 0.683313 0.335211
O O14 0.895426 0.148587 0.773837
O O15 0.000000 0.500000 0.000000
O O16 0.500000 0.500000 0.000000
#
# Coordination Sequence:
#
# PCOD9047732 Si02
#       7
#     2   2   2   2   2   2   2
#     4  11  27  45  73 108 137 195 237 289 359 422
#     4  10  25  45  69 102 139 184 232 286 351 413
#     4  11  24  47  71 102 142 180 234 290 355 426
#     4  10  24  44  70 100 140 184 231 285 351 425
#     4  10  25  43  69 106 137 185 233 301 350 411
#     4  11  24  43  73 103 139 180 242 294 356 417
#     4  11  27  48  70 104 143 185 238 291 354 420
#
# _framework density 23.036199
#
# number of rings (size 3 to 8) (size 9 to 14) (size 15 to 20)
#    0.000    1.429    1.429    0.857   10.000    6.286 
#    0.000    0.000    0.000    0.000    0.000    0.000 
#    0.000    0.000    0.000    0.000    0.000    0.000 
#
# Total GULP energy -78197.207713 kJ/mol
# GULP energy per Si atom -5585.514837 kJ/mol
# Density = 2.298377 g / cm^3
# Si number density = 23.036199 Si / 1000 Ang^3
#
#
#
# Elastic Constant Matrix: (Units=GPa)
#
#
# Indices 1 2 3 4 5 6 
#
# 1 86.6008 9.2267 11.9271 -2.9417 11.0781 -10.7571
# 2 9.2267 88.7688 12.6998 11.8097 6.1052 13.1738
# 3 11.9271 12.6998 94.1229 10.4525 -8.6701 2.4853
# 4 -2.9417 11.8097 10.4525 26.4835 3.8061 0.1358
# 5 11.0781 6.1052 -8.6701 3.8061 47.2325 6.0989
# 6 -10.7571 13.1738 2.4853 0.1358 6.0989 31.5581
#
#
#
# Elastic Compliance Matrix: (Units=1/GPa)
#
#
# Indices 1 2 3 4 5 6 
#
# 1 0.013689 -0.002298 -0.002482 0.004147 -0.004567 0.006686
# 2 -0.002298 0.013316 -0.000689 -0.005885 -0.000027 -0.006257
# 3 -0.002482 -0.000689 0.011997 -0.005206 0.003573 -0.002171
# 4 0.004147 -0.005885 -0.005206 0.043641 -0.005346 0.005126
# 5 -0.004567 -0.000027 0.003573 -0.005346 0.024169 -0.006475
# 6 0.006686 -0.006257 -0.002171 0.005126 -0.006475 0.037979
#
#
# Mechanical properties :
#
#
# Convention : Reuss Voigt Hill
#
# Bulk Modulus (GPa) = 35.63334 37.46664 36.54999
# Shear Modulus (GPa) = 30.28764 36.76409 33.52586
#
# Velocity S-wave (km/s) = 3.62993 3.99924 3.81905
# Velocity P-wave (km/s) = 5.75070 6.13390 5.94539
#
# Compressibility (1/GPa) = 0.02806361
#
# Stress axis : x y z
#
# Youngs Moduli (GPa) = 73.04896 75.09750 83.35723
#
# Poissons Ratio (x) = 0.17254 0.20693
# Poissons Ratio (y) = 0.16783 0.05745
# Poissons Ratio (z) = 0.18134 0.05176
#
# Static dielectric constant tensor:
#      x y z
#    x 1.873230 0.014540 0.155000 
#    y 0.014540 1.941380 0.047720 
#    z 0.155000 0.047720 1.892280 
# 
# From -- ./inp_files/429199.got.cif
#   From: 2010.05.17/outbox.cif.g08.bks.cpg/sg2_215_cif.got.tgz:429199.got - 2010.06.03 11:33:40.
