data_PCOD9047952
_publ_section_title
;
Structure prediction by ZEFSAII (Michael W. Deem and Ramdas Pophale) SiO2 
 PCOD9047952
Probable space group: P -1
;
_chemical_formula_sum "Si O2"
_cell_formula_units_Z 14
_cell_length_a 10.279782
_cell_length_b 9.330799
_cell_length_c 7.715255
_cell_angle_alpha 125.601396
_cell_angle_beta 76.916163
_cell_angle_gamma 74.152761
_cell_volume 503.725688
_symmetry_space_group_name_H-M "P -1"
_symmetry_group_IT_number 2
_symmetry_cell_setting 'triclinic'
loop_
_space_group_symop_operation_xyz
x,y,z
-x,-y,-z
loop_
_atom_site_type_symbol
_atom_site_label
_atom_site_fract_x
_atom_site_fract_y
_atom_site_fract_z
Si Si1 0.000000 0.000000 0.000000
Si Si2 0.607460 0.181525 0.886790
Si Si3 0.104831 0.530700 0.767507
Si Si4 0.761395 0.417653 0.908435
Si Si5 0.500000 0.000000 0.500000
Si Si6 0.775737 0.928749 0.100556
Si Si7 0.679724 0.650033 0.739495
Si Si8 0.043957 0.172037 0.470911
O O1 0.994690 0.117253 0.269417
O O2 0.804709 0.100545 0.136195
O O3 0.639409 0.365933 0.988414
O O4 0.510026 0.155558 0.743544
O O5 0.773387 0.978304 0.670080
O O6 0.506290 0.211903 0.109772
O O7 0.238995 0.463342 0.539302
O O8 0.027674 0.397821 0.646817
O O9 0.190081 0.467990 0.884082
O O10 0.967697 0.772386 0.977089
O O11 0.714746 0.502256 0.788969
O O12 0.922922 0.203816 0.680412
O O13 0.349403 0.013773 0.671359
O O14 0.745873 0.795308 0.878034
#
# Coordination Sequence:
#
# PCOD9047952 Si02
#       8
#     1   2   2   2   1   2   2   2
#     4  12  24  44  78 108 148 200 252 318 364 454
#     4  11  26  45  68 111 150 192 251 308 375 451
#     4  12  25  46  77 105 149 196 253 308 371 454
#     4  12  25  46  78 107 144 201 253 309 373 453
#     4  10  24  44  72 100 154 192 236 314 380 436
#     4  11  22  45  71 108 143 197 250 307 375 448
#     4  11  25  47  72 106 150 195 247 306 383 437
#     4  12  25  45  75 110 145 197 255 306 377 445
#
# _framework density 27.792907
#
# number of rings (size 3 to 8) (size 9 to 14) (size 15 to 20)
#    0.000    0.571    2.857    5.143    4.000    1.143 
#    0.000    1.429    0.000    0.000    0.000    0.000 
#    0.000    0.000    0.000    0.000    0.000    0.000 
#
# Total GULP energy -77977.252601 kJ/mol
# GULP energy per Si atom -5569.803757 kJ/mol
# Density = 2.772965 g / cm^3
# Si number density = 27.792907 Si / 1000 Ang^3
#
#
#
# Elastic Constant Matrix: (Units=GPa)
#
#
# Indices 1 2 3 4 5 6 
#
# 1 145.7308 19.2173 62.8441 -13.8533 -10.0870 33.4790
# 2 19.2173 49.1007 22.7739 -7.8964 -3.6951 4.9744
# 3 62.8441 22.7739 195.9193 -33.1773 -14.0114 18.6452
# 4 -13.8533 -7.8964 -33.1773 47.9263 14.8220 -3.9872
# 5 -10.0870 -3.6951 -14.0114 14.8220 77.5463 -7.8942
# 6 33.4790 4.9744 18.6452 -3.9872 -7.8942 54.4386
#
#
#
# Elastic Compliance Matrix: (Units=1/GPa)
#
#
# Indices 1 2 3 4 5 6 
#
# 1 0.009195 -0.002037 -0.002195 0.000366 0.000157 -0.004667
# 2 -0.002037 0.022227 -0.001587 0.001928 0.000131 -0.000074
# 3 -0.002195 -0.001587 0.006665 0.003647 0.000095 -0.000507
# 4 0.000366 0.001928 0.003647 0.025025 -0.004026 -0.000401
# 5 0.000157 0.000131 0.000095 -0.004026 0.013869 0.001575
# 6 -0.004667 -0.000074 -0.000507 -0.000401 0.001575 0.021619
#
#
# Mechanical properties :
#
#
# Convention : Reuss Voigt Hill
#
# Bulk Modulus (GPa) = 37.80988 66.71348 52.26168
# Shear Modulus (GPa) = 41.99683 55.04328 48.52005
#
# Velocity S-wave (km/s) = 3.89146 4.45509 4.18278
# Velocity P-wave (km/s) = 5.81592 7.10771 6.49402
#
# Compressibility (1/GPa) = 0.02644811
#
# Stress axis : x y z
#
# Youngs Moduli (GPa) = 108.75263 44.98970 150.02871
#
# Poissons Ratio (x) = 0.09165 0.32937
# Poissons Ratio (y) = 0.22154 0.23815
# Poissons Ratio (z) = 0.23875 0.07142
#
# Static dielectric constant tensor:
#      x y z
#    x 8.541800 5.502170 -4.718260 
#    y 5.502170 7.062770 -4.149720 
#    z -4.718260 -4.149720 5.325910 
# 
# From -- ./inp_files/173321.got.cif
#   From: 2010.05.17/outbox.cif.g08.bks.cpg/sg2_87_cif.got.tgz:173321.got - 2010.06.03 11:33:40.
