data_PCOD9047501
_publ_section_title
;
Structure prediction by ZEFSAII (Michael W. Deem and Ramdas Pophale) SiO2 
 PCOD9047501
Probable space group: P -1
;
_chemical_formula_sum "Si O2"
_cell_formula_units_Z 16
_cell_length_a 11.717139
_cell_length_b 8.911983
_cell_length_c 16.948729
_cell_angle_alpha 124.999283
_cell_angle_beta 40.643517
_cell_angle_gamma 93.034221
_cell_volume 658.776242
_symmetry_space_group_name_H-M "P -1"
_symmetry_group_IT_number 2
_symmetry_cell_setting 'triclinic'
loop_
_space_group_symop_operation_xyz
x,y,z
-x,-y,-z
loop_
_atom_site_type_symbol
_atom_site_label
_atom_site_fract_x
_atom_site_fract_y
_atom_site_fract_z
Si Si1 0.803860 0.387083 0.072499
Si Si2 0.242705 0.186266 0.008794
Si Si3 0.015916 0.273774 0.444106
Si Si4 0.647774 0.887271 0.251125
Si Si5 0.834257 0.371469 0.735349
Si Si6 0.272933 0.751882 0.094930
Si Si7 0.691241 0.525049 0.415419
Si Si8 0.561853 0.613946 0.685655
O O1 0.802248 0.279045 0.957798
O O2 0.087363 0.217610 0.896808
O O3 0.652412 0.690599 0.233666
O O4 0.658149 0.368166 0.204143
O O5 0.201333 0.395644 0.145356
O O6 0.974000 0.290317 0.167837
O O7 0.345276 0.158834 0.860078
O O8 0.431792 0.901817 0.863003
O O9 0.026074 0.229477 0.518985
O O10 0.749767 0.402061 0.588895
O O11 0.000000 0.500000 0.500000
O O12 0.221444 0.006417 0.207680
O O13 0.429370 0.198805 0.473597
O O14 0.887705 0.216835 0.739672
O O15 0.566048 0.500053 0.882915
O O16 0.500000 0.500000 0.500000
O O17 0.706867 0.537255 0.505541
#
# Coordination Sequence:
#
# PCOD9047501 Si02
#       8
#     2   2   2   2   2   2   2   2
#     4  11  22  46  67  95 135 170 216 273 324 377
#     4  11  23  44  68  96 133 173 215 266 331 386
#     4  12  26  41  65 102 130 169 221 269 319 387
#     4  10  24  44  67  98 131 170 219 270 319 392
#     4  11  24  45  67  95 129 176 215 266 331 385
#     4  11  25  44  69  93 134 176 213 268 330 387
#     4  11  24  42  67  96 130 175 215 263 330 385
#     4  11  25  40  65  97 133 167 216 271 317 388
#
# _framework density 24.287457
#
# number of rings (size 3 to 8) (size 9 to 14) (size 15 to 20)
#    0.000    1.000    2.500    3.375    5.250    5.000 
#    0.000    1.875    0.000    0.000    0.000    0.000 
#    0.000    0.000    0.000    0.000    0.000    0.000 
#
# Total GULP energy -89606.717311 kJ/mol
# GULP energy per Si atom -5600.419832 kJ/mol
# Density = 2.423218 g / cm^3
# Si number density = 24.287457 Si / 1000 Ang^3
#
#
#
# Elastic Constant Matrix: (Units=GPa)
#
#
# Indices 1 2 3 4 5 6 
#
# 1 86.7539 -2.4114 7.1791 -3.2270 6.5865 -1.5286
# 2 -2.4114 78.2832 15.1309 0.7892 6.7219 -1.9201
# 3 7.1791 15.1309 47.9015 14.4398 4.8124 -10.9080
# 4 -3.2270 0.7892 14.4398 31.6298 -1.2620 -0.3138
# 5 6.5865 6.7219 4.8124 -1.2620 30.6273 1.8908
# 6 -1.5286 -1.9201 -10.9080 -0.3138 1.8908 35.8779
#
#
#
# Elastic Compliance Matrix: (Units=1/GPa)
#
#
# Indices 1 2 3 4 5 6 
#
# 1 0.012032 0.001049 -0.002617 0.002303 -0.002306 -0.000085
# 2 0.001049 0.013953 -0.005056 0.001966 -0.002375 -0.000603
# 3 -0.002617 -0.005056 0.029339 -0.013610 -0.004031 0.008631
# 4 0.002303 0.001966 -0.013610 0.038098 0.003014 -0.003760
# 5 -0.002306 -0.002375 -0.004031 0.003014 0.034626 -0.003249
# 6 -0.000085 -0.000603 0.008631 -0.003760 -0.003249 0.030599
#
#
# Mechanical properties :
#
#
# Convention : Reuss Voigt Hill
#
# Bulk Modulus (GPa) = 23.76643 28.08176 25.92410
# Shear Modulus (GPa) = 26.89344 32.49633 29.69488
#
# Velocity S-wave (km/s) = 3.33122 3.66182 3.50042
# Velocity P-wave (km/s) = 4.96011 5.42825 5.19945
#
# Compressibility (1/GPa) = 0.04207615
#
# Stress axis : x y z
#
# Youngs Moduli (GPa) = 83.11294 71.66886 34.08481
#
# Poissons Ratio (x) = -0.07519 0.08918
# Poissons Ratio (y) = -0.08719 0.17234
# Poissons Ratio (z) = 0.21747 0.36237
#
# Static dielectric constant tensor:
#      x y z
#    x 1.941480 0.017920 0.005530 
#    y 0.017920 1.925900 -0.002010 
#    z 0.005530 -0.002010 1.921540 
# 
# From -- ./inp_files/49285.got.cif
#   From: 2010.05.17/outbox.cif.g08.bks.cpg/sg2_25_cif.got.tgz:49285.got - 2010.06.03 11:33:40.
