data_PCOD9047992
_publ_section_title
;
Structure prediction by ZEFSAII (Michael W. Deem and Ramdas Pophale) SiO2 
 PCOD9047992
Probable space group: P -1
;
_chemical_formula_sum "Si O2"
_cell_formula_units_Z 15
_cell_length_a 11.844906
_cell_length_b 8.556910
_cell_length_c 10.409441
_cell_angle_alpha 41.243711
_cell_angle_beta 73.936063
_cell_angle_gamma 91.811276
_cell_volume 618.724333
_symmetry_space_group_name_H-M "P -1"
_symmetry_group_IT_number 2
_symmetry_cell_setting 'triclinic'
loop_
_space_group_symop_operation_xyz
x,y,z
-x,-y,-z
loop_
_atom_site_type_symbol
_atom_site_label
_atom_site_fract_x
_atom_site_fract_y
_atom_site_fract_z
Si Si1 0.464469 0.130937 0.619866
Si Si2 0.919490 0.650025 0.994988
Si Si3 0.294819 0.428140 0.415359
Si Si4 0.059712 0.160317 0.512363
Si Si5 0.634852 0.409864 0.153869
Si Si6 0.130777 0.588112 0.571973
Si Si7 0.500000 0.000000 0.000000
Si Si8 0.363011 0.073632 0.169267
O O1 0.361871 0.260239 0.572964
O O2 0.571465 0.302737 0.379190
O O3 0.404974 0.846038 0.757963
O O4 0.535112 0.076202 0.759206
O O5 0.785490 0.549094 0.028151
O O6 0.885296 0.581358 0.194108
O O7 0.000000 0.500000 0.000000
O O8 0.999919 0.946746 0.770896
O O9 0.211030 0.275848 0.414264
O O10 0.194361 0.485646 0.503007
O O11 0.405151 0.693218 0.180155
O O12 0.001581 0.375376 0.420583
O O13 0.000000 0.000000 0.500000
O O14 0.597919 0.642108 0.971331
O O15 0.234304 0.876531 0.387951
O O16 0.368663 0.075693 0.013585
#
# Coordination Sequence:
#
# PCOD9047992 Si02
#       8
#     2   2   2   2   2   2   1   2
#     4  11  24  42  70 105 147 189 250 308 365 448
#     4  12  24  44  71 104 143 200 247 302 373 434
#     4  11  26  49  73 114 151 198 250 303 382 444
#     4  12  26  47  77 106 151 195 254 313 366 441
#     4  11  23  41  67 107 145 185 253 305 365 442
#     4  11  25  46  73 106 151 198 246 308 368 455
#     4  10  24  44  72 104 150 190 242 294 372 460
#     4  11  22  43  70 101 142 196 239 301 378 430
#
# _framework density 24.243428000000002
#
# number of rings (size 3 to 8) (size 9 to 14) (size 15 to 20)
#    0.000    0.800    5.333    1.600    0.000    4.800 
#    2.400    0.000    0.000    0.000    0.000    0.000 
#    0.000    0.000    0.000    0.000    0.000    0.000 
#
# Total GULP energy -83651.952233 kJ/mol
# GULP energy per Si atom -5576.796816 kJ/mol
# Density = 2.418825 g / cm^3
# Si number density = 24.243428 Si / 1000 Ang^3
#
#
#
# Elastic Constant Matrix: (Units=GPa)
#
#
# Indices 1 2 3 4 5 6 
#
# 1 140.6697 39.8547 25.8818 -15.2040 -2.0531 1.7572
# 2 39.8547 79.4712 29.0583 -9.4817 0.3120 -0.0402
# 3 25.8818 29.0583 126.0148 -21.4383 -13.0749 26.4705
# 4 -15.2040 -9.4817 -21.4383 43.5503 -5.1098 -3.7274
# 5 -2.0531 0.3120 -13.0749 -5.1098 32.7265 -5.6323
# 6 1.7572 -0.0402 26.4705 -3.7274 -5.6323 33.8742
#
#
#
# Elastic Compliance Matrix: (Units=1/GPa)
#
#
# Indices 1 2 3 4 5 6 
#
# 1 0.008516 -0.003850 -0.000507 0.001996 0.000730 0.000291
# 2 -0.003850 0.015857 -0.003501 0.000480 -0.001234 0.002802
# 3 -0.000507 -0.003501 0.011725 0.004625 0.004038 -0.007960
# 4 0.001996 0.000480 0.004625 0.026789 0.006196 0.000261
# 5 0.000730 -0.001234 0.004038 0.006196 0.033727 0.003095
# 6 0.000291 0.002802 -0.007960 0.000261 0.003095 0.036273
#
#
# Mechanical properties :
#
#
# Convention : Reuss Voigt Hill
#
# Bulk Modulus (GPa) = 49.06201 59.52723 54.29462
# Shear Modulus (GPa) = 32.17577 38.78761 35.48169
#
# Velocity S-wave (km/s) = 3.64702 4.00424 3.82980
# Velocity P-wave (km/s) = 6.16567 6.78129 6.48080
#
# Compressibility (1/GPa) = 0.02038237
#
# Stress axis : x y z
#
# Youngs Moduli (GPa) = 117.43176 63.06184 85.28890
#
# Poissons Ratio (x) = 0.24277 0.04325
# Poissons Ratio (y) = 0.45208 0.29859
# Poissons Ratio (z) = 0.05955 0.22077
#
# Static dielectric constant tensor:
#      x y z
#    x 2.247680 0.057760 -0.006010 
#    y 0.057760 2.124940 0.134680 
#    z -0.006010 0.134680 1.990980 
# 
# From -- ./inp_files/416067.got.cif
#   From: 2010.05.17/outbox.cif.g08.bks.cpg/sg2_209_cif.got.tgz:416067.got - 2010.06.03 11:33:40.
