data_PCOD9047712
_publ_section_title
;
Structure prediction by ZEFSAII (Michael W. Deem and Ramdas Pophale) SiO2 
 PCOD9047712
Probable space group: P -1
;
_chemical_formula_sum "Si O2"
_cell_formula_units_Z 14
_cell_length_a 8.462027
_cell_length_b 15.404918
_cell_length_c 9.681358
_cell_angle_alpha 93.323549
_cell_angle_beta 61.403428
_cell_angle_gamma 42.332610
_cell_volume 535.478168
_symmetry_space_group_name_H-M "P -1"
_symmetry_group_IT_number 2
_symmetry_cell_setting 'triclinic'
loop_
_space_group_symop_operation_xyz
x,y,z
-x,-y,-z
loop_
_atom_site_type_symbol
_atom_site_label
_atom_site_fract_x
_atom_site_fract_y
_atom_site_fract_z
Si Si1 0.320579 0.862727 0.162447
Si Si2 0.889805 0.391431 0.286499
Si Si3 0.949168 0.725725 0.262003
Si Si4 0.118436 0.109516 0.159621
Si Si5 0.957676 0.155794 0.931434
Si Si6 0.513867 0.606661 0.194044
Si Si7 0.105085 0.550334 0.406140
O O1 0.714611 0.731039 0.928930
O O2 0.078139 0.908829 0.161867
O O3 0.427658 0.744428 0.217393
O O4 0.102921 0.046264 0.283078
O O5 0.852775 0.303909 0.270053
O O6 0.615219 0.550463 0.305255
O O7 0.888126 0.399926 0.451855
O O8 0.192493 0.683619 0.263205
O O9 0.816454 0.711778 0.430223
O O10 0.803994 0.864803 0.235817
O O11 0.140745 0.579655 0.056500
O O12 0.096506 0.072604 0.016753
O O13 0.500000 0.000000 0.000000
O O14 0.520650 0.371353 0.148654
O O15 0.000000 0.500000 0.500000
#
# Coordination Sequence:
#
# PCOD9047712 Si02
#       7
#     2   2   2   2   2   2   2
#     4  10  20  35  59  86 120 158 201 239 285 365
#     4  11  21  34  58  94 120 150 197 250 303 337
#     4  10  18  35  58  86 118 152 198 241 293 350
#     4  10  22  37  57  89 118 157 204 245 288 354
#     4  11  19  39  61  86 116 161 203 235 299 355
#     4  10  17  34  57  87 113 152 202 242 284 344
#     4  12  21  35  59  95 128 146 191 260 301 349
#
# _framework density 26.144855
#
# number of rings (size 3 to 8) (size 9 to 14) (size 15 to 20)
#    0.000    1.429    7.143    0.857    0.000    2.286 
#    0.000    0.000    0.000   12.857    0.000    0.000 
#    0.000    0.000    0.000    0.000    0.000    0.000 
#
# Total GULP energy -78081.666490 kJ/mol
# GULP energy per Si atom -5577.261892 kJ/mol
# Density = 2.608535 g / cm^3
# Si number density = 26.144855 Si / 1000 Ang^3
#
#
#
# Elastic Constant Matrix: (Units=GPa)
#
#
# Indices 1 2 3 4 5 6 
#
# 1 55.5897 36.3529 18.8161 -12.0885 -13.4468 16.4722
# 2 36.3529 171.0392 33.3337 -44.6352 -16.3498 45.7591
# 3 18.8161 33.3337 90.8375 -32.2431 -16.3607 4.6827
# 4 -12.0885 -44.6352 -32.2431 39.8583 3.3760 -17.7707
# 5 -13.4468 -16.3498 -16.3607 3.3760 21.7240 -13.3738
# 6 16.4722 45.7591 4.6827 -17.7707 -13.3738 53.4834
#
#
#
# Elastic Compliance Matrix: (Units=1/GPa)
#
#
# Indices 1 2 3 4 5 6 
#
# 1 0.023639 -0.003089 -0.001616 0.000779 0.009882 -0.001767
# 2 -0.003089 0.009982 0.000687 0.008740 0.002173 -0.004202
# 3 -0.001616 0.000687 0.020766 0.019605 0.017664 0.009023
# 4 0.000779 0.008740 0.019605 0.055595 0.022160 0.014580
# 5 0.009882 0.002173 0.017664 0.022160 0.075889 0.019890
# 6 -0.001767 -0.004202 0.009023 0.014580 0.019890 0.031864
#
#
# Mechanical properties :
#
#
# Convention : Reuss Voigt Hill
#
# Bulk Modulus (GPa) = 21.57408 54.94132 38.25770
# Shear Modulus (GPa) = 20.72789 38.27738 29.50264
#
# Velocity S-wave (km/s) = 2.81874 3.83044 3.36286
# Velocity P-wave (km/s) = 4.34320 6.37361 5.45373
#
# Compressibility (1/GPa) = 0.04635192
#
# Stress axis : x y z
#
# Youngs Moduli (GPa) = 42.30295 100.18194 48.15460
#
# Poissons Ratio (x) = 0.30946 0.07781
# Poissons Ratio (y) = 0.13067 -0.03309
# Poissons Ratio (z) = 0.06835 -0.06884
#
# Static dielectric constant tensor:
#      x y z
#    x 2.044850 0.018190 -0.037160 
#    y 0.018190 2.208150 0.151840 
#    z -0.037160 0.151840 2.180050 
# 
# From -- ./inp_files/201349.got.cif
#   From: 2010.05.17/outbox.cif.g08.bks.cpg/sg2_101_cif.got.tgz:201349.got - 2010.06.03 11:33:40.
