data_PCOD9047319
_publ_section_title
;
Structure prediction by ZEFSAII (Michael W. Deem and Ramdas Pophale) SiO2 
 PCOD9047319
Probable space group: P -1
;
_chemical_formula_sum "Si O2"
_cell_formula_units_Z 14
_cell_length_a 7.655392
_cell_length_b 9.258350
_cell_length_c 16.094466
_cell_angle_alpha 129.828454
_cell_angle_beta 70.741274
_cell_angle_gamma 136.173464
_cell_volume 587.576439
_symmetry_space_group_name_H-M "P -1"
_symmetry_group_IT_number 2
_symmetry_cell_setting 'triclinic'
loop_
_space_group_symop_operation_xyz
x,y,z
-x,-y,-z
loop_
_atom_site_type_symbol
_atom_site_label
_atom_site_fract_x
_atom_site_fract_y
_atom_site_fract_z
Si Si1 0.888685 0.572916 0.775837
Si Si2 0.622123 0.015095 0.071449
Si Si3 0.511323 0.789895 0.534892
Si Si4 0.214980 0.179669 0.340466
Si Si5 0.303169 0.530267 0.047687
Si Si6 0.855936 0.957838 0.876075
Si Si7 0.668591 0.944070 0.387137
O O1 0.751783 0.480763 0.852196
O O2 0.641256 0.329828 0.671815
O O3 0.972988 0.833137 0.819771
O O4 0.172196 0.703852 0.809989
O O5 0.411328 0.791768 0.085416
O O6 0.500000 0.000000 0.000000
O O7 0.749015 0.920063 0.971863
O O8 0.340873 0.477418 0.441425
O O9 0.678307 0.880565 0.626066
O O10 0.702565 0.952890 0.484965
O O11 0.331275 0.848015 0.577716
O O12 0.300625 0.169512 0.231942
O O13 0.899301 0.983794 0.325442
O O14 0.500000 0.500000 0.000000
O O15 0.048535 0.268347 0.947128
#
# Coordination Sequence:
#
# PCOD9047319 Si02
#       7
#     2   2   2   2   2   2   2
#     4  11  22  39  63  95 124 165 223 252 306 400
#     4  11  25  41  61  97 133 162 206 272 315 371
#     4  10  24  44  64  98 128 162 224 268 310 398
#     4  11  23  42  68  93 130 171 210 267 329 371
#     4  11  19  37  65  82 121 167 201 250 310 370
#     4  11  22  39  63  95 124 165 223 252 306 400
#     4  11  23  42  68  93 130 171 210 267 329 371
#
# _framework density 23.826688999999998
#
# number of rings (size 3 to 8) (size 9 to 14) (size 15 to 20)
#    0.000    1.143    4.286    2.571    0.000    4.571 
#    0.000    1.429    0.000    0.000    0.000    0.000 
#    0.000    0.000    0.000    0.000    0.000    0.000 
#
# Total GULP energy -77982.067240 kJ/mol
# GULP energy per Si atom -5570.147660 kJ/mol
# Density = 2.377246 g / cm^3
# Si number density = 23.826689 Si / 1000 Ang^3
#
#
#
# Elastic Constant Matrix: (Units=GPa)
#
#
# Indices 1 2 3 4 5 6 
#
# 1 88.3292 28.6437 14.2230 -9.7745 23.0494 -17.3609
# 2 28.6437 102.6562 17.7019 -6.9480 15.4047 -14.3364
# 3 14.2230 17.7019 80.0364 -5.7350 32.4589 -9.8154
# 4 -9.7745 -6.9480 -5.7350 32.8899 -5.3709 10.4272
# 5 23.0494 15.4047 32.4589 -5.3709 30.1161 -10.7736
# 6 -17.3609 -14.3364 -9.8154 10.4272 -10.7736 31.2623
#
#
#
# Elastic Compliance Matrix: (Units=1/GPa)
#
#
# Indices 1 2 3 4 5 6 
#
# 1 0.015887 -0.002448 0.003651 0.001478 -0.013220 0.003797
# 2 -0.002448 0.011270 -0.000963 0.000309 -0.001802 0.002782
# 3 0.003651 -0.000963 0.023113 0.000703 -0.027384 -0.000829
# 4 0.001478 0.000309 0.000703 0.034309 0.000458 -0.010102
# 5 -0.013220 -0.001802 -0.027384 0.000458 0.077320 0.009728
# 6 0.003797 0.002782 -0.000829 -0.010102 0.009728 0.041834
#
#
# Mechanical properties :
#
#
# Convention : Reuss Voigt Hill
#
# Bulk Modulus (GPa) = 19.70462 43.57323 31.63892
# Shear Modulus (GPa) = 22.70966 32.88388 27.79677
#
# Velocity S-wave (km/s) = 3.09061 3.71904 3.41929
# Velocity P-wave (km/s) = 4.58517 6.06374 5.37553
#
# Compressibility (1/GPa) = 0.05074953
#
# Stress axis : x y z
#
# Youngs Moduli (GPa) = 62.94471 88.72773 43.26613
#
# Poissons Ratio (x) = 0.21724 -0.15798
# Poissons Ratio (y) = 0.15411 0.04168
# Poissons Ratio (z) = -0.22983 0.08547
#
# Static dielectric constant tensor:
#      x y z
#    x 3.990940 -0.563620 1.076070 
#    y -0.563620 2.139790 -0.362110 
#    z 1.076070 -0.362110 2.714380 
# 
# From -- ./inp_files/56553.got.cif
#   From: 2010.05.17/outbox.cif.g08.bks.cpg/sg2_29_cif.got.tgz:56553.got - 2010.06.03 11:33:40.
