data_PCOD9047173
_publ_section_title
;
Structure prediction by ZEFSAII (Michael W. Deem and Ramdas Pophale) SiO2 
 PCOD9047173
Probable space group: P -1
;
_chemical_formula_sum "Si O2"
_cell_formula_units_Z 16
_cell_length_a 5.500212
_cell_length_b 17.545901
_cell_length_c 9.047362
_cell_angle_alpha 49.576820
_cell_angle_beta 102.918993
_cell_angle_gamma 93.132263
_cell_volume 643.046305
_symmetry_space_group_name_H-M "P -1"
_symmetry_group_IT_number 2
_symmetry_cell_setting 'triclinic'
loop_
_space_group_symop_operation_xyz
x,y,z
-x,-y,-z
loop_
_atom_site_type_symbol
_atom_site_label
_atom_site_fract_x
_atom_site_fract_y
_atom_site_fract_z
Si Si1 0.068231 0.756885 0.235706
Si Si2 0.806637 0.601370 0.812556
Si Si3 0.337693 0.025104 0.594649
Si Si4 0.019696 0.098144 0.204816
Si Si5 0.342774 0.632765 0.209014
Si Si6 0.745493 0.109615 0.653458
Si Si7 0.795590 0.568630 0.524692
Si Si8 0.306533 0.698831 0.790217
O O1 0.317759 0.711206 0.240995
O O2 0.125269 0.838614 0.260891
O O3 0.963101 0.659191 0.410876
O O4 0.920347 0.812965 0.005533
O O5 0.689817 0.590023 0.648887
O O6 0.560493 0.631143 0.844579
O O7 0.022363 0.675704 0.742228
O O8 0.000000 0.500000 0.000000
O O9 0.121438 0.096761 0.388472
O O10 0.467078 0.078304 0.677811
O O11 0.500000 0.000000 0.500000
O O12 0.265818 0.920633 0.780132
O O13 0.107518 0.993446 0.259911
O O14 0.613715 0.573670 0.351898
O O15 0.136647 0.553345 0.297289
O O16 0.321210 0.685081 0.984233
O O17 0.686621 0.192123 0.414115
#
# Coordination Sequence:
#
# PCOD9047173 Si02
#       8
#     2   2   2   2   2   2   2   2
#     4  12  26  45  70 107 146 200 252 310 388 452
#     4  12  26  50  79 109 154 196 263 317 381 451
#     4   9  22  43  67  98 140 184 243 312 374 441
#     4  10  24  43  73 103 144 189 251 315 377 449
#     4  11  28  44  72 107 150 203 253 316 383 457
#     4  11  25  44  71 106 151 192 251 308 378 450
#     4  11  26  48  71 103 156 192 257 314 388 450
#     4  12  28  46  79 116 147 205 254 316 384 455
#
# _framework density 24.881564999999998
#
# number of rings (size 3 to 8) (size 9 to 14) (size 15 to 20)
#    0.000    1.000    2.500    1.875   10.500    3.500 
#    0.000    0.000    0.000    0.000    0.000    0.000 
#    0.000    0.000    0.000    0.000    0.000    0.000 
#
# Total GULP energy -89111.422997 kJ/mol
# GULP energy per Si atom -5569.463937 kJ/mol
# Density = 2.482493 g / cm^3
# Si number density = 24.881565 Si / 1000 Ang^3
#
#
#
# Elastic Constant Matrix: (Units=GPa)
#
#
# Indices 1 2 3 4 5 6 
#
# 1 71.7382 28.9770 2.6915 4.4905 -2.5756 3.4711
# 2 28.9770 88.5623 6.1114 10.8921 -4.4213 -4.0505
# 3 2.6915 6.1114 116.2549 4.2700 -4.7167 -11.4122
# 4 4.4905 10.8921 4.2700 36.0897 8.1793 6.1075
# 5 -2.5756 -4.4213 -4.7167 8.1793 23.4762 0.6229
# 6 3.4711 -4.0505 -11.4122 6.1075 0.6229 40.1283
#
#
#
# Elastic Compliance Matrix: (Units=1/GPa)
#
#
# Indices 1 2 3 4 5 6 
#
# 1 0.016238 -0.005313 -0.000247 -0.000249 0.000871 -0.001987
# 2 -0.005313 0.013918 -0.000038 -0.004785 0.003631 0.002526
# 3 -0.000247 -0.000038 0.009066 -0.002068 0.002432 0.002873
# 4 -0.000249 -0.004785 -0.002068 0.033332 -0.012800 -0.005924
# 5 0.000871 0.003631 0.002432 -0.012800 0.048266 0.002182
# 6 -0.001987 0.002526 0.002873 -0.005924 0.002182 0.027032
#
#
# Mechanical properties :
#
#
# Convention : Reuss Voigt Hill
#
# Bulk Modulus (GPa) = 35.68045 39.12392 37.40219
# Shear Modulus (GPa) = 29.69328 35.85720 32.77524
#
# Velocity S-wave (km/s) = 3.45829 3.80032 3.63333
# Velocity P-wave (km/s) = 5.50614 5.91733 5.71543
#
# Compressibility (1/GPa) = 0.02802655
#
# Stress axis : x y z
#
# Youngs Moduli (GPa) = 61.58497 71.85125 110.30086
#
# Poissons Ratio (x) = 0.38172 0.02727
# Poissons Ratio (y) = 0.32718 0.00415
# Poissons Ratio (z) = 0.01522 0.00270
#
# Static dielectric constant tensor:
#      x y z
#    x 2.287470 0.001810 0.098490 
#    y 0.001810 2.039360 -0.100140 
#    z 0.098490 -0.100140 2.013950 
# 
# From -- ./inp_files/98041.got.cif
#   From: 2010.05.17/outbox.cif.g08.bks.cpg/sg2_50_cif.got.tgz:98041.got - 2010.06.03 11:33:40.
