data_PCOD9047178
_publ_section_title
;
Structure prediction by ZEFSAII (Michael W. Deem and Ramdas Pophale) SiO2 
 PCOD9047178
Probable space group: P -1
;
_chemical_formula_sum "Si O2"
_cell_formula_units_Z 15
_cell_length_a 11.792696
_cell_length_b 10.777770
_cell_length_c 9.148919
_cell_angle_alpha 59.918173
_cell_angle_beta 107.380634
_cell_angle_gamma 60.139313
_cell_volume 595.806631
_symmetry_space_group_name_H-M "P -1"
_symmetry_group_IT_number 2
_symmetry_cell_setting 'triclinic'
loop_
_space_group_symop_operation_xyz
x,y,z
-x,-y,-z
loop_
_atom_site_type_symbol
_atom_site_label
_atom_site_fract_x
_atom_site_fract_y
_atom_site_fract_z
Si Si1 0.183091 0.431486 0.616391
Si Si2 0.131702 0.052745 0.749951
Si Si3 0.033971 0.628929 0.983458
Si Si4 0.597844 0.771525 0.488813
Si Si5 0.217334 0.966820 0.158894
Si Si6 0.500000 0.500000 0.000000
Si Si7 0.116038 0.943966 0.420322
Si Si8 0.494311 0.841496 0.861560
O O1 0.294848 0.329938 0.566920
O O2 0.000000 0.500000 0.500000
O O3 0.072758 0.681361 0.464700
O O4 0.341617 0.256982 0.906017
O O5 0.076390 0.967547 0.681869
O O6 0.292723 0.001203 0.773150
O O7 0.215988 0.929558 0.012033
O O8 0.257595 0.428514 0.218666
O O9 0.000000 0.500000 0.000000
O O10 0.929441 0.765532 0.015805
O O11 0.944591 0.830569 0.719811
O O12 0.418243 0.838381 0.364136
O O13 0.542283 0.991260 0.360391
O O14 0.147130 0.910627 0.274043
O O15 0.682623 0.291980 0.299549
O O16 0.455545 0.365068 0.050536
#
# Coordination Sequence:
#
# PCOD9047178 Si02
#       8
#     2   2   2   2   2   1   2   2
#     4  12  22  42  70 107 144 180 242 298 358 410
#     4  12  22  47  72 107 144 185 239 305 358 429
#     4  10  24  46  67 101 139 191 242 288 357 428
#     4  12  23  43  73 106 140 186 237 310 349 421
#     4  10  24  43  73 104 141 183 243 297 357 421
#     4  12  26  52  66 106 148 194 236 290 368 448
#     4  10  25  48  71 101 144 190 240 292 361 432
#     4  12  27  42  72 108 145 188 241 290 369 428
#
# _framework density 25.175953
#
# number of rings (size 3 to 8) (size 9 to 14) (size 15 to 20)
#    0.800    0.000    5.333    2.400    0.000    2.133 
#    2.400    2.000    0.000    0.000    0.000    0.000 
#    0.000    0.000    0.000    0.000    0.000    0.000 
#
# Total GULP energy -83672.157659 kJ/mol
# GULP energy per Si atom -5578.143844 kJ/mol
# Density = 2.511865 g / cm^3
# Si number density = 25.175953 Si / 1000 Ang^3
#
#
#
# Elastic Constant Matrix: (Units=GPa)
#
#
# Indices 1 2 3 4 5 6 
#
# 1 105.3498 11.9566 34.9183 1.9533 22.9822 9.3649
# 2 11.9566 70.5082 19.2566 -5.6062 1.5560 16.1524
# 3 34.9183 19.2566 175.7236 3.9716 13.1657 8.9600
# 4 1.9533 -5.6062 3.9716 35.8860 15.0554 6.5050
# 5 22.9822 1.5560 13.1657 15.0554 41.5524 11.3408
# 6 9.3649 16.1524 8.9600 6.5050 11.3408 35.1798
#
#
#
# Elastic Compliance Matrix: (Units=1/GPa)
#
#
# Indices 1 2 3 4 5 6 
#
# 1 0.011606 -0.001070 -0.001728 0.002206 -0.006502 -0.000470
# 2 -0.001070 0.016909 -0.001402 0.003816 0.001268 -0.008236
# 3 -0.001728 -0.001402 0.006264 -0.000469 -0.000763 -0.000159
# 4 0.002206 0.003816 -0.000469 0.034445 -0.012445 -0.004577
# 5 -0.006502 0.001268 -0.000763 -0.012445 0.034398 -0.007444
# 6 -0.000470 -0.008236 -0.000159 -0.004577 -0.007444 0.035619
#
#
# Mechanical properties :
#
#
# Convention : Reuss Voigt Hill
#
# Bulk Modulus (GPa) = 37.90713 53.76051 45.83382
# Shear Modulus (GPa) = 31.96299 41.55363 36.75831
#
# Velocity S-wave (km/s) = 3.56699 4.06708 3.82521
# Velocity P-wave (km/s) = 5.66163 6.59205 6.14448
#
# Compressibility (1/GPa) = 0.02638026
#
# Stress axis : x y z
#
# Youngs Moduli (GPa) = 86.16530 59.13940 159.65369
#
# Poissons Ratio (x) = 0.06326 0.27583
# Poissons Ratio (y) = 0.09217 0.22379
# Poissons Ratio (z) = 0.14886 0.08290
#
# Static dielectric constant tensor:
#      x y z
#    x 2.010310 -0.000570 -0.046250 
#    y -0.000570 2.130840 -0.004850 
#    z -0.046250 -0.004850 1.947090 
# 
# From -- ./inp_files/427623.got.cif
#   From: 2010.05.17/outbox.cif.g08.bks.cpg/sg2_214_cif.got.tgz:427623.got - 2010.06.03 11:33:40.
