data_PCOD9047053
_publ_section_title
;
Structure prediction by ZEFSAII (Michael W. Deem and Ramdas Pophale) SiO2 
 PCOD9047053
Probable space group: P -1
;
_chemical_formula_sum "Si O2"
_cell_formula_units_Z 16
_cell_length_a 13.587223
_cell_length_b 12.908383
_cell_length_c 8.188248
_cell_angle_alpha 82.583842
_cell_angle_beta 31.418823
_cell_angle_gamma 71.094957
_cell_volume 675.872226
_symmetry_space_group_name_H-M "P -1"
_symmetry_group_IT_number 2
_symmetry_cell_setting 'triclinic'
loop_
_space_group_symop_operation_xyz
x,y,z
-x,-y,-z
loop_
_atom_site_type_symbol
_atom_site_label
_atom_site_fract_x
_atom_site_fract_y
_atom_site_fract_z
Si Si1 0.907215 0.295214 0.290376
Si Si2 0.525154 0.323553 0.421802
Si Si3 0.892337 0.085053 0.989200
Si Si4 0.228148 0.287956 0.585903
Si Si5 0.448159 0.457914 0.808274
Si Si6 0.090125 0.075624 0.252575
Si Si7 0.713046 0.888107 0.734226
Si Si8 0.103351 0.506582 0.522940
O O1 0.691645 0.384009 0.504404
O O2 0.966348 0.370449 0.322289
O O3 0.908207 0.184831 0.404584
O O4 0.078186 0.251211 0.915532
O O5 0.402473 0.290478 0.461449
O O6 0.391490 0.392333 0.753353
O O7 0.600406 0.414609 0.213010
O O8 0.712844 0.210071 0.244562
O O9 0.085162 0.100176 0.628130
O O10 0.793010 0.015389 0.033896
O O11 0.000000 0.000000 0.000000
O O12 0.305821 0.211301 0.328571
O O13 0.095868 0.416716 0.683398
O O14 0.339595 0.463874 0.133119
O O15 0.227777 0.122701 0.155639
O O16 0.000000 0.000000 0.500000
O O17 0.500000 0.000000 0.000000
O O18 0.000000 0.500000 0.500000
#
# Coordination Sequence:
#
# PCOD9047053 Si02
#       8
#     2   2   2   2   2   2   2   2
#     4  12  25  47  71 106 143 188 242 291 362 421
#     4  11  25  44  72 102 144 186 242 289 360 427
#     4  11  24  45  72 101 137 190 234 290 353 425
#     4  12  26  45  71 105 145 188 235 301 358 430
#     4  11  26  44  71 103 141 191 236 293 354 430
#     4  10  24  43  71 101 137 185 236 294 348 422
#     4  11  25  44  68 101 139 180 235 296 353 415
#     4  12  27  42  69 104 145 184 236 291 363 422
#
# _framework density 23.673114999999999
#
# number of rings (size 3 to 8) (size 9 to 14) (size 15 to 20)
#    0.000    0.750    1.250    5.250    8.750    4.000 
#    0.000    2.500    0.000    0.000    0.000    0.000 
#    0.000    0.000    0.000    0.000    0.000    0.000 
#
# Total GULP energy -89469.323062 kJ/mol
# GULP energy per Si atom -5591.832691 kJ/mol
# Density = 2.361923 g / cm^3
# Si number density = 23.673115 Si / 1000 Ang^3
#
#
#
# Elastic Constant Matrix: (Units=GPa)
#
#
# Indices 1 2 3 4 5 6 
#
# 1 144.4315 47.8391 11.4671 13.8148 3.3785 20.1527
# 2 47.8391 151.1893 16.6859 22.2274 5.7631 -10.8834
# 3 11.4671 16.6859 42.1208 12.1928 1.5662 5.8563
# 4 13.8148 22.2274 12.1928 32.6063 -0.3734 6.8413
# 5 3.3785 5.7631 1.5662 -0.3734 32.4695 8.0750
# 6 20.1527 -10.8834 5.8563 6.8413 8.0750 55.4220
#
#
#
# Elastic Compliance Matrix: (Units=1/GPa)
#
#
# Indices 1 2 3 4 5 6 
#
# 1 0.008438 -0.002780 -0.000508 -0.000741 0.000513 -0.003544
# 2 -0.002780 0.008780 -0.001730 -0.004995 -0.002202 0.003855
# 3 -0.000508 -0.001730 0.027288 -0.008414 -0.000577 -0.001916
# 4 -0.000741 -0.004995 -0.008414 0.038626 0.003066 -0.005037
# 5 0.000513 -0.002202 -0.000577 0.003066 0.032613 -0.005688
# 6 -0.003544 0.003855 -0.001916 -0.005037 -0.005688 0.021742
#
#
# Mechanical properties :
#
#
# Convention : Reuss Voigt Hill
#
# Bulk Modulus (GPa) = 29.00894 54.41399 41.71147
# Shear Modulus (GPa) = 31.44376 41.54953 36.49665
#
# Velocity S-wave (km/s) = 3.64847 4.19398 3.93070
# Velocity P-wave (km/s) = 5.47987 6.81822 6.18535
#
# Compressibility (1/GPa) = 0.03447213
#
# Stress axis : x y z
#
# Youngs Moduli (GPa) = 118.51120 113.88897 36.64570
#
# Poissons Ratio (x) = 0.31657 0.01862
# Poissons Ratio (y) = 0.32941 0.06339
# Poissons Ratio (z) = 0.06020 0.19700
#
# Static dielectric constant tensor:
#      x y z
#    x 1.976090 0.056370 -0.002380 
#    y 0.056370 1.862900 -0.022770 
#    z -0.002380 -0.022770 1.908600 
# 
# From -- ./inp_files/307237.got.cif
#   From: 2010.05.17/outbox.cif.g08.bks.cpg/sg2_154_cif.got.tgz:307237.got - 2010.06.03 11:33:40.
