data_PCOD9047688
_publ_section_title
;
Structure prediction by ZEFSAII (Michael W. Deem and Ramdas Pophale) SiO2 
 PCOD9047688
Probable space group: P -1
;
_chemical_formula_sum "Si O2"
_cell_formula_units_Z 16
_cell_length_a 10.190765
_cell_length_b 8.614924
_cell_length_c 7.857979
_cell_angle_alpha 98.297998
_cell_angle_beta 78.574534
_cell_angle_gamma 107.071380
_cell_volume 643.669064
_symmetry_space_group_name_H-M "P -1"
_symmetry_group_IT_number 2
_symmetry_cell_setting 'triclinic'
loop_
_space_group_symop_operation_xyz
x,y,z
-x,-y,-z
loop_
_atom_site_type_symbol
_atom_site_label
_atom_site_fract_x
_atom_site_fract_y
_atom_site_fract_z
Si Si1 0.787166 0.718265 0.788723
Si Si2 0.736897 0.242050 0.280496
Si Si3 0.254798 0.815706 0.334972
Si Si4 0.418519 0.198086 0.371322
Si Si5 0.702392 0.646597 0.296704
Si Si6 0.044604 0.348016 0.545848
Si Si7 0.271287 0.582135 0.010387
Si Si8 0.154786 0.054358 0.903125
O O1 0.649735 0.688134 0.707493
O O2 0.916951 0.760539 0.633045
O O3 0.805927 0.566536 0.869460
O O4 0.767309 0.861277 0.935983
O O5 0.739848 0.258078 0.488378
O O6 0.572655 0.204544 0.279425
O O7 0.805726 0.354850 0.116976
O O8 0.791091 0.086055 0.210362
O O9 0.087706 0.759198 0.333378
O O10 0.324703 0.009894 0.361168
O O11 0.321925 0.730903 0.153794
O O12 0.409780 0.280351 0.570393
O O13 0.643218 0.517408 0.142606
O O14 0.815061 0.800800 0.215024
O O15 0.806182 0.585605 0.387376
O O16 0.000000 0.500000 0.500000
O O17 0.000000 0.000000 0.000000
#
# Coordination Sequence:
#
# PCOD9047688 Si02
#       8
#     2   2   2   2   2   2   2   2
#     4  10  24  44  69 106 144 185 244 292 359 423
#     4  12  27  49  74 102 147 191 241 295 359 419
#     4  12  25  45  74 107 139 193 243 291 358 431
#     4  11  26  49  73 100 146 194 243 294 351 427
#     4  10  25  45  69 105 145 184 234 297 358 421
#     4  11  22  42  72 105 148 186 235 295 363 427
#     4  11  26  46  71 107 143 189 238 297 356 427
#     4  11  24  42  70 108 142 182 237 297 358 426
#
# _framework density 24.857495
#
# number of rings (size 3 to 8) (size 9 to 14) (size 15 to 20)
#    0.000    1.000    2.500    2.625    5.250    4.500 
#    2.250    0.000    0.000    0.000    0.000    0.000 
#    0.000    0.000    0.000    0.000    0.000    0.000 
#
# Total GULP energy -89199.149179 kJ/mol
# GULP energy per Si atom -5574.946824 kJ/mol
# Density = 2.480092 g / cm^3
# Si number density = 24.857495 Si / 1000 Ang^3
#
#
#
# Elastic Constant Matrix: (Units=GPa)
#
#
# Indices 1 2 3 4 5 6 
#
# 1 92.4096 18.0691 27.7736 -2.3121 -27.8359 -10.6477
# 2 18.0691 95.2618 55.0063 1.4170 -7.7300 -12.3206
# 3 27.7736 55.0063 157.3491 28.7728 -0.6262 -15.0687
# 4 -2.3121 1.4170 28.7728 55.7867 -9.0313 -2.2324
# 5 -27.8359 -7.7300 -0.6262 -9.0313 28.7707 -4.7301
# 6 -10.6477 -12.3206 -15.0687 -2.2324 -4.7301 23.8196
#
#
#
# Elastic Compliance Matrix: (Units=1/GPa)
#
#
# Indices 1 2 3 4 5 6 
#
# 1 0.021355 0.002399 -0.004646 0.007975 0.025969 0.013752
# 2 0.002399 0.014936 -0.005708 0.004381 0.008793 0.007344
# 3 -0.004646 -0.005708 0.010290 -0.006684 -0.008024 -0.000739
# 4 0.007975 0.004381 -0.006684 0.024763 0.017745 0.007448
# 5 0.025969 0.008793 -0.008024 0.017745 0.072090 0.027059
# 6 0.013752 0.007344 -0.000739 0.007448 0.027059 0.057532
#
#
# Mechanical properties :
#
#
# Convention : Reuss Voigt Hill
#
# Bulk Modulus (GPa) = 32.60235 60.74650 46.67443
# Shear Modulus (GPa) = 22.01682 37.95352 29.98517
#
# Velocity S-wave (km/s) = 2.97934 3.91172 3.47693
# Velocity P-wave (km/s) = 4.99794 6.70023 5.91069
#
# Compressibility (1/GPa) = 0.03067264
#
# Stress axis : x y z
#
# Youngs Moduli (GPa) = 46.82693 66.95104 97.18041
#
# Poissons Ratio (x) = -0.16065 0.45151
# Poissons Ratio (y) = -0.11236 0.55469
# Poissons Ratio (z) = 0.21756 0.38215
#
# Static dielectric constant tensor:
#      x y z
#    x 1.871680 -0.127190 -0.109930 
#    y -0.127190 1.795940 -0.266720 
#    z -0.109930 -0.266720 1.721240 
# 
# From -- ./inp_files/235167.got.cif
#   From: 2010.05.17/outbox.cif.g08.bks.cpg/sg2_118_cif.got.tgz:235167.got - 2010.06.03 11:33:40.
