data_PCOD9047029
_publ_section_title
;
Structure prediction by ZEFSAII (Michael W. Deem and Ramdas Pophale) SiO2 
 PCOD9047029
Probable space group: P -1
;
_chemical_formula_sum "Si O2"
_cell_formula_units_Z 14
_cell_length_a 14.534922
_cell_length_b 5.318519
_cell_length_c 8.960295
_cell_angle_alpha 114.877094
_cell_angle_beta 93.054235
_cell_angle_gamma 66.922981
_cell_volume 572.920275
_symmetry_space_group_name_H-M "P -1"
_symmetry_group_IT_number 2
_symmetry_cell_setting 'triclinic'
loop_
_space_group_symop_operation_xyz
x,y,z
-x,-y,-z
loop_
_atom_site_type_symbol
_atom_site_label
_atom_site_fract_x
_atom_site_fract_y
_atom_site_fract_z
Si Si1 0.475516 0.288642 0.327618
Si Si2 0.948399 0.080544 0.173225
Si Si3 0.356969 0.236170 0.674433
Si Si4 0.595941 0.279931 0.045583
Si Si5 0.167154 0.200102 0.717032
Si Si6 0.096890 0.190106 0.403095
Si Si7 0.707038 0.769797 0.680899
O O1 0.500000 0.500000 0.500000
O O2 0.538253 0.208764 0.161223
O O3 0.355910 0.425574 0.318549
O O4 0.525561 0.963978 0.334115
O O5 0.879259 0.442434 0.243159
O O6 0.044702 0.997896 0.269942
O O7 0.885341 0.894020 0.176139
O O8 0.000000 0.000000 0.000000
O O9 0.340516 0.554532 0.827106
O O10 0.284880 0.109298 0.723020
O O11 0.326288 0.222460 0.496174
O O12 0.500000 0.500000 0.000000
O O13 0.661764 0.034874 0.868026
O O14 0.145951 0.045090 0.528234
O O15 0.177955 0.270666 0.337168
O O16 0.000000 0.500000 0.500000
#
# Coordination Sequence:
#
# PCOD9047029 Si02
#       7
#     2   2   2   2   2   2   2
#     4  12  24  42  72  98 145 188 229 291 356 431
#     4  11  23  43  68 103 136 178 235 298 353 420
#     4  11  25  44  67  98 142 182 234 289 356 430
#     4  12  25  43  66 100 145 183 233 289 349 432
#     4  10  24  43  70  95 139 183 230 288 362 419
#     4   9  22  44  70  96 135 184 239 296 356 428
#     4  11  23  44  67 101 136 186 236 288 360 422
#
# _framework density 24.436209999999999
#
# number of rings (size 3 to 8) (size 9 to 14) (size 15 to 20)
#    0.000    1.143    2.857    2.571    4.000    1.143 
#    0.000    2.857    0.000    0.000    0.000    0.000 
#    0.000    0.000    0.000    0.000    0.000    0.000 
#
# Total GULP energy -78056.075341 kJ/mol
# GULP energy per Si atom -5575.433953 kJ/mol
# Density = 2.438059 g / cm^3
# Si number density = 24.436210 Si / 1000 Ang^3
#
#
#
# Elastic Constant Matrix: (Units=GPa)
#
#
# Indices 1 2 3 4 5 6 
#
# 1 186.8660 16.1873 51.9885 -4.3590 -36.6124 15.2757
# 2 16.1873 42.8649 18.9505 -11.3206 -3.6769 5.1698
# 3 51.9885 18.9505 159.6238 3.6759 -20.2015 9.3779
# 4 -4.3590 -11.3206 3.6759 33.2675 9.9655 -5.4126
# 5 -36.6124 -3.6769 -20.2015 9.9655 37.7411 -0.4200
# 6 15.2757 5.1698 9.3779 -5.4126 -0.4200 35.3151
#
#
#
# Elastic Compliance Matrix: (Units=1/GPa)
#
#
# Indices 1 2 3 4 5 6 
#
# 1 0.007352 -0.001919 -0.001079 -0.002098 0.006890 -0.002852
# 2 -0.001919 0.028154 -0.003395 0.010704 -0.003771 -0.000794
# 3 -0.001079 -0.003395 0.007649 -0.003479 0.003618 -0.001558
# 4 -0.002098 0.010704 -0.003479 0.038689 -0.013004 0.006040
# 5 0.006890 -0.003771 0.003618 -0.013004 0.038128 -0.004929
# 6 -0.002852 -0.000794 -0.001558 0.006040 -0.004929 0.030947
#
#
# Mechanical properties :
#
#
# Convention : Reuss Voigt Hill
#
# Bulk Modulus (GPa) = 32.92678 62.62303 47.77490
# Shear Modulus (GPa) = 28.76431 41.41330 35.08880
#
# Velocity S-wave (km/s) = 3.43464 4.12120 3.79348
# Velocity P-wave (km/s) = 5.40674 6.95187 6.22741
#
# Compressibility (1/GPa) = 0.03037042
#
# Stress axis : x y z
#
# Youngs Moduli (GPa) = 136.01828 35.51928 130.74272
#
# Poissons Ratio (x) = 0.06814 0.14105
# Poissons Ratio (y) = 0.26096 0.44382
# Poissons Ratio (z) = 0.14674 0.12057
#
# Static dielectric constant tensor:
#      x y z
#    x 2.047260 -0.044770 -0.048510 
#    y -0.044770 2.313470 0.068790 
#    z -0.048510 0.068790 2.041120 
# 
# From -- ./inp_files/52446.got.cif
#   From: 2010.05.17/outbox.cif.g08.bks.cpg/sg2_27_cif.got.tgz:52446.got - 2010.06.03 11:33:40.
