data_PCOD9047115
_publ_section_title
;
Structure prediction by ZEFSAII (Michael W. Deem and Ramdas Pophale) SiO2 
 PCOD9047115
Probable space group: P -1
;
_chemical_formula_sum "Si O2"
_cell_formula_units_Z 16
_cell_length_a 10.456224
_cell_length_b 8.846270
_cell_length_c 14.376334
_cell_angle_alpha 121.102284
_cell_angle_beta 68.508910
_cell_angle_gamma 64.391515
_cell_volume 662.943262
_symmetry_space_group_name_H-M "P -1"
_symmetry_group_IT_number 2
_symmetry_cell_setting 'triclinic'
loop_
_space_group_symop_operation_xyz
x,y,z
-x,-y,-z
loop_
_atom_site_type_symbol
_atom_site_label
_atom_site_fract_x
_atom_site_fract_y
_atom_site_fract_z
Si Si1 0.114318 0.890008 0.535998
Si Si2 0.930047 0.400013 0.866948
Si Si3 0.365857 0.927043 0.694967
Si Si4 0.277541 0.114832 0.063918
Si Si5 0.506279 0.154319 0.777640
Si Si6 0.924606 0.755149 0.649453
Si Si7 0.362420 0.684947 0.788252
Si Si8 0.530578 0.759122 0.395686
O O1 0.377319 0.623795 0.372444
O O2 0.068763 0.770499 0.578013
O O3 0.000000 0.000000 0.500000
O O4 0.020037 0.156752 0.697746
O O5 0.837668 0.650363 0.908728
O O6 0.140207 0.242017 0.820923
O O7 0.730212 0.539520 0.029607
O O8 0.499621 0.947026 0.716944
O O9 0.314673 0.824086 0.747165
O O10 0.479032 0.752364 0.514558
O O11 0.108257 0.255532 0.237880
O O12 0.500000 0.000000 0.000000
O O13 0.326306 0.871610 0.933542
O O14 0.569808 0.134234 0.649085
O O15 0.683468 0.044821 0.767379
O O16 0.000000 0.500000 0.500000
O O17 0.266240 0.582099 0.787611
O O18 0.500000 0.000000 0.500000
#
# Coordination Sequence:
#
# PCOD9047115 Si02
#       8
#     2   2   2   2   2   2   2   2
#     4  12  27  45  74 104 145 193 246 296 370 436
#     4  12  25  45  71 103 147 188 237 300 369 430
#     4  11  23  47  71 102 136 197 239 291 366 433
#     4  12  25  46  73 108 149 191 239 307 367 428
#     4  11  24  44  69 102 142 185 236 299 358 428
#     4  12  26  45  73 106 144 188 247 297 364 440
#     4  12  24  48  73 106 147 192 243 301 362 440
#     4  10  24  43  72 100 139 186 242 295 359 429
#
# _framework density 24.134795
#
# number of rings (size 3 to 8) (size 9 to 14) (size 15 to 20)
#    0.000    0.500    3.750    4.500    3.500    0.500 
#    2.250    0.625    0.000    0.000    0.000    0.000 
#    0.000    0.000    0.000    0.000    0.000    0.000 
#
# Total GULP energy -89311.538398 kJ/mol
# GULP energy per Si atom -5581.971150 kJ/mol
# Density = 2.407986 g / cm^3
# Si number density = 24.134795 Si / 1000 Ang^3
#
#
#
# Elastic Constant Matrix: (Units=GPa)
#
#
# Indices 1 2 3 4 5 6 
#
# 1 45.1537 16.9202 21.7111 1.9666 18.0968 11.3612
# 2 16.9202 125.9593 18.8217 -7.3089 11.6728 9.6799
# 3 21.7111 18.8217 140.5000 -5.1124 35.1506 5.6406
# 4 1.9666 -7.3089 -5.1124 44.3964 6.2917 7.4830
# 5 18.0968 11.6728 35.1506 6.2917 49.8937 10.5898
# 6 11.3612 9.6799 5.6406 7.4830 10.5898 42.1745
#
#
#
# Elastic Compliance Matrix: (Units=1/GPa)
#
#
# Indices 1 2 3 4 5 6 
#
# 1 0.028152 -0.002436 -0.002038 -0.000035 -0.007150 -0.004950
# 2 -0.002436 0.008617 -0.000473 0.001811 -0.000731 -0.001396
# 3 -0.002038 -0.000473 0.008997 0.001774 -0.005841 0.000606
# 4 -0.000035 0.001811 0.001774 0.024247 -0.003875 -0.003973
# 5 -0.007150 -0.000731 -0.005841 -0.003875 0.028155 -0.003507
# 6 -0.004950 -0.001396 0.000606 -0.003973 -0.003507 0.026869
#
#
# Mechanical properties :
#
#
# Convention : Reuss Voigt Hill
#
# Bulk Modulus (GPa) = 27.87615 47.39101 37.63358
# Shear Modulus (GPa) = 34.03918 44.23692 39.13805
#
# Velocity S-wave (km/s) = 3.75957 4.28590 4.03133
# Velocity P-wave (km/s) = 5.51553 6.64609 6.10703
#
# Compressibility (1/GPa) = 0.03587296
#
# Stress axis : x y z
#
# Youngs Moduli (GPa) = 35.52134 116.04780 111.14460
#
# Poissons Ratio (x) = 0.28272 0.22646
# Poissons Ratio (y) = 0.08654 0.05258
# Poissons Ratio (z) = 0.07238 0.05490
#
# Static dielectric constant tensor:
#      x y z
#    x 1.514390 -0.133550 0.032410 
#    y -0.133550 1.842720 0.004050 
#    z 0.032410 0.004050 1.942210 
# 
# From -- ./inp_files/314384.got.cif
#   From: 2010.05.17/outbox.cif.g08.bks.cpg/sg2_158_cif.got.tgz:314384.got - 2010.06.03 11:33:40.
