data_PCOD9047368
_publ_section_title
;
Structure prediction by ZEFSAII (Michael W. Deem and Ramdas Pophale) SiO2 
 PCOD9047368
Probable space group: P -1
;
_chemical_formula_sum "Si O2"
_cell_formula_units_Z 16
_cell_length_a 11.884506
_cell_length_b 9.745784
_cell_length_c 9.257103
_cell_angle_alpha 79.185894
_cell_angle_beta 51.983201
_cell_angle_gamma 63.087347
_cell_volume 746.855359
_symmetry_space_group_name_H-M "P -1"
_symmetry_group_IT_number 2
_symmetry_cell_setting 'triclinic'
loop_
_space_group_symop_operation_xyz
x,y,z
-x,-y,-z
loop_
_atom_site_type_symbol
_atom_site_label
_atom_site_fract_x
_atom_site_fract_y
_atom_site_fract_z
Si Si1 0.268439 0.483109 0.678482
Si Si2 0.149596 0.977746 0.983216
Si Si3 0.367181 0.749358 0.631773
Si Si4 0.380771 0.957313 0.326578
Si Si5 0.835807 0.110952 0.686544
Si Si6 0.788276 0.708952 0.690305
Si Si7 0.152140 0.585313 0.442523
Si Si8 0.245262 0.238483 0.951014
O O1 0.285228 0.632929 0.698028
O O2 0.444744 0.361283 0.508658
O O3 0.159735 0.534328 0.612576
O O4 0.211800 0.394109 0.857569
O O5 0.304806 0.852094 0.803824
O O6 0.156655 0.140772 0.976696
O O7 0.137465 0.910737 0.161201
O O8 0.000000 0.000000 0.000000
O O9 0.323766 0.875973 0.512429
O O10 0.301552 0.934856 0.246539
O O11 0.568275 0.871707 0.193788
O O12 0.319339 0.140636 0.346274
O O13 0.783742 0.286654 0.645314
O O14 0.000000 0.000000 0.500000
O O15 0.756186 0.564755 0.697402
O O16 0.970884 0.665518 0.516695
O O17 0.777289 0.732924 0.865864
#
# Coordination Sequence:
#
# PCOD9047368 Si02
#       8
#     2   2   2   2   2   2   2   2
#     4  10  24  44  67  93 143 173 214 280 333 400
#     4  12  28  42  70 101 132 176 231 277 331 407
#     4  10  24  44  66 101 130 179 222 268 340 394
#     4  11  22  44  74  91 137 177 226 276 330 400
#     4  12  23  45  70  97 134 181 224 278 332 395
#     4  11  25  42  66 100 133 170 229 280 333 395
#     4  11  25  41  68  97 131 181 219 271 342 395
#     4  11  26  44  66 102 133 180 220 284 338 386
#
# _framework density 21.423155999999999
#
# number of rings (size 3 to 8) (size 9 to 14) (size 15 to 20)
#    0.000    1.000    3.750    1.125    7.000    2.500 
#    0.000    1.250    0.000    0.000    0.000    0.000 
#    0.000    0.000    0.000    0.000    0.000    0.000 
#
# Total GULP energy -89507.349613 kJ/mol
# GULP energy per Si atom -5594.209351 kJ/mol
# Density = 2.137440 g / cm^3
# Si number density = 21.423156 Si / 1000 Ang^3
#
#
#
# Elastic Constant Matrix: (Units=GPa)
#
#
# Indices 1 2 3 4 5 6 
#
# 1 56.2972 23.4071 1.6917 -10.2902 5.0147 -3.7860
# 2 23.4071 155.1244 60.7072 -12.9264 9.9536 16.7665
# 3 1.6917 60.7072 82.8981 -12.7490 24.1362 4.2406
# 4 -10.2902 -12.9264 -12.7490 28.2178 -1.7800 7.5546
# 5 5.0147 9.9536 24.1362 -1.7800 28.2603 -1.7125
# 6 -3.7860 16.7665 4.2406 7.5546 -1.7125 38.4072
#
#
#
# Elastic Compliance Matrix: (Units=1/GPa)
#
#
# Indices 1 2 3 4 5 6 
#
# 1 0.021679 -0.004789 0.006121 0.007578 -0.006804 0.001758
# 2 -0.004789 0.010831 -0.008782 0.000635 0.004323 -0.004163
# 3 0.006121 -0.008782 0.025322 0.008690 -0.019128 -0.000921
# 4 0.007578 0.000635 0.008690 0.044550 -0.006763 -0.009554
# 5 -0.006804 0.004323 -0.019128 -0.006763 0.051173 0.003166
# 6 0.001758 -0.004163 -0.000921 -0.009554 0.003166 0.030149
#
#
# Mechanical properties :
#
#
# Convention : Reuss Voigt Hill
#
# Bulk Modulus (GPa) = 23.29217 51.77020 37.53119
# Shear Modulus (GPa) = 23.48342 32.87797 28.18069
#
# Velocity S-wave (km/s) = 3.31444 3.92177 3.63082
# Velocity P-wave (km/s) = 5.05404 6.68767 5.92741
#
# Compressibility (1/GPa) = 0.04293288
#
# Stress axis : x y z
#
# Youngs Moduli (GPa) = 46.12686 92.32438 39.49095
#
# Poissons Ratio (x) = 0.44210 -0.24172
# Poissons Ratio (y) = 0.22088 0.34682
# Poissons Ratio (z) = -0.28234 0.81083
#
# Static dielectric constant tensor:
#      x y z
#    x 1.779610 0.032320 -0.033550 
#    y 0.032320 1.830320 -0.014630 
#    z -0.033550 -0.014630 1.765520 
# 
# From -- ./inp_files/223227.got.cif
#   From: 2010.05.17/outbox.cif.g08.bks.cpg/sg2_112_cif.got.tgz:223227.got - 2010.06.03 11:33:40.
