data_PCOD9047401
_publ_section_title
;
Structure prediction by ZEFSAII (Michael W. Deem and Ramdas Pophale) SiO2 
 PCOD9047401
Probable space group: P -1
;
_chemical_formula_sum "Si O2"
_cell_formula_units_Z 14
_cell_length_a 17.477725
_cell_length_b 9.139375
_cell_length_c 12.424757
_cell_angle_alpha 54.584108
_cell_angle_beta 39.137240
_cell_angle_gamma 33.671295
_cell_volume 682.059215
_symmetry_space_group_name_H-M "P -1"
_symmetry_group_IT_number 2
_symmetry_cell_setting 'triclinic'
loop_
_space_group_symop_operation_xyz
x,y,z
-x,-y,-z
loop_
_atom_site_type_symbol
_atom_site_label
_atom_site_fract_x
_atom_site_fract_y
_atom_site_fract_z
Si Si1 0.116971 0.606224 0.309124
Si Si2 0.348298 0.037984 0.200590
Si Si3 0.028478 0.271545 0.109944
Si Si4 0.980531 0.805590 0.605334
Si Si5 0.629798 0.331876 0.030139
Si Si6 0.479879 0.499315 0.685271
Si Si7 0.805650 0.190463 0.310434
O O1 0.097411 0.619410 0.453632
O O2 0.201674 0.329322 0.292392
O O3 0.251278 0.617336 0.121284
O O4 0.925552 0.889789 0.349085
O O5 0.463213 0.773116 0.260034
O O6 0.222547 0.048380 0.257862
O O7 0.500000 0.000000 0.000000
O O8 0.965229 0.320541 0.281957
O O9 0.927603 0.233427 0.164000
O O10 0.000000 0.500000 0.000000
O O11 0.237515 0.980550 0.002193
O O12 0.000000 0.000000 0.500000
O O13 0.534079 0.420647 0.211586
O O14 0.500000 0.500000 0.000000
O O15 0.641592 0.407793 0.479975
O O16 0.290187 0.735773 0.730295
#
# Coordination Sequence:
#
# PCOD9047401 Si02
#       7
#     2   2   2   2   2   2   2
#     4  11  24  41  70 100 130 183 233 283 341 421
#     4  12  25  41  69 106 132 174 236 292 332 407
#     4  11  26  43  67  99 135 182 232 288 341 420
#     4  12  23  45  72  96 141 187 230 283 349 421
#     4  11  24  41  69 100 135 183 235 283 355 408
#     4  11  23  43  68  93 142 173 224 293 346 411
#     4  10  24  44  66  94 135 185 229 270 365 405
#
# _framework density 20.526077999999998
#
# number of rings (size 3 to 8) (size 9 to 14) (size 15 to 20)
#    0.000    0.857    5.714    1.286    4.000    3.429 
#    2.571    0.714    0.000    0.000    0.000    0.000 
#    0.000    0.000    0.000    0.000    0.000    0.000 
#
# Total GULP energy -78209.717197 kJ/mol
# GULP energy per Si atom -5586.408371 kJ/mol
# Density = 2.047936 g / cm^3
# Si number density = 20.526078 Si / 1000 Ang^3
#
#
#
# Elastic Constant Matrix: (Units=GPa)
#
#
# Indices 1 2 3 4 5 6 
#
# 1 102.0506 57.6220 33.8292 3.2312 11.8271 -6.7565
# 2 57.6220 149.1596 25.1417 -11.8808 11.5547 5.6628
# 3 33.8292 25.1417 67.5902 -11.9432 3.7564 9.9797
# 4 3.2312 -11.8808 -11.9432 37.3836 2.8826 -0.5197
# 5 11.8271 11.5547 3.7564 2.8826 42.0337 -0.7242
# 6 -6.7565 5.6628 9.9797 -0.5197 -0.7242 33.4249
#
#
#
# Elastic Compliance Matrix: (Units=1/GPa)
#
#
# Indices 1 2 3 4 5 6 
#
# 1 0.016381 -0.005522 -0.007968 -0.005480 -0.001891 0.006500
# 2 -0.005522 0.009260 0.000446 0.003626 -0.001328 -0.002791
# 3 -0.007968 0.000446 0.021131 0.007504 -0.000420 -0.007888
# 4 -0.005480 0.003626 0.007504 0.030902 -0.002306 -0.003532
# 5 -0.001891 -0.001328 -0.000420 -0.002306 0.024892 0.000471
# 6 0.006500 -0.002791 -0.007888 -0.003532 0.000471 0.034015
#
#
# Mechanical properties :
#
#
# Convention : Reuss Voigt Hill
#
# Bulk Modulus (GPa) = 48.34518 61.33178 54.83848
# Shear Modulus (GPa) = 29.48757 36.04894 32.76826
#
# Velocity S-wave (km/s) = 3.79435 4.19531 3.99986
# Velocity P-wave (km/s) = 6.54219 7.30837 6.93587
#
# Compressibility (1/GPa) = 0.02068458
#
# Stress axis : x y z
#
# Youngs Moduli (GPa) = 61.04505 107.99182 47.32390
#
# Poissons Ratio (x) = 0.59633 0.37707
# Poissons Ratio (y) = 0.33709 -0.02110
# Poissons Ratio (z) = 0.48639 -0.04816
#
# Static dielectric constant tensor:
#      x y z
#    x 1.772200 -0.001450 -0.010910 
#    y -0.001450 1.725150 0.038090 
#    z -0.010910 0.038090 1.765870 
# 
# From -- ./inp_files/392573.got.cif
#   From: 2010.05.17/outbox.cif.g08.bks.cpg/sg2_197_cif.got.tgz:392573.got - 2010.06.03 11:33:40.
