data_PCOD9047402
_publ_section_title
;
Structure prediction by ZEFSAII (Michael W. Deem and Ramdas Pophale) SiO2 
 PCOD9047402
Probable space group: P -1
;
_chemical_formula_sum "Si O2"
_cell_formula_units_Z 15
_cell_length_a 11.789259
_cell_length_b 13.068944
_cell_length_c 6.649800
_cell_angle_alpha 73.599303
_cell_angle_beta 115.558359
_cell_angle_gamma 131.693623
_cell_volume 690.169321
_symmetry_space_group_name_H-M "P -1"
_symmetry_group_IT_number 2
_symmetry_cell_setting 'triclinic'
loop_
_space_group_symop_operation_xyz
x,y,z
-x,-y,-z
loop_
_atom_site_type_symbol
_atom_site_label
_atom_site_fract_x
_atom_site_fract_y
_atom_site_fract_z
Si Si1 0.785119 0.154410 0.834125
Si Si2 0.368281 0.765585 0.054621
Si Si3 0.892665 0.713809 0.752634
Si Si4 0.320964 0.561679 0.455726
Si Si5 0.607397 0.624402 0.857267
Si Si6 0.298719 0.115288 0.972738
Si Si7 0.000000 0.000000 0.500000
Si Si8 0.827329 0.351805 0.424507
O O1 0.644623 0.139971 0.859344
O O2 0.817662 0.240241 0.613051
O O3 0.943139 0.240350 0.047896
O O4 0.746411 0.009906 0.851534
O O5 0.323397 0.639026 0.222702
O O6 0.542465 0.837072 0.053185
O O7 0.235015 0.705598 0.812445
O O8 0.822962 0.598525 0.593155
O O9 0.759327 0.645822 0.865748
O O10 0.917627 0.844126 0.608248
O O11 0.489387 0.593369 0.602035
O O12 0.294325 0.625438 0.587989
O O13 0.500000 0.500000 0.000000
O O14 0.667716 0.762670 0.938129
O O15 0.154468 0.061888 0.737756
O O16 0.000000 0.500000 0.500000
#
# Coordination Sequence:
#
# PCOD9047402 Si02
#       8
#     2   2   2   2   2   2   1   2
#     4  10  25  42  66 101 132 178 219 279 338 398
#     4  11  22  45  69  98 134 174 226 276 340 400
#     4  11  23  44  64  99 140 174 230 275 337 405
#     4  11  23  42  68 100 130 173 225 279 332 396
#     4  12  25  42  71  99 133 181 228 280 335 403
#     4  11  23  46  66 100 135 175 226 273 342 401
#     4  10  24  44  66  94 136 182 216 280 338 398
#     4  11  23  41  68  99 133 175 222 279 335 398
#
# _framework density 21.733796999999999
#
# number of rings (size 3 to 8) (size 9 to 14) (size 15 to 20)
#    0.000    1.067    1.333    4.800    1.867    4.800 
#   14.400    0.000    0.000    0.000    0.000    0.000 
#    0.000    0.000    0.000    0.000    0.000    0.000 
#
# Total GULP energy -83680.112016 kJ/mol
# GULP energy per Si atom -5578.674134 kJ/mol
# Density = 2.168433 g / cm^3
# Si number density = 21.733797 Si / 1000 Ang^3
#
#
#
# Elastic Constant Matrix: (Units=GPa)
#
#
# Indices 1 2 3 4 5 6 
#
# 1 50.2315 8.0551 6.5176 -6.5653 4.1142 -15.1501
# 2 8.0551 118.6382 36.8518 -0.1337 -3.6514 -19.6134
# 3 6.5176 36.8518 94.8648 -11.0583 4.9212 -15.0536
# 4 -6.5653 -0.1337 -11.0583 27.5795 8.0702 2.1983
# 5 4.1142 -3.6514 4.9212 8.0702 21.1384 1.6103
# 6 -15.1501 -19.6134 -15.0536 2.1983 1.6103 19.4730
#
#
#
# Elastic Compliance Matrix: (Units=1/GPa)
#
#
# Indices 1 2 3 4 5 6 
#
# 1 0.029657 0.000895 0.003656 0.010009 -0.012323 0.026691
# 2 0.000895 0.011018 -0.003317 -0.002622 0.002794 0.009295
# 3 0.003656 -0.003317 0.014708 0.008464 -0.008751 0.010641
# 4 0.010009 -0.002622 0.008464 0.048218 -0.023403 0.008181
# 5 -0.012323 0.002794 -0.008751 -0.023403 0.062383 -0.016054
# 6 0.026691 0.009295 0.010641 0.008181 -0.016054 0.090110
#
#
# Mechanical properties :
#
#
# Convention : Reuss Voigt Hill
#
# Bulk Modulus (GPa) = 17.28568 40.73152 29.00860
# Shear Modulus (GPa) = 18.32090 27.79219 23.05655
#
# Velocity S-wave (km/s) = 2.90654 3.57985 3.26062
# Velocity P-wave (km/s) = 4.38573 5.98906 5.24897
#
# Compressibility (1/GPa) = 0.05785136
#
# Stress axis : x y z
#
# Youngs Moduli (GPa) = 33.71843 90.75785 67.98997
#
# Poissons Ratio (x) = -0.08125 -0.24857
# Poissons Ratio (y) = -0.03019 0.22555
# Poissons Ratio (z) = -0.12327 0.30109
#
# Static dielectric constant tensor:
#      x y z
#    x 1.829930 0.002140 -0.006430 
#    y 0.002140 1.779640 -0.001300 
#    z -0.006430 -0.001300 1.750420 
# 
# From -- ./inp_files/60488.got.cif
#   From: 2010.05.17/outbox.cif.g08.bks.cpg/sg2_31_cif.got.tgz:60488.got - 2010.06.03 11:33:40.
