data_PCOD9047287
_publ_section_title
;
Structure prediction by ZEFSAII (Michael W. Deem and Ramdas Pophale) SiO2 
 PCOD9047287
Probable space group: P -1
;
_chemical_formula_sum "Si O2"
_cell_formula_units_Z 16
_cell_length_a 16.228172
_cell_length_b 12.497928
_cell_length_c 15.309120
_cell_angle_alpha 140.040457
_cell_angle_beta 152.279358
_cell_angle_gamma 59.194281
_cell_volume 770.402047
_symmetry_space_group_name_H-M "P -1"
_symmetry_group_IT_number 2
_symmetry_cell_setting 'triclinic'
loop_
_space_group_symop_operation_xyz
x,y,z
-x,-y,-z
loop_
_atom_site_type_symbol
_atom_site_label
_atom_site_fract_x
_atom_site_fract_y
_atom_site_fract_z
Si Si1 0.857675 0.058725 0.349644
Si Si2 0.310774 0.648117 0.311186
Si Si3 0.119589 0.370768 0.637501
Si Si4 0.385427 0.078300 0.384013
Si Si5 0.173872 0.657547 0.379160
Si Si6 0.460717 0.478358 0.782554
Si Si7 0.527592 0.620441 0.741943
Si Si8 0.995596 0.309265 0.290061
O O1 0.771063 0.149419 0.393587
O O2 0.987073 0.229339 0.505634
O O3 0.000000 0.000000 0.500000
O O4 0.676700 0.854226 0.005257
O O5 0.476189 0.827171 0.515598
O O6 0.256878 0.709217 0.389767
O O7 0.406697 0.512972 0.329021
O O8 0.080973 0.498980 0.956852
O O9 0.114319 0.569060 0.752091
O O10 0.012190 0.264619 0.378953
O O11 0.359605 0.432559 0.918701
O O12 0.397321 0.257362 0.558869
O O13 0.500000 0.000000 0.500000
O O14 0.146499 0.897238 0.024153
O O15 0.287613 0.554478 0.460436
O O16 0.556914 0.602809 0.861516
O O17 0.241996 0.455430 0.585354
#
# Coordination Sequence:
#
# PCOD9047287 Si02
#       8
#     2   2   2   2   2   2   2   2
#     4  12  22  43  66  97 134 168 212 267 330 387
#     4  10  24  44  63  94 135 164 216 274 324 382
#     4  11  24  45  66  92 139 167 215 277 318 383
#     4  11  23  43  66  92 131 167 214 273 319 380
#     4  11  23  42  66  95 128 175 213 262 329 395
#     4  11  22  43  67  94 127 173 219 263 327 389
#     4  11  23  40  69  93 131 170 214 270 328 393
#     4  11  25  43  67  96 125 178 219 267 323 380
#
# _framework density 20.768377000000001
#
# number of rings (size 3 to 8) (size 9 to 14) (size 15 to 20)
#    0.000    1.000    3.750    3.000    3.500    0.000 
#    4.500    0.000    0.000    0.000    0.000    0.000 
#    0.000    0.000    0.000    0.000    0.000    0.000 
#
# Total GULP energy -89420.849674 kJ/mol
# GULP energy per Si atom -5588.803105 kJ/mol
# Density = 2.072111 g / cm^3
# Si number density = 20.768377 Si / 1000 Ang^3
#
#
#
# Elastic Constant Matrix: (Units=GPa)
#
#
# Indices 1 2 3 4 5 6 
#
# 1 60.9329 3.8381 7.5792 4.2504 5.1245 3.9415
# 2 3.8381 57.1901 41.3665 -21.0137 2.0930 5.3121
# 3 7.5792 41.3665 73.2718 -8.9705 1.1334 2.1326
# 4 4.2504 -21.0137 -8.9705 33.9480 -5.9158 1.7449
# 5 5.1245 2.0930 1.1334 -5.9158 23.6026 -8.1052
# 6 3.9415 5.3121 2.1326 1.7449 -8.1052 31.0290
#
#
#
# Elastic Compliance Matrix: (Units=1/GPa)
#
#
# Indices 1 2 3 4 5 6 
#
# 1 0.017657 -0.001073 -0.001542 -0.004129 -0.005812 -0.003239
# 2 -0.001073 0.039662 -0.019669 0.019895 0.000486 -0.006294
# 3 -0.001542 -0.019669 0.024146 -0.005670 0.000287 0.002297
# 4 -0.004129 0.019895 -0.005670 0.042523 0.009212 -0.002477
# 5 -0.005812 0.000486 0.000287 0.009212 0.050447 0.013295
# 6 -0.003239 -0.006294 0.002297 -0.002477 0.013295 0.037171
#
#
# Mechanical properties :
#
#
# Convention : Reuss Voigt Hill
#
# Bulk Modulus (GPa) = 27.10260 32.99583 30.04922
# Shear Modulus (GPa) = 18.62377 26.95664 22.79020
#
# Velocity S-wave (km/s) = 2.99780 3.60664 3.31622
# Velocity P-wave (km/s) = 5.00607 5.76765 5.40030
#
# Compressibility (1/GPa) = 0.03689683
#
# Stress axis : x y z
#
# Youngs Moduli (GPa) = 56.63424 25.21328 41.41425
#
# Poissons Ratio (x) = 0.02706 0.06385
# Poissons Ratio (y) = 0.06078 0.81458
# Poissons Ratio (z) = 0.08732 0.49592
#
# Static dielectric constant tensor:
#      x y z
#    x 1.759590 0.003710 -0.005750 
#    y 0.003710 1.718960 -0.023820 
#    z -0.005750 -0.023820 1.752560 
# 
# From -- ./inp_files/400076.got.cif
#   From: 2010.05.17/outbox.cif.g08.bks.cpg/sg2_201_cif.got.tgz:400076.got - 2010.06.03 11:33:40.
