data_PCOD9047973
_publ_section_title
;
Structure prediction by ZEFSAII (Michael W. Deem and Ramdas Pophale) SiO2 
 PCOD9047973
Probable space group: P -1
;
_chemical_formula_sum "Si O2"
_cell_formula_units_Z 12
_cell_length_a 8.261267
_cell_length_b 12.559374
_cell_length_c 6.331267
_cell_angle_alpha 80.968342
_cell_angle_beta 103.398610
_cell_angle_gamma 133.974529
_cell_volume 459.869114
_symmetry_space_group_name_H-M "P -1"
_symmetry_group_IT_number 2
_symmetry_cell_setting 'triclinic'
loop_
_space_group_symop_operation_xyz
x,y,z
-x,-y,-z
loop_
_atom_site_type_symbol
_atom_site_label
_atom_site_fract_x
_atom_site_fract_y
_atom_site_fract_z
Si Si1 0.679708 0.545325 0.722516
Si Si2 0.968684 0.620412 0.405713
Si Si3 0.381467 0.667582 0.882722
Si Si4 0.688907 0.921631 0.110134
Si Si5 0.499752 0.128513 0.501542
Si Si6 0.902223 0.792732 0.052585
O O1 0.500000 0.500000 0.500000
O O2 0.541396 0.795861 0.708732
O O3 0.888649 0.590423 0.634326
O O4 0.757664 0.680895 0.846712
O O5 0.235622 0.730805 0.414227
O O6 0.896181 0.701946 0.259703
O O7 0.828318 0.470853 0.273810
O O8 0.420455 0.789059 0.008117
O O9 0.402575 0.580084 0.091633
O O10 0.683574 0.935665 0.351752
O O11 0.808380 0.862086 0.099375
O O12 0.839268 0.076605 0.990597
O O13 0.500000 0.000000 0.500000
#
# Coordination Sequence:
#
# PCOD9047973 Si02
#       6
#     2   2   2   2   2   2
#     4  11  23  44  72 104 141 180 230 288 346 412
#     4  11  24  44  71 105 140 180 230 284 348 416
#     4  11  25  44  70 103 138 183 230 283 346 410
#     4  11  24  45  70 100 140 181 232 287 345 411
#     4  12  27  46  70 102 141 186 232 284 347 413
#     4  10  24  44  72 103 136 182 230 286 350 411
#
# _framework density 26.094379
#
# number of rings (size 3 to 8) (size 9 to 14) (size 15 to 20)
#    0.000    1.000    0.000    5.500    0.000   10.667 
#    0.000    9.167    0.000    0.000    0.000    0.000 
#    0.000    0.000    0.000    0.000    0.000    0.000 
#
# Total GULP energy -66949.507461 kJ/mol
# GULP energy per Si atom -5579.125622 kJ/mol
# Density = 2.603499 g / cm^3
# Si number density = 26.094379 Si / 1000 Ang^3
#
#
#
# Elastic Constant Matrix: (Units=GPa)
#
#
# Indices 1 2 3 4 5 6 
#
# 1 109.4136 45.2788 74.1320 -23.6860 -18.3624 -17.9637
# 2 45.2788 210.1723 74.6235 -20.3516 -6.2078 -14.7517
# 3 74.1320 74.6235 132.8631 -24.4992 -23.3719 -13.4321
# 4 -23.6860 -20.3516 -24.4992 43.8562 9.4902 2.7773
# 5 -18.3624 -6.2078 -23.3719 9.4902 33.4106 -7.7069
# 6 -17.9637 -14.7517 -13.4321 2.7773 -7.7069 35.3667
#
#
#
# Elastic Compliance Matrix: (Units=1/GPa)
#
#
# Indices 1 2 3 4 5 6 
#
# 1 0.016570 -0.000135 -0.007056 0.003539 0.004618 0.006408
# 2 -0.000135 0.006084 -0.003287 0.001161 -0.001382 0.000828
# 3 -0.007056 -0.003287 0.014810 0.001556 0.005850 0.001822
# 4 0.003539 0.001161 0.001556 0.027111 -0.004507 -0.000239
# 5 0.004618 -0.001382 0.005850 -0.004507 0.040629 0.013199
# 6 0.006408 0.000828 0.001822 -0.000239 0.013199 0.035463
#
#
# Mechanical properties :
#
#
# Convention : Reuss Voigt Hill
#
# Bulk Modulus (GPa) = 60.58238 93.39084 76.98661
# Shear Modulus (GPa) = 29.91752 39.75434 34.83593
#
# Velocity S-wave (km/s) = 3.38969 3.90742 3.65773
# Velocity P-wave (km/s) = 6.21185 7.49830 6.88519
#
# Compressibility (1/GPa) = 0.01650645
#
# Stress axis : x y z
#
# Youngs Moduli (GPa) = 60.34965 164.36817 67.52246
#
# Poissons Ratio (x) = 0.02226 0.47647
# Poissons Ratio (y) = 0.00817 0.22194
# Poissons Ratio (z) = 0.42585 0.54025
#
# Static dielectric constant tensor:
#      x y z
#    x 2.346410 0.123570 0.158580 
#    y 0.123570 2.043170 0.105770 
#    z 0.158580 0.105770 2.152130 
# 
# From -- ./inp_files/30369.got.cif
#   From: 2010.05.17/outbox.cif.g08.bks.cpg/sg2_16_cif.got.tgz:30369.got - 2010.06.03 11:33:40.
