data_PCOD9047159
_publ_section_title
;
Structure prediction by ZEFSAII (Michael W. Deem and Ramdas Pophale) SiO2 
 PCOD9047159
Probable space group: P -1
;
_chemical_formula_sum "Si O2"
_cell_formula_units_Z 14
_cell_length_a 15.185076
_cell_length_b 9.188137
_cell_length_c 7.874987
_cell_angle_alpha 147.311113
_cell_angle_beta 81.020728
_cell_angle_gamma 100.560673
_cell_volume 583.348510
_symmetry_space_group_name_H-M "P -1"
_symmetry_group_IT_number 2
_symmetry_cell_setting 'triclinic'
loop_
_space_group_symop_operation_xyz
x,y,z
-x,-y,-z
loop_
_atom_site_type_symbol
_atom_site_label
_atom_site_fract_x
_atom_site_fract_y
_atom_site_fract_z
Si Si1 0.132146 0.724911 0.058333
Si Si2 0.646525 0.247298 0.474622
Si Si3 0.977114 0.741612 0.865633
Si Si4 0.413787 0.627958 0.725984
Si Si5 0.246978 0.277404 0.574836
Si Si6 0.188511 0.511118 0.159962
Si Si7 0.538377 0.723183 0.071680
O O1 0.125756 0.668217 0.206427
O O2 0.210171 0.969732 0.256885
O O3 0.041042 0.769830 0.039024
O O4 0.170740 0.459731 0.708309
O O5 0.627030 0.187288 0.222988
O O6 0.747332 0.286811 0.547653
O O7 0.589582 0.018235 0.378265
O O8 0.612570 0.546500 0.792609
O O9 0.000000 0.500000 0.500000
O O10 0.875151 0.689974 0.906039
O O11 0.000000 0.000000 0.000000
O O12 0.500000 0.500000 0.500000
O O13 0.339487 0.393896 0.579555
O O14 0.456123 0.777770 0.026314
O O15 0.246775 0.357419 0.854282
O O16 0.500000 0.500000 0.000000
#
# Coordination Sequence:
#
# PCOD9047159 Si02
#       7
#     2   2   2   2   2   2   2
#     4  10  25  45  72  98 142 182 235 276 350 417
#     4  11  25  40  65 101 128 180 226 286 341 400
#     4  12  28  46  73 109 142 177 229 289 356 411
#     4  10  24  45  68  99 143 180 236 292 349 398
#     4  10  24  43  73 100 134 189 234 278 347 412
#     4  10  27  44  74  98 145 180 238 277 350 421
#     4  11  24  42  66  93 137 177 233 278 345 404
#
# _framework density 23.999374
#
# number of rings (size 3 to 8) (size 9 to 14) (size 15 to 20)
#    0.857    0.571    0.000    3.000   10.000    5.143 
#    0.000    0.000    0.000    0.000    0.000    0.000 
#    0.000    0.000    0.000    0.000    0.000    0.000 
#
# Total GULP energy -78235.237299 kJ/mol
# GULP energy per Si atom -5588.231236 kJ/mol
# Density = 2.394475 g / cm^3
# Si number density = 23.999374 Si / 1000 Ang^3
#
#
#
# Elastic Constant Matrix: (Units=GPa)
#
#
# Indices 1 2 3 4 5 6 
#
# 1 94.0733 71.6757 20.2039 -1.8123 41.2936 -6.1411
# 2 71.6757 165.2635 44.0227 16.7808 26.6810 16.9585
# 3 20.2039 44.0227 71.2811 20.5757 9.1642 -6.9279
# 4 -1.8123 16.7808 20.5757 37.7542 0.6612 8.5531
# 5 41.2936 26.6810 9.1642 0.6612 43.8409 -3.4262
# 6 -6.1411 16.9585 -6.9279 8.5531 -3.4262 56.5926
#
#
#
# Elastic Compliance Matrix: (Units=1/GPa)
#
#
# Indices 1 2 3 4 5 6 
#
# 1 0.026336 -0.009112 -0.000529 0.005118 -0.018946 0.003603
# 2 -0.009112 0.011582 -0.004719 -0.002010 0.002191 -0.004601
# 3 -0.000529 -0.004719 0.020679 -0.010424 -0.000370 0.005441
# 4 0.005118 -0.002010 -0.010424 0.034592 -0.002369 -0.005490
# 5 -0.018946 0.002191 -0.000370 -0.002369 0.039433 -0.000012
# 6 0.003603 -0.004601 0.005441 -0.005490 -0.000012 0.020935
#
#
# Mechanical properties :
#
#
# Convention : Reuss Voigt Hill
#
# Bulk Modulus (GPa) = 33.47008 66.93581 50.20294
# Shear Modulus (GPa) = 26.00965 40.61858 33.31411
#
# Velocity S-wave (km/s) = 3.29563 4.11845 3.72980
# Velocity P-wave (km/s) = 5.33461 7.11102 6.28589
#
# Compressibility (1/GPa) = 0.02987743
#
# Stress axis : x y z
#
# Youngs Moduli (GPa) = 37.97072 86.33736 48.35908
#
# Poissons Ratio (x) = 0.78671 0.02556
# Poissons Ratio (y) = 0.34599 0.22822
# Poissons Ratio (z) = 0.02007 0.40745
#
# Static dielectric constant tensor:
#      x y z
#    x 1.925960 -0.031640 -0.029560 
#    y -0.031640 1.954530 -0.090560 
#    z -0.029560 -0.090560 1.948640 
# 
# From -- ./inp_files/297101.got.cif
#   From: 2010.05.17/outbox.cif.g08.bks.cpg/sg2_149_cif.got.tgz:297101.got - 2010.06.03 11:33:40.
