data_PCOD9047010
_publ_section_title
;
Structure prediction by ZEFSAII (Michael W. Deem and Ramdas Pophale) SiO2 
 PCOD9047010
Probable space group: P -1
;
_chemical_formula_sum "Si O2"
_cell_formula_units_Z 10
_cell_length_a 8.763807
_cell_length_b 5.317124
_cell_length_c 12.954306
_cell_angle_alpha 73.800999
_cell_angle_beta 113.772604
_cell_angle_gamma 58.659334
_cell_volume 368.256805
_symmetry_space_group_name_H-M "P -1"
_symmetry_group_IT_number 2
_symmetry_cell_setting 'triclinic'
loop_
_space_group_symop_operation_xyz
x,y,z
-x,-y,-z
loop_
_atom_site_type_symbol
_atom_site_label
_atom_site_fract_x
_atom_site_fract_y
_atom_site_fract_z
Si Si1 0.290951 0.954080 0.161812
Si Si2 0.118010 0.983109 0.903338
Si Si3 0.359790 0.935488 0.408721
Si Si4 0.576005 0.112265 0.182722
Si Si5 0.867719 0.881901 0.476801
O O1 0.299332 0.081621 0.261179
O O2 0.533952 0.845755 0.201768
O O3 0.146405 0.134591 0.994625
O O4 0.142730 0.860032 0.178530
O O5 0.215764 0.014995 0.822865
O O6 0.324441 0.527884 0.031770
O O7 0.500000 0.500000 0.500000
O O8 0.500000 0.000000 0.500000
O O9 0.142269 0.154593 0.400730
O O10 0.629285 0.166604 0.307205
O O11 0.000000 0.500000 0.500000
O O12 0.000000 0.000000 0.500000
#
# Coordination Sequence:
#
# PCOD9047010 Si02
#       5
#     2   2   2   2   2
#     4  11  23  44  70 105 141 189 248 304 370 446
#     4  10  24  43  70 105 142 187 250 301 376 440
#     4  12  25  46  75 105 146 196 244 308 374 438
#     4  11  23  45  70 101 145 191 242 309 370 441
#     4  12  27  47  73 109 147 195 249 307 375 448
#
# _framework density 27.154961
#
# number of rings (size 3 to 8) (size 9 to 14) (size 15 to 20)
#    0.000    0.800    2.000    4.800    2.800    0.000 
#    7.200    0.000    0.000    0.000    0.000    0.000 
#    0.000    0.000    0.000    0.000    0.000    0.000 
#
# Total GULP energy -55692.343097 kJ/mol
# GULP energy per Si atom -5569.234310 kJ/mol
# Density = 2.709316 g / cm^3
# Si number density = 27.154961 Si / 1000 Ang^3
#
#
#
# Elastic Constant Matrix: (Units=GPa)
#
#
# Indices 1 2 3 4 5 6 
#
# 1 232.6662 48.2591 36.4781 17.2996 22.3740 -4.6760
# 2 48.2591 132.6149 44.9970 -3.7449 -6.6124 15.5254
# 3 36.4781 44.9970 77.0940 38.5974 7.1566 5.4129
# 4 17.2996 -3.7449 38.5974 61.5863 1.6110 -2.1602
# 5 22.3740 -6.6124 7.1566 1.6110 53.0182 34.6825
# 6 -4.6760 15.5254 5.4129 -2.1602 34.6825 57.7078
#
#
#
# Elastic Compliance Matrix: (Units=1/GPa)
#
#
# Indices 1 2 3 4 5 6 
#
# 1 0.005661 -0.002905 -0.000071 -0.001410 -0.005735 0.004641
# 2 -0.002905 0.014183 -0.011333 0.008218 0.009934 -0.008651
# 3 -0.000071 -0.011333 0.029424 -0.018773 -0.007433 0.004048
# 4 -0.001410 0.008218 -0.018773 0.028687 0.004859 -0.002411
# 5 -0.005735 0.009934 -0.007433 0.004859 0.040955 -0.026873
# 6 0.004641 -0.008651 0.004048 -0.002411 -0.026873 0.035713
#
#
# Mechanical properties :
#
#
# Convention : Reuss Voigt Hill
#
# Bulk Modulus (GPa) = 48.42291 77.98260 63.20276
# Shear Modulus (GPa) = 26.29859 55.30519 40.80189
#
# Velocity S-wave (km/s) = 3.11539 4.51782 3.88049
# Velocity P-wave (km/s) = 5.55083 7.48293 6.58809
#
# Compressibility (1/GPa) = 0.02065138
#
# Stress axis : x y z
#
# Youngs Moduli (GPa) = 176.63834 70.50549 33.98617
#
# Poissons Ratio (x) = 0.20484 0.00240
# Poissons Ratio (y) = 0.51319 0.38515
# Poissons Ratio (z) = 0.01247 0.79901
#
# Static dielectric constant tensor:
#      x y z
#    x 2.109900 0.042890 -0.177500 
#    y 0.042890 2.181320 -0.185090 
#    z -0.177500 -0.185090 2.416220 
# 
# From -- ./inp_files/16284.got.cif
#   From: 2010.05.17/outbox.cif.g08.bks.cpg/sg2_9_cif.got.tgz:16284.got - 2010.06.03 11:33:40.
