data_PCOD9047945
_publ_section_title
;
Structure prediction by ZEFSAII (Michael W. Deem and Ramdas Pophale) SiO2 
 PCOD9047945
Probable space group: P -1
;
_chemical_formula_sum "Si O2"
_cell_formula_units_Z 14
_cell_length_a 8.308010
_cell_length_b 14.099436
_cell_length_c 9.627411
_cell_angle_alpha 37.424937
_cell_angle_beta 101.130419
_cell_angle_gamma 113.919096
_cell_volume 609.382726
_symmetry_space_group_name_H-M "P -1"
_symmetry_group_IT_number 2
_symmetry_cell_setting 'triclinic'
loop_
_space_group_symop_operation_xyz
x,y,z
-x,-y,-z
loop_
_atom_site_type_symbol
_atom_site_label
_atom_site_fract_x
_atom_site_fract_y
_atom_site_fract_z
Si Si1 0.048931 0.341206 0.678971
Si Si2 0.633352 0.495060 0.247649
Si Si3 0.696540 0.005672 0.992336
Si Si4 0.844036 0.763170 0.760268
Si Si5 0.754615 0.697932 0.502666
Si Si6 0.764547 0.084835 0.367336
Si Si7 0.613946 0.129636 0.572700
O O1 0.218050 0.385578 0.757413
O O2 0.112985 0.338653 0.534990
O O3 0.000000 0.500000 0.500000
O O4 0.873234 0.168285 0.885489
O O5 0.436909 0.460406 0.312990
O O6 0.634142 0.307407 0.440786
O O7 0.689930 0.595513 0.995731
O O8 0.703840 0.033558 0.794956
O O9 0.500000 0.000000 0.000000
O O10 0.710035 0.839200 0.248699
O O11 0.837573 0.760611 0.595100
O O12 0.806437 0.925240 0.611284
O O13 0.043047 0.784303 0.812312
O O14 0.597544 0.998282 0.335268
O O15 0.699917 0.161888 0.396449
#
# Coordination Sequence:
#
# PCOD9047945 Si02
#       7
#     2   2   2   2   2   2   2
#     4  12  27  48  70 109 142 185 239 290 360 415
#     4  12  26  45  69 105 149 181 231 289 355 420
#     4  12  24  45  76  98 144 184 238 290 344 420
#     4  11  25  45  72 103 138 183 239 287 351 414
#     4  12  26  49  71 105 143 191 231 292 352 419
#     4  10  24  44  72 100 138 185 241 283 344 422
#     4  11  23  46  67 105 138 186 233 289 348 412
#
# _framework density 22.974066000000001
#
# number of rings (size 3 to 8) (size 9 to 14) (size 15 to 20)
#    0.000    0.571    4.286    2.143    8.000    0.571 
#    0.000    0.000    0.000    0.000    0.000    0.000 
#    0.000    0.000    0.000    0.000    0.000    0.000 
#
# Total GULP energy -78359.188141 kJ/mol
# GULP energy per Si atom -5597.084867 kJ/mol
# Density = 2.292178 g / cm^3
# Si number density = 22.974066 Si / 1000 Ang^3
#
#
#
# Elastic Constant Matrix: (Units=GPa)
#
#
# Indices 1 2 3 4 5 6 
#
# 1 104.7526 36.8028 27.2893 -13.6749 -32.8490 4.8673
# 2 36.8028 92.2707 20.6251 2.9008 -26.5011 21.0297
# 3 27.2893 20.6251 99.1497 -3.6168 -22.6378 -1.4942
# 4 -13.6749 2.9008 -3.6168 29.0531 10.0695 -9.9512
# 5 -32.8490 -26.5011 -22.6378 10.0695 30.9417 -2.3829
# 6 4.8673 21.0297 -1.4942 -9.9512 -2.3829 53.9680
#
#
#
# Elastic Compliance Matrix: (Units=1/GPa)
#
#
# Indices 1 2 3 4 5 6 
#
# 1 0.014773 -0.002578 -0.000660 0.003237 0.011999 0.000781
# 2 -0.002578 0.019016 0.000018 -0.011874 0.016763 -0.008626
# 3 -0.000660 0.000018 0.012230 -0.001697 0.008850 0.000469
# 4 0.003237 -0.011874 -0.001697 0.049115 -0.023009 0.012329
# 5 0.011999 0.016763 0.008850 -0.023009 0.072731 -0.008400
# 6 0.000781 -0.008626 0.000469 0.012329 -0.008400 0.023736
#
#
# Mechanical properties :
#
#
# Convention : Reuss Voigt Hill
#
# Bulk Modulus (GPa) = 25.26668 51.73414 38.50041
# Shear Modulus (GPa) = 23.67039 36.88963 30.28001
#
# Velocity S-wave (km/s) = 3.21332 4.01147 3.63438
# Velocity P-wave (km/s) = 4.97886 6.63500 5.86568
#
# Compressibility (1/GPa) = 0.03957781
#
# Stress axis : x y z
#
# Youngs Moduli (GPa) = 67.68989 52.58790 81.76879
#
# Poissons Ratio (x) = 0.13559 0.05399
# Poissons Ratio (y) = 0.17452 -0.00148
# Poissons Ratio (z) = 0.04469 -0.00095
#
# Static dielectric constant tensor:
#      x y z
#    x 1.884000 0.040650 -0.029290 
#    y 0.040650 1.896860 0.032930 
#    z -0.029290 0.032930 1.851600 
# 
# From -- ./inp_files/205350.got.cif
#   From: 2010.05.17/outbox.cif.g08.bks.cpg/sg2_103_cif.got.tgz:205350.got - 2010.06.03 11:33:40.
