data_PCOD9047355
_publ_section_title
;
Structure prediction by ZEFSAII (Michael W. Deem and Ramdas Pophale) SiO2 
 PCOD9047355
Probable space group: P -1
;
_chemical_formula_sum "Si O2"
_cell_formula_units_Z 11
_cell_length_a 7.290079
_cell_length_b 13.128713
_cell_length_c 6.793291
_cell_angle_alpha 69.983635
_cell_angle_beta 123.506103
_cell_angle_gamma 119.122653
_cell_volume 471.175990
_symmetry_space_group_name_H-M "P -1"
_symmetry_group_IT_number 2
_symmetry_cell_setting 'triclinic'
loop_
_space_group_symop_operation_xyz
x,y,z
-x,-y,-z
loop_
_atom_site_type_symbol
_atom_site_label
_atom_site_fract_x
_atom_site_fract_y
_atom_site_fract_z
Si Si1 0.093058 0.735560 0.804280
Si Si2 0.717817 0.682725 0.930959
Si Si3 0.000000 0.000000 0.500000
Si Si4 0.815825 0.452397 0.247097
Si Si5 0.542513 0.104196 0.802607
Si Si6 0.062166 0.869938 0.300393
O O1 0.070961 0.610381 0.796290
O O2 0.118756 0.822829 0.577790
O O3 0.308789 0.781606 0.056486
O O4 0.864176 0.733091 0.788119
O O5 0.759485 0.561709 0.066208
O O6 0.844859 0.769489 0.127987
O O7 0.436693 0.648286 0.774974
O O8 0.007243 0.025399 0.731442
O O9 0.281598 0.085305 0.593167
O O10 0.000000 0.500000 0.500000
O O11 0.710949 0.100136 0.724812
O O12 0.500000 0.000000 0.000000
#
# Coordination Sequence:
#
# PCOD9047355 Si02
#       6
#     2   2   1   2   2   2
#     4  11  23  44  66  95 132 170 211 272 316 381
#     4  10  24  44  65  97 131 169 214 261 325 384
#     4  12  24  42  68  92 128 178 208 270 322 372
#     4  11  22  43  69  94 131 169 212 266 320 384
#     4  11  25  45  65  94 132 170 218 268 318 384
#     4  11  24  45  65  98 132 167 223 262 321 386
#
# _framework density 23.345842000000001
#
# number of rings (size 3 to 8) (size 9 to 14) (size 15 to 20)
#    0.000    1.091    3.636    2.182    0.000    2.909 
#    3.273    0.000    0.000    0.000    0.000    0.000 
#    0.000    0.000    0.000    0.000    0.000    0.000 
#
# Total GULP energy -61315.800280 kJ/mol
# GULP energy per Si atom -5574.163662 kJ/mol
# Density = 2.329271 g / cm^3
# Si number density = 23.345842 Si / 1000 Ang^3
#
#
#
# Elastic Constant Matrix: (Units=GPa)
#
#
# Indices 1 2 3 4 5 6 
#
# 1 124.0836 34.8653 80.3817 23.2280 -7.0844 41.3876
# 2 34.8653 67.2950 51.1741 24.3939 -2.0507 20.9012
# 3 80.3817 51.1741 114.1447 26.7820 -20.8334 26.4752
# 4 23.2280 24.3939 26.7820 53.8598 -3.4893 7.4722
# 5 -7.0844 -2.0507 -20.8334 -3.4893 50.3378 2.6232
# 6 41.3876 20.9012 26.4752 7.4722 2.6232 37.9018
#
#
#
# Elastic Compliance Matrix: (Units=1/GPa)
#
#
# Indices 1 2 3 4 5 6 
#
# 1 0.020480 0.004692 -0.012575 -0.002646 -0.001504 -0.015541
# 2 0.004692 0.027249 -0.012089 -0.007164 -0.003204 -0.010072
# 3 -0.012575 -0.012089 0.023794 -0.000937 0.007341 0.003453
# 4 -0.002646 -0.007164 -0.000937 0.023038 0.000392 0.002926
# 5 -0.001504 -0.003204 0.007341 0.000392 0.022764 -0.003371
# 6 -0.015541 -0.010072 0.003453 0.002926 -0.003371 0.046153
#
#
# Mechanical properties :
#
#
# Convention : Reuss Voigt Hill
#
# Bulk Modulus (GPa) = 31.66429 70.92949 51.29689
# Shear Modulus (GPa) = 23.37008 37.69334 30.53171
#
# Velocity S-wave (km/s) = 3.16735 4.02252 3.62028
# Velocity P-wave (km/s) = 5.19314 7.21265 6.28454
#
# Compressibility (1/GPa) = 0.03158132
#
# Stress axis : x y z
#
# Youngs Moduli (GPa) = 48.82866 36.69814 42.02675
#
# Poissons Ratio (x) = -0.17219 0.52847
# Poissons Ratio (y) = -0.22911 0.50804
# Poissons Ratio (z) = 0.61401 0.44363
#
# Static dielectric constant tensor:
#      x y z
#    x 1.247350 0.828620 -0.237760 
#    y 0.828620 0.851930 0.306280 
#    z -0.237760 0.306280 1.813290 
# 
# From -- ./inp_files/2201.got.cif
#   From: 2010.05.17/outbox.cif.g08.bks.cpg/sg2_2_cif.got.tgz:2201.got - 2010.06.03 11:33:40.
