data_PCOD9047594
_publ_section_title
;
Structure prediction by ZEFSAII (Michael W. Deem and Ramdas Pophale) SiO2 
 PCOD9047594
Probable space group: P -1
;
_chemical_formula_sum "Si O2"
_cell_formula_units_Z 16
_cell_length_a 12.356403
_cell_length_b 13.960235
_cell_length_c 20.667497
_cell_angle_alpha 26.266534
_cell_angle_beta 24.313999
_cell_angle_gamma 38.760589
_cell_volume 635.750656
_symmetry_space_group_name_H-M "P -1"
_symmetry_group_IT_number 2
_symmetry_cell_setting 'triclinic'
loop_
_space_group_symop_operation_xyz
x,y,z
-x,-y,-z
loop_
_atom_site_type_symbol
_atom_site_label
_atom_site_fract_x
_atom_site_fract_y
_atom_site_fract_z
Si Si1 0.802364 0.963886 0.709000
Si Si2 0.019660 0.391594 0.485755
Si Si3 0.761255 0.318965 0.207203
Si Si4 0.184957 0.690205 0.613113
Si Si5 0.908842 0.227490 0.034582
Si Si6 0.290283 0.013629 0.028374
Si Si7 0.458082 0.483937 0.373878
Si Si8 0.673512 0.851417 0.610654
O O1 0.716420 0.108616 0.610482
O O2 0.546301 0.921500 0.920394
O O3 0.076166 0.114271 0.497673
O O4 0.916194 0.752099 0.753026
O O5 0.852858 0.511947 0.454341
O O6 0.000000 0.500000 0.500000
O O7 0.291288 0.355931 0.327083
O O8 0.855356 0.142688 0.741379
O O9 0.818265 0.285140 0.121958
O O10 0.509416 0.406526 0.320169
O O11 0.726689 0.075553 0.403867
O O12 0.000000 0.500000 0.000000
O O13 0.404390 0.662134 0.564038
O O14 0.101189 0.451491 0.769631
O O15 0.627153 0.173021 0.183866
O O16 0.079058 0.039945 0.070299
O O17 0.391451 0.263784 0.846837
#
# Coordination Sequence:
#
# PCOD9047594 Si02
#       8
#     2   2   2   2   2   2   2   2
#     4  11  24  44  69  90 123 166 228 270 304 375
#     4  12  26  38  61 100 138 164 202 261 326 386
#     4  12  20  37  64  94 126 168 208 256 314 393
#     4  10  24  44  68  91 119 173 223 264 315 372
#     4  11  24  40  64  95 132 168 208 257 327 383
#     4  11  24  41  63  95 128 165 212 263 312 374
#     4  11  22  38  65  94 124 165 212 260 312 376
#     4  12  24  41  64  96 133 171 203 261 329 380
#
# _framework density 25.167099
#
# number of rings (size 3 to 8) (size 9 to 14) (size 15 to 20)
#    0.000    0.750    6.250    1.500    7.000    2.500 
#    0.000    0.000    0.000    2.250    0.000    0.000 
#    0.000    0.000    0.000    0.000    0.000    0.000 
#
# Total GULP energy -89477.363883 kJ/mol
# GULP energy per Si atom -5592.335243 kJ/mol
# Density = 2.510982 g / cm^3
# Si number density = 25.167099 Si / 1000 Ang^3
#
#
#
# Elastic Constant Matrix: (Units=GPa)
#
#
# Indices 1 2 3 4 5 6 
#
# 1 46.4039 14.4572 11.3114 -5.0915 -3.1668 -24.2602
# 2 14.4572 103.5045 30.6122 7.9413 -3.9088 -34.7516
# 3 11.3114 30.6122 26.9647 2.8486 -10.0854 -13.7052
# 4 -5.0915 7.9413 2.8486 45.5869 -10.8085 -6.6867
# 5 -3.1668 -3.9088 -10.0854 -10.8085 25.7126 0.3186
# 6 -24.2602 -34.7516 -13.7052 -6.6867 0.3186 46.5682
#
#
#
# Elastic Compliance Matrix: (Units=1/GPa)
#
#
# Indices 1 2 3 4 5 6 
#
# 1 0.033187 0.003433 -0.007369 0.007404 0.004599 0.018714
# 2 0.003433 0.017710 -0.018393 -0.001297 -0.004761 0.009438
# 3 -0.007369 -0.018393 0.072805 0.004835 0.026831 0.004373
# 4 0.007404 -0.001297 0.004835 0.027182 0.013937 0.008120
# 5 0.004599 -0.004761 0.026831 0.013937 0.055013 0.008364
# 6 0.018714 0.009438 0.004373 0.008120 0.008364 0.040662
#
#
# Mechanical properties :
#
#
# Convention : Reuss Voigt Hill
#
# Bulk Modulus (GPa) = 12.65128 32.18166 22.41647
# Shear Modulus (GPa) = 15.74484 31.60635 23.67559
#
# Velocity S-wave (km/s) = 2.50394 3.54766 3.07047
# Velocity P-wave (km/s) = 3.66025 5.44023 4.63646
#
# Compressibility (1/GPa) = 0.07904340
#
# Stress axis : x y z
#
# Youngs Moduli (GPa) = 30.13265 56.46465 13.73537
#
# Poissons Ratio (x) = -0.19382 0.10122
# Poissons Ratio (y) = -0.10344 0.25263
# Poissons Ratio (z) = 0.22205 1.03854
#
# Static dielectric constant tensor:
#      x y z
#    x 2.067420 0.030830 -0.057230 
#    y 0.030830 2.019350 0.015520 
#    z -0.057230 0.015520 2.008830 
# 
# From -- ./inp_files/186940.got.cif
#   From: 2010.05.17/outbox.cif.g08.bks.cpg/sg2_94_cif.got.tgz:186940.got - 2010.06.03 11:33:40.
