data_PCOD9047624
_publ_section_title
;
Structure prediction by ZEFSAII (Michael W. Deem and Ramdas Pophale) SiO2 
 PCOD9047624
Probable space group: P -1
;
_chemical_formula_sum "Si O2"
_cell_formula_units_Z 14
_cell_length_a 8.619277
_cell_length_b 19.071414
_cell_length_c 19.250603
_cell_angle_alpha 22.032896
_cell_angle_beta 148.745191
_cell_angle_gamma 147.229554
_cell_volume 596.570396
_symmetry_space_group_name_H-M "P -1"
_symmetry_group_IT_number 2
_symmetry_cell_setting 'triclinic'
loop_
_space_group_symop_operation_xyz
x,y,z
-x,-y,-z
loop_
_atom_site_type_symbol
_atom_site_label
_atom_site_fract_x
_atom_site_fract_y
_atom_site_fract_z
Si Si1 0.780935 0.287589 0.453699
Si Si2 0.727605 0.840520 0.505969
Si Si3 0.206737 0.565330 0.140219
Si Si4 0.660846 0.701077 0.839726
Si Si5 0.736092 0.378707 0.724094
Si Si6 0.976754 0.933308 0.879378
Si Si7 0.662922 0.901531 0.931070
O O1 0.540926 0.252758 0.456365
O O2 0.583575 0.220628 0.370050
O O3 0.953942 0.505191 0.303550
O O4 0.025476 0.161678 0.679951
O O5 0.841375 0.660131 0.686203
O O6 0.561292 0.952536 0.284318
O O7 0.000000 0.000000 0.500000
O O8 0.239064 0.595024 0.207887
O O9 0.499954 0.702242 0.088799
O O10 0.910329 0.645977 0.933970
O O11 0.829389 0.842996 0.833690
O O12 0.500000 0.500000 0.000000
O O13 0.500000 0.500000 0.500000
O O14 0.736679 0.158150 0.910278
O O15 0.724374 0.875591 0.896924
O O16 0.000000 0.000000 0.000000
#
# Coordination Sequence:
#
# PCOD9047624 Si02
#       7
#     2   2   2   2   2   2   2
#     4  11  23  43  70  97 139 176 229 284 346 407
#     4  11  27  45  73 106 137 185 234 287 354 412
#     4  11  26  44  72 100 143 179 229 294 340 415
#     4  11  22  43  67 101 137 176 225 279 352 402
#     4  11  26  43  67 101 135 184 233 277 347 406
#     4  10  24  44  68  97 135 180 225 284 341 405
#     4  11  27  47  71 103 140 184 239 282 350 418
#
# _framework density 23.467473999999999
#
# number of rings (size 3 to 8) (size 9 to 14) (size 15 to 20)
#    0.000    1.143    2.857    2.143   10.000    5.714 
#    0.000    0.000    0.000    0.000    0.000    0.000 
#    0.000    0.000    0.000    0.000    0.000    0.000 
#
# Total GULP energy -78268.608535 kJ/mol
# GULP energy per Si atom -5590.614895 kJ/mol
# Density = 2.341406 g / cm^3
# Si number density = 23.467474 Si / 1000 Ang^3
#
#
#
# Elastic Constant Matrix: (Units=GPa)
#
#
# Indices 1 2 3 4 5 6 
#
# 1 67.0046 4.1466 38.4240 -21.4632 7.7470 8.9505
# 2 4.1466 64.1792 33.5308 -9.8625 6.9289 18.5256
# 3 38.4240 33.5308 159.1519 -1.0798 9.8414 2.9743
# 4 -21.4632 -9.8625 -1.0798 45.9664 2.9481 -3.7806
# 5 7.7470 6.9289 9.8414 2.9481 34.8989 -3.9323
# 6 8.9505 18.5256 2.9743 -3.7806 -3.9323 27.0813
#
#
#
# Elastic Compliance Matrix: (Units=1/GPa)
#
#
# Indices 1 2 3 4 5 6 
#
# 1 0.025190 0.008577 -0.007079 0.012889 -0.007824 -0.012752
# 2 0.008577 0.026592 -0.006724 0.008413 -0.008287 -0.020316
# 3 -0.007079 -0.006724 0.009198 -0.004159 0.001288 0.005536
# 4 0.012889 0.008413 -0.004159 0.029374 -0.006562 -0.006411
# 5 -0.007824 -0.008287 0.001288 -0.006562 0.033588 0.012075
# 6 -0.012752 -0.020316 0.005536 -0.006411 0.012075 0.055289
#
#
# Mechanical properties :
#
#
# Convention : Reuss Voigt Hill
#
# Bulk Modulus (GPa) = 19.79104 49.17095 34.48100
# Shear Modulus (GPa) = 24.21010 35.87160 30.04085
#
# Velocity S-wave (km/s) = 3.21541 3.91393 3.58174
# Velocity P-wave (km/s) = 4.71559 6.43610 5.64182
#
# Compressibility (1/GPa) = 0.05052791
#
# Stress axis : x y z
#
# Youngs Moduli (GPa) = 39.69870 37.60496 108.72199
#
# Poissons Ratio (x) = -0.32255 0.76965
# Poissons Ratio (y) = -0.34051 0.73106
# Poissons Ratio (z) = 0.28103 0.25286
#
# Static dielectric constant tensor:
#      x y z
#    x 1.885220 0.030290 0.041000 
#    y 0.030290 1.894590 0.062660 
#    z 0.041000 0.062660 1.941550 
# 
# From -- ./inp_files/591774.got.cif
#   From: 2010.05.17/outbox.cif.g08.bks.cpg/sg2_296_cif.got.tgz:591774.got - 2010.06.03 11:33:40.
