data_PCOD9047350
_publ_section_title
;
Structure prediction by ZEFSAII (Michael W. Deem and Ramdas Pophale) SiO2 
 PCOD9047350
Probable space group: P -1
;
_chemical_formula_sum "Si O2"
_cell_formula_units_Z 16
_cell_length_a 6.151305
_cell_length_b 13.763763
_cell_length_c 9.585256
_cell_angle_alpha 94.543306
_cell_angle_beta 69.310261
_cell_angle_gamma 77.602140
_cell_volume 730.737506
_symmetry_space_group_name_H-M "P -1"
_symmetry_group_IT_number 2
_symmetry_cell_setting 'triclinic'
loop_
_space_group_symop_operation_xyz
x,y,z
-x,-y,-z
loop_
_atom_site_type_symbol
_atom_site_label
_atom_site_fract_x
_atom_site_fract_y
_atom_site_fract_z
Si Si1 0.208003 0.449766 0.191171
Si Si2 0.077062 0.713339 0.777965
Si Si3 0.336491 0.635631 0.106448
Si Si4 0.061251 0.191194 0.888686
Si Si5 0.422792 0.304686 0.690744
Si Si6 0.775119 0.966159 0.382939
Si Si7 0.404998 0.411948 0.437903
Si Si8 0.072435 0.839397 0.538072
O O1 0.028417 0.383022 0.185065
O O2 0.165715 0.559795 0.144753
O O3 0.230175 0.451265 0.353382
O O4 0.470756 0.395308 0.063205
O O5 0.979833 0.771004 0.663046
O O6 0.361927 0.669957 0.685240
O O7 0.001827 0.789417 0.932716
O O8 0.485330 0.622853 0.215085
O O9 0.181332 0.748748 0.129306
O O10 0.258250 0.250084 0.808217
O O11 0.168967 0.080349 0.789115
O O12 0.305334 0.359249 0.582895
O O13 0.666407 0.223733 0.579403
O O14 0.901001 0.876582 0.450472
O O15 0.500000 0.000000 0.500000
O O16 0.891169 0.059517 0.386673
O O17 0.500000 0.500000 0.500000
#
# Coordination Sequence:
#
# PCOD9047350 Si02
#       8
#     2   2   2   2   2   2   2   2
#     4  11  24  40  63  92 134 173 215 261 312 368
#     4  11  26  42  64  96 129 169 215 261 316 375
#     4  11  23  40  62  95 131 173 216 262 305 374
#     4  12  24  41  69  93 126 174 213 260 321 379
#     4  11  22  40  64  94 126 166 216 260 314 379
#     4  11  23  43  71  96 123 165 210 261 331 384
#     4  11  24  40  60  93 129 167 215 265 310 369
#     4  10  24  44  65  96 129 157 211 272 317 385
#
# _framework density 21.895686999999999
#
# number of rings (size 3 to 8) (size 9 to 14) (size 15 to 20)
#    0.000    1.000    6.250    0.000    3.500    1.500 
#    0.000    0.625    0.000    0.000    0.000    0.000 
#    0.000    0.000    0.000    0.000    0.000    0.000 
#
# Total GULP energy -89464.387086 kJ/mol
# GULP energy per Si atom -5591.524193 kJ/mol
# Density = 2.184585 g / cm^3
# Si number density = 21.895687 Si / 1000 Ang^3
#
#
#
# Elastic Constant Matrix: (Units=GPa)
#
#
# Indices 1 2 3 4 5 6 
#
# 1 26.6026 -10.8261 18.1620 0.9561 -7.8396 -3.7494
# 2 -10.8261 33.6078 19.3065 3.5297 -3.3394 2.5541
# 3 18.1620 19.3065 142.3097 16.9505 -8.5758 -5.8478
# 4 0.9561 3.5297 16.9505 41.6908 0.5319 1.1411
# 5 -7.8396 -3.3394 -8.5758 0.5319 38.2064 2.7452
# 6 -3.7494 2.5541 -5.8478 1.1411 2.7452 32.3189
#
#
#
# Elastic Compliance Matrix: (Units=1/GPa)
#
#
# Indices 1 2 3 4 5 6 
#
# 1 0.058898 0.025872 -0.010284 0.000436 0.011896 0.001902
# 2 0.025872 0.044205 -0.008876 -0.000748 0.007384 -0.002699
# 3 -0.010284 -0.008876 0.009928 -0.003080 -0.000721 0.001475
# 4 0.000436 -0.000748 -0.003080 0.025338 -0.000929 -0.001263
# 5 0.011896 0.007384 -0.000721 -0.000929 0.029239 -0.001785
# 6 0.001902 -0.002699 0.001475 -0.001263 -0.001785 0.031839
#
#
# Mechanical properties :
#
#
# Convention : Reuss Voigt Hill
#
# Bulk Modulus (GPa) = 7.90792 28.42276 18.16534
# Shear Modulus (GPa) = 21.91316 34.16840 28.04078
#
# Velocity S-wave (km/s) = 3.16697 3.95461 3.58250
# Velocity P-wave (km/s) = 4.12219 5.81903 5.04250
#
# Compressibility (1/GPa) = 0.12645553
#
# Stress axis : x y z
#
# Youngs Moduli (GPa) = 16.97857 22.62176 100.72996
#
# Poissons Ratio (x) = -0.58527 1.03586
# Poissons Ratio (y) = -0.43927 0.89406
# Poissons Ratio (z) = 0.17460 0.20079
#
# Static dielectric constant tensor:
#      x y z
#    x 1.814400 0.000120 0.031820 
#    y 0.000120 1.808830 0.021120 
#    z 0.031820 0.021120 1.804490 
# 
# From -- ./inp_files/38634.got.cif
#   From: 2010.05.17/outbox.cif.g08.bks.cpg/sg2_20_cif.got.tgz:38634.got - 2010.06.03 11:33:40.
