data_PCOD9047288
_publ_section_title
;
Structure prediction by ZEFSAII (Michael W. Deem and Ramdas Pophale) SiO2 
 PCOD9047288
Probable space group: P -1
;
_chemical_formula_sum "Si O2"
_cell_formula_units_Z 14
_cell_length_a 13.163422
_cell_length_b 9.649048
_cell_length_c 13.939281
_cell_angle_alpha 146.394796
_cell_angle_beta 120.276383
_cell_angle_gamma 82.207721
_cell_volume 680.243776
_symmetry_space_group_name_H-M "P -1"
_symmetry_group_IT_number 2
_symmetry_cell_setting 'triclinic'
loop_
_space_group_symop_operation_xyz
x,y,z
-x,-y,-z
loop_
_atom_site_type_symbol
_atom_site_label
_atom_site_fract_x
_atom_site_fract_y
_atom_site_fract_z
Si Si1 0.428036 0.298334 0.442688
Si Si2 0.575124 0.664036 0.913372
Si Si3 0.865389 0.169571 0.780862
Si Si4 0.345292 0.711955 0.139808
Si Si5 0.700677 0.514624 0.220635
Si Si6 0.876318 0.866779 0.786967
Si Si7 0.172279 0.671162 0.661437
O O1 0.500000 0.500000 0.500000
O O2 0.475374 0.506315 0.680223
O O3 0.256794 0.125163 0.241192
O O4 0.460700 0.051786 0.342619
O O5 0.600982 0.435123 0.848417
O O6 0.471778 0.687448 0.950792
O O7 0.725941 0.975189 0.125385
O O8 0.755780 0.228251 0.812352
O O9 0.777145 0.873535 0.496504
O O10 0.932029 0.065009 0.830869
O O11 0.000000 0.500000 0.000000
O O12 0.274281 0.500567 0.888797
O O13 0.764136 0.374200 0.237365
O O14 0.817025 0.523266 0.529042
O O15 0.000000 0.000000 0.000000
O O16 0.000000 0.500000 0.500000
#
# Coordination Sequence:
#
# PCOD9047288 Si02
#       7
#     2   2   2   2   2   2   2
#     4  11  24  43  72 100 131 183 222 283 342 401
#     4  12  24  46  69 100 142 175 228 293 334 405
#     4  10  24  44  67  97 142 177 221 288 338 402
#     4  11  25  42  72 101 135 181 229 274 351 401
#     4  11  24  47  68 100 139 177 234 280 339 408
#     4  10  24  44  63  98 132 172 229 273 337 405
#     4  11  26  42  69  98 135 181 226 280 341 407
#
# _framework density 20.580855
#
# number of rings (size 3 to 8) (size 9 to 14) (size 15 to 20)
#    0.000    1.143    4.286    2.143   12.000    1.714 
#    0.000    0.000    0.000    0.000    0.000    0.000 
#    0.000    0.000    0.000    0.000    0.000    0.000 
#
# Total GULP energy -78112.151524 kJ/mol
# GULP energy per Si atom -5579.439395 kJ/mol
# Density = 2.053401 g / cm^3
# Si number density = 20.580855 Si / 1000 Ang^3
#
#
#
# Elastic Constant Matrix: (Units=GPa)
#
#
# Indices 1 2 3 4 5 6 
#
# 1 60.7800 27.8449 31.5557 10.3708 -0.8917 -2.7761
# 2 27.8449 111.5758 39.8070 7.5000 7.1415 -6.5177
# 3 31.5557 39.8070 86.0194 8.9898 4.5340 12.9860
# 4 10.3708 7.5000 8.9898 41.6430 13.9362 2.9994
# 5 -0.8917 7.1415 4.5340 13.9362 41.5604 -4.6841
# 6 -2.7761 -6.5177 12.9860 2.9994 -4.6841 34.7501
#
#
#
# Elastic Compliance Matrix: (Units=1/GPa)
#
#
# Indices 1 2 3 4 5 6 
#
# 1 0.022794 -0.002573 -0.007617 -0.005327 0.004135 0.005202
# 2 -0.002573 0.011666 -0.004929 -0.000332 -0.000992 0.003720
# 3 -0.007617 -0.004929 0.018099 0.000290 -0.002362 -0.008640
# 4 -0.005327 -0.000332 0.000290 0.029131 -0.010365 -0.004508
# 5 0.004135 -0.000992 -0.002362 -0.010365 0.028707 0.005791
# 6 0.005202 0.003720 -0.008640 -0.004508 0.005791 0.034289
#
#
# Mechanical properties :
#
#
# Convention : Reuss Voigt Hill
#
# Bulk Modulus (GPa) = 44.80453 50.75449 47.77951
# Shear Modulus (GPa) = 27.41740 34.20188 30.80964
#
# Velocity S-wave (km/s) = 3.65386 4.08098 3.87331
# Velocity P-wave (km/s) = 6.29430 6.84985 6.57794
#
# Compressibility (1/GPa) = 0.02231917
#
# Stress axis : x y z
#
# Youngs Moduli (GPa) = 43.87173 85.71559 55.25059
#
# Poissons Ratio (x) = 0.22059 0.42086
# Poissons Ratio (y) = 0.11290 0.27235
# Poissons Ratio (z) = 0.33419 0.42252
#
# Static dielectric constant tensor:
#      x y z
#    x 1.763390 -0.030390 -0.037800 
#    y -0.030390 1.648100 -0.016350 
#    z -0.037800 -0.016350 1.756800 
# 
# From -- ./inp_files/318164.got.cif
#   From: 2010.05.17/outbox.cif.g08.bks.cpg/sg2_160_cif.got.tgz:318164.got - 2010.06.03 11:33:40.
