data_PCOD9047774
_publ_section_title
;
Structure prediction by ZEFSAII (Michael W. Deem and Ramdas Pophale) SiO2 
 PCOD9047774
Probable space group: P -1
;
_chemical_formula_sum "Si O2"
_cell_formula_units_Z 16
_cell_length_a 8.604223
_cell_length_b 11.920825
_cell_length_c 11.253302
_cell_angle_alpha 59.750871
_cell_angle_beta 107.844742
_cell_angle_gamma 136.113085
_cell_volume 688.120355
_symmetry_space_group_name_H-M "P -1"
_symmetry_group_IT_number 2
_symmetry_cell_setting 'triclinic'
loop_
_space_group_symop_operation_xyz
x,y,z
-x,-y,-z
loop_
_atom_site_type_symbol
_atom_site_label
_atom_site_fract_x
_atom_site_fract_y
_atom_site_fract_z
Si Si1 0.466216 0.535710 0.104282
Si Si2 0.850490 0.500632 0.701442
Si Si3 0.439277 0.235351 0.331529
Si Si4 0.287437 0.747061 0.402039
Si Si5 0.974202 0.173855 0.564329
Si Si6 0.317342 0.216164 0.783624
Si Si7 0.362568 0.964418 0.868990
Si Si8 0.236437 0.637967 0.882982
O O1 0.420272 0.380681 0.251209
O O2 0.679816 0.725364 0.113339
O O3 0.500000 0.500000 0.000000
O O4 0.277795 0.540923 0.033130
O O5 0.862838 0.431734 0.616031
O O6 0.586734 0.363907 0.742942
O O7 0.951827 0.699041 0.598181
O O8 0.009288 0.509342 0.822792
O O9 0.590770 0.264043 0.458419
O O10 0.563431 0.260180 0.224081
O O11 0.197379 0.035421 0.392702
O O12 0.160965 0.801524 0.395602
O O13 0.472497 0.899469 0.270458
O O14 0.188183 0.236691 0.651244
O O15 0.230386 0.021916 0.847620
O O16 0.245759 0.775262 0.886767
O O17 0.500000 0.000000 0.000000
#
# Coordination Sequence:
#
# PCOD9047774 Si02
#       8
#     2   2   2   2   2   2   2   2
#     4  10  24  44  70 103 143 181 234 292 345 419
#     4  11  25  42  71 105 142 188 231 289 358 419
#     4  11  23  44  73 109 136 177 241 295 347 406
#     4  11  23  43  75 105 138 186 236 290 349 422
#     4  12  23  42  71 104 141 179 237 293 346 413
#     4  11  26  45  64 104 143 186 228 292 353 418
#     4  11  23  47  70 102 144 183 233 285 356 417
#     4  11  22  45  74 101 140 189 234 284 350 420
#
# _framework density 23.251745
#
# number of rings (size 3 to 8) (size 9 to 14) (size 15 to 20)
#    0.000    1.000    3.750    2.625    3.500    2.500 
#    4.500    6.875    0.000    0.000    0.000    0.000 
#    0.000    0.000    0.000    0.000    0.000    0.000 
#
# Total GULP energy -89508.606714 kJ/mol
# GULP energy per Si atom -5594.287920 kJ/mol
# Density = 2.319882 g / cm^3
# Si number density = 23.251745 Si / 1000 Ang^3
#
#
#
# Elastic Constant Matrix: (Units=GPa)
#
#
# Indices 1 2 3 4 5 6 
#
# 1 54.5801 44.9599 43.3720 -2.6719 17.3311 -7.6591
# 2 44.9599 125.7688 41.3419 5.2379 25.5776 -15.4098
# 3 43.3720 41.3419 140.1355 7.2745 43.3738 -2.1629
# 4 -2.6719 5.2379 7.2745 39.2997 1.8015 8.1289
# 5 17.3311 25.5776 43.3738 1.8015 48.4460 4.6574
# 6 -7.6591 -15.4098 -2.1629 8.1289 4.6574 44.4423
#
#
#
# Elastic Compliance Matrix: (Units=1/GPa)
#
#
# Indices 1 2 3 4 5 6 
#
# 1 0.032135 -0.009009 -0.007368 0.004505 -0.000433 0.001277
# 2 -0.009009 0.012389 0.000622 -0.002965 -0.004125 0.003748
# 3 -0.007368 0.000622 0.011985 -0.002600 -0.008411 0.000886
# 4 0.004505 -0.002965 -0.002600 0.027711 0.001793 -0.005635
# 5 -0.000433 -0.004125 -0.008411 0.001793 0.030966 -0.005487
# 6 0.001277 0.003748 0.000886 -0.005635 -0.005487 0.025670
#
#
# Mechanical properties :
#
#
# Convention : Reuss Voigt Hill
#
# Bulk Modulus (GPa) = 40.00228 64.42577 52.21403
# Shear Modulus (GPa) = 27.67050 39.15830 33.41440
#
# Velocity S-wave (km/s) = 3.45344 4.10823 3.79498
# Velocity P-wave (km/s) = 5.75699 7.09024 6.45811
#
# Compressibility (1/GPa) = 0.02499857
#
# Stress axis : x y z
#
# Youngs Moduli (GPa) = 31.11880 80.71904 83.43812
#
# Poissons Ratio (x) = 0.72717 0.61478
# Poissons Ratio (y) = 0.28034 -0.05188
# Poissons Ratio (z) = 0.22929 -0.05019
#
# Static dielectric constant tensor:
#      x y z
#    x 1.949550 -0.040520 -0.051890 
#    y -0.040520 1.906260 -0.038050 
#    z -0.051890 -0.038050 1.865820 
# 
# From -- ./inp_files/392192.got.cif
#   From: 2010.05.17/outbox.cif.g08.bks.cpg/sg2_197_cif.got.tgz:392192.got - 2010.06.03 11:33:40.
