data_PCOD9047292
_publ_section_title
;
Structure prediction by ZEFSAII (Michael W. Deem and Ramdas Pophale) SiO2 
 PCOD9047292
Probable space group: P -1
;
_chemical_formula_sum "Si O2"
_cell_formula_units_Z 16
_cell_length_a 9.782175
_cell_length_b 10.956239
_cell_length_c 14.647131
_cell_angle_alpha 29.978379
_cell_angle_beta 112.423616
_cell_angle_gamma 103.155903
_cell_volume 706.894708
_symmetry_space_group_name_H-M "P -1"
_symmetry_group_IT_number 2
_symmetry_cell_setting 'triclinic'
loop_
_space_group_symop_operation_xyz
x,y,z
-x,-y,-z
loop_
_atom_site_type_symbol
_atom_site_label
_atom_site_fract_x
_atom_site_fract_y
_atom_site_fract_z
Si Si1 0.315729 0.663705 0.753240
Si Si2 0.920967 0.338633 0.862567
Si Si3 0.660538 0.570208 0.891933
Si Si4 0.171830 0.380186 0.598235
Si Si5 0.765185 0.769834 0.092688
Si Si6 0.146773 0.907110 0.814957
Si Si7 0.111545 0.188637 0.322896
Si Si8 0.337275 0.685671 0.331515
O O1 0.484925 0.701840 0.755830
O O2 0.277206 0.487633 0.778823
O O3 0.198958 0.927349 0.556101
O O4 0.310896 0.503428 0.947537
O O5 0.926766 0.597354 0.748272
O O6 0.766393 0.355097 0.755526
O O7 0.063890 0.252885 0.887356
O O8 0.924476 0.144510 0.072427
O O9 0.775141 0.720766 0.779135
O O10 0.699262 0.303047 0.022521
O O11 0.244531 0.222409 0.805991
O O12 0.249494 0.604289 0.447570
O O13 0.000000 0.500000 0.500000
O O14 0.174682 0.184622 0.643219
O O15 0.662862 0.021311 0.861085
O O16 0.031830 0.853505 0.743480
O O17 0.500000 0.500000 0.500000
#
# Coordination Sequence:
#
# PCOD9047292 Si02
#       8
#     2   2   2   2   2   2   2   2
#     4  11  25  41  71  99 136 184 224 280 349 415
#     4  11  23  47  72  99 143 180 227 294 345 411
#     4  10  24  44  63  99 142 176 220 287 344 408
#     4  12  25  43  73 102 137 185 236 283 340 417
#     4  12  25  47  70 101 142 182 237 284 345 416
#     4  11  23  43  71  99 137 177 232 283 344 407
#     4  11  24  43  71 105 133 177 229 284 344 412
#     4  12  29  46  70 103 141 187 233 291 350 407
#
# _framework density 22.634205000000001
#
# number of rings (size 3 to 8) (size 9 to 14) (size 15 to 20)
#    0.000    0.750    2.500    5.250    3.500    5.500 
#    0.000    0.000    0.000    0.000    0.000    0.000 
#    0.000    0.000    0.000    0.000    0.000    0.000 
#
# Total GULP energy -89576.431274 kJ/mol
# GULP energy per Si atom -5598.526955 kJ/mol
# Density = 2.258269 g / cm^3
# Si number density = 22.634205 Si / 1000 Ang^3
#
#
#
# Elastic Constant Matrix: (Units=GPa)
#
#
# Indices 1 2 3 4 5 6 
#
# 1 65.1822 -11.7292 19.6383 17.6157 1.0128 -9.3551
# 2 -11.7292 62.5630 0.0771 -7.2404 -7.4105 -1.0569
# 3 19.6383 0.0771 100.1637 -11.4262 4.8781 2.5712
# 4 17.6157 -7.2404 -11.4262 34.3321 2.3062 -5.7322
# 5 1.0128 -7.4105 4.8781 2.3062 35.2913 3.9555
# 6 -9.3551 -1.0569 2.5712 -5.7322 3.9555 16.9195
#
#
#
# Elastic Compliance Matrix: (Units=1/GPa)
#
#
# Indices 1 2 3 4 5 6 
#
# 1 0.021971 0.003065 -0.005833 -0.011036 0.000490 0.009373
# 2 0.003065 0.017227 -0.000599 0.002124 0.003155 0.002844
# 3 -0.005833 -0.000599 0.012028 0.006581 -0.001777 -0.002446
# 4 -0.011036 0.002124 0.006581 0.038829 -0.003469 0.006996
# 5 0.000490 0.003155 -0.001777 -0.003469 0.030299 -0.007520
# 6 0.009373 0.002844 -0.002446 0.006996 -0.007520 0.068964
#
#
# Mechanical properties :
#
#
# Convention : Reuss Voigt Hill
#
# Bulk Modulus (GPa) = 22.47580 27.09792 24.78686
# Shear Modulus (GPa) = 23.71003 31.97011 27.84007
#
# Velocity S-wave (km/s) = 3.24007 3.76236 3.51094
# Velocity P-wave (km/s) = 4.89377 5.55625 5.23550
#
# Compressibility (1/GPa) = 0.04449230
#
# Stress axis : x y z
#
# Youngs Moduli (GPa) = 45.51483 58.04903 83.14033
#
# Poissons Ratio (x) = -0.17795 0.48499
# Poissons Ratio (y) = -0.13952 0.04977
# Poissons Ratio (z) = 0.26551 0.03475
#
# Static dielectric constant tensor:
#      x y z
#    x 1.875090 0.008030 0.032770 
#    y 0.008030 1.849800 0.029190 
#    z 0.032770 0.029190 1.892780 
# 
# From -- ./inp_files/499770.got.cif
#   From: 2010.05.17/outbox.cif.g08.bks.cpg/sg2_250_cif.got.tgz:499770.got - 2010.06.03 11:33:40.
