data_PCOD9047724
_publ_section_title
;
Structure prediction by ZEFSAII (Michael W. Deem and Ramdas Pophale) SiO2 
 PCOD9047724
Probable space group: P -1
;
_chemical_formula_sum "Si O2"
_cell_formula_units_Z 12
_cell_length_a 9.515365
_cell_length_b 15.195492
_cell_length_c 19.593473
_cell_angle_alpha 17.445860
_cell_angle_beta 38.206476
_cell_angle_gamma 36.269994
_cell_volume 500.256375
_symmetry_space_group_name_H-M "P -1"
_symmetry_group_IT_number 2
_symmetry_cell_setting 'triclinic'
loop_
_space_group_symop_operation_xyz
x,y,z
-x,-y,-z
loop_
_atom_site_type_symbol
_atom_site_label
_atom_site_fract_x
_atom_site_fract_y
_atom_site_fract_z
Si Si1 0.161074 0.657397 0.968000
Si Si2 0.563374 0.285885 0.299014
Si Si3 0.757242 0.744722 0.436494
Si Si4 0.022440 0.130507 0.468730
Si Si5 0.639672 0.038357 0.849940
Si Si6 0.482331 0.264343 0.605792
O O1 0.365558 0.534090 0.924139
O O2 0.199119 0.950421 0.774788
O O3 0.151277 0.391955 0.219861
O O4 0.895684 0.780769 0.944680
O O5 0.368709 0.397888 0.350041
O O6 0.500000 0.000000 0.500000
O O7 0.814442 0.142047 0.347333
O O8 0.593779 0.827788 0.370002
O O9 0.000000 0.500000 0.500000
O O10 0.755505 0.264332 0.497682
O O11 0.000000 0.000000 0.500000
O O12 0.488646 0.055513 0.824928
O O13 0.671700 0.379283 0.588900
O O14 0.500000 0.000000 0.000000
#
# Coordination Sequence:
#
# PCOD9047724 Si02
#       6
#     2   2   2   2   2   2
#     4  11  24  44  70  98 142 186 220 281 353 400
#     4  10  24  44  69  99 141 179 222 287 343 407
#     4  11  23  45  71 102 138 178 230 286 340 413
#     4  12  24  44  68 100 134 178 235 280 335 409
#     4  11  22  41  70 101 135 180 226 280 347 404
#     4  11  23  42  70 100 137 175 229 288 332 405
#
# _framework density 23.987701000000001
#
# number of rings (size 3 to 8) (size 9 to 14) (size 15 to 20)
#    0.000    1.000    6.667    0.000    0.000    3.333 
#    3.000    2.500    0.000    0.000    0.000    0.000 
#    0.000    0.000    0.000    0.000    0.000    0.000 
#
# Total GULP energy -67142.087430 kJ/mol
# GULP energy per Si atom -5595.173953 kJ/mol
# Density = 2.393310 g / cm^3
# Si number density = 23.987701 Si / 1000 Ang^3
#
#
#
# Elastic Constant Matrix: (Units=GPa)
#
#
# Indices 1 2 3 4 5 6 
#
# 1 111.6480 32.1465 21.8914 17.7057 6.5056 16.3089
# 2 32.1465 145.8294 54.0463 35.2825 13.4556 11.7496
# 3 21.8914 54.0463 102.1520 24.6722 2.3606 12.7744
# 4 17.7057 35.2825 24.6722 44.9063 10.3532 6.3889
# 5 6.5056 13.4556 2.3606 10.3532 21.8074 6.1166
# 6 16.3089 11.7496 12.7744 6.3889 6.1166 36.4463
#
#
#
# Elastic Compliance Matrix: (Units=1/GPa)
#
#
# Indices 1 2 3 4 5 6 
#
# 1 0.010310 -0.001210 -0.000573 -0.002243 -0.000193 -0.003597
# 2 -0.001210 0.009925 -0.003840 -0.004469 -0.003229 0.000013
# 3 -0.000573 -0.003840 0.013345 -0.004608 0.004144 -0.003071
# 4 -0.002243 -0.004469 -0.004608 0.031734 -0.011249 0.000384
# 5 -0.000193 -0.003229 0.004144 -0.011249 0.054921 -0.007570
# 6 -0.003597 0.000013 -0.003071 0.000384 -0.007570 0.031322
#
#
# Mechanical properties :
#
#
# Convention : Reuss Voigt Hill
#
# Bulk Modulus (GPa) = 44.77413 63.97757 54.37585
# Shear Modulus (GPa) = 29.36889 37.40168 33.38528
#
# Velocity S-wave (km/s) = 3.50284 3.95296 3.73469
# Velocity P-wave (km/s) = 5.92164 6.89662 6.42764
#
# Compressibility (1/GPa) = 0.02233433
#
# Stress axis : x y z
#
# Youngs Moduli (GPa) = 96.99441 100.75387 74.93610
#
# Poissons Ratio (x) = 0.12190 0.04296
# Poissons Ratio (y) = 0.11735 0.28772
# Poissons Ratio (z) = 0.05560 0.38685
#
# Static dielectric constant tensor:
#      x y z
#    x 1.857870 0.024030 -0.025310 
#    y 0.024030 1.915810 0.025740 
#    z -0.025310 0.025740 1.946980 
# 
# From -- ./inp_files/72058.got.cif
#   From: 2010.05.17/outbox.cif.g08.bks.cpg/sg2_37_cif.got.tgz:72058.got - 2010.06.03 11:33:40.
