data_PCOD9047771
_publ_section_title
;
Structure prediction by ZEFSAII (Michael W. Deem and Ramdas Pophale) SiO2 
 PCOD9047771
Probable space group: P -1
;
_chemical_formula_sum "Si O2"
_cell_formula_units_Z 14
_cell_length_a 9.194482
_cell_length_b 13.746929
_cell_length_c 9.384721
_cell_angle_alpha 128.460694
_cell_angle_beta 74.135890
_cell_angle_gamma 68.302179
_cell_volume 623.190771
_symmetry_space_group_name_H-M "P -1"
_symmetry_group_IT_number 2
_symmetry_cell_setting 'triclinic'
loop_
_space_group_symop_operation_xyz
x,y,z
-x,-y,-z
loop_
_atom_site_type_symbol
_atom_site_label
_atom_site_fract_x
_atom_site_fract_y
_atom_site_fract_z
Si Si1 0.447846 0.385050 0.905087
Si Si2 0.754562 0.516812 0.464449
Si Si3 0.027626 0.866752 0.976784
Si Si4 0.470312 0.815158 0.585640
Si Si5 0.095518 0.506420 0.304166
Si Si6 0.813059 0.090024 0.749720
Si Si7 0.305320 0.103829 0.261267
O O1 0.498625 0.289697 0.655430
O O2 0.600501 0.241120 0.854551
O O3 0.500000 0.500000 0.000000
O O4 0.208490 0.490896 0.119027
O O5 0.547953 0.683318 0.579248
O O6 0.747528 0.582818 0.682621
O O7 0.967307 0.453136 0.274194
O O8 0.812602 0.338028 0.300433
O O9 0.126127 0.853747 0.087818
O O10 0.771999 0.986459 0.169593
O O11 0.000000 0.000000 0.000000
O O12 0.626708 0.842301 0.581068
O O13 0.906492 0.713069 0.586288
O O14 0.770666 0.982400 0.736597
O O15 0.000000 0.000000 0.500000
O O16 0.500000 0.000000 0.000000
#
# Coordination Sequence:
#
# PCOD9047771 Si02
#       7
#     2   2   2   2   2   2   2
#     4  12  27  45  69 103 148 190 235 293 365 436
#     4  10  24  44  70 103 137 184 241 293 357 421
#     4  12  26  44  71 107 144 186 245 305 356 432
#     4  11  26  46  72 105 141 189 245 291 361 428
#     4  10  24  44  71 101 144 183 236 298 358 420
#     4  12  26  46  70 104 148 190 233 300 371 420
#     4  11  25  47  77 108 143 186 247 302 357 439
#
# _framework density 22.465029999999999
#
# number of rings (size 3 to 8) (size 9 to 14) (size 15 to 20)
#    0.000    0.857    1.429    4.286   12.000    4.571 
#    0.000    0.000    0.000    0.000    0.000    0.000 
#    0.000    0.000    0.000    0.000    0.000    0.000 
#
# Total GULP energy -78213.841808 kJ/mol
# GULP energy per Si atom -5586.702986 kJ/mol
# Density = 2.241390 g / cm^3
# Si number density = 22.465030 Si / 1000 Ang^3
#
#
#
# Elastic Constant Matrix: (Units=GPa)
#
#
# Indices 1 2 3 4 5 6 
#
# 1 87.8107 11.3479 2.4593 -2.9604 6.6465 -2.8769
# 2 11.3479 87.6230 4.1260 13.5700 -3.2157 -3.2704
# 3 2.4593 4.1260 51.3007 4.9705 -20.5724 2.5264
# 4 -2.9604 13.5700 4.9705 33.3513 4.7567 -0.9177
# 5 6.6465 -3.2157 -20.5724 4.7567 33.4526 -9.4496
# 6 -2.8769 -3.2704 2.5264 -0.9177 -9.4496 59.7837
#
#
#
# Elastic Compliance Matrix: (Units=1/GPa)
#
#
# Indices 1 2 3 4 5 6 
#
# 1 0.012179 -0.002092 -0.002564 0.002975 -0.004651 -0.000110
# 2 -0.002092 0.012721 0.000948 -0.005953 0.003348 0.000993
# 3 -0.002564 0.000948 0.027928 -0.007484 0.019316 0.001686
# 4 0.002975 -0.005953 -0.007484 0.035338 -0.011095 -0.001077
# 5 -0.004651 0.003348 0.019316 -0.011095 0.046376 0.006303
# 6 -0.000110 0.000993 0.001686 -0.001077 0.006303 0.017684
#
#
# Mechanical properties :
#
#
# Convention : Reuss Voigt Hill
#
# Bulk Modulus (GPa) = 22.02090 29.17786 25.59938
# Shear Modulus (GPa) = 28.60756 39.23758 33.92257
#
# Velocity S-wave (km/s) = 3.57238 4.18378 3.89011
# Velocity P-wave (km/s) = 5.18068 6.02951 5.62114
#
# Compressibility (1/GPa) = 0.04541140
#
# Stress axis : x y z
#
# Youngs Moduli (GPa) = 82.10810 78.61195 35.80691
#
# Poissons Ratio (x) = 0.16446 0.09180
# Poissons Ratio (y) = 0.17178 -0.03394
# Poissons Ratio (z) = 0.21050 -0.07451
#
# Static dielectric constant tensor:
#      x y z
#    x 1.986630 0.070690 -0.131200 
#    y 0.070690 1.780160 -0.069340 
#    z -0.131200 -0.069340 1.936580 
# 
# From -- ./inp_files/189863.got.cif
#   From: 2010.05.17/outbox.cif.g08.bks.cpg/sg2_95_cif.got.tgz:189863.got - 2010.06.03 11:33:40.
