data_PCOD9047872
_publ_section_title
;
Structure prediction by ZEFSAII (Michael W. Deem and Ramdas Pophale) SiO2 
 PCOD9047872
Probable space group: P -1
;
_chemical_formula_sum "Si O2"
_cell_formula_units_Z 16
_cell_length_a 11.155424
_cell_length_b 14.407832
_cell_length_c 8.662559
_cell_angle_alpha 46.553895
_cell_angle_beta 69.409981
_cell_angle_gamma 41.504750
_cell_volume 630.087456
_symmetry_space_group_name_H-M "P -1"
_symmetry_group_IT_number 2
_symmetry_cell_setting 'triclinic'
loop_
_space_group_symop_operation_xyz
x,y,z
-x,-y,-z
loop_
_atom_site_type_symbol
_atom_site_label
_atom_site_fract_x
_atom_site_fract_y
_atom_site_fract_z
Si Si1 0.190395 0.176132 0.698615
Si Si2 0.978290 0.836433 0.932480
Si Si3 0.400753 0.202227 0.758744
Si Si4 0.555290 0.179458 0.202016
Si Si5 0.317823 0.826832 0.522920
Si Si6 0.203623 0.567350 0.593613
Si Si7 0.366455 0.610838 0.200338
Si Si8 0.883858 0.467894 0.015144
O O1 0.228210 0.284157 0.634170
O O2 0.997277 0.311215 0.536243
O O3 0.363944 0.005625 0.705115
O O4 0.159770 0.095036 0.941048
O O5 0.003789 0.687682 0.992686
O O6 0.184912 0.717447 0.048036
O O7 0.881409 0.014436 0.662455
O O8 0.549010 0.169782 0.627902
O O9 0.327297 0.347206 0.761299
O O10 0.500000 0.000000 0.000000
O O11 0.679702 0.127549 0.354473
O O12 0.587527 0.274807 0.962175
O O13 0.330677 0.333966 0.167222
O O14 0.445805 0.603978 0.701256
O O15 0.304004 0.604298 0.405221
O O16 0.153561 0.610842 0.745253
O O17 0.000000 0.500000 0.000000
#
# Coordination Sequence:
#
# PCOD9047872 Si02
#       8
#     2   2   2   2   2   2   2   2
#     4  11  24  43  69 105 141 190 237 285 361 424
#     4  11  24  46  73 104 141 186 235 295 353 423
#     4  11  21  40  70 100 143 186 234 286 354 429
#     4  12  27  47  72 105 146 187 239 302 343 429
#     4  11  24  43  73 105 137 192 235 294 361 408
#     4  10  24  44  71 102 141 190 234 293 356 418
#     4  10  25  51  72 104 143 188 247 288 354 426
#     4  12  27  44  69 107 146 182 236 295 358 421
#
# _framework density 25.393301999999998
#
# number of rings (size 3 to 8) (size 9 to 14) (size 15 to 20)
#    0.000    1.000    2.500    3.000    5.250    3.500 
#    2.250    0.000    0.000    0.000    0.000    0.000 
#    0.000    0.000    0.000    0.000    0.000    0.000 
#
# Total GULP energy -89704.137831 kJ/mol
# GULP energy per Si atom -5606.508614 kJ/mol
# Density = 2.533551 g / cm^3
# Si number density = 25.393302 Si / 1000 Ang^3
#
#
#
# Elastic Constant Matrix: (Units=GPa)
#
#
# Indices 1 2 3 4 5 6 
#
# 1 111.5260 2.3210 28.5953 -11.7245 20.3705 -10.0878
# 2 2.3210 108.7013 33.5576 -4.3970 10.8961 7.0881
# 3 28.5953 33.5576 99.2406 -6.5968 24.3506 -4.9534
# 4 -11.7245 -4.3970 -6.5968 34.9900 -3.0985 8.5180
# 5 20.3705 10.8961 24.3506 -3.0985 41.6135 -2.9062
# 6 -10.0878 7.0881 -4.9534 8.5180 -2.9062 23.0885
#
#
#
# Elastic Compliance Matrix: (Units=1/GPa)
#
#
# Indices 1 2 3 4 5 6 
#
# 1 0.010669 0.000721 -0.002093 0.002282 -0.003830 0.002667
# 2 0.000721 0.010822 -0.003672 0.001936 -0.001219 -0.004663
# 3 -0.002093 -0.003672 0.013455 0.000318 -0.005706 0.002264
# 4 0.002282 0.001936 0.000318 0.032434 -0.000200 -0.011520
# 5 -0.003830 -0.001219 -0.005706 -0.000200 0.029638 0.001281
# 6 0.002667 -0.004663 0.002264 -0.011520 0.001281 0.050806
#
#
# Mechanical properties :
#
#
# Convention : Reuss Voigt Hill
#
# Bulk Modulus (GPa) = 40.22874 49.82398 45.02636
# Shear Modulus (GPa) = 30.08419 36.93799 33.51109
#
# Velocity S-wave (km/s) = 3.44572 3.81811 3.63668
# Velocity P-wave (km/s) = 5.63093 6.25306 5.95013
#
# Compressibility (1/GPa) = 0.02485785
#
# Stress axis : x y z
#
# Youngs Moduli (GPa) = 93.72935 92.40109 74.31921
#
# Poissons Ratio (x) = -0.06660 0.15557
# Poissons Ratio (y) = -0.06756 0.27290
# Poissons Ratio (z) = 0.19620 0.33930
#
# Static dielectric constant tensor:
#      x y z
#    x 1.985260 -0.034850 0.061700 
#    y -0.034850 1.973130 -0.030540 
#    z 0.061700 -0.030540 2.074680 
# 
# From -- ./inp_files/271823.got.cif
#   From: 2010.05.17/outbox.cif.g08.bks.cpg/sg2_136_cif.got.tgz:271823.got - 2010.06.03 11:33:40.
