data_PCOD9047337
_publ_section_title
;
Structure prediction by ZEFSAII (Michael W. Deem and Ramdas Pophale) SiO2 
 PCOD9047337
Probable space group: P -1
;
_chemical_formula_sum "Si O2"
_cell_formula_units_Z 16
_cell_length_a 16.704672
_cell_length_b 11.045472
_cell_length_c 7.833282
_cell_angle_alpha 52.475014
_cell_angle_beta 67.986479
_cell_angle_gamma 34.961643
_cell_volume 631.774424
_symmetry_space_group_name_H-M "P -1"
_symmetry_group_IT_number 2
_symmetry_cell_setting 'triclinic'
loop_
_space_group_symop_operation_xyz
x,y,z
-x,-y,-z
loop_
_atom_site_type_symbol
_atom_site_label
_atom_site_fract_x
_atom_site_fract_y
_atom_site_fract_z
Si Si1 0.899817 0.990297 0.560898
Si Si2 0.037312 0.318010 0.480197
Si Si3 0.636338 0.071911 0.513618
Si Si4 0.403104 0.886918 0.862887
Si Si5 0.274265 0.536588 0.892808
Si Si6 0.135652 0.701201 0.192321
Si Si7 0.335083 0.659821 0.252774
Si Si8 0.666236 0.819523 0.035139
O O1 0.804891 0.192801 0.306270
O O2 0.779969 0.138976 0.678021
O O3 0.971035 0.726406 0.679116
O O4 0.000000 0.000000 0.500000
O O5 0.000000 0.500000 0.500000
O O6 0.932973 0.334066 0.616119
O O7 0.212120 0.077369 0.547724
O O8 0.498689 0.374110 0.418137
O O9 0.677797 0.911701 0.781658
O O10 0.583484 0.073202 0.375142
O O11 0.561387 0.666450 0.012428
O O12 0.352127 0.784338 0.012994
O O13 0.306869 0.130144 0.854363
O O14 0.199802 0.551815 0.092334
O O15 0.257248 0.451496 0.817087
O O16 0.258377 0.628748 0.244399
O O17 0.000000 0.000000 0.000000
O O18 0.500000 0.000000 0.000000
#
# Coordination Sequence:
#
# PCOD9047337 Si02
#       8
#     2   2   2   2   2   2   2   2
#     4  12  25  46  75 106 148 201 248 311 384 459
#     4  12  27  47  71 111 151 196 251 314 383 460
#     4  12  25  46  76 109 151 197 256 318 387 440
#     4  11  24  42  71 112 150 190 248 323 380 446
#     4  11  23  44  69 101 150 191 254 312 378 451
#     4  12  23  44  69 100 147 195 245 303 375 456
#     4  12  24  43  74 109 141 195 261 306 375 460
#     4  10  24  44  65 109 150 191 245 316 380 451
#
# _framework density 25.325496999999999
#
# number of rings (size 3 to 8) (size 9 to 14) (size 15 to 20)
#    0.000    0.500    3.750    4.875    0.000    4.500 
#    6.750    0.000    0.000    6.000    0.000    0.000 
#    0.000    0.000    0.000    0.000    0.000    0.000 
#
# Total GULP energy -89220.652689 kJ/mol
# GULP energy per Si atom -5576.290793 kJ/mol
# Density = 2.526785 g / cm^3
# Si number density = 25.325497 Si / 1000 Ang^3
#
#
#
# Elastic Constant Matrix: (Units=GPa)
#
#
# Indices 1 2 3 4 5 6 
#
# 1 114.1151 52.1979 -1.7118 -12.0010 -3.7961 7.1702
# 2 52.1979 163.8756 22.1872 11.8887 -13.7318 12.2242
# 3 -1.7118 22.1872 60.0701 9.1955 -3.3036 3.4818
# 4 -12.0010 11.8887 9.1955 35.6539 3.3048 6.2413
# 5 -3.7961 -13.7318 -3.3036 3.3048 24.8518 1.4195
# 6 7.1702 12.2242 3.4818 6.2413 1.4195 59.5288
#
#
#
# Elastic Compliance Matrix: (Units=1/GPa)
#
#
# Indices 1 2 3 4 5 6 
#
# 1 0.011231 -0.004099 0.001050 0.005163 -0.001034 -0.001089
# 2 -0.004099 0.008423 -0.002360 -0.003836 0.004270 -0.000798
# 3 0.001050 -0.002360 0.018229 -0.003663 0.001788 -0.000367
# 4 0.005163 -0.003836 -0.003663 0.033085 -0.006049 -0.002944
# 5 -0.001034 0.004270 0.001788 -0.006049 0.043554 -0.001261
# 6 -0.001089 -0.000798 -0.000367 -0.002944 -0.001261 0.017454
#
#
# Mechanical properties :
#
#
# Convention : Reuss Voigt Hill
#
# Bulk Modulus (GPa) = 36.94817 53.71191 45.33004
# Shear Modulus (GPa) = 32.93471 41.69941 37.31706
#
# Velocity S-wave (km/s) = 3.61010 4.06216 3.84278
# Velocity P-wave (km/s) = 5.65668 6.57694 6.13409
#
# Compressibility (1/GPa) = 0.02706494
#
# Stress axis : x y z
#
# Youngs Moduli (GPa) = 89.03945 118.72231 54.85784
#
# Poissons Ratio (x) = 0.48670 -0.05761
# Poissons Ratio (y) = 0.36502 0.12944
# Poissons Ratio (z) = -0.09350 0.28014
#
# Static dielectric constant tensor:
#      x y z
#    x 1.658250 2.167920 0.046300 
#    y 2.167920 -7.752940 0.115720 
#    z 0.046300 0.115720 1.973400 
# 
# From -- ./inp_files/332861.got.cif
#   From: 2010.05.17/outbox.cif.g08.bks.cpg/sg2_167_cif.got.tgz:332861.got - 2010.06.03 11:33:40.
