data_PCOD9047031
_publ_section_title
;
Structure prediction by ZEFSAII (Michael W. Deem and Ramdas Pophale) SiO2 
 PCOD9047031
Probable space group: P -1
;
_chemical_formula_sum "Si O2"
_cell_formula_units_Z 16
_cell_length_a 9.626929
_cell_length_b 27.528967
_cell_length_c 9.953711
_cell_angle_alpha 143.863973
_cell_angle_beta 105.062410
_cell_angle_gamma 45.549476
_cell_volume 763.443481
_symmetry_space_group_name_H-M "P -1"
_symmetry_group_IT_number 2
_symmetry_cell_setting 'triclinic'
loop_
_space_group_symop_operation_xyz
x,y,z
-x,-y,-z
loop_
_atom_site_type_symbol
_atom_site_label
_atom_site_fract_x
_atom_site_fract_y
_atom_site_fract_z
Si Si1 0.321197 0.006540 0.464229
Si Si2 0.850339 0.538248 0.179725
Si Si3 0.295980 0.867220 0.644254
Si Si4 0.765755 0.396205 0.925284
Si Si5 0.231622 0.619669 0.797675
Si Si6 0.323932 0.854601 0.305444
Si Si7 0.107689 0.505400 0.421112
Si Si8 0.168090 0.040500 0.220827
O O1 0.362373 0.951315 0.201226
O O2 0.500000 0.000000 0.500000
O O3 0.413296 0.895347 0.348499
O O4 0.992002 0.194496 0.830233
O O5 0.523737 0.706764 0.433105
O O6 0.951551 0.547692 0.345164
O O7 0.891885 0.422256 0.970133
O O8 0.000000 0.500000 0.000000
O O9 0.354508 0.845692 0.453465
O O10 0.020984 0.945908 0.760393
O O11 0.279864 0.962899 0.928432
O O12 0.993556 0.210937 0.555067
O O13 0.500000 0.500000 0.000000
O O14 0.679964 0.442612 0.164917
O O15 0.500000 0.500000 0.500000
O O16 0.067178 0.620701 0.703113
O O17 0.553233 0.674646 0.913701
O O18 0.000000 0.000000 0.500000
O O19 0.000000 0.500000 0.500000
#
# Coordination Sequence:
#
# PCOD9047031 Si02
#       8
#     2   2   2   2   2   2   2   2
#     4  11  25  44  67  98 138 177 220 288 345 396
#     4  12  26  45  70  98 142 182 226 289 345 406
#     4  11  24  45  67 103 133 183 227 279 341 412
#     4  11  24  44  69 100 137 181 225 283 343 413
#     4  11  26  44  69 102 136 178 232 280 341 415
#     4  12  25  44  71 100 136 177 233 280 334 415
#     4  12  26  45  70 103 138 180 231 284 349 408
#     4  10  24  43  70  96 138 175 228 276 348 409
#
# _framework density 20.957674000000001
#
# number of rings (size 3 to 8) (size 9 to 14) (size 15 to 20)
#    0.000    0.750    5.000    1.500    8.750    2.000 
#    0.000    1.250    0.000    0.000    0.000    0.000 
#    0.000    0.000    0.000    0.000    0.000    0.000 
#
# Total GULP energy -89387.435708 kJ/mol
# GULP energy per Si atom -5586.714732 kJ/mol
# Density = 2.090997 g / cm^3
# Si number density = 20.957674 Si / 1000 Ang^3
#
#
#
# Elastic Constant Matrix: (Units=GPa)
#
#
# Indices 1 2 3 4 5 6 
#
# 1 83.0299 26.9950 13.6260 -18.9514 15.4448 5.1372
# 2 26.9950 124.6925 32.3550 -29.6440 7.7975 5.3354
# 3 13.6260 32.3550 93.1326 -21.1228 7.7854 11.9562
# 4 -18.9514 -29.6440 -21.1228 35.9204 -2.9852 3.1074
# 5 15.4448 7.7975 7.7854 -2.9852 38.2156 1.8850
# 6 5.1372 5.3354 11.9562 3.1074 1.8850 38.8397
#
#
#
# Elastic Compliance Matrix: (Units=1/GPa)
#
#
# Indices 1 2 3 4 5 6 
#
# 1 0.015098 -0.001333 0.000568 0.006958 -0.005289 -0.002289
# 2 -0.001333 0.010508 -0.001631 0.007067 -0.000657 -0.001299
# 3 0.000568 -0.001631 0.013586 0.007177 -0.001881 -0.004516
# 4 0.006958 0.007067 0.007177 0.042028 -0.002070 -0.007362
# 5 -0.005289 -0.000657 -0.001881 -0.002070 0.028653 0.000144
# 6 -0.002289 -0.001299 -0.004516 -0.007362 0.000144 0.028200
#
#
# Mechanical properties :
#
#
# Convention : Reuss Voigt Hill
#
# Bulk Modulus (GPa) = 29.07006 49.64522 39.35764
# Shear Modulus (GPa) = 32.39772 37.78710 35.09241
#
# Velocity S-wave (km/s) = 3.93601 4.25080 4.09643
# Velocity P-wave (km/s) = 5.87854 6.91608 6.41831
#
# Compressibility (1/GPa) = 0.03439966
#
# Stress axis : x y z
#
# Youngs Moduli (GPa) = 66.23580 95.16161 73.60685
#
# Poissons Ratio (x) = 0.12687 -0.04183
# Poissons Ratio (y) = 0.08830 0.12006
# Poissons Ratio (z) = -0.03764 0.15522
#
# Static dielectric constant tensor:
#      x y z
#    x 1.712560 0.039660 -0.014840 
#    y 0.039660 1.662580 -0.027240 
#    z -0.014840 -0.027240 1.812540 
# 
# From -- ./inp_files/226669.got.cif
#   From: 2010.05.17/outbox.cif.g08.bks.cpg/sg2_114_cif.got.tgz:226669.got - 2010.06.03 11:33:40.
