data_PCOD9047995
_publ_section_title
;
Structure prediction by ZEFSAII (Michael W. Deem and Ramdas Pophale) SiO2 
 PCOD9047995
Probable space group: P -1
;
_chemical_formula_sum "Si O2"
_cell_formula_units_Z 14
_cell_length_a 14.129256
_cell_length_b 13.431945
_cell_length_c 7.701971
_cell_angle_alpha 144.660554
_cell_angle_beta 135.557870
_cell_angle_gamma 47.704173
_cell_volume 577.007322
_symmetry_space_group_name_H-M "P -1"
_symmetry_group_IT_number 2
_symmetry_cell_setting 'triclinic'
loop_
_space_group_symop_operation_xyz
x,y,z
-x,-y,-z
loop_
_atom_site_type_symbol
_atom_site_label
_atom_site_fract_x
_atom_site_fract_y
_atom_site_fract_z
Si Si1 0.672939 0.824741 0.736653
Si Si2 0.957393 0.362227 0.613311
Si Si3 0.368731 0.544121 0.747491
Si Si4 0.105182 0.041986 0.555751
Si Si5 0.786345 0.644745 0.271275
Si Si6 0.490093 0.774454 0.941408
Si Si7 0.687256 0.306168 0.732755
O O1 0.612414 0.669541 0.523106
O O2 0.743214 0.743121 0.534863
O O3 0.789556 0.863073 0.071301
O O4 0.568711 0.012917 0.824409
O O5 0.009917 0.167817 0.477721
O O6 0.056056 0.361007 0.576193
O O7 0.794659 0.400844 0.432605
O O8 0.000000 0.500000 0.000000
O O9 0.446009 0.656074 0.874760
O O10 0.376001 0.611892 0.051421
O O11 0.204340 0.876819 0.358875
O O12 0.000000 0.000000 0.500000
O O13 0.657890 0.733462 0.101092
O O14 0.773105 0.444201 0.974544
O O15 0.415192 0.717538 0.592477
#
# Coordination Sequence:
#
# PCOD9047995 Si02
#       7
#     2   2   2   2   2   2   2
#     4  10  24  44  72 105 140 189 244 292 354 434
#     4  12  24  43  72 101 141 186 234 297 363 415
#     4  11  25  46  74 104 144 194 238 292 364 426
#     4  11  23  42  67 101 144 184 235 295 358 428
#     4  11  25  45  72 103 143 189 233 300 358 425
#     4  11  24  51  71 103 153 185 240 302 354 423
#     4  10  25  42  69 105 135 190 240 290 353 429
#
# _framework density 24.263124999999999
#
# number of rings (size 3 to 8) (size 9 to 14) (size 15 to 20)
#    0.000    1.143    1.429    4.286    4.000    4.000 
#    5.143    1.429    0.000    0.000    0.000    0.000 
#    0.000    0.000    0.000    0.000    0.000    0.000 
#
# Total GULP energy -78383.954355 kJ/mol
# GULP energy per Si atom -5598.853883 kJ/mol
# Density = 2.420790 g / cm^3
# Si number density = 24.263125 Si / 1000 Ang^3
#
#
#
# Elastic Constant Matrix: (Units=GPa)
#
#
# Indices 1 2 3 4 5 6 
#
# 1 101.3073 31.1571 24.9926 12.0503 -7.1581 -1.8055
# 2 31.1571 51.5636 43.7093 36.6317 45.0257 53.1456
# 3 24.9926 43.7093 104.4233 24.5575 -1.4953 -3.4041
# 4 12.0503 36.6317 24.5575 39.0848 -15.0100 -1.8613
# 5 -7.1581 45.0257 -1.4953 -15.0100 21.2634 -29.1988
# 6 -1.8055 53.1456 -3.4041 -1.8613 -29.1988 7.8082
#
#
#
# Elastic Compliance Matrix: (Units=1/GPa)
#
#
# Indices 1 2 3 4 5 6 
#
# 1 0.010571 -0.000065 -0.002023 -0.002382 -0.000930 -0.002041
# 2 -0.000065 0.002866 -0.001110 0.001463 0.007769 0.009397
# 3 -0.002023 -0.001110 0.012145 -0.007114 -0.002946 -0.000327
# 4 -0.002382 0.001463 -0.007114 0.028260 -0.001478 -0.012399
# 5 -0.000930 0.007769 -0.002946 -0.001478 0.011158 -0.013004
# 6 -0.002041 0.009397 -0.000327 -0.012399 -0.013004 0.011912
#
#
# Mechanical properties :
#
#
# Convention : Reuss Voigt Hill
#
# Bulk Modulus (GPa) = 52.12092 50.77914 51.45003
# Shear Modulus (GPa) = 55.73929 24.12697 39.93313
#
# Velocity S-wave (km/s) = 4.79820 3.15681 4.06129
# Velocity P-wave (km/s) = 7.22670 5.85331 6.57596
#
# Compressibility (1/GPa) = 0.01918615
#
# Stress axis : x y z
#
# Youngs Moduli (GPa) = 94.59721 348.96954 82.33584
#
# Poissons Ratio (x) = 0.02268 0.16653
# Poissons Ratio (y) = 0.00615 0.09142
# Poissons Ratio (z) = 0.19133 0.38749
#
# Static dielectric constant tensor:
#      x y z
#    x 2.213920 -0.031130 -0.028830 
#    y -0.031130 1.995570 -0.015710 
#    z -0.028830 -0.015710 1.887480 
# 
# From -- ./inp_files/168637.got.cif
#   From: 2010.05.17/outbox.cif.g08.bks.cpg/sg2_85_cif.got.tgz:168637.got - 2010.06.03 11:33:40.
