data_PCOD9047789
_publ_section_title
;
Structure prediction by ZEFSAII (Michael W. Deem and Ramdas Pophale) SiO2 
 PCOD9047789
Probable space group: P -1
;
_chemical_formula_sum "Si O2"
_cell_formula_units_Z 15
_cell_length_a 23.038396
_cell_length_b 8.197280
_cell_length_c 8.725896
_cell_angle_alpha 52.195319
_cell_angle_beta 138.825381
_cell_angle_gamma 146.355336
_cell_volume 600.662176
_symmetry_space_group_name_H-M "P -1"
_symmetry_group_IT_number 2
_symmetry_cell_setting 'triclinic'
loop_
_space_group_symop_operation_xyz
x,y,z
-x,-y,-z
loop_
_atom_site_type_symbol
_atom_site_label
_atom_site_fract_x
_atom_site_fract_y
_atom_site_fract_z
Si Si1 0.164877 0.114256 0.518608
Si Si2 0.520751 0.876478 0.473493
Si Si3 0.784235 0.171932 0.719603
Si Si4 0.000000 0.000000 0.000000
Si Si5 0.309887 0.754050 0.953311
Si Si6 0.863971 0.673436 0.401189
Si Si7 0.352959 0.240128 0.580489
Si Si8 0.883784 0.368724 0.133393
O O1 0.217822 0.315276 0.658408
O O2 0.275181 0.235469 0.554409
O O3 0.093502 0.791496 0.622884
O O4 0.078665 0.125802 0.245200
O O5 0.480282 0.576874 0.612401
O O6 0.500000 0.000000 0.500000
O O7 0.661462 0.098813 0.566013
O O8 0.422355 0.792727 0.199974
O O9 0.865146 0.449480 0.607620
O O10 0.727831 0.899252 0.656803
O O11 0.854125 0.243390 0.974891
O O12 0.985646 0.720291 0.138534
O O13 0.198183 0.450576 0.816215
O O14 0.242004 0.737393 0.978049
O O15 0.359350 0.020228 0.788154
O O16 0.000000 0.000000 0.500000
#
# Coordination Sequence:
#
# PCOD9047789 Si02
#       8
#     2   2   2   1   2   2   2   2
#     4  11  24  45  69  99 137 182 233 284 346 416
#     4  12  23  44  74 104 139 185 230 292 352 406
#     4  11  24  46  67 106 143 181 236 286 347 417
#     4  12  22  42  70  94 134 188 232 286 346 400
#     4  10  24  44  70 104 143 181 234 285 347 418
#     4  11  24  46  71 103 138 184 234 288 349 419
#     4  10  25  45  68 102 140 180 230 285 349 418
#     4  11  23  43  67 102 139 182 233 289 343 419
#
# _framework density 24.972441
#
# number of rings (size 3 to 8) (size 9 to 14) (size 15 to 20)
#    0.000    1.067    2.667    3.200    1.867    4.800 
#    2.400    1.333    0.000    0.000    0.000    0.000 
#    0.000    0.000    0.000    0.000    0.000    0.000 
#
# Total GULP energy -83802.029034 kJ/mol
# GULP energy per Si atom -5586.801936 kJ/mol
# Density = 2.491560 g / cm^3
# Si number density = 24.972441 Si / 1000 Ang^3
#
#
#
# Elastic Constant Matrix: (Units=GPa)
#
#
# Indices 1 2 3 4 5 6 
#
# 1 78.9568 -2.2580 4.7054 8.1962 -7.8222 1.6010
# 2 -2.2580 123.5399 1.7740 -7.6836 4.8245 5.6126
# 3 4.7054 1.7740 99.1836 0.4504 2.9909 13.9770
# 4 8.1962 -7.6836 0.4504 32.8590 -6.7625 0.0052
# 5 -7.8222 4.8245 2.9909 -6.7625 31.1630 5.4171
# 6 1.6010 5.6126 13.9770 0.0052 5.4171 34.7434
#
#
#
# Elastic Compliance Matrix: (Units=1/GPa)
#
#
# Indices 1 2 3 4 5 6 
#
# 1 0.013290 0.000006 -0.000590 -0.002698 0.002951 -0.000836
# 2 0.000006 0.008289 0.000040 0.001797 -0.000678 -0.001250
# 3 -0.000590 0.000040 0.010719 -0.000086 -0.000468 -0.004218
# 4 -0.002698 0.001797 -0.000086 0.032840 0.006376 -0.001130
# 5 0.002951 -0.000678 -0.000468 0.006376 0.035292 -0.005342
# 6 -0.000836 -0.001250 -0.004218 -0.001130 -0.005342 0.031553
#
#
# Mechanical properties :
#
#
# Convention : Reuss Voigt Hill
#
# Bulk Modulus (GPa) = 32.04023 34.45814 33.24918
# Shear Modulus (GPa) = 34.84987 39.58367 37.21677
#
# Velocity S-wave (km/s) = 3.73974 3.98564 3.86465
# Velocity P-wave (km/s) = 5.61298 5.91683 5.76691
#
# Compressibility (1/GPa) = 0.03121076
#
# Stress axis : x y z
#
# Youngs Moduli (GPa) = 75.24534 120.64005 93.29659
#
# Poissons Ratio (x) = -0.00076 0.05500
# Poissons Ratio (y) = -0.00047 -0.00372
# Poissons Ratio (z) = 0.04436 -0.00481
#
# Static dielectric constant tensor:
#      x y z
#    x 2.034040 0.010340 -0.005090 
#    y 0.010340 1.968890 -0.006960 
#    z -0.005090 -0.006960 1.899350 
# 
# From -- ./inp_files/356368.got.cif
#   From: 2010.05.17/outbox.cif.g08.bks.cpg/sg2_179_cif.got.tgz:356368.got - 2010.06.03 11:33:40.
