data_PCOD9047468
_publ_section_title
;
Structure prediction by ZEFSAII (Michael W. Deem and Ramdas Pophale) SiO2 
 PCOD9047468
Probable space group: P -1
;
_chemical_formula_sum "Si O2"
_cell_formula_units_Z 14
_cell_length_a 11.637433
_cell_length_b 5.547870
_cell_length_c 12.372152
_cell_angle_alpha 115.683562
_cell_angle_beta 59.599393
_cell_angle_gamma 108.850221
_cell_volume 615.330368
_symmetry_space_group_name_H-M "P -1"
_symmetry_group_IT_number 2
_symmetry_cell_setting 'triclinic'
loop_
_space_group_symop_operation_xyz
x,y,z
-x,-y,-z
loop_
_atom_site_type_symbol
_atom_site_label
_atom_site_fract_x
_atom_site_fract_y
_atom_site_fract_z
Si Si1 0.587468 0.395398 0.029603
Si Si2 0.829158 0.217158 0.374684
Si Si3 0.215053 0.534446 0.888965
Si Si4 0.583632 0.277895 0.359627
Si Si5 0.022786 0.919776 0.095940
Si Si6 0.395200 0.082081 0.227939
Si Si7 0.855204 0.861775 0.504680
O O1 0.712040 0.572631 0.062110
O O2 0.487128 0.306894 0.158707
O O3 0.500000 0.500000 0.000000
O O4 0.633208 0.149946 0.892877
O O5 0.685393 0.149653 0.366906
O O6 0.851708 0.542368 0.426121
O O7 0.965751 0.140357 0.239395
O O8 0.816704 0.044503 0.457744
O O9 0.313382 0.575241 0.749175
O O10 0.085223 0.340380 0.876570
O O11 0.167083 0.815272 0.006943
O O12 0.500000 0.500000 0.500000
O O13 0.483709 0.066204 0.293228
O O14 0.000000 0.000000 0.000000
O O15 0.253237 0.135155 0.348770
O O16 0.000000 0.000000 0.500000
#
# Coordination Sequence:
#
# PCOD9047468 Si02
#       7
#     2   2   2   2   2   2   2
#     4  10  24  44  71  99 143 196 247 300 371 436
#     4  12  27  48  75 109 146 200 243 307 375 431
#     4  10  24  44  67 107 144 193 242 311 363 439
#     4  11  22  46  73 105 145 185 248 307 368 439
#     4  11  24  42  70 102 143 184 251 298 372 432
#     4  10  25  45  68 104 144 189 250 301 370 432
#     4  12  29  51  72 110 150 196 247 300 374 450
#
# _framework density 22.752006000000002
#
# number of rings (size 3 to 8) (size 9 to 14) (size 15 to 20)
#    0.000    1.143    2.857    1.286    8.000    1.714 
#    0.000    0.000    0.000    0.000    0.000    0.000 
#    0.000    0.000    0.000    0.000    0.000    0.000 
#
# Total GULP energy -78071.512971 kJ/mol
# GULP energy per Si atom -5576.536641 kJ/mol
# Density = 2.270022 g / cm^3
# Si number density = 22.752006 Si / 1000 Ang^3
#
#
#
# Elastic Constant Matrix: (Units=GPa)
#
#
# Indices 1 2 3 4 5 6 
#
# 1 151.9471 50.8951 26.5845 -41.8069 -8.0894 -16.2262
# 2 50.8951 91.4092 26.0599 -30.9466 -14.7805 -11.3827
# 3 26.5845 26.0599 185.1689 28.0264 -2.2042 -6.1713
# 4 -41.8069 -30.9466 28.0264 92.4268 32.6041 0.3920
# 5 -8.0894 -14.7805 -2.2042 32.6041 49.0093 -10.4669
# 6 -16.2262 -11.3827 -6.1713 0.3920 -10.4669 40.7123
#
#
#
# Elastic Compliance Matrix: (Units=1/GPa)
#
#
# Indices 1 2 3 4 5 6 
#
# 1 0.009210 -0.003383 -0.001426 0.004121 -0.001882 0.001985
# 2 -0.003383 0.015336 -0.002044 0.003352 0.002433 0.003223
# 3 -0.001426 -0.002044 0.006561 -0.004130 0.002295 0.000485
# 4 0.004121 0.003352 -0.004130 0.019104 -0.011455 -0.001175
# 5 -0.001882 0.002433 0.002295 -0.011455 0.030298 0.008178
# 6 0.001985 0.003223 0.000485 -0.001175 0.008178 0.028442
#
#
# Mechanical properties :
#
#
# Convention : Reuss Voigt Hill
#
# Bulk Modulus (GPa) = 57.46755 70.62270 64.04512
# Shear Modulus (GPa) = 38.92383 58.09537 48.50960
#
# Velocity S-wave (km/s) = 4.14065 5.05862 4.62248
# Velocity P-wave (km/s) = 6.94068 8.07633 7.52995
#
# Compressibility (1/GPa) = 0.01740112
#
# Stress axis : x y z
#
# Youngs Moduli (GPa) = 108.58341 65.20726 152.40559
#
# Poissons Ratio (x) = 0.22061 0.21733
# Poissons Ratio (y) = 0.36736 0.31145
# Poissons Ratio (z) = 0.15484 0.13326
#
# Static dielectric constant tensor:
#      x y z
#    x 1.866860 0.030230 -0.033620 
#    y 0.030230 1.855910 0.021260 
#    z -0.033620 0.021260 1.775340 
# 
# From -- ./inp_files/66149.got.cif
#   From: 2010.05.17/outbox.cif.g08.bks.cpg/sg2_34_cif.got.tgz:66149.got - 2010.06.03 11:33:40.
