data_PCOD9047431
_publ_section_title
;
Structure prediction by ZEFSAII (Michael W. Deem and Ramdas Pophale) SiO2 
 PCOD9047431
Probable space group: P -1
;
_chemical_formula_sum "Si O2"
_cell_formula_units_Z 14
_cell_length_a 20.919134
_cell_length_b 6.109549
_cell_length_c 21.079237
_cell_angle_alpha 59.892547
_cell_angle_beta 160.095112
_cell_angle_gamma 130.429867
_cell_volume 634.486896
_symmetry_space_group_name_H-M "P -1"
_symmetry_group_IT_number 2
_symmetry_cell_setting 'triclinic'
loop_
_space_group_symop_operation_xyz
x,y,z
-x,-y,-z
loop_
_atom_site_type_symbol
_atom_site_label
_atom_site_fract_x
_atom_site_fract_y
_atom_site_fract_z
Si Si1 0.578731 0.209388 0.980258
Si Si2 0.868757 0.882854 0.111514
Si Si3 0.365267 0.347511 0.488820
Si Si4 0.732457 0.343324 0.752548
Si Si5 0.486824 0.676573 0.677966
Si Si6 0.975043 0.205310 0.286811
Si Si7 0.060468 0.855041 0.515167
O O1 0.340598 0.081105 0.741232
O O2 0.727413 0.583803 0.069821
O O3 0.756532 0.181293 0.111949
O O4 0.500000 0.000000 0.000000
O O5 0.943336 0.166344 0.187225
O O6 0.690776 0.797542 0.901436
O O7 0.120839 0.993787 0.304555
O O8 0.597771 0.430433 0.660304
O O9 0.295213 0.550983 0.357335
O O10 0.426532 0.404292 0.612192
O O11 0.583238 0.970800 0.678697
O O12 0.000000 0.500000 0.000000
O O13 0.235049 0.525637 0.497031
O O14 0.967503 0.934812 0.357076
O O15 0.000000 0.500000 0.500000
O O16 0.000000 0.000000 0.500000
#
# Coordination Sequence:
#
# PCOD9047431 Si02
#       7
#     2   2   2   2   2   2   2
#     4  12  25  44  72  99 141 188 244 301 364 433
#     4  11  24  45  67 101 139 184 239 293 365 433
#     4  10  24  44  67 100 137 179 231 291 352 432
#     4  11  22  43  70  99 137 180 227 289 353 434
#     4  11  23  45  68 100 141 182 234 286 368 423
#     4  11  26  45  70 101 142 189 236 305 364 436
#     4  12  27  47  74 107 145 192 251 311 375 441
#
# _framework density 22.065075
#
# number of rings (size 3 to 8) (size 9 to 14) (size 15 to 20)
#    0.000    0.857    4.286    2.143    2.000    2.857 
#    2.571    0.000    0.000    0.000    0.000    0.000 
#    0.000    0.000    0.000    0.000    0.000    0.000 
#
# Total GULP energy -77968.422415 kJ/mol
# GULP energy per Si atom -5569.173030 kJ/mol
# Density = 2.201485 g / cm^3
# Si number density = 22.065075 Si / 1000 Ang^3
#
#
#
# Elastic Constant Matrix: (Units=GPa)
#
#
# Indices 1 2 3 4 5 6 
#
# 1 96.9129 -11.4597 91.1219 27.7913 -2.5941 -1.8216
# 2 -11.4597 18.5865 66.6714 74.5310 2.8657 -7.5480
# 3 91.1219 66.6714 192.5338 -29.8035 4.6678 -6.1171
# 4 27.7913 74.5310 -29.8035 -36.4926 7.0804 29.7437
# 5 -2.5941 2.8657 4.6678 7.0804 49.3270 2.9088
# 6 -1.8216 -7.5480 -6.1171 29.7437 2.9088 19.5060
#
#
#
# Elastic Compliance Matrix: (Units=1/GPa)
#
#
# Indices 1 2 3 4 5 6 
#
# 1 0.013745 -0.000322 -0.005776 0.006272 0.000999 -0.010366
# 2 -0.000322 0.010413 -0.002108 0.011314 -0.001237 -0.013730
# 3 -0.005776 -0.002108 0.008033 -0.006405 -0.000673 0.011031
# 4 0.006272 0.011314 -0.006405 0.003618 -0.000090 -0.002548
# 5 0.000999 -0.001237 -0.000673 -0.000090 0.020683 -0.003543
# 6 -0.010366 -0.013730 0.011031 -0.002548 -0.003543 0.052859
#
#
# Mechanical properties :
#
#
# Convention : Reuss Voigt Hill
#
# Bulk Modulus (GPa) = 63.37953 66.74449 65.06201
# Shear Modulus (GPa) = 38.16117 17.24805 27.70461
#
# Velocity S-wave (km/s) = 4.16322 2.79891 3.54727
# Velocity P-wave (km/s) = 7.20389 6.38434 6.80646
#
# Compressibility (1/GPa) = 0.01577797
#
# Stress axis : x y z
#
# Youngs Moduli (GPa) = 72.75529 96.03116 124.48580
#
# Poissons Ratio (x) = 0.03091 0.71906
# Poissons Ratio (y) = 0.02342 0.26247
# Poissons Ratio (z) = 0.42025 0.20248
#
# Static dielectric constant tensor:
#      x y z
#    x 2.165000 0.259550 -0.313010 
#    y 0.259550 2.219290 -0.351780 
#    z -0.313010 -0.351780 2.088260 
# 
# From -- ./inp_files/600749.got.cif
#   From: 2010.05.17/outbox.cif.g08.bks.cpg/sg2_301_cif.got.tgz:600749.got - 2010.06.03 11:33:40.
