data_PCOD9047967
_publ_section_title
;
Structure prediction by ZEFSAII (Michael W. Deem and Ramdas Pophale) SiO2 
 PCOD9047967
Probable space group: P -1
;
_chemical_formula_sum "Si O2"
_cell_formula_units_Z 13
_cell_length_a 22.200022
_cell_length_b 14.179455
_cell_length_c 12.781790
_cell_angle_alpha 30.440684
_cell_angle_beta 20.733918
_cell_angle_gamma 21.595786
_cell_volume 523.419324
_symmetry_space_group_name_H-M "P -1"
_symmetry_group_IT_number 2
_symmetry_cell_setting 'triclinic'
loop_
_space_group_symop_operation_xyz
x,y,z
-x,-y,-z
loop_
_atom_site_type_symbol
_atom_site_label
_atom_site_fract_x
_atom_site_fract_y
_atom_site_fract_z
Si Si1 0.926483 0.132669 0.748853
Si Si2 0.556600 0.593913 0.042260
Si Si3 0.929344 0.683502 0.811513
Si Si4 0.591304 0.990633 0.621026
Si Si5 0.321648 0.740684 0.636066
Si Si6 0.248611 0.103808 0.778568
Si Si7 0.000000 0.000000 0.500000
O O1 0.091447 0.167950 0.398838
O O2 0.688003 0.414302 0.899054
O O3 0.077986 0.931760 0.787936
O O4 0.854642 0.018411 0.894052
O O5 0.646756 0.397337 0.177037
O O6 0.278286 0.812409 0.270414
O O7 0.650273 0.729465 0.785222
O O8 0.070120 0.397921 0.818344
O O9 0.051326 0.737569 0.638766
O O10 0.688048 0.796033 0.144280
O O11 0.636539 0.080642 0.562912
O O12 0.715625 0.960657 0.341212
O O13 0.500000 0.500000 0.500000
O O14 0.500000 0.000000 0.500000
#
# Coordination Sequence:
#
# PCOD9047967 Si02
#       7
#     2   2   2   2   2   2   1
#     4  12  26  47  75 107 148 195 245 300 368 434
#     4  11  24  46  72 107 143 195 241 305 365 433
#     4  11  26  46  70 108 145 193 239 306 366 433
#     4  11  26  47  71 108 143 192 247 297 368 433
#     4  12  26  47  73 106 150 195 246 301 362 441
#     4  12  27  46  73 109 146 192 246 304 365 438
#     4  10  24  44  72 102 148 186 240 296 370 426
#
# _framework density 24.836684000000002
#
# number of rings (size 3 to 8) (size 9 to 14) (size 15 to 20)
#    0.000    0.615    3.077    4.154    4.308    6.154 
#    0.000    0.000    0.000    0.000    0.000    0.000 
#    0.000    0.000    0.000    0.000    0.000    0.000 
#
# Total GULP energy -72547.146121 kJ/mol
# GULP energy per Si atom -5580.549702 kJ/mol
# Density = 2.478015 g / cm^3
# Si number density = 24.836684 Si / 1000 Ang^3
#
#
#
# Elastic Constant Matrix: (Units=GPa)
#
#
# Indices 1 2 3 4 5 6 
#
# 1 88.6700 47.0870 18.7648 -9.7177 -12.8390 20.2937
# 2 47.0870 171.2746 56.1097 -5.9155 -9.5666 38.4983
# 3 18.7648 56.1097 99.0887 -11.0429 -15.9806 7.7357
# 4 -9.7177 -5.9155 -11.0429 39.7438 20.1327 0.6480
# 5 -12.8390 -9.5666 -15.9806 20.1327 40.0303 -5.3444
# 6 20.2937 38.4983 7.7357 0.6480 -5.3444 67.7086
#
#
#
# Elastic Compliance Matrix: (Units=1/GPa)
#
#
# Indices 1 2 3 4 5 6 
#
# 1 0.014022 -0.003113 -0.000118 0.001667 0.002570 -0.002232
# 2 -0.003113 0.008885 -0.004330 -0.000033 -0.001082 -0.003709
# 3 -0.000118 -0.004330 0.013202 0.001021 0.003856 0.001284
# 4 0.001667 -0.000033 0.001021 0.034301 -0.016616 -0.002237
# 5 0.002570 -0.001082 0.003856 -0.016616 0.035761 0.002386
# 6 -0.002232 -0.003709 0.001284 -0.002237 0.002386 0.017610
#
#
# Mechanical properties :
#
#
# Convention : Reuss Voigt Hill
#
# Bulk Modulus (GPa) = 47.65257 66.99515 57.32386
# Shear Modulus (GPa) = 34.27014 45.30132 39.78573
#
# Velocity S-wave (km/s) = 3.71862 4.27543 4.00671
# Velocity P-wave (km/s) = 6.13723 7.16974 6.67348
#
# Compressibility (1/GPa) = 0.02098523
#
# Stress axis : x y z
#
# Youngs Moduli (GPa) = 71.31820 112.54474 75.74722
#
# Poissons Ratio (x) = 0.35040 0.00893
# Poissons Ratio (y) = 0.22205 0.32802
# Poissons Ratio (z) = 0.00841 0.48737
#
# Static dielectric constant tensor:
#      x y z
#    x 1.997460 0.010240 0.021980 
#    y 0.010240 1.989690 -0.092020 
#    z 0.021980 -0.092020 2.016820 
# 
# From -- ./inp_files/542990.got.cif
#   From: 2010.05.17/outbox.cif.g08.bks.cpg/sg2_272_cif.got.tgz:542990.got - 2010.06.03 11:33:40.
