data_PCOD9047981
_publ_section_title
;
Structure prediction by ZEFSAII (Michael W. Deem and Ramdas Pophale) SiO2 
 PCOD9047981
Probable space group: P -1
;
_chemical_formula_sum "Si O2"
_cell_formula_units_Z 13
_cell_length_a 5.080384
_cell_length_b 14.110604
_cell_length_c 15.726040
_cell_angle_alpha 151.073129
_cell_angle_beta 95.553754
_cell_angle_gamma 95.099744
_cell_volume 506.222634
_symmetry_space_group_name_H-M "P -1"
_symmetry_group_IT_number 2
_symmetry_cell_setting 'triclinic'
loop_
_space_group_symop_operation_xyz
x,y,z
-x,-y,-z
loop_
_atom_site_type_symbol
_atom_site_label
_atom_site_fract_x
_atom_site_fract_y
_atom_site_fract_z
Si Si1 0.960676 0.035336 0.899730
Si Si2 0.803358 0.553016 0.122944
Si Si3 0.296432 0.871741 0.315009
Si Si4 0.500000 0.000000 0.000000
Si Si5 0.220975 0.725964 0.669796
Si Si6 0.542929 0.789736 0.565456
Si Si7 0.295956 0.461766 0.163991
O O1 0.796583 0.841142 0.680521
O O2 0.179012 0.939774 0.876923
O O3 0.742076 0.103366 0.000795
O O4 0.147049 0.219873 0.990266
O O5 0.541893 0.524618 0.152289
O O6 0.963459 0.780014 0.261828
O O7 0.050751 0.536389 0.178958
O O8 0.702563 0.351768 0.898234
O O9 0.500000 0.000000 0.500000
O O10 0.373625 0.028225 0.360053
O O11 0.523855 0.238297 0.227577
O O12 0.298967 0.775558 0.613999
O O13 0.000000 0.500000 0.500000
O O14 0.438420 0.577552 0.344426
#
# Coordination Sequence:
#
# PCOD9047981 Si02
#       7
#     2   2   2   1   2   2   2
#     4  11  25  45  73 104 149 188 247 305 371 446
#     4  11  27  46  71 106 148 195 248 299 367 433
#     4  11  23  48  73 107 150 195 248 302 363 437
#     4  10  24  44  72 104 136 190 234 306 372 434
#     4  11  25  46  71 104 143 185 248 302 376 441
#     4  11  25  44  71 107 143 194 244 302 367 437
#     4  12  26  47  73 107 149 194 245 305 365 440
#
# _framework density 25.680402000000001
#
# number of rings (size 3 to 8) (size 9 to 14) (size 15 to 20)
#    0.000    0.923    3.077    2.308    4.308    8.000 
#    2.769    0.000    0.000    0.000    0.000    0.000 
#    0.000    0.000    0.000    0.000    0.000    0.000 
#
# Total GULP energy -72485.913080 kJ/mol
# GULP energy per Si atom -5575.839468 kJ/mol
# Density = 2.562195 g / cm^3
# Si number density = 25.680402 Si / 1000 Ang^3
#
#
#
# Elastic Constant Matrix: (Units=GPa)
#
#
# Indices 1 2 3 4 5 6 
#
# 1 138.1155 57.5269 29.8401 -7.8967 12.6023 28.0152
# 2 57.5269 139.9195 20.5018 1.9772 7.9272 24.7383
# 3 29.8401 20.5018 132.2984 -19.4308 36.2894 15.7910
# 4 -7.8967 1.9772 -19.4308 58.1327 1.6504 9.6268
# 5 12.6023 7.9272 36.2894 1.6504 41.0549 -1.7933
# 6 28.0152 24.7383 15.7910 9.6268 -1.7933 44.7213
#
#
#
# Elastic Compliance Matrix: (Units=1/GPa)
#
#
# Indices 1 2 3 4 5 6 
#
# 1 0.009952 -0.003052 -0.000062 0.002364 -0.002731 -0.005143
# 2 -0.003052 0.009002 -0.000182 -0.000267 -0.000759 -0.002976
# 3 -0.000062 -0.000182 0.012114 0.005311 -0.011117 -0.005727
# 4 0.002364 -0.000267 0.005311 0.020810 -0.006552 -0.007951
# 5 -0.002731 -0.000759 -0.011117 -0.006552 0.035822 0.008903
# 6 -0.005143 -0.002976 -0.005727 -0.007951 0.008903 0.031319
#
#
# Mechanical properties :
#
#
# Convention : Reuss Voigt Hill
#
# Bulk Modulus (GPa) = 40.85717 69.56345 55.21031
# Shear Modulus (GPa) = 37.37768 48.94609 43.16189
#
# Velocity S-wave (km/s) = 3.81923 4.37048 4.10412
# Velocity P-wave (km/s) = 5.94921 7.25362 6.63356
#
# Compressibility (1/GPa) = 0.02447551
#
# Stress axis : x y z
#
# Youngs Moduli (GPa) = 100.47736 111.09224 82.55021
#
# Poissons Ratio (x) = 0.33908 0.00508
# Poissons Ratio (y) = 0.30668 0.01505
# Poissons Ratio (z) = 0.00619 0.02025
#
# Static dielectric constant tensor:
#      x y z
#    x 2.364490 -0.016740 -0.032660 
#    y -0.016740 2.082500 0.016050 
#    z -0.032660 0.016050 2.027560 
# 
# From -- ./inp_files/97245.got.cif
#   From: 2010.05.17/outbox.cif.g08.bks.cpg/sg2_49_cif.got.tgz:97245.got - 2010.06.03 11:33:40.
