data_PCOD9047183
_publ_section_title
;
Structure prediction by ZEFSAII (Michael W. Deem and Ramdas Pophale) SiO2 
 PCOD9047183
Probable space group: P -1
;
_chemical_formula_sum "Si O2"
_cell_formula_units_Z 12
_cell_length_a 17.550287
_cell_length_b 11.907972
_cell_length_c 9.867378
_cell_angle_alpha 48.687610
_cell_angle_beta 135.415774
_cell_angle_gamma 158.884789
_cell_volume 521.399622
_symmetry_space_group_name_H-M "P -1"
_symmetry_group_IT_number 2
_symmetry_cell_setting 'triclinic'
loop_
_space_group_symop_operation_xyz
x,y,z
-x,-y,-z
loop_
_atom_site_type_symbol
_atom_site_label
_atom_site_fract_x
_atom_site_fract_y
_atom_site_fract_z
Si Si1 0.517373 0.407791 0.219069
Si Si2 0.706763 0.727089 0.482852
Si Si3 0.588289 0.200997 0.152774
Si Si4 0.867310 0.566886 0.473925
Si Si5 0.807993 0.181898 0.851424
Si Si6 0.733461 0.432835 0.848084
O O1 0.601664 0.598012 0.303998
O O2 0.698509 0.495136 0.359877
O O3 0.279883 0.033156 0.209171
O O4 0.500000 0.500000 0.000000
O O5 0.500000 0.500000 0.500000
O O6 0.796074 0.667976 0.676746
O O7 0.888112 0.072301 0.470995
O O8 0.797566 0.450008 0.323462
O O9 0.384257 0.043727 0.095242
O O10 0.480755 0.907045 0.223000
O O11 0.665699 0.359544 0.979691
O O12 0.824775 0.367464 0.664836
O O13 0.949776 0.586701 0.981581
#
# Coordination Sequence:
#
# PCOD9047183 Si02
#       6
#     2   2   2   2   2   2
#     4  11  25  47  74 104 141 189 237 288 356 428
#     4  12  29  45  69 105 147 184 237 297 356 419
#     4  10  24  43  73 106 140 185 237 291 352 427
#     4  11  25  45  73 102 143 184 243 287 355 421
#     4  11  24  45  76 102 142 187 238 291 354 422
#     4  11  25  45  71 103 148 182 238 290 362 416
#
# _framework density 23.014976000000001
#
# number of rings (size 3 to 8) (size 9 to 14) (size 15 to 20)
#    0.000    1.000    0.000    6.000   11.667    2.667 
#    0.000    0.000    0.000    0.000    0.000    0.000 
#    0.000    0.000    0.000    0.000    0.000    0.000 
#
# Total GULP energy -67189.953973 kJ/mol
# GULP energy per Si atom -5599.162831 kJ/mol
# Density = 2.296259 g / cm^3
# Si number density = 23.014976 Si / 1000 Ang^3
#
#
#
# Elastic Constant Matrix: (Units=GPa)
#
#
# Indices 1 2 3 4 5 6 
#
# 1 81.7455 38.2352 71.4114 6.9773 -7.2511 -11.0603
# 2 38.2352 149.8079 62.9584 8.5940 -16.6266 -37.7663
# 3 71.4114 62.9584 157.9433 -2.4256 -9.5537 -20.7471
# 4 6.9773 8.5940 -2.4256 38.8174 -15.9491 -4.5159
# 5 -7.2511 -16.6266 -9.5537 -15.9491 49.1159 5.9267
# 6 -11.0603 -37.7663 -20.7471 -4.5159 5.9267 32.4825
#
#
#
# Elastic Compliance Matrix: (Units=1/GPa)
#
#
# Indices 1 2 3 4 5 6 
#
# 1 0.021184 -0.001623 -0.009164 -0.004343 -0.000489 -0.001042
# 2 -0.001623 0.010770 -0.002117 -0.000357 0.001640 0.010269
# 3 -0.009164 -0.002117 0.011729 0.003558 0.001101 0.002204
# 4 -0.004343 -0.000357 0.003558 0.031170 0.009697 0.002943
# 5 -0.000489 0.001640 0.001101 0.009697 0.024283 -0.000639
# 6 -0.001042 0.010269 0.002204 0.002943 -0.000639 0.044304
#
#
# Mechanical properties :
#
#
# Convention : Reuss Voigt Hill
#
# Bulk Modulus (GPa) = 55.94212 81.63408 68.78810
# Shear Modulus (GPa) = 28.53754 38.54260 33.54007
#
# Velocity S-wave (km/s) = 3.52512 4.09672 3.82162
# Velocity P-wave (km/s) = 6.39752 7.61081 7.03039
#
# Compressibility (1/GPa) = 0.01787562
#
# Stress axis : x y z
#
# Youngs Moduli (GPa) = 47.20439 92.84852 85.25614
#
# Poissons Ratio (x) = 0.15072 0.78131
# Poissons Ratio (y) = 0.07663 0.18046
# Poissons Ratio (z) = 0.43260 0.19653
#
# Static dielectric constant tensor:
#      x y z
#    x 1.975740 -0.096220 -0.002390 
#    y -0.096220 1.922650 0.026970 
#    z -0.002390 0.026970 1.881150 
# 
# From -- ./inp_files/331771.got.cif
#   From: 2010.05.17/outbox.cif.g08.bks.cpg/sg2_166_cif.got.tgz:331771.got - 2010.06.03 11:33:40.
