data_PCOD9047673
_publ_section_title
;
Structure prediction by ZEFSAII (Michael W. Deem and Ramdas Pophale) SiO2 
 PCOD9047673
Probable space group: P -1
;
_chemical_formula_sum "Si O2"
_cell_formula_units_Z 13
_cell_length_a 11.345141
_cell_length_b 5.670335
_cell_length_c 9.759046
_cell_angle_alpha 73.272719
_cell_angle_beta 78.993088
_cell_angle_gamma 109.351298
_cell_volume 538.046003
_symmetry_space_group_name_H-M "P -1"
_symmetry_group_IT_number 2
_symmetry_cell_setting 'triclinic'
loop_
_space_group_symop_operation_xyz
x,y,z
-x,-y,-z
loop_
_atom_site_type_symbol
_atom_site_label
_atom_site_fract_x
_atom_site_fract_y
_atom_site_fract_z
Si Si1 0.012777 0.416184 0.739982
Si Si2 0.405451 0.390566 0.741122
Si Si3 0.420115 0.782865 0.440824
Si Si4 0.114059 0.288004 0.468159
Si Si5 0.328805 0.179356 0.287757
Si Si6 0.177223 0.161190 0.043601
Si Si7 0.000000 0.500000 0.000000
O O1 0.919521 0.508482 0.654481
O O2 0.093641 0.336479 0.623041
O O3 0.083318 0.615522 0.813973
O O4 0.924424 0.154934 0.896751
O O5 0.377965 0.516673 0.586721
O O6 0.480740 0.211611 0.702317
O O7 0.517147 0.622860 0.769192
O O8 0.275089 0.243986 0.880654
O O9 0.500000 0.000000 0.500000
O O10 0.314687 0.883595 0.386361
O O11 0.251034 0.283391 0.395489
O O12 0.000000 0.000000 0.500000
O O13 0.261595 0.174777 0.158653
O O14 0.101052 0.353824 0.043222
#
# Coordination Sequence:
#
# PCOD9047673 Si02
#       7
#     2   2   2   2   2   2   1
#     4  11  25  44  70 102 140 191 234 297 350 422
#     4  10  24  44  69 103 140 183 225 291 357 425
#     4   9  22  43  65  97 135 184 232 276 347 422
#     4  11  23  45  71 100 138 183 243 289 347 421
#     4  11  23  43  73 103 137 181 239 291 352 423
#     4  12  26  45  69 106 143 183 237 293 362 418
#     4  12  26  46  66 100 150 184 234 290 358 416
#
# _framework density 24.161503
#
# number of rings (size 3 to 8) (size 9 to 14) (size 15 to 20)
#    0.000    1.231    3.077    0.923    2.154    9.231 
#    0.000    0.000    0.000    0.000    0.000    0.000 
#    0.000    0.000    0.000    0.000    0.000    0.000 
#
# Total GULP energy -72535.577241 kJ/mol
# GULP energy per Si atom -5579.659788 kJ/mol
# Density = 2.410651 g / cm^3
# Si number density = 24.161503 Si / 1000 Ang^3
#
#
#
# Elastic Constant Matrix: (Units=GPa)
#
#
# Indices 1 2 3 4 5 6 
#
# 1 117.0695 37.0076 53.0632 -17.1694 13.3228 -28.2378
# 2 37.0076 33.1179 15.4078 -7.7346 -2.0215 -20.3067
# 3 53.0632 15.4078 154.5274 12.8869 -7.3542 -22.8316
# 4 -17.1694 -7.7346 12.8869 40.9902 1.6236 4.4530
# 5 13.3228 -2.0215 -7.3542 1.6236 59.3907 3.5144
# 6 -28.2378 -20.3067 -22.8316 4.4530 3.5144 55.6045
#
#
#
# Elastic Compliance Matrix: (Units=1/GPa)
#
#
# Indices 1 2 3 4 5 6 
#
# 1 0.017455 -0.015439 -0.005068 0.006093 -0.005294 0.000991
# 2 -0.015439 0.055035 0.001740 0.001822 0.004761 0.012525
# 3 -0.005068 0.001740 0.008841 -0.004876 0.002310 0.001936
# 4 0.006093 0.001822 -0.004876 0.028974 -0.002677 -0.000394
# 5 -0.005294 0.004761 0.002310 -0.002677 0.018603 -0.000963
# 6 0.000991 0.012525 0.001936 -0.000394 -0.000963 0.023949
#
#
# Mechanical properties :
#
#
# Convention : Reuss Voigt Hill
#
# Bulk Modulus (GPa) = 22.83367 57.29690 40.06528
# Shear Modulus (GPa) = 24.39130 44.47950 34.43540
#
# Velocity S-wave (km/s) = 3.18073 4.29525 3.77930
# Velocity P-wave (km/s) = 4.79169 6.95446 5.97180
#
# Compressibility (1/GPa) = 0.04379497
#
# Stress axis : x y z
#
# Youngs Moduli (GPa) = 57.29026 18.17030 113.11173
#
# Poissons Ratio (x) = 0.28054 0.57325
# Poissons Ratio (y) = 0.88453 -0.19677
# Poissons Ratio (z) = 0.29035 -0.03161
#
# Static dielectric constant tensor:
#      x y z
#    x 1.900240 -0.100320 -0.070130 
#    y -0.100320 0.919660 -0.511460 
#    z -0.070130 -0.511460 1.677940 
# 
# From -- ./inp_files/29177.got.cif
#   From: 2010.05.17/outbox.cif.g08.bks.cpg/sg2_15_cif.got.tgz:29177.got - 2010.06.03 11:33:40.
