data_PCOD9047919
_publ_section_title
;
Structure prediction by ZEFSAII (Michael W. Deem and Ramdas Pophale) SiO2 
 PCOD9047919
Probable space group: P -1
;
_chemical_formula_sum "Si O2"
_cell_formula_units_Z 16
_cell_length_a 8.843009
_cell_length_b 18.874943
_cell_length_c 11.992361
_cell_angle_alpha 37.132152
_cell_angle_beta 142.849510
_cell_angle_gamma 142.362187
_cell_volume 659.108373
_symmetry_space_group_name_H-M "P -1"
_symmetry_group_IT_number 2
_symmetry_cell_setting 'triclinic'
loop_
_space_group_symop_operation_xyz
x,y,z
-x,-y,-z
loop_
_atom_site_type_symbol
_atom_site_label
_atom_site_fract_x
_atom_site_fract_y
_atom_site_fract_z
Si Si1 0.195089 0.146122 0.181674
Si Si2 0.580779 0.857226 0.029426
Si Si3 0.648237 0.729988 0.653025
Si Si4 0.101635 0.493115 0.693528
Si Si5 0.075554 0.649147 0.883923
Si Si6 0.228009 0.692653 0.686561
Si Si7 0.701718 0.200036 0.826116
Si Si8 0.771789 0.058414 0.706683
O O1 0.197725 0.162977 0.295683
O O2 0.456752 0.280246 0.127877
O O3 0.256748 0.032673 0.304040
O O4 0.892867 0.129916 0.985510
O O5 0.367304 0.718997 0.029273
O O6 0.578970 0.966122 0.805848
O O7 0.477343 0.857906 0.094481
O O8 0.894381 0.878734 0.164346
O O9 0.423540 0.595320 0.745319
O O10 0.492092 0.779695 0.407456
O O11 0.859802 0.683225 0.780655
O O12 0.033360 0.564287 0.668050
O O13 0.000000 0.500000 0.500000
O O14 0.951614 0.342059 0.822114
O O15 0.090416 0.710688 0.694080
O O16 0.000000 0.500000 0.000000
O O17 0.284340 0.815489 0.489064
#
# Coordination Sequence:
#
# PCOD9047919 Si02
#       8
#     2   2   2   2   2   2   2   2
#     4  11  24  44  75 102 143 195 242 305 345 437
#     4  11  25  45  71 104 143 194 243 303 356 434
#     4  10  24  44  71 110 145 193 240 296 373 432
#     4   9  22  42  74 103 142 188 237 300 357 441
#     4  12  25  44  73 111 150 186 241 307 371 435
#     4  11  24  45  70 108 142 194 242 297 371 430
#     4  11  23  47  72 110 146 188 250 298 375 420
#     4  11  26  48  73 101 148 198 250 293 362 433
#
# _framework density 24.275220999999998
#
# number of rings (size 3 to 8) (size 9 to 14) (size 15 to 20)
#    0.000    1.250    2.500    1.875    1.750    9.500 
#    0.000    8.750    0.000    0.000    0.000    0.000 
#    0.000    0.000    0.000    0.000    0.000    0.000 
#
# Total GULP energy -89312.052005 kJ/mol
# GULP energy per Si atom -5582.003250 kJ/mol
# Density = 2.421997 g / cm^3
# Si number density = 24.275221 Si / 1000 Ang^3
#
#
#
# Elastic Constant Matrix: (Units=GPa)
#
#
# Indices 1 2 3 4 5 6 
#
# 1 123.9423 19.0451 34.0116 -4.3375 -9.2917 -8.3683
# 2 19.0451 133.2959 22.4577 4.3391 3.1553 -8.9895
# 3 34.0116 22.4577 71.9810 -4.8576 2.4751 -2.9239
# 4 -4.3375 4.3391 -4.8576 32.9670 3.1256 -7.6503
# 5 -9.2917 3.1553 2.4751 3.1256 37.3855 -2.9132
# 6 -8.3683 -8.9895 -2.9239 -7.6503 -2.9132 43.4789
#
#
#
# Elastic Compliance Matrix: (Units=1/GPa)
#
#
# Indices 1 2 3 4 5 6 
#
# 1 0.009726 -0.000629 -0.004365 0.000867 0.002826 0.001790
# 2 -0.000629 0.008098 -0.002243 -0.001161 -0.000503 0.001164
# 3 -0.004365 -0.002243 0.016901 0.002447 -0.002210 0.000115
# 4 0.000867 -0.001161 0.002447 0.032476 -0.002122 0.005663
# 5 0.002826 -0.000503 -0.002210 -0.002122 0.027957 0.001791
# 6 0.001790 0.001164 0.000115 0.005663 0.001791 0.024709
#
#
# Mechanical properties :
#
#
# Convention : Reuss Voigt Hill
#
# Bulk Modulus (GPa) = 49.38172 53.36089 51.37130
# Shear Modulus (GPa) = 35.43788 39.67993 37.55891
#
# Velocity S-wave (km/s) = 3.82493 4.04739 3.93773
# Velocity P-wave (km/s) = 6.31612 6.62353 6.47165
#
# Compressibility (1/GPa) = 0.02025041
#
# Stress axis : x y z
#
# Youngs Moduli (GPa) = 102.81843 123.48560 59.16799
#
# Poissons Ratio (x) = 0.07761 0.25830
# Poissons Ratio (y) = 0.06462 0.13273
# Poissons Ratio (z) = 0.44885 0.27702
#
# Static dielectric constant tensor:
#      x y z
#    x 1.972780 -0.015160 -0.019470 
#    y -0.015160 1.959790 0.045980 
#    z -0.019470 0.045980 2.064560 
# 
# From -- ./inp_files/402910.got.cif
#   From: 2010.05.17/outbox.cif.g08.bks.cpg/sg2_202_cif.got.tgz:402910.got - 2010.06.03 11:33:40.
