data_PCOD9047574
_publ_section_title
;
Structure prediction by ZEFSAII (Michael W. Deem and Ramdas Pophale) SiO2 
 PCOD9047574
Probable space group: P -1
;
_chemical_formula_sum "Si O2"
_cell_formula_units_Z 16
_cell_length_a 9.414824
_cell_length_b 15.214247
_cell_length_c 9.209425
_cell_angle_alpha 107.137911
_cell_angle_beta 78.992743
_cell_angle_gamma 45.038556
_cell_volume 719.961902
_symmetry_space_group_name_H-M "P -1"
_symmetry_group_IT_number 2
_symmetry_cell_setting 'triclinic'
loop_
_space_group_symop_operation_xyz
x,y,z
-x,-y,-z
loop_
_atom_site_type_symbol
_atom_site_label
_atom_site_fract_x
_atom_site_fract_y
_atom_site_fract_z
Si Si1 0.622961 0.164963 0.454095
Si Si2 0.052560 0.182039 0.757367
Si Si3 0.641556 0.623344 0.900233
Si Si4 0.229679 0.811946 0.841300
Si Si5 0.815033 0.735459 0.434894
Si Si6 0.597250 0.330199 0.752558
Si Si7 0.161616 0.643306 0.819871
Si Si8 0.873930 0.650668 0.685620
O O1 0.608681 0.227485 0.337274
O O2 0.356254 0.258434 0.588727
O O3 0.720734 0.186397 0.563162
O O4 0.808298 0.984123 0.314572
O O5 0.792934 0.289706 0.782961
O O6 0.212111 0.158846 0.601408
O O7 0.002317 0.261972 0.955298
O O8 0.400980 0.716566 0.902986
O O9 0.695859 0.697594 0.864548
O O10 0.893870 0.438847 0.724057
O O11 0.579653 0.632726 0.082275
O O12 0.152581 0.747112 0.794571
O O13 0.000000 0.000000 0.000000
O O14 0.753424 0.771203 0.636014
O O15 0.432429 0.476331 0.746897
O O16 0.065950 0.614740 0.716585
O O17 0.000000 0.500000 0.500000
#
# Coordination Sequence:
#
# PCOD9047574 Si02
#       8
#     2   2   2   2   2   2   2   2
#     4  12  27  46  71 102 145 190 231 290 357 413
#     4  12  25  47  67 106 145 184 236 287 355 420
#     4  11  22  45  72  96 145 183 232 293 348 412
#     4  12  25  47  70 101 146 187 233 292 351 420
#     4  11  24  45  71 101 141 180 237 294 339 424
#     4  12  25  44  72 105 139 187 239 291 344 419
#     4  12  25  44  76 104 136 192 236 286 356 416
#     4  10  24  44  68 105 138 177 232 293 349 406
#
# _framework density 22.223398
#
# number of rings (size 3 to 8) (size 9 to 14) (size 15 to 20)
#    0.000    0.500    5.000    3.375    5.250    1.500 
#    0.000    1.250    0.000    0.000    0.000    0.000 
#    0.000    0.000    0.000    0.000    0.000    0.000 
#
# Total GULP energy -89465.772072 kJ/mol
# GULP energy per Si atom -5591.610755 kJ/mol
# Density = 2.217282 g / cm^3
# Si number density = 22.223398 Si / 1000 Ang^3
#
#
#
# Elastic Constant Matrix: (Units=GPa)
#
#
# Indices 1 2 3 4 5 6 
#
# 1 131.6634 42.8144 36.5966 -8.5939 8.1552 10.9832
# 2 42.8144 73.1204 30.9846 -10.0736 7.0127 19.5575
# 3 36.5966 30.9846 56.7416 -0.7558 8.5533 12.5209
# 4 -8.5939 -10.0736 -0.7558 34.6475 6.7570 -14.0807
# 5 8.1552 7.0127 8.5533 6.7570 38.7933 -8.3196
# 6 10.9832 19.5575 12.5209 -14.0807 -8.3196 38.8304
#
#
#
# Elastic Compliance Matrix: (Units=1/GPa)
#
#
# Indices 1 2 3 4 5 6 
#
# 1 0.010236 -0.004093 -0.004533 0.001825 -0.000476 0.001188
# 2 -0.004093 0.021741 -0.007061 0.002912 -0.003569 -0.007224
# 3 -0.004533 -0.007061 0.026310 -0.004268 -0.004132 -0.006078
# 4 0.001825 0.002912 -0.004268 0.035443 -0.003686 0.011456
# 5 -0.000476 -0.003569 -0.004132 -0.003686 0.029861 0.008326
# 6 0.001188 -0.007224 -0.006078 0.011456 0.008326 0.036953
#
#
# Mechanical properties :
#
#
# Convention : Reuss Voigt Hill
#
# Bulk Modulus (GPa) = 37.15693 53.59072 45.37383
# Shear Modulus (GPa) = 24.88951 32.52956 28.70953
#
# Velocity S-wave (km/s) = 3.35022 3.83005 3.59815
# Velocity P-wave (km/s) = 5.63217 6.61256 6.14196
#
# Compressibility (1/GPa) = 0.02691288
#
# Stress axis : x y z
#
# Youngs Moduli (GPa) = 97.69895 45.99702 38.00833
#
# Poissons Ratio (x) = 0.18828 0.17228
# Poissons Ratio (y) = 0.39991 0.26837
# Poissons Ratio (z) = 0.44283 0.32477
#
# Static dielectric constant tensor:
#      x y z
#    x 1.826990 0.012960 -0.026380 
#    y 0.012960 1.846470 -0.000700 
#    z -0.026380 -0.000700 1.822510 
# 
# From -- ./inp_files/208283.got.cif
#   From: 2010.05.17/outbox.cif.g08.bks.cpg/sg2_105_cif.got.tgz:208283.got - 2010.06.03 11:33:40.
