data_PCOD9047250
_publ_section_title
;
Structure prediction by ZEFSAII (Michael W. Deem and Ramdas Pophale) SiO2 
 PCOD9047250
Probable space group: P -1
;
_chemical_formula_sum "Si O2"
_cell_formula_units_Z 14
_cell_length_a 9.058857
_cell_length_b 8.610198
_cell_length_c 14.892239
_cell_angle_alpha 53.876651
_cell_angle_beta 37.773384
_cell_angle_gamma 62.780264
_cell_volume 574.635491
_symmetry_space_group_name_H-M "P -1"
_symmetry_group_IT_number 2
_symmetry_cell_setting 'triclinic'
loop_
_space_group_symop_operation_xyz
x,y,z
-x,-y,-z
loop_
_atom_site_type_symbol
_atom_site_label
_atom_site_fract_x
_atom_site_fract_y
_atom_site_fract_z
Si Si1 0.028244 0.313137 0.993120
Si Si2 0.934169 0.217538 0.435096
Si Si3 0.529363 0.434336 0.665421
Si Si4 0.184678 0.535754 0.315473
Si Si5 0.721478 0.051679 0.938882
Si Si6 0.451791 0.850527 0.492828
Si Si7 0.723503 0.066021 0.129399
O O1 0.261823 0.352128 0.805858
O O2 0.000000 0.500000 0.000000
O O3 0.783779 0.272846 0.071177
O O4 0.094243 0.125081 0.084441
O O5 0.716685 0.296499 0.574442
O O6 0.819778 0.201450 0.395220
O O7 0.142743 0.369601 0.317252
O O8 0.000000 0.000000 0.500000
O O9 0.572173 0.448859 0.747100
O O10 0.556527 0.646085 0.539732
O O11 0.153589 0.746865 0.216578
O O12 0.000000 0.500000 0.500000
O O13 0.609449 0.073076 0.084802
O O14 0.500000 0.000000 0.000000
O O15 0.500000 0.000000 0.500000
O O16 0.586083 0.945242 0.311107
O O17 0.000000 0.000000 0.000000
#
# Coordination Sequence:
#
# PCOD9047250 Si02
#       7
#     2   2   2   2   2   2   2
#     4  11  24  46  74 109 149 193 246 306 382 449
#     4  11  25  45  72 108 148 191 253 312 373 438
#     4  11  24  47  74 108 151 193 254 310 373 448
#     4  10  24  43  76 106 146 197 252 304 382 441
#     4  11  23  47  75 102 153 199 243 311 380 441
#     4  12  26  47  78 109 152 199 254 313 373 454
#     4  10  25  44  74 107 147 194 250 296 386 440
#
# _framework density 24.363268999999999
#
# number of rings (size 3 to 8) (size 9 to 14) (size 15 to 20)
#    0.000    1.143    1.429    3.857   12.000    0.000 
#    5.143    0.714    0.000    0.000    0.000    0.000 
#    0.000    0.000    0.000    0.000    0.000    0.000 
#
# Total GULP energy -78253.038102 kJ/mol
# GULP energy per Si atom -5589.502722 kJ/mol
# Density = 2.430782 g / cm^3
# Si number density = 24.363269 Si / 1000 Ang^3
#
#
#
# Elastic Constant Matrix: (Units=GPa)
#
#
# Indices 1 2 3 4 5 6 
#
# 1 174.4251 68.8833 31.3565 -21.3069 9.2695 46.3415
# 2 68.8833 177.6266 47.8883 -39.9514 16.5184 22.1020
# 3 31.3565 47.8883 134.9588 -31.4435 17.8440 11.2551
# 4 -21.3069 -39.9514 -31.4435 45.1217 4.1391 -6.8527
# 5 9.2695 16.5184 17.8440 4.1391 37.9407 -5.2771
# 6 46.3415 22.1020 11.2551 -6.8527 -5.2771 47.2121
#
#
#
# Elastic Compliance Matrix: (Units=1/GPa)
#
#
# Indices 1 2 3 4 5 6 
#
# 1 0.008915 -0.001863 -0.000035 0.001572 -0.002626 -0.007935
# 2 -0.001863 0.008480 -0.000417 0.006467 -0.003961 -0.001546
# 3 -0.000035 -0.000417 0.010041 0.006847 -0.005528 -0.001788
# 4 0.001572 0.006467 0.006847 0.033991 -0.010467 -0.002438
# 5 -0.002626 -0.003961 -0.005528 -0.010467 0.033575 0.007983
# 6 -0.007935 -0.001546 -0.001788 -0.002438 0.007983 0.030659
#
#
# Mechanical properties :
#
#
# Convention : Reuss Voigt Hill
#
# Bulk Modulus (GPa) = 43.84751 87.02964 65.43858
# Shear Modulus (GPa) = 36.26022 48.64709 42.45365
#
# Velocity S-wave (km/s) = 3.86205 4.47334 4.17889
# Velocity P-wave (km/s) = 6.15823 7.90444 7.08533
#
# Compressibility (1/GPa) = 0.02280631
#
# Stress axis : x y z
#
# Youngs Moduli (GPa) = 112.17238 117.92858 99.59120
#
# Poissons Ratio (x) = 0.21965 0.00351
# Poissons Ratio (y) = 0.20893 0.04151
# Poissons Ratio (z) = 0.00395 0.04915
#
# Static dielectric constant tensor:
#      x y z
#    x 2.103590 0.038730 -0.074880 
#    y 0.038730 2.026790 -0.000240 
#    z -0.074880 -0.000240 1.970280 
# 
# From -- ./inp_files/491944.got.cif
#   From: 2010.05.17/outbox.cif.g08.bks.cpg/sg2_246_cif.got.tgz:491944.got - 2010.06.03 11:33:40.
