data_PCOD9047176
_publ_section_title
;
Structure prediction by ZEFSAII (Michael W. Deem and Ramdas Pophale) SiO2 
 PCOD9047176
Probable space group: P -1
;
_chemical_formula_sum "Si O2"
_cell_formula_units_Z 15
_cell_length_a 9.337861
_cell_length_b 14.324471
_cell_length_c 15.379012
_cell_angle_alpha 41.647048
_cell_angle_beta 29.271903
_cell_angle_gamma 51.743113
_cell_volume 665.029644
_symmetry_space_group_name_H-M "P -1"
_symmetry_group_IT_number 2
_symmetry_cell_setting 'triclinic'
loop_
_space_group_symop_operation_xyz
x,y,z
-x,-y,-z
loop_
_atom_site_type_symbol
_atom_site_label
_atom_site_fract_x
_atom_site_fract_y
_atom_site_fract_z
Si Si1 0.119700 0.387185 0.276110
Si Si2 0.631646 0.209013 0.390625
Si Si3 0.892244 0.640695 0.497801
Si Si4 0.500000 0.500000 0.500000
Si Si5 0.343841 0.915455 0.062040
Si Si6 0.133270 0.153471 0.293276
Si Si7 0.846244 0.043025 0.139499
Si Si8 0.901442 0.325862 0.985635
O O1 0.199863 0.380009 0.339260
O O2 0.192985 0.254196 0.273942
O O3 0.767346 0.401696 0.449041
O O4 0.236844 0.531060 0.064972
O O5 0.368174 0.311209 0.459672
O O6 0.789143 0.250166 0.187004
O O7 0.886610 0.222984 0.317738
O O8 0.450168 0.054643 0.608610
O O9 0.000000 0.500000 0.500000
O O10 0.151086 0.766823 0.280359
O O11 0.247420 0.379479 0.759929
O O12 0.585367 0.878065 0.890085
O O13 0.098839 0.015519 0.092945
O O14 0.500000 0.000000 0.000000
O O15 0.000000 0.000000 0.500000
O O16 0.818342 0.208067 0.038890
O O17 0.000000 0.000000 0.000000
#
# Coordination Sequence:
#
# PCOD9047176 Si02
#       8
#     2   2   2   1   2   2   2   2
#     4  10  26  45  73 105 147 194 250 303 374 439
#     4  11  27  47  71 108 150 191 249 306 380 439
#     4  11  28  47  74 106 155 195 246 304 387 453
#     4   8  24  40  74 100 138 190 238 308 356 430
#     4  11  26  45  74 106 143 194 251 305 366 450
#     4  12  27  46  76 109 147 192 256 310 366 451
#     4  11  25  43  74 103 145 196 244 303 375 445
#     4  10  24  43  73 103 150 188 249 301 372 441
#
# _framework density 22.555385999999999
#
# number of rings (size 3 to 8) (size 9 to 14) (size 15 to 20)
#    0.800    0.533    0.000    2.800   14.933    5.333 
#    0.000    0.000    0.000    0.000    0.000    0.000 
#    0.000    0.000    0.000    0.000    0.000    0.000 
#
# Total GULP energy -83522.453840 kJ/mol
# GULP energy per Si atom -5568.163589 kJ/mol
# Density = 2.250405 g / cm^3
# Si number density = 22.555386 Si / 1000 Ang^3
#
#
#
# Elastic Constant Matrix: (Units=GPa)
#
#
# Indices 1 2 3 4 5 6 
#
# 1 83.7375 39.0331 27.0077 3.9791 -0.6836 0.3552
# 2 39.0331 137.1316 50.3716 -16.7183 -9.0511 16.9362
# 3 27.0077 50.3716 199.5971 7.4976 -3.1455 -1.0268
# 4 3.9791 -16.7183 7.4976 33.8132 -9.7561 -8.4471
# 5 -0.6836 -9.0511 -3.1455 -9.7561 29.9622 10.9031
# 6 0.3552 16.9362 -1.0268 -8.4471 10.9031 34.4827
#
#
#
# Elastic Compliance Matrix: (Units=1/GPa)
#
#
# Indices 1 2 3 4 5 6 
#
# 1 0.014652 -0.005029 -0.000588 -0.004530 -0.003565 0.002319
# 2 -0.005029 0.011950 -0.002533 0.007773 0.008150 -0.006566
# 3 -0.000588 -0.002533 0.005809 -0.002581 -0.001465 0.001254
# 4 -0.004530 0.007773 -0.002581 0.038922 0.014213 0.001192
# 5 -0.003565 0.008150 -0.001465 0.014213 0.045678 -0.014971
# 6 0.002319 -0.006566 0.001254 0.001192 -0.014971 0.037264
#
#
# Mechanical properties :
#
#
# Convention : Reuss Voigt Hill
#
# Bulk Modulus (GPa) = 62.06023 72.58788 67.32406
# Shear Modulus (GPa) = 28.41810 39.92187 34.16999
#
# Velocity S-wave (km/s) = 3.55339 4.21164 3.89644
# Velocity P-wave (km/s) = 6.66407 7.47680 7.08210
#
# Compressibility (1/GPa) = 0.01611338
#
# Stress axis : x y z
#
# Youngs Moduli (GPa) = 68.25041 83.67902 172.14381
#
# Poissons Ratio (x) = 0.42079 0.10115
# Poissons Ratio (y) = 0.34321 0.43600
# Poissons Ratio (z) = 0.04011 0.21194
#
# Static dielectric constant tensor:
#      x y z
#    x 2.314140 -0.191260 -0.018130 
#    y -0.191260 1.901940 0.020700 
#    z -0.018130 0.020700 1.851550 
# 
# From -- ./inp_files/502574.got.cif
#   From: 2010.05.17/outbox.cif.g08.bks.cpg/sg2_252_cif.got.tgz:502574.got - 2010.06.03 11:33:40.
