data_PCOD9047523
_publ_section_title
;
Structure prediction by ZEFSAII (Michael W. Deem and Ramdas Pophale) SiO2 
 PCOD9047523
Probable space group: P -1
;
_chemical_formula_sum "Si O2"
_cell_formula_units_Z 11
_cell_length_a 4.998078
_cell_length_b 9.477882
_cell_length_c 19.630132
_cell_angle_alpha 38.646966
_cell_angle_beta 118.051637
_cell_angle_gamma 100.361277
_cell_volume 481.974364
_symmetry_space_group_name_H-M "P -1"
_symmetry_group_IT_number 2
_symmetry_cell_setting 'triclinic'
loop_
_space_group_symop_operation_xyz
x,y,z
-x,-y,-z
loop_
_atom_site_type_symbol
_atom_site_label
_atom_site_fract_x
_atom_site_fract_y
_atom_site_fract_z
Si Si1 0.900508 0.395503 0.382012
Si Si2 0.197161 0.417418 0.264170
Si Si3 0.157224 0.944710 0.385121
Si Si4 0.692006 0.823654 0.285885
Si Si5 0.500000 0.500000 0.500000
Si Si6 0.706063 0.907234 0.991608
O O1 0.092458 0.378526 0.342624
O O2 0.935643 0.153895 0.517899
O O3 0.965184 0.587999 0.371176
O O4 0.518366 0.488814 0.281027
O O5 0.885003 0.621009 0.119259
O O6 0.266905 0.169640 0.326003
O O7 0.410725 0.720339 0.462686
O O8 0.851034 0.988441 0.283246
O O9 0.531529 0.694687 0.368363
O O10 0.486033 0.978483 0.142021
O O11 0.500000 0.000000 0.000000
O O12 0.000000 0.000000 0.000000
#
# Coordination Sequence:
#
# PCOD9047523 Si02
#       6
#     2   2   2   2   1   2
#     4  11  24  44  72  99 141 181 231 281 348 408
#     4  12  25  46  69 106 137 182 232 288 337 409
#     4  11  27  40  71 103 140 179 231 290 345 403
#     4  11  25  43  73  99 139 187 232 281 346 420
#     4  10  24  44  68 100 144 176 224 276 364 398
#     4  12  25  46  72  99 137 187 233 279 346 415
#
# _framework density 22.822790999999999
#
# number of rings (size 3 to 8) (size 9 to 14) (size 15 to 20)
#    0.000    0.727    3.636    3.273   15.273    0.727 
#    0.000    0.909    0.000    0.000    0.000    0.000 
#    0.000    0.000    0.000    0.000    0.000    0.000 
#
# Total GULP energy -61402.415581 kJ/mol
# GULP energy per Si atom -5582.037780 kJ/mol
# Density = 2.277085 g / cm^3
# Si number density = 22.822791 Si / 1000 Ang^3
#
#
#
# Elastic Constant Matrix: (Units=GPa)
#
#
# Indices 1 2 3 4 5 6 
#
# 1 121.5854 31.4512 12.0911 12.9392 -15.1908 -21.9119
# 2 31.4512 121.0492 49.3998 -6.6869 -9.4408 -1.3241
# 3 12.0911 49.3998 162.0795 34.3071 1.6678 -10.7395
# 4 12.9392 -6.6869 34.3071 48.4495 -1.5547 -0.5657
# 5 -15.1908 -9.4408 1.6678 -1.5547 26.4710 3.5119
# 6 -21.9119 -1.3241 -10.7395 -0.5657 3.5119 23.4041
#
#
#
# Elastic Compliance Matrix: (Units=1/GPa)
#
#
# Indices 1 2 3 4 5 6 
#
# 1 0.012024 -0.003813 0.002018 -0.004918 0.003624 0.011305
# 2 -0.003813 0.011882 -0.005077 0.006300 0.003482 -0.005598
# 3 0.002018 -0.005077 0.009731 -0.008140 -0.002574 0.006257
# 4 -0.004918 0.006300 -0.008140 0.028581 0.002636 -0.007688
# 5 0.003624 0.003482 -0.002574 0.002636 0.041923 -0.003818
# 6 0.011305 -0.005598 0.006257 -0.007688 -0.003818 0.056253
#
#
# Mechanical properties :
#
#
# Convention : Reuss Voigt Hill
#
# Bulk Modulus (GPa) = 50.27118 65.62203 57.94660
# Shear Modulus (GPa) = 27.65963 40.44973 34.05468
#
# Velocity S-wave (km/s) = 3.48506 4.21448 3.86701
# Velocity P-wave (km/s) = 6.18617 7.24553 6.73671
#
# Compressibility (1/GPa) = 0.01989211
#
# Stress axis : x y z
#
# Youngs Moduli (GPa) = 83.16808 84.15963 102.76728
#
# Poissons Ratio (x) = 0.32089 -0.20737
# Poissons Ratio (y) = 0.31711 0.52178
# Poissons Ratio (z) = -0.16782 0.42731
#
# Static dielectric constant tensor:
#      x y z
#    x 1.836150 0.015920 0.054010 
#    y 0.015920 1.819370 0.001570 
#    z 0.054010 0.001570 1.863790 
# 
# From -- ./inp_files/18864.got.cif
#   From: 2010.05.17/outbox.cif.g08.bks.cpg/sg2_10_cif.got.tgz:18864.got - 2010.06.03 11:33:40.
