data_PCOD9047294
_publ_section_title
;
Structure prediction by ZEFSAII (Michael W. Deem and Ramdas Pophale) SiO2 
 PCOD9047294
Probable space group: P -1
;
_chemical_formula_sum "Si O2"
_cell_formula_units_Z 16
_cell_length_a 24.338248
_cell_length_b 8.950010
_cell_length_c 8.253415
_cell_angle_alpha 71.718080
_cell_angle_beta 124.126108
_cell_angle_gamma 148.186320
_cell_volume 727.727602
_symmetry_space_group_name_H-M "P -1"
_symmetry_group_IT_number 2
_symmetry_cell_setting 'triclinic'
loop_
_space_group_symop_operation_xyz
x,y,z
-x,-y,-z
loop_
_atom_site_type_symbol
_atom_site_label
_atom_site_fract_x
_atom_site_fract_y
_atom_site_fract_z
Si Si1 0.784424 0.127301 0.389028
Si Si2 0.231722 0.326795 0.300509
Si Si3 0.983571 0.381767 0.839826
Si Si4 0.609400 0.359437 0.875243
Si Si5 0.767091 0.302026 0.840498
Si Si6 0.395824 0.014779 0.017237
Si Si7 0.679078 0.630328 0.227389
Si Si8 0.600889 0.812244 0.464332
O O1 0.764788 0.959409 0.274458
O O2 0.674543 0.863766 0.431658
O O3 0.921484 0.380574 0.612461
O O4 0.730891 0.184727 0.220457
O O5 0.194327 0.436054 0.198428
O O6 0.289932 0.410663 0.547424
O O7 0.117301 0.969210 0.205274
O O8 0.326458 0.494431 0.246024
O O9 0.000000 0.500000 0.000000
O O10 0.116810 0.569802 0.948949
O O11 0.576805 0.111253 0.926341
O O12 0.696467 0.587335 0.095060
O O13 0.483667 0.212260 0.724906
O O14 0.716131 0.120538 0.654329
O O15 0.644713 0.047458 0.843231
O O16 0.528496 0.371377 0.078750
O O17 0.500000 0.500000 0.500000
#
# Coordination Sequence:
#
# PCOD9047294 Si02
#       8
#     2   2   2   2   2   2   2   2
#     4  11  24  39  60  93 128 161 220 260 313 381
#     4  10  24  44  64 100 127 165 226 259 320 394
#     4  11  23  43  66  91 123 177 219 267 313 372
#     4  11  24  39  67  96 131 167 206 263 332 385
#     4  11  24  41  68  88 131 176 208 272 320 367
#     4  11  23  40  60  98 129 165 212 258 328 390
#     4  11  22  39  66  93 135 167 201 270 323 383
#     4  12  23  38  66  99 126 167 213 260 324 390
#
# _framework density 21.986249000000001
#
# number of rings (size 3 to 8) (size 9 to 14) (size 15 to 20)
#    0.000    1.000    2.500    4.875    3.500    2.500 
#    0.000    1.250    0.000    8.250    0.000    0.000 
#    0.000    0.000    0.000    0.000    0.000    0.000 
#
# Total GULP energy -89398.631688 kJ/mol
# GULP energy per Si atom -5587.414480 kJ/mol
# Density = 2.193621 g / cm^3
# Si number density = 21.986249 Si / 1000 Ang^3
#
#
#
# Elastic Constant Matrix: (Units=GPa)
#
#
# Indices 1 2 3 4 5 6 
#
# 1 86.4290 9.8210 40.5712 -0.0170 10.6936 -8.8040
# 2 9.8210 42.6398 25.2082 -4.6153 0.8392 -6.9787
# 3 40.5712 25.2082 141.1723 -2.3588 9.2684 -16.6773
# 4 -0.0170 -4.6153 -2.3588 32.5422 -8.9196 -1.3764
# 5 10.6936 0.8392 9.2684 -8.9196 31.3308 -1.5347
# 6 -8.8040 -6.9787 -16.6773 -1.3764 -1.5347 29.1263
#
#
#
# Elastic Compliance Matrix: (Units=1/GPa)
#
#
# Indices 1 2 3 4 5 6 
#
# 1 0.013951 -0.001000 -0.003380 -0.001416 -0.004052 0.001761
# 2 -0.001000 0.027255 -0.004164 0.004367 0.002291 0.004171
# 3 -0.003380 -0.004164 0.009264 -0.000159 -0.001363 0.003206
# 4 -0.001416 0.004367 -0.000159 0.034274 0.010302 0.002690
# 5 -0.004052 0.002291 -0.001363 0.010302 0.036622 0.000960
# 6 0.001761 0.004171 0.003206 0.002690 0.000960 0.037878
#
#
# Mechanical properties :
#
#
# Convention : Reuss Voigt Hill
#
# Bulk Modulus (GPa) = 29.95719 46.82690 38.39204
# Shear Modulus (GPa) = 26.67234 31.57590 29.12412
#
# Velocity S-wave (km/s) = 3.48679 3.79379 3.64352
# Velocity P-wave (km/s) = 5.46491 6.36671 5.93297
#
# Compressibility (1/GPa) = 0.03338097
#
# Stress axis : x y z
#
# Youngs Moduli (GPa) = 71.67902 36.69115 107.94340
#
# Poissons Ratio (x) = 0.03669 0.36489
# Poissons Ratio (y) = 0.07168 0.44947
# Poissons Ratio (z) = 0.24230 0.15278
#
# Static dielectric constant tensor:
#      x y z
#    x 1.791210 0.015350 -0.029190 
#    y 0.015350 1.821780 -0.059710 
#    z -0.029190 -0.059710 1.850020 
# 
# From -- ./inp_files/205901.got.cif
#   From: 2010.05.17/outbox.cif.g08.bks.cpg/sg2_103_cif.got.tgz:205901.got - 2010.06.03 11:33:40.
