data_PCOD9047885
_publ_section_title
;
Structure prediction by ZEFSAII (Michael W. Deem and Ramdas Pophale) SiO2 
 PCOD9047885
Probable space group: P -1
;
_chemical_formula_sum "Si O2"
_cell_formula_units_Z 14
_cell_length_a 4.939662
_cell_length_b 14.758728
_cell_length_c 18.945813
_cell_angle_alpha 25.338951
_cell_angle_beta 85.368481
_cell_angle_gamma 76.643552
_cell_volume 547.266923
_symmetry_space_group_name_H-M "P -1"
_symmetry_group_IT_number 2
_symmetry_cell_setting 'triclinic'
loop_
_space_group_symop_operation_xyz
x,y,z
-x,-y,-z
loop_
_atom_site_type_symbol
_atom_site_label
_atom_site_fract_x
_atom_site_fract_y
_atom_site_fract_z
Si Si1 0.410438 0.684413 0.474033
Si Si2 0.812177 0.094801 0.030879
Si Si3 0.759217 0.606405 0.990004
Si Si4 0.872741 0.110485 0.181448
Si Si5 0.542523 0.196116 0.775240
Si Si6 0.781624 0.607889 0.651594
Si Si7 0.801554 0.246729 0.359310
O O1 0.384472 0.437132 0.646858
O O2 0.468457 0.743811 0.350705
O O3 0.672116 0.677537 0.524722
O O4 0.109208 0.877806 0.368986
O O5 0.777431 0.081621 0.125200
O O6 0.572696 0.006195 0.067948
O O7 0.810515 0.343886 0.840891
O O8 0.120690 0.901028 0.141989
O O9 0.724474 0.417066 0.174631
O O10 0.433303 0.764661 0.859656
O O11 0.000000 0.500000 0.000000
O O12 0.921738 0.743101 0.933683
O O13 0.496116 0.751837 0.602148
O O14 0.041988 0.650634 0.657077
O O15 0.000000 0.000000 0.500000
#
# Coordination Sequence:
#
# PCOD9047885 Si02
#       7
#     2   2   2   2   2   2   2
#     4  10  26  45  70 112 143 188 233 291 350 416
#     4  11  21  43  73  96 138 194 226 289 343 415
#     4  12  25  46  74 100 132 184 239 287 352 420
#     4  11  23  44  72  99 141 184 233 282 343 425
#     4  10  24  44  71 103 147 184 239 286 342 414
#     4  12  26  46  74 102 145 184 235 288 362 419
#     4  12  27  50  70 103 141 181 231 302 357 411
#
# _framework density 25.581668000000001
#
# number of rings (size 3 to 8) (size 9 to 14) (size 15 to 20)
#    0.000    0.857    2.857    3.429    2.000   12.000 
#    0.000    0.000    0.000    0.000    0.000    0.000 
#    0.000    0.000    0.000    0.000    0.000    0.000 
#
# Total GULP energy -78478.548023 kJ/mol
# GULP energy per Si atom -5605.610573 kJ/mol
# Density = 2.552344 g / cm^3
# Si number density = 25.581668 Si / 1000 Ang^3
#
#
#
# Elastic Constant Matrix: (Units=GPa)
#
#
# Indices 1 2 3 4 5 6 
#
# 1 84.6622 -6.6450 3.0997 -2.0950 6.7082 6.5820
# 2 -6.6450 69.8295 28.4578 14.4390 7.8112 7.8490
# 3 3.0997 28.4578 123.0875 -21.0376 9.9362 1.3921
# 4 -2.0950 14.4390 -21.0376 46.7995 1.4831 8.8819
# 5 6.7082 7.8112 9.9362 1.4831 45.2134 -11.6973
# 6 6.5820 7.8490 1.3921 8.8819 -11.6973 37.6246
#
#
#
# Elastic Compliance Matrix: (Units=1/GPa)
#
#
# Indices 1 2 3 4 5 6 
#
# 1 0.012528 0.001993 -0.000388 0.000570 -0.003091 -0.003688
# 2 0.001993 0.018978 -0.005443 -0.007500 -0.002976 -0.003261
# 3 -0.000388 -0.005443 0.010730 0.006814 -0.001948 -0.001408
# 4 0.000570 -0.007500 0.006814 0.028054 -0.002834 -0.006291
# 5 -0.003091 -0.002976 -0.001948 -0.002834 0.026212 0.010052
# 6 -0.003688 -0.003261 -0.001408 -0.006291 0.010052 0.032566
#
#
# Mechanical properties :
#
#
# Convention : Reuss Voigt Hill
#
# Bulk Modulus (GPa) = 28.93393 36.37823 32.65608
# Shear Modulus (GPa) = 33.72349 42.77194 38.24771
#
# Velocity S-wave (km/s) = 3.63473 4.09342 3.87088
# Velocity P-wave (km/s) = 5.38052 6.04919 5.72463
#
# Compressibility (1/GPa) = 0.03456150
#
# Stress axis : x y z
#
# Youngs Moduli (GPa) = 79.82134 52.69126 93.19418
#
# Poissons Ratio (x) = -0.10499 0.03612
# Poissons Ratio (y) = -0.15905 0.50723
# Poissons Ratio (z) = 0.03094 0.28678
#
# Static dielectric constant tensor:
#      x y z
#    x 1.971880 -0.025040 -0.039420 
#    y -0.025040 2.096190 0.012290 
#    z -0.039420 0.012290 2.034380 
# 
# From -- ./inp_files/583604.got.cif
#   From: 2010.05.17/outbox.cif.g08.bks.cpg/sg2_292_cif.got.tgz:583604.got - 2010.06.03 11:33:40.
