data_PCOD9047248
_publ_section_title
;
Structure prediction by ZEFSAII (Michael W. Deem and Ramdas Pophale) SiO2 
 PCOD9047248
Probable space group: P -1
;
_chemical_formula_sum "Si O2"
_cell_formula_units_Z 10
_cell_length_a 10.809840
_cell_length_b 9.973011
_cell_length_c 5.050394
_cell_angle_alpha 125.918408
_cell_angle_beta 106.461377
_cell_angle_gamma 57.065981
_cell_volume 369.570684
_symmetry_space_group_name_H-M "P -1"
_symmetry_group_IT_number 2
_symmetry_cell_setting 'triclinic'
loop_
_space_group_symop_operation_xyz
x,y,z
-x,-y,-z
loop_
_atom_site_type_symbol
_atom_site_label
_atom_site_fract_x
_atom_site_fract_y
_atom_site_fract_z
Si Si1 0.312030 0.778107 0.171472
Si Si2 0.863536 0.359344 0.361171
Si Si3 0.668738 0.929286 0.109490
Si Si4 0.591111 0.571214 0.815042
Si Si5 0.838155 0.700329 0.433884
O O1 0.351244 0.572771 0.071931
O O2 0.298911 0.909876 0.562042
O O3 0.173886 0.804698 0.941689
O O4 0.547696 0.240284 0.929178
O O5 0.727973 0.511158 0.630626
O O6 0.880421 0.485781 0.283420
O O7 0.015162 0.288488 0.531953
O O8 0.718319 0.786899 0.228692
O O9 0.768715 0.826351 0.798745
O O10 0.500000 0.000000 0.000000
O O11 0.500000 0.500000 0.500000
#
# Coordination Sequence:
#
# PCOD9047248 Si02
#       5
#     2   2   2   2   2
#     4  10  24  43  76 106 143 196 245 298 361 434
#     4  10  25  47  78 106 147 192 250 294 363 448
#     4  12  30  49  71 109 154 192 242 308 368 428
#     4   9  21  41  73 105 141 191 249 296 347 439
#     4  11  29  49  75 110 149 195 238 307 370 428
#
# _framework density 27.058420000000002
#
# number of rings (size 3 to 8) (size 9 to 14) (size 15 to 20)
#    0.000    1.600    0.000    0.600   19.600    3.200 
#    0.000    0.000    0.000    0.000    0.000    0.000 
#    0.000    0.000    0.000    0.000    0.000    0.000 
#
# Total GULP energy -55902.182234 kJ/mol
# GULP energy per Si atom -5590.218223 kJ/mol
# Density = 2.699683 g / cm^3
# Si number density = 27.058420 Si / 1000 Ang^3
#
#
#
# Elastic Constant Matrix: (Units=GPa)
#
#
# Indices 1 2 3 4 5 6 
#
# 1 170.8678 17.6961 65.4457 -20.2754 20.2005 -37.8890
# 2 17.6961 75.9485 10.2847 -20.7970 6.1159 -6.3382
# 3 65.4457 10.2847 202.0660 -2.7915 5.1004 -27.5380
# 4 -20.2754 -20.7970 -2.7915 44.5573 0.4729 5.7302
# 5 20.2005 6.1159 5.1004 0.4729 55.7329 -11.8948
# 6 -37.8890 -6.3382 -27.5380 5.7302 -11.8948 45.4615
#
#
#
# Elastic Compliance Matrix: (Units=1/GPa)
#
#
# Indices 1 2 3 4 5 6 
#
# 1 0.008241 -0.000329 -0.001908 0.002873 -0.001767 0.004842
# 2 -0.000329 0.015366 -0.000502 0.006970 -0.001519 0.000289
# 3 -0.001908 -0.000502 0.005861 -0.001025 0.000688 0.002199
# 4 0.002873 0.006970 -0.001025 0.027124 -0.002210 -0.001252
# 5 -0.001767 -0.001519 0.000688 -0.002210 0.019588 0.004136
# 6 0.004842 0.000289 0.002199 -0.001252 0.004136 0.028644
#
#
# Mechanical properties :
#
#
# Convention : Reuss Voigt Hill
#
# Bulk Modulus (GPa) = 41.68252 70.63723 56.15988
# Shear Modulus (GPa) = 42.26590 52.84741 47.55665
#
# Velocity S-wave (km/s) = 3.95653 4.42417 4.19687
# Velocity P-wave (km/s) = 6.02580 7.22909 6.65470
#
# Compressibility (1/GPa) = 0.02399087
#
# Stress axis : x y z
#
# Youngs Moduli (GPa) = 121.34563 65.07710 170.63103
#
# Poissons Ratio (x) = 0.02139 0.32560
# Poissons Ratio (y) = 0.03988 0.08561
# Poissons Ratio (z) = 0.23155 0.03265
#
# Static dielectric constant tensor:
#      x y z
#    x 3.024560 0.015410 0.533490 
#    y 0.015410 2.379170 -0.085680 
#    z 0.533490 -0.085680 2.423760 
# 
# From -- ./inp_files/16055.got.cif
#   From: 2010.05.17/outbox.cif.g08.bks.cpg/sg2_9_cif.got.tgz:16055.got - 2010.06.03 11:33:40.
