data_PCOD9047155
_publ_section_title
;
Structure prediction by ZEFSAII (Michael W. Deem and Ramdas Pophale) SiO2 
 PCOD9047155
Probable space group: P -1
;
_chemical_formula_sum "Si O2"
_cell_formula_units_Z 16
_cell_length_a 7.824620
_cell_length_b 9.632723
_cell_length_c 11.529202
_cell_angle_alpha 57.894478
_cell_angle_beta 61.512236
_cell_angle_gamma 72.310605
_cell_volume 645.482417
_symmetry_space_group_name_H-M "P -1"
_symmetry_group_IT_number 2
_symmetry_cell_setting 'triclinic'
loop_
_space_group_symop_operation_xyz
x,y,z
-x,-y,-z
loop_
_atom_site_type_symbol
_atom_site_label
_atom_site_fract_x
_atom_site_fract_y
_atom_site_fract_z
Si Si1 0.757490 0.343206 0.882190
Si Si2 0.923101 0.805838 0.992908
Si Si3 0.744843 0.513298 0.253203
Si Si4 0.665942 0.969102 0.625866
Si Si5 0.904514 0.643318 0.386108
Si Si6 0.047982 0.826040 0.695035
Si Si7 0.394682 0.334399 0.343772
Si Si8 0.412941 0.975293 0.913172
O O1 0.690971 0.527239 0.782429
O O2 0.894962 0.305449 0.964848
O O3 0.907141 0.276594 0.761265
O O4 0.591062 0.220552 0.009582
O O5 0.765284 0.668510 0.094432
O O6 0.805953 0.939261 0.053324
O O7 0.990936 0.880479 0.818736
O O8 0.789946 0.574087 0.342680
O O9 0.905288 0.368238 0.236150
O O10 0.543294 0.434044 0.326924
O O11 0.539213 0.831763 0.670412
O O12 0.540241 0.046555 0.738331
O O13 0.859743 0.872854 0.657656
O O14 0.762049 0.096611 0.453949
O O15 0.758448 0.732302 0.484094
O O16 0.000000 0.500000 0.500000
O O17 0.500000 0.000000 0.000000
#
# Coordination Sequence:
#
# PCOD9047155 Si02
#       8
#     2   2   2   2   2   2   2   2
#     4  10  24  43  72  99 140 190 234 288 351 424
#     4  11  24  47  72 100 140 188 235 291 349 431
#     4  11  24  43  72 107 137 184 240 290 346 420
#     4  11  27  46  70 104 142 186 232 294 357 420
#     4   9  20  41  69 100 139 183 224 282 347 415
#     4  11  25  47  72  99 143 186 235 290 358 421
#     4  11  24  43  71 108 143 179 237 297 352 412
#     4  12  25  45  69 104 139 184 237 289 353 419
#
# _framework density 24.787661
#
# number of rings (size 3 to 8) (size 9 to 14) (size 15 to 20)
#    0.000    1.250    1.250    4.125    3.500    6.000 
#    0.000    0.000    0.000    0.000    0.000    0.000 
#    0.000    0.000    0.000    0.000    0.000    0.000 
#
# Total GULP energy -89403.807209 kJ/mol
# GULP energy per Si atom -5587.737951 kJ/mol
# Density = 2.473124 g / cm^3
# Si number density = 24.787661 Si / 1000 Ang^3
#
#
#
# Elastic Constant Matrix: (Units=GPa)
#
#
# Indices 1 2 3 4 5 6 
#
# 1 93.9919 7.1413 23.8098 -5.6003 16.0723 -4.3079
# 2 7.1413 74.1480 27.5088 0.6425 2.4934 -1.8121
# 3 23.8098 27.5088 151.5465 9.6349 -11.4994 10.4055
# 4 -5.6003 0.6425 9.6349 41.5004 -0.6015 1.2589
# 5 16.0723 2.4934 -11.4994 -0.6015 31.1087 -5.0400
# 6 -4.3079 -1.8121 10.4055 1.2589 -5.0400 22.5720
#
#
#
# Elastic Compliance Matrix: (Units=1/GPa)
#
#
# Indices 1 2 3 4 5 6 
#
# 1 0.012838 0.000106 -0.002873 0.002230 -0.007333 0.002022
# 2 0.000106 0.014708 -0.003008 0.000392 -0.001995 0.002121
# 3 -0.002873 -0.003008 0.008291 -0.002097 0.004173 -0.003563
# 4 0.002230 0.000392 -0.002097 0.024865 -0.001527 -0.000304
# 5 -0.007333 -0.001995 0.004173 -0.001527 0.038447 0.005187
# 6 0.002022 0.002121 -0.003563 -0.000304 0.005187 0.047676
#
#
# Mechanical properties :
#
#
# Convention : Reuss Voigt Hill
#
# Bulk Modulus (GPa) = 41.17581 48.51180 44.84380
# Shear Modulus (GPa) = 30.03506 36.45132 33.24319
#
# Velocity S-wave (km/s) = 3.48472 3.83893 3.66610
# Velocity P-wave (km/s) = 5.73049 6.26604 6.00424
#
# Compressibility (1/GPa) = 0.02428610
#
# Stress axis : x y z
#
# Youngs Moduli (GPa) = 77.89075 67.99068 120.61597
#
# Poissons Ratio (x) = -0.00722 0.34658
# Poissons Ratio (y) = -0.00827 0.36285
# Poissons Ratio (z) = 0.22381 0.20454
#
# Static dielectric constant tensor:
#      x y z
#    x 2.035370 -0.004510 0.008720 
#    y -0.004510 1.950250 0.036890 
#    z 0.008720 0.036890 2.003740 
# 
# From -- ./inp_files/381253.got.cif
#   From: 2010.05.17/outbox.cif.g08.bks.cpg/sg2_191_cif.got.tgz:381253.got - 2010.06.03 11:33:40.
