data_PCOD9047903
_publ_section_title
;
Structure prediction by ZEFSAII (Michael W. Deem and Ramdas Pophale) SiO2 
 PCOD9047903
Probable space group: P -1
;
_chemical_formula_sum "Si O2"
_cell_formula_units_Z 14
_cell_length_a 5.809849
_cell_length_b 17.344909
_cell_length_c 8.954140
_cell_angle_alpha 61.361977
_cell_angle_beta 95.623259
_cell_angle_gamma 130.586455
_cell_volume 569.626766
_symmetry_space_group_name_H-M "P -1"
_symmetry_group_IT_number 2
_symmetry_cell_setting 'triclinic'
loop_
_space_group_symop_operation_xyz
x,y,z
-x,-y,-z
loop_
_atom_site_type_symbol
_atom_site_label
_atom_site_fract_x
_atom_site_fract_y
_atom_site_fract_z
Si Si1 0.289836 0.395870 0.961445
Si Si2 0.767862 0.220648 0.558715
Si Si3 0.775530 0.009084 0.073148
Si Si4 0.409360 0.264732 0.936068
Si Si5 0.107851 0.850792 0.633192
Si Si6 0.048545 0.609998 0.339012
Si Si7 0.574599 0.837998 0.683535
O O1 0.494369 0.384420 0.879822
O O2 0.124685 0.413616 0.807454
O O3 0.500000 0.500000 0.000000
O O4 0.081498 0.272039 0.162819
O O5 0.431190 0.097759 0.718730
O O6 0.936945 0.186122 0.510400
O O7 0.990518 0.326077 0.595672
O O8 0.650107 0.251103 0.385765
O O9 0.500000 0.000000 0.000000
O O10 0.000000 0.000000 0.000000
O O11 0.033970 0.148406 0.012608
O O12 0.576844 0.284769 0.775621
O O13 0.524629 0.231459 0.104302
O O14 0.476073 0.914416 0.625873
O O15 0.925460 0.892056 0.623694
O O16 0.000000 0.500000 0.500000
#
# Coordination Sequence:
#
# PCOD9047903 Si02
#       7
#     2   2   2   2   2   2   2
#     4  11  26  46  70 101 150 199 243 306 366 447
#     4  10  24  44  71 105 148 179 249 300 367 428
#     4  12  27  46  75 106 149 194 236 310 371 438
#     4  11  25  47  73 104 145 194 252 290 381 443
#     4   9  21  42  69  97 138 185 234 292 356 423
#     4  12  26  43  72 108 143 194 247 306 371 440
#     4   9  21  41  72  97 142 183 235 297 351 432
#
# _framework density 24.577499
#
# number of rings (size 3 to 8) (size 9 to 14) (size 15 to 20)
#    0.857    0.571    2.857    0.857    8.000    2.857 
#    0.000    2.857    0.000    0.000    0.000    0.000 
#    0.000    0.000    0.000    0.000    0.000    0.000 
#
# Total GULP energy -78017.442454 kJ/mol
# GULP energy per Si atom -5572.674461 kJ/mol
# Density = 2.452156 g / cm^3
# Si number density = 24.577499 Si / 1000 Ang^3
#
#
#
# Elastic Constant Matrix: (Units=GPa)
#
#
# Indices 1 2 3 4 5 6 
#
# 1 182.8682 33.8914 56.6784 -4.5291 8.7284 -4.4778
# 2 33.8914 114.0161 35.5525 20.4063 19.9387 -3.1105
# 3 56.6784 35.5525 118.3703 9.6953 1.7364 -1.7840
# 4 -4.5291 20.4063 9.6953 23.3855 0.3662 1.2288
# 5 8.7284 19.9387 1.7364 0.3662 41.7091 10.9908
# 6 -4.4778 -3.1105 -1.7840 1.2288 10.9908 34.7626
#
#
#
# Elastic Compliance Matrix: (Units=1/GPa)
#
#
# Indices 1 2 3 4 5 6 
#
# 1 0.006892 -0.001656 -0.003113 0.004047 -0.000733 0.000668
# 2 -0.001656 0.013135 -0.002105 -0.010981 -0.006628 0.003338
# 3 -0.003113 -0.002105 0.010813 -0.003252 0.001326 -0.000339
# 4 0.004047 -0.010981 -0.003252 0.054615 0.005163 -0.004191
# 5 -0.000733 -0.006628 0.001326 0.005163 0.029899 -0.010255
# 6 0.000668 0.003338 -0.000339 -0.004191 -0.010255 0.032524
#
#
# Mechanical properties :
#
#
# Convention : Reuss Voigt Hill
#
# Bulk Modulus (GPa) = 58.51060 74.16659 66.33860
# Shear Modulus (GPa) = 29.88232 39.24693 34.56462
#
# Velocity S-wave (km/s) = 3.49067 4.00041 3.75420
# Velocity P-wave (km/s) = 6.33282 7.18191 6.77069
#
# Compressibility (1/GPa) = 0.01709092
#
# Stress axis : x y z
#
# Youngs Moduli (GPa) = 145.10071 76.13379 92.48222
#
# Poissons Ratio (x) = 0.12605 0.28792
# Poissons Ratio (y) = 0.24024 0.19471
# Poissons Ratio (z) = 0.45174 0.16029
#
# Static dielectric constant tensor:
#      x y z
#    x 2.055310 0.042190 -0.029380 
#    y 0.042190 2.030180 -0.026550 
#    z -0.029380 -0.026550 2.011740 
# 
# From -- ./inp_files/140576.got.cif
#   From: 2010.05.17/outbox.cif.g08.bks.cpg/sg2_71_cif.got.tgz:140576.got - 2010.06.03 11:33:40.
