data_PCOD9047204
_publ_section_title
;
Structure prediction by ZEFSAII (Michael W. Deem and Ramdas Pophale) SiO2 
 PCOD9047204
Probable space group: P -1
;
_chemical_formula_sum "Si O2"
_cell_formula_units_Z 10
_cell_length_a 15.063257
_cell_length_b 8.927504
_cell_length_c 11.218238
_cell_angle_alpha 41.971916
_cell_angle_beta 28.264488
_cell_angle_gamma 30.879128
_cell_volume 366.161504
_symmetry_space_group_name_H-M "P -1"
_symmetry_group_IT_number 2
_symmetry_cell_setting 'triclinic'
loop_
_space_group_symop_operation_xyz
x,y,z
-x,-y,-z
loop_
_atom_site_type_symbol
_atom_site_label
_atom_site_fract_x
_atom_site_fract_y
_atom_site_fract_z
Si Si1 0.149026 0.090798 0.986564
Si Si2 0.864440 0.679203 0.709381
Si Si3 0.670177 0.564375 0.425287
Si Si4 0.635383 0.172525 0.867540
Si Si5 0.870843 0.940474 0.307872
O O1 0.882825 0.350266 0.204571
O O2 0.313499 0.859921 0.034064
O O3 0.278985 0.220997 0.722617
O O4 0.083499 0.965600 0.034819
O O5 0.894769 0.843915 0.475681
O O6 0.074538 0.334482 0.660338
O O7 0.812895 0.844762 0.795301
O O8 0.627574 0.719643 0.923474
O O9 0.678127 0.373815 0.632364
O O10 0.402296 0.765087 0.564327
#
# Coordination Sequence:
#
# PCOD9047204 Si02
#       5
#     2   2   2   2   2
#     4  11  24  43  73 102 133 182 229 280 336 409
#     4  10  24  43  73  97 142 180 221 280 354 392
#     4  11  24  43  71 102 137 178 230 278 341 405
#     4  11  23  46  72 101 134 182 229 281 334 411
#     4  11  23  47  69  99 141 182 218 287 343 400
#
# _framework density 27.310355000000001
#
# number of rings (size 3 to 8) (size 9 to 14) (size 15 to 20)
#    0.000    1.200    4.000    1.200    0.000    3.200 
#    0.000    2.000    0.000    0.000    0.000    0.000 
#    0.000    0.000    0.000    0.000    0.000    0.000 
#
# Total GULP energy -56181.902731 kJ/mol
# GULP energy per Si atom -5618.190273 kJ/mol
# Density = 2.724820 g / cm^3
# Si number density = 27.310355 Si / 1000 Ang^3
#
#
#
# Elastic Constant Matrix: (Units=GPa)
#
#
# Indices 1 2 3 4 5 6 
#
# 1 150.5160 46.3906 21.4123 -25.3977 -28.9130 -5.8170
# 2 46.3906 131.7114 40.7720 -17.4751 -3.0675 -4.6267
# 3 21.4123 40.7720 122.2479 -37.1792 -36.7318 1.3027
# 4 -25.3977 -17.4751 -37.1792 58.6686 6.3227 1.7640
# 5 -28.9130 -3.0675 -36.7318 6.3227 45.3315 2.2710
# 6 -5.8170 -4.6267 1.3027 1.7640 2.2710 32.2985
#
#
#
# Elastic Compliance Matrix: (Units=1/GPa)
#
#
# Indices 1 2 3 4 5 6 
#
# 1 0.009508 -0.003570 0.003127 0.004189 0.007757 0.000301
# 2 -0.003570 0.010083 -0.004629 -0.000948 -0.005283 0.001411
# 3 0.003127 -0.004629 0.015867 0.008647 0.013440 -0.002157
# 4 0.004189 -0.000948 0.008647 0.023407 0.006422 -0.001460
# 5 0.007757 -0.005283 0.013440 0.006422 0.036787 -0.002839
# 6 0.000301 0.001411 -0.002157 -0.001460 -0.002839 0.031584
#
#
# Mechanical properties :
#
#
# Convention : Reuss Voigt Hill
#
# Bulk Modulus (GPa) = 39.50215 69.06947 54.28581
# Shear Modulus (GPa) = 34.28952 46.98641 40.63796
#
# Velocity S-wave (km/s) = 3.54722 4.15234 3.86165
# Velocity P-wave (km/s) = 5.59219 6.95232 6.30902
#
# Compressibility (1/GPa) = 0.02531508
#
# Stress axis : x y z
#
# Youngs Moduli (GPa) = 105.17782 99.17516 63.02302
#
# Poissons Ratio (x) = 0.35402 -0.19706
# Poissons Ratio (y) = 0.37545 0.29171
# Poissons Ratio (z) = -0.32886 0.45904
#
# Static dielectric constant tensor:
#      x y z
#    x 2.099060 0.011450 0.043750 
#    y 0.011450 2.092650 0.000870 
#    z 0.043750 0.000870 2.125090 
# 
# From -- ./inp_files/144199.got.cif
#   From: 2010.05.17/outbox.cif.g08.bks.cpg/sg2_73_cif.got.tgz:144199.got - 2010.06.03 11:33:40.
