data_PCOD9047658
_publ_section_title
;
Structure prediction by ZEFSAII (Michael W. Deem and Ramdas Pophale) SiO2 
 PCOD9047658
Probable space group: P -1
;
_chemical_formula_sum "Si O2"
_cell_formula_units_Z 14
_cell_length_a 11.067807
_cell_length_b 19.898617
_cell_length_c 6.140021
_cell_angle_alpha 62.881470
_cell_angle_beta 79.540705
_cell_angle_gamma 133.855120
_cell_volume 548.570615
_symmetry_space_group_name_H-M "P -1"
_symmetry_group_IT_number 2
_symmetry_cell_setting 'triclinic'
loop_
_space_group_symop_operation_xyz
x,y,z
-x,-y,-z
loop_
_atom_site_type_symbol
_atom_site_label
_atom_site_fract_x
_atom_site_fract_y
_atom_site_fract_z
Si Si1 0.866720 0.974177 0.275003
Si Si2 0.782789 0.187927 0.191902
Si Si3 0.273007 0.238187 0.093013
Si Si4 0.069884 0.833211 0.487577
Si Si5 0.307159 0.461328 0.230919
Si Si6 0.562264 0.170599 0.646420
Si Si7 0.991195 0.426077 0.442001
O O1 0.722841 0.846261 0.701057
O O2 0.637539 0.898185 0.351795
O O3 0.112267 0.150481 0.050931
O O4 0.000000 0.000000 0.000000
O O5 0.973107 0.227930 0.171062
O O6 0.740657 0.213738 0.382664
O O7 0.500000 0.000000 0.500000
O O8 0.889164 0.301366 0.808704
O O9 0.083894 0.172555 0.433557
O O10 0.539485 0.432344 0.751527
O O11 0.963120 0.728425 0.472194
O O12 0.375566 0.019429 0.085659
O O13 0.235132 0.511838 0.116614
O O14 0.500000 0.500000 0.000000
O O15 0.767600 0.329409 0.486210
O O16 0.000000 0.500000 0.500000
#
# Coordination Sequence:
#
# PCOD9047658 Si02
#       7
#     2   2   2   2   2   2   2
#     4  11  24  42  70 101 140 190 240 304 367 433
#     4  12  24  43  75 104 141 190 244 300 369 431
#     4  10  24  44  69 101 141 185 248 293 368 439
#     4  11  21  46  71 104 138 190 247 303 356 443
#     4  10  24  48  73  99 148 193 239 304 361 439
#     4  12  25  44  73 106 146 187 247 305 367 441
#     4  12  29  46  73 114 152 193 245 307 374 438
#
# _framework density 25.520875
#
# number of rings (size 3 to 8) (size 9 to 14) (size 15 to 20)
#    0.000    0.857    4.286    2.143    4.000    1.714 
#    0.000    2.143    0.000    0.000    0.000    0.000 
#    0.000    0.000    0.000    0.000    0.000    0.000 
#
# Total GULP energy -77990.845795 kJ/mol
# GULP energy per Si atom -5570.774700 kJ/mol
# Density = 2.546279 g / cm^3
# Si number density = 25.520875 Si / 1000 Ang^3
#
#
#
# Elastic Constant Matrix: (Units=GPa)
#
#
# Indices 1 2 3 4 5 6 
#
# 1 132.5744 52.7068 13.4372 -2.4937 1.4461 13.3184
# 2 52.7068 247.8252 4.3661 -32.9662 -5.2693 -7.1022
# 3 13.4372 4.3661 51.4695 -3.5619 6.0016 4.7095
# 4 -2.4937 -32.9662 -3.5619 22.8972 5.9964 -7.2334
# 5 1.4461 -5.2693 6.0016 5.9964 37.1459 9.7501
# 6 13.3184 -7.1022 4.7095 -7.2334 9.7501 50.9667
#
#
#
# Elastic Compliance Matrix: (Units=1/GPa)
#
#
# Indices 1 2 3 4 5 6 
#
# 1 0.009024 -0.002536 -0.002285 -0.004417 0.001255 -0.003367
# 2 -0.002536 0.005913 0.000734 0.009741 -0.001568 0.003101
# 3 -0.002285 0.000734 0.020772 0.005202 -0.004081 0.000299
# 4 -0.004417 0.009741 0.005202 0.066019 -0.013620 0.014006
# 5 0.001255 -0.001568 -0.004081 -0.013620 0.031649 -0.008157
# 6 -0.003367 0.003101 0.000299 0.014006 -0.008157 0.024453
#
#
# Mechanical properties :
#
#
# Convention : Reuss Voigt Hill
#
# Bulk Modulus (GPa) = 36.31817 63.65436 49.98627
# Shear Modulus (GPa) = 28.54164 46.29257 37.41710
#
# Velocity S-wave (km/s) = 3.34782 4.26362 3.83317
# Velocity P-wave (km/s) = 5.40422 7.01671 6.26258
#
# Compressibility (1/GPa) = 0.02753442
#
# Stress axis : x y z
#
# Youngs Moduli (GPa) = 110.81058 169.11960 48.14230
#
# Poissons Ratio (x) = 0.42895 0.10999
# Poissons Ratio (y) = 0.28106 -0.03532
# Poissons Ratio (z) = 0.25317 -0.12409
#
# Static dielectric constant tensor:
#      x y z
#    x 2.250420 0.026380 -0.041090 
#    y 0.026380 2.002610 -0.006610 
#    z -0.041090 -0.006610 2.284900 
# 
# From -- ./inp_files/83135.got.cif
#   From: 2010.05.17/outbox.cif.g08.bks.cpg/sg2_42_cif.got.tgz:83135.got - 2010.06.03 11:33:40.
