data_PCOD9047628
_publ_section_title
;
Structure prediction by ZEFSAII (Michael W. Deem and Ramdas Pophale) SiO2 
 PCOD9047628
Probable space group: P -1
;
_chemical_formula_sum "Si O2"
_cell_formula_units_Z 16
_cell_length_a 8.704008
_cell_length_b 11.918893
_cell_length_c 13.739818
_cell_angle_alpha 107.364752
_cell_angle_beta 31.260819
_cell_angle_gamma 99.456095
_cell_volume 694.003234
_symmetry_space_group_name_H-M "P -1"
_symmetry_group_IT_number 2
_symmetry_cell_setting 'triclinic'
loop_
_space_group_symop_operation_xyz
x,y,z
-x,-y,-z
loop_
_atom_site_type_symbol
_atom_site_label
_atom_site_fract_x
_atom_site_fract_y
_atom_site_fract_z
Si Si1 0.213324 0.334543 0.303221
Si Si2 0.258297 0.888794 0.852386
Si Si3 0.499062 0.358773 0.359527
Si Si4 0.589658 0.260904 0.646428
Si Si5 0.203136 0.410710 0.741235
Si Si6 0.316406 0.016247 0.501152
Si Si7 0.476227 0.475843 0.893907
Si Si8 0.666519 0.110143 0.957199
O O1 0.306285 0.325735 0.364354
O O2 0.260821 0.464389 0.279139
O O3 0.889303 0.302267 0.453721
O O4 0.452012 0.237386 0.088626
O O5 0.228580 0.754385 0.804326
O O6 0.535596 0.913631 0.643179
O O7 0.281596 0.890259 0.955671
O O8 0.000000 0.000000 0.000000
O O9 0.303936 0.375918 0.567540
O O10 0.631338 0.477512 0.296744
O O11 0.326576 0.304842 0.721838
O O12 0.663935 0.119469 0.582019
O O13 0.510291 0.339282 0.806549
O O14 0.846867 0.454614 0.950945
O O15 0.500000 0.000000 0.500000
O O16 0.980521 0.083650 0.723807
O O17 0.500000 0.500000 0.000000
O O18 0.500000 0.000000 0.000000
#
# Coordination Sequence:
#
# PCOD9047628 Si02
#       8
#     2   2   2   2   2   2   2   2
#     4  11  25  47  70  97 149 183 231 298 358 426
#     4  11  25  43  73 101 141 185 240 293 354 422
#     4  10  24  44  68  97 141 182 233 289 358 411
#     4  12  26  46  73 102 143 188 238 290 362 428
#     4  11  25  43  73 101 137 184 237 288 351 426
#     4  12  26  46  75 108 146 189 245 298 359 432
#     4  12  28  44  70 107 142 183 239 290 358 426
#     4  11  25  48  69 104 140 190 238 295 362 416
#
# _framework density 23.054646000000002
#
# number of rings (size 3 to 8) (size 9 to 14) (size 15 to 20)
#    0.000    0.750    3.750    2.250    8.750    1.500 
#    0.000    0.000    0.000    0.000    0.000    0.000 
#    0.000    0.000    0.000    0.000    0.000    0.000 
#
# Total GULP energy -89605.894483 kJ/mol
# GULP energy per Si atom -5600.368405 kJ/mol
# Density = 2.300217 g / cm^3
# Si number density = 23.054646 Si / 1000 Ang^3
#
#
#
# Elastic Constant Matrix: (Units=GPa)
#
#
# Indices 1 2 3 4 5 6 
#
# 1 47.3187 4.3413 34.0217 8.5997 14.0274 1.2468
# 2 4.3413 88.6953 21.2431 19.6352 11.6300 8.0668
# 3 34.0217 21.2431 140.7741 14.8757 7.1475 2.3663
# 4 8.5997 19.6352 14.8757 46.2720 0.1170 6.0218
# 5 14.0274 11.6300 7.1475 0.1170 43.3726 -0.6649
# 6 1.2468 8.0668 2.3663 6.0218 -0.6649 28.8171
#
#
#
# Elastic Compliance Matrix: (Units=1/GPa)
#
#
# Indices 1 2 3 4 5 6 
#
# 1 0.028976 0.002281 -0.006442 -0.004169 -0.008921 -0.000698
# 2 0.002281 0.013535 -0.001787 -0.005225 -0.004100 -0.002743
# 3 -0.006442 -0.001787 0.008972 -0.000967 0.001091 0.000269
# 4 -0.004169 -0.005225 -0.000967 0.025364 0.002786 -0.003514
# 5 -0.008921 -0.004100 0.001091 0.002786 0.026876 0.001482
# 6 -0.000698 -0.002743 0.000269 -0.003514 0.001482 0.036246
#
#
# Mechanical properties :
#
#
# Convention : Reuss Voigt Hill
#
# Bulk Modulus (GPa) = 25.26099 44.00004 34.63052
# Shear Modulus (GPa) = 30.29160 38.17114 34.23137
#
# Velocity S-wave (km/s) = 3.62871 4.07342 3.85748
# Velocity P-wave (km/s) = 5.34205 6.42263 5.90710
#
# Compressibility (1/GPa) = 0.03958673
#
# Stress axis : x y z
#
# Youngs Moduli (GPa) = 34.51111 73.88307 111.45356
#
# Poissons Ratio (x) = -0.16850 0.71797
# Poissons Ratio (y) = -0.07871 0.19918
# Poissons Ratio (z) = 0.22231 0.13204
#
# Static dielectric constant tensor:
#      x y z
#    x 1.826730 0.009290 -0.030210 
#    y 0.009290 1.832480 0.049190 
#    z -0.030210 0.049190 1.889180 
# 
# From -- ./inp_files/206732.got.cif
#   From: 2010.05.17/outbox.cif.g08.bks.cpg/sg2_104_cif.got.tgz:206732.got - 2010.06.03 11:33:40.
