data_PCOD9047260
_publ_section_title
;
Structure prediction by ZEFSAII (Michael W. Deem and Ramdas Pophale) SiO2 
 PCOD9047260
Probable space group: P -1
;
_chemical_formula_sum "Si O2"
_cell_formula_units_Z 10
_cell_length_a 12.943124
_cell_length_b 5.080218
_cell_length_c 8.414143
_cell_angle_alpha 89.210718
_cell_angle_beta 44.273389
_cell_angle_gamma 97.717784
_cell_volume 377.860928
_symmetry_space_group_name_H-M "P -1"
_symmetry_group_IT_number 2
_symmetry_cell_setting 'triclinic'
loop_
_space_group_symop_operation_xyz
x,y,z
-x,-y,-z
loop_
_atom_site_type_symbol
_atom_site_label
_atom_site_fract_x
_atom_site_fract_y
_atom_site_fract_z
Si Si1 0.939625 0.544352 0.812493
Si Si2 0.750043 0.138649 0.543597
Si Si3 0.858360 0.766784 0.204120
Si Si4 0.492631 0.398707 0.691854
Si Si5 0.661351 0.161087 0.987057
O O1 0.069009 0.793245 0.609699
O O2 0.058294 0.400842 0.769825
O O3 0.831147 0.337968 0.823342
O O4 0.828357 0.615193 0.070871
O O5 0.657481 0.349127 0.565780
O O6 0.663446 0.062524 0.804358
O O7 0.742549 0.914391 0.417679
O O8 0.000000 0.000000 0.000000
O O9 0.500000 0.500000 0.500000
O O10 0.437986 0.618879 0.861970
O O11 0.387742 0.100634 0.844881
#
# Coordination Sequence:
#
# PCOD9047260 Si02
#       5
#     2   2   2   2   2
#     4  10  24  43  78 114 153 198 258 311 380 460
#     4  11  26  49  79 113 158 202 251 321 386 452
#     4   9  22  41  73 109 158 197 253 304 385 450
#     4  12  31  51  77 111 158 207 259 312 387 463
#     4  12  29  50  80 117 154 198 259 323 385 449
#
# _framework density 26.464766000000001
#
# number of rings (size 3 to 8) (size 9 to 14) (size 15 to 20)
#    0.000    1.200    0.000    2.400   19.600    0.800 
#    0.000    0.000    0.000    0.000    0.000    0.000 
#    0.000    0.000    0.000    0.000    0.000    0.000 
#
# Total GULP energy -55888.343338 kJ/mol
# GULP energy per Si atom -5588.834334 kJ/mol
# Density = 2.640453 g / cm^3
# Si number density = 26.464766 Si / 1000 Ang^3
#
#
#
# Elastic Constant Matrix: (Units=GPa)
#
#
# Indices 1 2 3 4 5 6 
#
# 1 96.4480 28.1509 71.4610 6.7201 -5.7992 5.3378
# 2 28.1509 119.2662 58.7943 41.4832 5.3552 -11.7683
# 3 71.4610 58.7943 201.5951 37.2186 2.1598 -0.6330
# 4 6.7201 41.4832 37.2186 46.2798 15.5171 -11.1345
# 5 -5.7992 5.3552 2.1598 15.5171 59.6915 -0.5917
# 6 5.3378 -11.7683 -0.6330 -11.1345 -0.5917 46.6617
#
#
#
# Elastic Compliance Matrix: (Units=1/GPa)
#
#
# Indices 1 2 3 4 5 6 
#
# 1 0.014817 -0.002310 -0.005230 0.003452 0.000924 -0.001513
# 2 -0.002310 0.013305 -0.001041 -0.011015 0.001493 0.000996
# 3 -0.005230 -0.001041 0.008069 -0.005199 0.000637 -0.000787
# 4 0.003452 -0.011015 -0.005199 0.039544 -0.008708 0.006082
# 5 0.000924 0.001493 0.000637 -0.008708 0.018934 -0.001558
# 6 -0.001513 0.000996 -0.000787 0.006082 -0.001558 0.023276
#
#
# Mechanical properties :
#
#
# Convention : Reuss Voigt Hill
#
# Bulk Modulus (GPa) = 52.55469 81.56908 67.06188
# Shear Modulus (GPa) = 35.34816 47.78680 41.56748
#
# Velocity S-wave (km/s) = 3.65864 4.25393 3.96747
# Velocity P-wave (km/s) = 6.14403 7.41732 6.81049
#
# Compressibility (1/GPa) = 0.01902780
#
# Stress axis : x y z
#
# Youngs Moduli (GPa) = 67.49156 75.15731 123.93617
#
# Poissons Ratio (x) = 0.17363 0.64823
# Poissons Ratio (y) = 0.15592 0.12900
# Poissons Ratio (z) = 0.35300 0.07823
#
# Static dielectric constant tensor:
#      x y z
#    x 2.047580 -0.034580 0.056540 
#    y -0.034580 1.787040 0.110890 
#    z 0.056540 0.110890 2.039140 
# 
# From -- ./inp_files/287056.got.cif
#   From: 2010.05.17/outbox.cif.g08.bks.cpg/sg2_144_cif.got.tgz:287056.got - 2010.06.03 11:33:40.
