data_PCOD9047435
_publ_section_title
;
Structure prediction by ZEFSAII (Michael W. Deem and Ramdas Pophale) SiO2 
 PCOD9047435
Probable space group: P -1
;
_chemical_formula_sum "Si O2"
_cell_formula_units_Z 12
_cell_length_a 9.024849
_cell_length_b 20.360084
_cell_length_c 9.865125
_cell_angle_alpha 32.174442
_cell_angle_beta 138.663311
_cell_angle_gamma 151.399502
_cell_volume 461.855154
_symmetry_space_group_name_H-M "P -1"
_symmetry_group_IT_number 2
_symmetry_cell_setting 'triclinic'
loop_
_space_group_symop_operation_xyz
x,y,z
-x,-y,-z
loop_
_atom_site_type_symbol
_atom_site_label
_atom_site_fract_x
_atom_site_fract_y
_atom_site_fract_z
Si Si1 0.288825 0.868979 0.459673
Si Si2 0.053441 0.538544 0.627059
Si Si3 0.266350 0.257029 0.326800
Si Si4 0.735103 0.663483 0.279396
Si Si5 0.298635 0.992943 0.765500
Si Si6 0.151745 0.436860 0.120045
O O1 0.522982 0.926767 0.396249
O O2 0.000180 0.835781 0.247562
O O3 0.086952 0.681777 0.714412
O O4 0.500000 0.000000 0.500000
O O5 0.406250 0.624724 0.726223
O O6 0.000000 0.500000 0.500000
O O7 0.945813 0.637279 0.401787
O O8 0.940133 0.418645 0.888461
O O9 0.205311 0.088344 0.601589
O O10 0.250666 0.338983 0.301189
O O11 0.004741 0.198959 0.144154
O O12 0.500000 0.500000 0.500000
O O13 0.479654 0.620217 0.075453
O O14 0.500000 0.000000 0.000000
#
# Coordination Sequence:
#
# PCOD9047435 Si02
#       6
#     2   2   2   2   2   2
#     4  11  23  46  70  99 142 187 234 288 357 421
#     4  12  25  41  73 106 141 187 239 296 357 418
#     4  11  24  43  70 106 139 185 240 284 363 415
#     4  10  24  44  67 100 142 180 241 287 361 416
#     4  11  26  45  73 102 144 187 239 294 349 427
#     4  11  25  44  72 103 145 184 239 298 352 427
#
# _framework density 25.982173
#
# number of rings (size 3 to 8) (size 9 to 14) (size 15 to 20)
#    0.000    1.000    5.000    0.500    4.667    2.667 
#    0.000    2.500    0.000    0.000    0.000    0.000 
#    0.000    0.000    0.000    0.000    0.000    0.000 
#
# Total GULP energy -66920.888039 kJ/mol
# GULP energy per Si atom -5576.740670 kJ/mol
# Density = 2.592304 g / cm^3
# Si number density = 25.982173 Si / 1000 Ang^3
#
#
#
# Elastic Constant Matrix: (Units=GPa)
#
#
# Indices 1 2 3 4 5 6 
#
# 1 156.0430 44.8475 46.3369 16.9683 -0.3354 -4.0422
# 2 44.8475 156.6590 44.9018 54.7752 -7.3622 -1.2129
# 3 46.3369 44.9018 126.7514 44.9480 -21.6597 -5.0997
# 4 16.9683 54.7752 44.9480 45.2094 -0.2192 -7.6818
# 5 -0.3354 -7.3622 -21.6597 -0.2192 44.6016 -1.3377
# 6 -4.0422 -1.2129 -5.0997 -7.6818 -1.3377 47.6389
#
#
#
# Elastic Compliance Matrix: (Units=1/GPa)
#
#
# Indices 1 2 3 4 5 6 
#
# 1 0.007867 -0.002755 -0.003736 0.004229 -0.002165 0.000818
# 2 -0.002755 0.012680 0.003480 -0.018174 0.003602 -0.002368
# 3 -0.003736 0.003480 0.016128 -0.019037 0.008245 -0.001340
# 4 0.004229 -0.018174 -0.019037 0.062720 -0.011675 0.007644
# 5 -0.002165 0.003602 0.008245 -0.011675 0.026936 -0.000336
# 6 0.000818 -0.002368 -0.001340 0.007644 -0.000336 0.022080
#
#
# Mechanical properties :
#
#
# Convention : Reuss Voigt Hill
#
# Bulk Modulus (GPa) = 32.62403 79.06953 55.84678
# Shear Modulus (GPa) = 30.36733 47.71445 39.04089
#
# Velocity S-wave (km/s) = 3.42245 4.29001 3.88055
# Velocity P-wave (km/s) = 5.31047 7.41870 6.45129
#
# Compressibility (1/GPa) = 0.03065225
#
# Stress axis : x y z
#
# Youngs Moduli (GPa) = 127.12082 78.86593 62.00246
#
# Poissons Ratio (x) = 0.21728 0.23167
# Poissons Ratio (y) = 0.35022 -0.21579
# Poissons Ratio (z) = 0.47498 -0.27448
#
# Static dielectric constant tensor:
#      x y z
#    x 2.570800 0.092730 -0.930650 
#    y 0.092730 2.212930 -0.166690 
#    z -0.930650 -0.166690 3.606190 
# 
# From -- ./inp_files/220408.got.cif
#   From: 2010.05.17/outbox.cif.g08.bks.cpg/sg2_111_cif.got.tgz:220408.got - 2010.06.03 11:33:40.
