data_PCOD9047689
_publ_section_title
;
Structure prediction by ZEFSAII (Michael W. Deem and Ramdas Pophale) SiO2 
 PCOD9047689
Probable space group: P -1
;
_chemical_formula_sum "Si O2"
_cell_formula_units_Z 16
_cell_length_a 9.002320
_cell_length_b 8.673150
_cell_length_c 19.268630
_cell_angle_alpha 42.471267
_cell_angle_beta 138.299309
_cell_angle_gamma 131.389635
_cell_volume 655.032419
_symmetry_space_group_name_H-M "P -1"
_symmetry_group_IT_number 2
_symmetry_cell_setting 'triclinic'
loop_
_space_group_symop_operation_xyz
x,y,z
-x,-y,-z
loop_
_atom_site_type_symbol
_atom_site_label
_atom_site_fract_x
_atom_site_fract_y
_atom_site_fract_z
Si Si1 0.034873 0.024874 0.825776
Si Si2 0.939027 0.452955 0.735065
Si Si3 0.083607 0.634649 0.084772
Si Si4 0.542412 0.536518 0.821525
Si Si5 0.409721 0.859546 0.781224
Si Si6 0.253625 0.180243 0.528706
Si Si7 0.364752 0.793733 0.937978
Si Si8 0.466452 0.075506 0.386490
O O1 0.008461 0.263223 0.773037
O O2 0.798997 0.954175 0.719771
O O3 0.233145 0.984180 0.855547
O O4 0.057371 0.854731 0.955699
O O5 0.772225 0.571336 0.591304
O O6 0.859088 0.346198 0.819203
O O7 0.162516 0.668498 0.755636
O O8 0.841275 0.441128 0.062401
O O9 0.258500 0.527306 0.135341
O O10 0.555740 0.744618 0.815925
O O11 0.407138 0.651635 0.678790
O O12 0.472469 0.299577 0.921147
O O13 0.492055 0.861432 0.887827
O O14 0.367092 0.112231 0.661714
O O15 0.411305 0.087287 0.560650
O O16 0.000000 0.000000 0.500000
O O17 0.500000 0.000000 0.500000
#
# Coordination Sequence:
#
# PCOD9047689 Si02
#       8
#     2   2   2   2   2   2   2   2
#     4  11  21  35  57  88 114 137 188 233 273 326
#     4  10  21  37  57  80 116 150 177 226 287 318
#     4  10  18  35  60  83 111 146 181 226 277 331
#     4  10  17  34  57  87 107 137 194 231 260 326
#     4   9  20  34  60  79 110 153 187 219 272 333
#     4   9  20  37  56  76 109 149 189 220 269 329
#     4  10  18  34  59  84 109 145 186 229 272 326
#     4  11  21  33  59  83 107 143 189 230 271 324
#
# _framework density 24.426272000000001
#
# number of rings (size 3 to 8) (size 9 to 14) (size 15 to 20)
#    0.000    2.000    2.500    2.250    3.500    0.500 
#    0.000    3.125    5.500    0.000    0.000    0.000 
#    0.000    0.000    0.000    0.000    0.000    0.000 
#
# Total GULP energy -89196.242774 kJ/mol
# GULP energy per Si atom -5574.765173 kJ/mol
# Density = 2.437068 g / cm^3
# Si number density = 24.426272 Si / 1000 Ang^3
#
#
#
# Elastic Constant Matrix: (Units=GPa)
#
#
# Indices 1 2 3 4 5 6 
#
# 1 90.8310 15.9890 81.7818 -8.6931 -15.2358 -24.9082
# 2 15.9890 52.0492 56.4729 -7.0802 6.2896 -3.2396
# 3 81.7818 56.4729 214.2909 -24.4161 -8.9853 -29.5432
# 4 -8.6931 -7.0802 -24.4161 35.6750 -15.4606 7.3341
# 5 -15.2358 6.2896 -8.9853 -15.4606 51.4730 -5.2886
# 6 -24.9082 -3.2396 -29.5432 7.3341 -5.2886 24.2112
#
#
#
# Elastic Compliance Matrix: (Units=1/GPa)
#
#
# Indices 1 2 3 4 5 6 
#
# 1 0.022282 -0.000637 -0.005422 0.001439 0.007960 0.017525
# 2 -0.000637 0.029472 -0.009247 -0.001764 -0.006854 -0.008959
# 3 -0.005422 -0.009247 0.010556 0.004348 0.003234 0.005454
# 4 0.001439 -0.001764 0.004348 0.036696 0.012228 -0.001895
# 5 0.007960 -0.006854 0.003234 0.012228 0.028265 0.013688
# 6 0.017525 -0.008959 0.005454 -0.001895 0.013688 0.068354
#
#
# Mechanical properties :
#
#
# Convention : Reuss Voigt Hill
#
# Bulk Modulus (GPa) = 31.54861 73.96203 52.75532
# Shear Modulus (GPa) = 21.11457 35.80033 28.45745
#
# Velocity S-wave (km/s) = 2.94329 3.83253 3.41696
# Velocity P-wave (km/s) = 4.94919 7.06611 6.10018
#
# Compressibility (1/GPa) = 0.03169712
#
# Stress axis : x y z
#
# Youngs Moduli (GPa) = 44.87906 33.93035 94.73547
#
# Poissons Ratio (x) = 0.02163 0.51365
# Poissons Ratio (y) = 0.02860 0.87603
# Poissons Ratio (z) = 0.24333 0.31376
#
# Static dielectric constant tensor:
#      x y z
#    x 1.982630 0.128400 -0.068630 
#    y 0.128400 2.098980 0.032220 
#    z -0.068630 0.032220 2.045050 
# 
# From -- ./inp_files/200747.got.cif
#   From: 2010.05.17/outbox.cif.g08.bks.cpg/sg2_101_cif.got.tgz:200747.got - 2010.06.03 11:33:40.
