data_PCOD9047661
_publ_section_title
;
Structure prediction by ZEFSAII (Michael W. Deem and Ramdas Pophale) SiO2 
 PCOD9047661
Probable space group: P -1
;
_chemical_formula_sum "Si O2"
_cell_formula_units_Z 16
_cell_length_a 7.940496
_cell_length_b 8.756495
_cell_length_c 12.241309
_cell_angle_alpha 64.094649
_cell_angle_beta 108.280933
_cell_angle_gamma 113.100515
_cell_volume 693.745560
_symmetry_space_group_name_H-M "P -1"
_symmetry_group_IT_number 2
_symmetry_cell_setting 'triclinic'
loop_
_space_group_symop_operation_xyz
x,y,z
-x,-y,-z
loop_
_atom_site_type_symbol
_atom_site_label
_atom_site_fract_x
_atom_site_fract_y
_atom_site_fract_z
Si Si1 0.023617 0.389725 0.935599
Si Si2 0.212775 0.524507 0.496190
Si Si3 0.276325 0.043978 0.835771
Si Si4 0.739656 0.859855 0.942971
Si Si5 0.661379 0.279694 0.159818
Si Si6 0.041228 0.130588 0.571625
Si Si7 0.653050 0.174176 0.435817
Si Si8 0.683830 0.223702 0.769041
O O1 0.189680 0.528827 0.859321
O O2 0.833259 0.335975 0.849197
O O3 0.094111 0.219551 0.025455
O O4 0.000000 0.500000 0.000000
O O5 0.195282 0.322077 0.523364
O O6 0.349450 0.629283 0.587470
O O7 0.283319 0.655852 0.368601
O O8 0.000000 0.500000 0.500000
O O9 0.113554 0.060575 0.717307
O O10 0.474710 0.165382 0.790541
O O11 0.287322 0.843526 0.884712
O O12 0.260503 0.099421 0.940029
O O13 0.545254 0.719707 0.911279
O O14 0.738623 0.040525 0.825174
O O15 0.660913 0.177861 0.305699
O O16 0.840832 0.158523 0.533319
O O17 0.000000 0.000000 0.500000
O O18 0.500000 0.000000 0.500000
#
# Coordination Sequence:
#
# PCOD9047661 Si02
#       8
#     2   2   2   2   2   2   2   2
#     4  12  25  44  68 107 140 176 241 296 360 436
#     4  10  24  44  69 101 143 191 241 298 354 427
#     4  11  24  45  72 102 148 188 238 296 359 443
#     4  11  25  45  73 101 139 195 234 291 376 431
#     4  11  23  45  69 102 149 186 233 298 353 427
#     4  11  24  45  70 104 143 194 239 298 369 413
#     4  11  23  45  70 103 144 188 243 296 352 433
#     4  11  24  46  70 101 144 188 243 296 356 434
#
# _framework density 23.063210000000002
#
# number of rings (size 3 to 8) (size 9 to 14) (size 15 to 20)
#    0.000    1.000    1.250    6.750    5.250    0.500 
#    4.500    0.000    0.000    0.000    0.000    0.000 
#    0.000    0.000    0.000    0.000    0.000    0.000 
#
# Total GULP energy -89471.126119 kJ/mol
# GULP energy per Si atom -5591.945382 kJ/mol
# Density = 2.301072 g / cm^3
# Si number density = 23.063210 Si / 1000 Ang^3
#
#
#
# Elastic Constant Matrix: (Units=GPa)
#
#
# Indices 1 2 3 4 5 6 
#
# 1 73.3217 24.5661 26.4645 9.0566 6.0659 10.9138
# 2 24.5661 140.4957 8.8040 4.9763 -12.9334 22.8673
# 3 26.4645 8.8040 78.0829 2.7106 -0.5412 7.6692
# 4 9.0566 4.9763 2.7106 42.1293 16.6175 -0.5242
# 5 6.0659 -12.9334 -0.5412 16.6175 32.1869 4.9753
# 6 10.9138 22.8673 7.6692 -0.5242 4.9753 45.9870
#
#
#
# Elastic Compliance Matrix: (Units=1/GPa)
#
#
# Indices 1 2 3 4 5 6 
#
# 1 0.017167 -0.002653 -0.005329 -0.001777 -0.003236 -0.001537
# 2 -0.002653 0.009018 0.000495 -0.003139 0.006475 -0.004674
# 3 -0.005329 0.000495 0.014760 -0.000701 0.002072 -0.001675
# 4 -0.001777 -0.003139 -0.000701 0.031679 -0.017974 0.004405
# 5 -0.003236 0.006475 0.002072 -0.017974 0.044808 -0.007850
# 6 -0.001537 -0.004674 -0.001675 0.004405 -0.007850 0.025613
#
#
# Mechanical properties :
#
#
# Convention : Reuss Voigt Hill
#
# Bulk Modulus (GPa) = 38.50216 45.72992 42.11604
# Shear Modulus (GPa) = 29.99831 39.53169 34.76500
#
# Velocity S-wave (km/s) = 3.61043 4.14461 3.88671
# Velocity P-wave (km/s) = 5.84044 6.54025 6.20023
#
# Compressibility (1/GPa) = 0.02597257
#
# Stress axis : x y z
#
# Youngs Moduli (GPa) = 58.25279 110.88428 67.74860
#
# Poissons Ratio (x) = 0.29412 0.36103
# Poissons Ratio (y) = 0.15452 -0.03354
# Poissons Ratio (z) = 0.31043 -0.05490
#
# Static dielectric constant tensor:
#      x y z
#    x 1.940310 -0.096840 -0.035190 
#    y -0.096840 2.033620 -0.012260 
#    z -0.035190 -0.012260 1.864610 
# 
# From -- ./inp_files/381425.got.cif
#   From: 2010.05.17/outbox.cif.g08.bks.cpg/sg2_191_cif.got.tgz:381425.got - 2010.06.03 11:33:40.
