data_PCOD9047000
_publ_section_title
;
Structure prediction by ZEFSAII (Michael W. Deem and Ramdas Pophale) SiO2 
 PCOD9047000
Probable space group: P -1
;
_chemical_formula_sum "Si O2"
_cell_formula_units_Z 13
_cell_length_a 16.188905
_cell_length_b 5.817995
_cell_length_c 6.165498
_cell_angle_alpha 91.259824
_cell_angle_beta 87.767067
_cell_angle_gamma 72.413464
_cell_volume 552.800356
_symmetry_space_group_name_H-M "P -1"
_symmetry_group_IT_number 2
_symmetry_cell_setting 'triclinic'
loop_
_space_group_symop_operation_xyz
x,y,z
-x,-y,-z
loop_
_atom_site_type_symbol
_atom_site_label
_atom_site_fract_x
_atom_site_fract_y
_atom_site_fract_z
Si Si1 0.567560 0.125880 0.595033
Si Si2 0.287708 0.980647 0.730414
Si Si3 0.500000 0.500000 0.000000
Si Si4 0.342198 0.283279 0.098064
Si Si5 0.813568 0.309820 0.988696
Si Si6 0.125899 0.375306 0.653228
Si Si7 0.964474 0.222061 0.670187
O O1 0.628762 0.188011 0.406265
O O2 0.500000 0.000000 0.500000
O O3 0.633840 0.917333 0.725077
O O4 0.523744 0.339327 0.766370
O O5 0.209743 0.146969 0.596681
O O6 0.241226 0.839861 0.890054
O O7 0.325166 0.153405 0.878127
O O8 0.422920 0.380860 0.057653
O O9 0.255686 0.502173 0.153068
O O10 0.898342 0.166427 0.845137
O O11 0.846602 0.460283 0.169400
O O12 0.088752 0.540356 0.453616
O O13 0.048833 0.281216 0.753419
O O14 0.000000 0.000000 0.500000
#
# Coordination Sequence:
#
# PCOD9047000 Si02
#       7
#     2   2   1   2   2   2   2
#     4  12  27  48  75 105 147 189 245 306 367 434
#     4  11  25  47  71 105 145 191 241 304 366 431
#     4  12  26  46  76 104 138 188 248 300 364 432
#     4  11  26  46  70 105 143 184 247 303 362 439
#     4  11  25  45  72 103 143 191 238 296 361 432
#     4  10  24  43  70 103 144 186 242 289 362 428
#     4  11  24  43  70 106 144 189 237 297 357 430
#
# _framework density 23.516629999999999
#
# number of rings (size 3 to 8) (size 9 to 14) (size 15 to 20)
#    0.000    0.923    1.538    3.692    2.154   15.385 
#    0.000    0.000    0.000    0.000    0.000    0.000 
#    0.000    0.000    0.000    0.000    0.000    0.000 
#
# Total GULP energy -72559.583451 kJ/mol
# GULP energy per Si atom -5581.506419 kJ/mol
# Density = 2.346311 g / cm^3
# Si number density = 23.516630 Si / 1000 Ang^3
#
#
#
# Elastic Constant Matrix: (Units=GPa)
#
#
# Indices 1 2 3 4 5 6 
#
# 1 128.8221 54.7475 68.0820 8.2575 -36.4778 22.7767
# 2 54.7475 71.5083 34.2019 13.9884 0.1990 6.9347
# 3 68.0820 34.2019 71.1296 24.0434 -30.1759 4.8417
# 4 8.2575 13.9884 24.0434 40.0340 -13.1696 7.8554
# 5 -36.4778 0.1990 -30.1759 -13.1696 55.6340 -3.4395
# 6 22.7767 6.9347 4.8417 7.8554 -3.4395 49.2923
#
#
#
# Elastic Compliance Matrix: (Units=1/GPa)
#
#
# Indices 1 2 3 4 5 6 
#
# 1 0.029593 -0.014639 -0.021882 0.018093 0.011155 -0.011571
# 2 -0.014639 0.027555 -0.001230 -0.010796 -0.012682 0.003844
# 3 -0.021882 -0.001230 0.044600 -0.022039 0.005235 0.009781
# 4 0.018093 -0.010796 -0.022039 0.043556 0.009581 -0.010949
# 5 0.011155 -0.012682 0.005235 0.009581 0.030237 -0.003301
# 6 -0.011571 0.003844 0.009781 -0.010949 -0.003301 0.025647
#
#
# Mechanical properties :
#
#
# Convention : Reuss Voigt Hill
#
# Bulk Modulus (GPa) = 38.10238 65.05808 51.58023
# Shear Modulus (GPa) = 17.51674 36.62064 27.06869
#
# Velocity S-wave (km/s) = 2.73218 3.95045 3.39639
# Velocity P-wave (km/s) = 5.11767 6.96655 6.11242
#
# Compressibility (1/GPa) = 0.02624508
#
# Stress axis : x y z
#
# Youngs Moduli (GPa) = 33.79125 36.29079 22.42133
#
# Poissons Ratio (x) = 0.53127 0.49063
# Poissons Ratio (y) = 0.49468 0.02759
# Poissons Ratio (z) = 0.73943 0.04465
#
# Static dielectric constant tensor:
#      x y z
#    x 1.861990 -0.040800 0.018510 
#    y -0.040800 1.899270 -0.057570 
#    z 0.018510 -0.057570 1.940120 
# 
# From -- ./inp_files/3724.got.cif
#   From: 2010.05.17/outbox.cif.g08.bks.cpg/sg2_2_cif.got.tgz:3724.got - 2010.06.03 11:33:40.
