data_PCOD9047996
_publ_section_title
;
Structure prediction by ZEFSAII (Michael W. Deem and Ramdas Pophale) SiO2 
 PCOD9047996
Probable space group: P -1
;
_chemical_formula_sum "Si O2"
_cell_formula_units_Z 14
_cell_length_a 18.261415
_cell_length_b 9.323699
_cell_length_c 7.248139
_cell_angle_alpha 117.830144
_cell_angle_beta 134.184013
_cell_angle_gamma 36.139987
_cell_volume 508.299438
_symmetry_space_group_name_H-M "P -1"
_symmetry_group_IT_number 2
_symmetry_cell_setting 'triclinic'
loop_
_space_group_symop_operation_xyz
x,y,z
-x,-y,-z
loop_
_atom_site_type_symbol
_atom_site_label
_atom_site_fract_x
_atom_site_fract_y
_atom_site_fract_z
Si Si1 0.123786 0.475512 0.451326
Si Si2 0.913498 0.264041 0.791205
Si Si3 0.548463 0.664531 0.847291
Si Si4 0.427217 0.970501 0.505910
Si Si5 0.540926 0.262057 0.901393
Si Si6 0.194888 0.327411 0.906483
Si Si7 0.238114 0.826526 0.310169
O O1 0.081975 0.684665 0.381930
O O2 0.181214 0.413743 0.726723
O O3 0.968648 0.557233 0.251501
O O4 0.251478 0.221577 0.404322
O O5 0.836644 0.181934 0.652675
O O6 0.800405 0.525582 0.858766
O O7 0.083914 0.071457 0.073922
O O8 0.524459 0.849947 0.790848
O O9 0.582370 0.659682 0.117592
O O10 0.675671 0.397423 0.815766
O O11 0.544071 0.234191 0.670724
O O12 0.625576 0.214226 0.405812
O O13 0.500000 0.000000 0.500000
O O14 0.688394 0.967461 0.038162
O O15 0.500000 0.500000 0.000000
#
# Coordination Sequence:
#
# PCOD9047996 Si02
#       7
#     2   2   2   2   2   2   2
#     4  11  24  44  71 102 142 187 237 304 354 434
#     4  11  23  45  72 103 147 185 246 300 365 417
#     4  11  24  47  70 101 151 186 241 294 361 436
#     4  12  26  47  75 107 142 188 240 297 364 427
#     4  12  27  44  73 106 138 190 239 291 361 434
#     4  11  25  44  72 106 137 188 248 289 365 435
#     4  10  24  44  72 105 142 197 236 300 361 433
#
# _framework density 27.542821
#
# number of rings (size 3 to 8) (size 9 to 14) (size 15 to 20)
#    0.000    0.857    2.857    3.857    6.000    1.714 
#    0.000    4.286    0.000    0.000    0.000    0.000 
#    0.000    0.000    0.000    0.000    0.000    0.000 
#
# Total GULP energy -78358.598105 kJ/mol
# GULP energy per Si atom -5597.042722 kJ/mol
# Density = 2.748013 g / cm^3
# Si number density = 27.542821 Si / 1000 Ang^3
#
#
#
# Elastic Constant Matrix: (Units=GPa)
#
#
# Indices 1 2 3 4 5 6 
#
# 1 197.6165 40.8727 61.4592 -22.0619 -35.9349 6.9061
# 2 40.8727 144.9915 44.9295 -20.8652 -4.3086 -6.8876
# 3 61.4592 44.9295 112.2130 -23.7051 -11.4548 5.2991
# 4 -22.0619 -20.8652 -23.7051 46.9014 -0.5914 -9.9244
# 5 -35.9349 -4.3086 -11.4548 -0.5914 61.1733 -4.7433
# 6 6.9061 -6.8876 5.2991 -9.9244 -4.7433 57.7949
#
#
#
# Elastic Compliance Matrix: (Units=1/GPa)
#
#
# Indices 1 2 3 4 5 6 
#
# 1 0.006891 -0.000763 -0.002789 0.001512 0.003478 -0.000113
# 2 -0.000763 0.008312 -0.002494 0.002439 -0.000173 0.001715
# 3 -0.002789 -0.002494 0.012291 0.003710 0.000491 -0.000414
# 4 0.001512 0.002439 0.003710 0.025958 0.002348 0.004420
# 5 0.003478 -0.000173 0.000491 0.002348 0.018605 0.001449
# 6 -0.000113 0.001715 -0.000414 0.004420 0.001449 0.018436
#
#
# Mechanical properties :
#
#
# Convention : Reuss Voigt Hill
#
# Bulk Modulus (GPa) = 64.92168 83.26041 74.09105
# Shear Modulus (GPa) = 46.41794 53.67789 50.04791
#
# Velocity S-wave (km/s) = 4.10970 4.41941 4.26736
# Velocity P-wave (km/s) = 6.79278 7.50578 7.15816
#
# Compressibility (1/GPa) = 0.01540318
#
# Stress axis : x y z
#
# Youngs Moduli (GPa) = 145.12686 120.30692 81.36127
#
# Poissons Ratio (x) = 0.09175 0.22690
# Poissons Ratio (y) = 0.11068 0.20289
# Poissons Ratio (z) = 0.40472 0.30001
#
# Static dielectric constant tensor:
#      x y z
#    x 2.222800 0.076980 0.036050 
#    y 0.076980 2.123010 0.036660 
#    z 0.036050 0.036660 2.320840 
# 
# From -- ./inp_files/329183.got.cif
#   From: 2010.05.17/outbox.cif.g08.bks.cpg/sg2_165_cif.got.tgz:329183.got - 2010.06.03 11:33:40.
