data_PCOD9047577
_publ_section_title
;
Structure prediction by ZEFSAII (Michael W. Deem and Ramdas Pophale) SiO2 
 PCOD9047577
Probable space group: P -1
;
_chemical_formula_sum "Si O2"
_cell_formula_units_Z 12
_cell_length_a 6.370045
_cell_length_b 4.913084
_cell_length_c 17.079586
_cell_angle_alpha 94.156030
_cell_angle_beta 100.747439
_cell_angle_gamma 49.588591
_cell_volume 399.020222
_symmetry_space_group_name_H-M "P -1"
_symmetry_group_IT_number 2
_symmetry_cell_setting 'triclinic'
loop_
_space_group_symop_operation_xyz
x,y,z
-x,-y,-z
loop_
_atom_site_type_symbol
_atom_site_label
_atom_site_fract_x
_atom_site_fract_y
_atom_site_fract_z
Si Si1 0.804882 0.878498 0.139152
Si Si2 0.839977 0.713826 0.599972
Si Si3 0.953830 0.786175 0.900028
Si Si4 0.500000 0.500000 0.500000
Si Si5 0.611215 0.750001 0.750000
Si Si6 0.455772 0.378497 0.639153
Si Si7 0.500000 0.000000 0.000000
O O1 0.518724 0.219436 0.080124
O O2 0.775785 0.627036 0.071954
O O3 0.671195 0.949228 0.217398
O O4 0.994755 0.985028 0.138574
O O5 0.756838 0.541144 0.536472
O O6 0.664014 0.880846 0.676525
O O7 0.158791 0.485029 0.638575
O O8 0.669133 0.127036 0.571954
O O9 0.868333 0.619159 0.823475
O O10 0.761509 0.958857 0.963528
O O11 0.341964 0.719435 0.580124
O O12 0.596974 0.449230 0.717398
#
# Coordination Sequence:
#
# PCOD9047577 Si02
#       7
#     2   2   2   1   2   2   1
#     4  11  25  43  69  99 141 185 239 298 361 432
#     4  11  25  43  69  99 141 185 239 298 361 432
#     4  11  25  43  69  99 141 185 239 298 361 432
#     4  10  24  44  68 106 132 192 232 304 354 440
#     4  10  26  38  66  96 136 182 242 292 364 428
#     4  11  25  43  69  99 141 185 239 298 361 432
#     4  10  24  44  68 106 132 192 232 304 354 440
#
# _framework density 30.073665999999999
#
# number of rings (size 3 to 8) (size 9 to 14) (size 15 to 20)
#    0.000    1.333    0.000    3.000    9.333   10.667 
#    0.000    0.000    0.000    0.000    0.000    0.000 
#    0.000    0.000    0.000    0.000    0.000    0.000 
#
# Total GULP energy -66815.780747 kJ/mol
# GULP energy per Si atom -5567.981729 kJ/mol
# Density = 3.000522 g / cm^3
# Si number density = 30.073666 Si / 1000 Ang^3
#
#
#
# Elastic Constant Matrix: (Units=GPa)
#
#
# Indices 1 2 3 4 5 6 
#
# 1 156.1651 86.6285 74.8297 -16.9202 -0.1692 0.0927
# 2 86.6285 161.6849 49.7342 -17.9647 0.1345 0.0484
# 3 74.8297 49.7342 197.8354 -29.8132 -0.0059 0.1004
# 4 -16.9202 -17.9647 -29.8132 52.0042 0.0431 0.0906
# 5 -0.1692 0.1345 -0.0059 0.0431 61.9924 -0.9063
# 6 0.0927 0.0484 0.1004 0.0906 -0.9063 75.9423
#
#
#
# Elastic Compliance Matrix: (Units=1/GPa)
#
#
# Indices 1 2 3 4 5 6 
#
# 1 0.010308 -0.004672 -0.002695 0.000195 0.000038 -0.000006
# 2 -0.004672 0.008926 -0.000264 0.001412 -0.000033 -0.000002
# 3 -0.002695 -0.000264 0.006561 0.002794 -0.000008 -0.000009
# 4 0.000195 0.001412 0.002794 0.021382 -0.000018 -0.000031
# 5 0.000038 -0.000033 -0.000008 -0.000018 0.016134 0.000193
# 6 -0.000006 -0.000002 -0.000009 -0.000031 0.000193 0.013170
#
#
# Mechanical properties :
#
#
# Convention : Reuss Voigt Hill
#
# Bulk Modulus (GPa) = 94.93739 104.23002 99.58371
# Shear Modulus (GPa) = 52.49079 58.28731 55.38905
#
# Velocity S-wave (km/s) = 4.18234 4.40722 4.29625
# Velocity P-wave (km/s) = 7.41346 7.78663 7.60234
#
# Compressibility (1/GPa) = 0.01053326
#
# Stress axis : x y z
#
# Youngs Moduli (GPa) = 97.01474 112.02881 152.40689
#
# Poissons Ratio (x) = 0.52342 0.41072
# Poissons Ratio (y) = 0.45327 0.04023
# Poissons Ratio (z) = 0.26145 0.02957
#
# Static dielectric constant tensor:
#      x y z
#    x 2.600000 0.000720 0.000810 
#    y 0.000720 2.949820 -0.171200 
#    z 0.000810 -0.171200 2.373460 
# 
# From -- ./inp_files/4974.got.cif
#   From: 2010.05.17/outbox.cif.g08.bks.cpg/sg2_3_cif.got.tgz:4974.got - 2010.06.03 11:33:40.
