data_PCOD9047913
_publ_section_title
;
Structure prediction by ZEFSAII (Michael W. Deem and Ramdas Pophale) SiO2 
 PCOD9047913
Probable space group: P -1
;
_chemical_formula_sum "Si O2"
_cell_formula_units_Z 16
_cell_length_a 5.402503
_cell_length_b 16.420506
_cell_length_c 25.202768
_cell_angle_alpha 20.456100
_cell_angle_beta 125.018642
_cell_angle_gamma 125.009795
_cell_volume 634.826780
_symmetry_space_group_name_H-M "P -1"
_symmetry_group_IT_number 2
_symmetry_cell_setting 'triclinic'
loop_
_space_group_symop_operation_xyz
x,y,z
-x,-y,-z
loop_
_atom_site_type_symbol
_atom_site_label
_atom_site_fract_x
_atom_site_fract_y
_atom_site_fract_z
Si Si1 0.423769 0.105226 0.138214
Si Si2 0.305769 0.168952 0.927754
Si Si3 0.612399 0.077108 0.634665
Si Si4 0.760247 0.708116 0.385690
Si Si5 0.803553 0.816456 0.206727
Si Si6 0.561736 0.605791 0.739203
Si Si7 0.056119 0.213200 0.418468
Si Si8 0.275554 0.390912 0.128603
O O1 0.433080 0.009192 0.257998
O O2 0.679360 0.976230 0.218780
O O3 0.461420 0.385989 0.976064
O O4 0.123209 0.977075 0.152641
O O5 0.251675 0.304209 0.783546
O O6 0.382548 0.346182 0.876596
O O7 0.562207 0.000140 0.062526
O O8 0.000000 0.000000 0.000000
O O9 0.656300 0.846098 0.746407
O O10 0.310366 0.174359 0.516739
O O11 0.920997 0.262258 0.561257
O O12 0.500000 0.500000 0.500000
O O13 0.779202 0.674360 0.345317
O O14 0.770834 0.601088 0.715467
O O15 0.768370 0.661985 0.782008
O O16 0.271452 0.753153 0.617147
O O17 0.000000 0.000000 0.500000
O O18 0.000000 0.500000 0.000000
#
# Coordination Sequence:
#
# PCOD9047913 Si02
#       8
#     2   2   2   2   2   2   2   2
#     4  11  25  46  73 109 148 187 252 320 383 460
#     4  11  25  46  74 107 148 196 258 316 390 455
#     4  11  27  46  75 110 147 207 253 314 389 459
#     4  11  25  47  72 106 151 196 256 314 382 462
#     4  10  24  44  71 107 150 189 252 320 383 457
#     4  12  30  48  80 113 155 209 253 320 386 464
#     4  12  29  51  75 109 160 203 264 312 384 471
#     4  12  25  45  80 112 148 194 252 320 390 454
#
# _framework density 25.203724999999999
#
# number of rings (size 3 to 8) (size 9 to 14) (size 15 to 20)
#    0.000    0.750    2.500    3.000   10.500    5.000 
#    0.000    0.000    0.000    0.000    0.000    0.000 
#    0.000    0.000    0.000    0.000    0.000    0.000 
#
# Total GULP energy -89495.742062 kJ/mol
# GULP energy per Si atom -5593.483879 kJ/mol
# Density = 2.514636 g / cm^3
# Si number density = 25.203725 Si / 1000 Ang^3
#
#
#
# Elastic Constant Matrix: (Units=GPa)
#
#
# Indices 1 2 3 4 5 6 
#
# 1 53.6258 23.7842 19.0229 10.0943 5.4012 5.8299
# 2 23.7842 154.2425 31.0705 21.7144 -0.5587 -0.1278
# 3 19.0229 31.0705 83.1921 11.6590 -0.9862 3.7026
# 4 10.0943 21.7144 11.6590 58.4904 0.7543 6.5909
# 5 5.4012 -0.5587 -0.9862 0.7543 47.7906 2.9778
# 6 5.8299 -0.1278 3.7026 6.5909 2.9778 42.8952
#
#
#
# Elastic Compliance Matrix: (Units=1/GPa)
#
#
# Indices 1 2 3 4 5 6 
#
# 1 0.021870 -0.002357 -0.003790 -0.001865 -0.002411 -0.002198
# 2 -0.002357 0.007550 -0.002021 -0.002089 0.000295 0.000818
# 3 -0.003790 -0.002021 0.013858 -0.001307 0.000745 -0.000538
# 4 -0.001865 -0.002089 -0.001307 0.018739 0.000021 -0.002521
# 5 -0.002411 0.000295 0.000745 0.000021 0.021291 -0.001217
# 6 -0.002198 0.000818 -0.000538 -0.002521 -0.001217 0.024132
#
#
# Mechanical properties :
#
#
# Convention : Reuss Voigt Hill
#
# Bulk Modulus (GPa) = 37.11644 48.75728 42.93686
# Shear Modulus (GPa) = 37.66300 44.31407 40.98853
#
# Velocity S-wave (km/s) = 3.86987 4.19768 4.03710
# Velocity P-wave (km/s) = 5.89291 6.54838 6.22927
#
# Compressibility (1/GPa) = 0.02694224
#
# Stress axis : x y z
#
# Youngs Moduli (GPa) = 45.72371 132.45599 72.16217
#
# Poissons Ratio (x) = 0.31219 0.27350
# Poissons Ratio (y) = 0.10777 0.14583
# Poissons Ratio (z) = 0.17329 0.26767
#
# Static dielectric constant tensor:
#      x y z
#    x 2.123500 0.023680 -0.086210 
#    y 0.023680 1.958160 -0.007050 
#    z -0.086210 -0.007050 2.076550 
# 
# From -- ./inp_files/615840.got.cif
#   From: 2010.05.17/outbox.cif.g08.bks.cpg/sg2_308_cif.got.tgz:615840.got - 2010.06.03 11:33:40.
