data_PCOD9047399
_publ_section_title
;
Structure prediction by ZEFSAII (Michael W. Deem and Ramdas Pophale) SiO2 
 PCOD9047399
Probable space group: P -1
;
_chemical_formula_sum "Si O2"
_cell_formula_units_Z 16
_cell_length_a 8.845237
_cell_length_b 13.544236
_cell_length_c 17.829973
_cell_angle_alpha 149.354568
_cell_angle_beta 96.047738
_cell_angle_gamma 63.003950
_cell_volume 755.084418
_symmetry_space_group_name_H-M "P -1"
_symmetry_group_IT_number 2
_symmetry_cell_setting 'triclinic'
loop_
_space_group_symop_operation_xyz
x,y,z
-x,-y,-z
loop_
_atom_site_type_symbol
_atom_site_label
_atom_site_fract_x
_atom_site_fract_y
_atom_site_fract_z
Si Si1 0.956151 0.962284 0.591453
Si Si2 0.550917 0.655944 0.558794
Si Si3 0.944951 0.178894 0.186741
Si Si4 0.851882 0.590314 0.122982
Si Si5 0.835434 0.429536 0.789694
Si Si6 0.348988 0.029554 0.175593
Si Si7 0.912979 0.987062 0.216970
Si Si8 0.569613 0.205223 0.811406
O O1 0.858697 0.250690 0.740786
O O2 0.749615 0.020276 0.635763
O O3 0.066971 0.893128 0.632264
O O4 0.119258 0.725007 0.385340
O O5 0.500000 0.500000 0.500000
O O6 0.699538 0.494212 0.386448
O O7 0.664380 0.725860 0.656052
O O8 0.299165 0.947278 0.730435
O O9 0.921837 0.075109 0.194138
O O10 0.150032 0.134346 0.182693
O O11 0.000000 0.000000 0.000000
O O12 0.606934 0.800014 0.218775
O O13 0.959040 0.619190 0.213149
O O14 0.000000 0.500000 0.000000
O O15 0.885304 0.339409 0.984942
O O16 0.597391 0.744615 0.978972
O O17 0.332041 0.940135 0.197373
O O18 0.500000 0.500000 0.000000
#
# Coordination Sequence:
#
# PCOD9047399 Si02
#       8
#     2   2   2   2   2   2   2   2
#     4  11  23  40  61 102 141 170 207 262 319 408
#     4  10  24  44  66  90 122 173 229 274 327 379
#     4  11  26  45  65  97 125 162 232 290 319 379
#     4  12  19  37  65  99 131 169 214 253 316 408
#     4  11  24  38  64 103 138 170 214 255 321 406
#     4  12  21  43  70  91 130 182 210 269 341 385
#     4  11  20  42  68  86 129 178 206 265 336 383
#     4  12  20  37  66  97 131 174 209 250 326 411
#
# _framework density 21.189685000000001
#
# number of rings (size 3 to 8) (size 9 to 14) (size 15 to 20)
#    0.000    0.750    7.500    0.375    1.750    0.500 
#    2.250    2.500    0.000    0.000    0.000    0.000 
#    0.000    0.000    0.000    0.000    0.000    0.000 
#
# Total GULP energy -89086.772472 kJ/mol
# GULP energy per Si atom -5567.923279 kJ/mol
# Density = 2.114146 g / cm^3
# Si number density = 21.189685 Si / 1000 Ang^3
#
#
#
# Elastic Constant Matrix: (Units=GPa)
#
#
# Indices 1 2 3 4 5 6 
#
# 1 141.4851 28.9443 41.3774 -17.5537 -5.6439 -24.0592
# 2 28.9443 60.5468 19.9401 -20.6714 4.9876 -1.4902
# 3 41.3774 19.9401 84.6174 -22.2891 -2.9453 0.1341
# 4 -17.5537 -20.6714 -22.2891 30.5744 -0.1473 6.8669
# 5 -5.6439 4.9876 -2.9453 -0.1473 31.7770 3.5352
# 6 -24.0592 -1.4902 0.1341 6.8669 3.5352 34.6751
#
#
#
# Elastic Compliance Matrix: (Units=1/GPa)
#
#
# Indices 1 2 3 4 5 6 
#
# 1 0.010240 -0.003897 -0.004487 -0.001627 0.001211 0.007154
# 2 -0.003897 0.023581 0.000094 0.014701 -0.003848 -0.004210
# 3 -0.004487 0.000094 0.016974 0.011109 0.001427 -0.005520
# 4 -0.001627 0.014701 0.011109 0.052253 -0.000115 -0.010877
# 5 0.001211 -0.003848 0.001427 -0.000115 0.032714 -0.002643
# 6 0.007154 -0.004210 -0.005520 -0.010877 -0.002643 0.036067
#
#
# Mechanical properties :
#
#
# Convention : Reuss Voigt Hill
#
# Bulk Modulus (GPa) = 29.22665 51.90809 40.56737
# Shear Modulus (GPa) = 25.02330 32.49782 28.76056
#
# Velocity S-wave (km/s) = 3.44018 3.92045 3.68814
# Velocity P-wave (km/s) = 5.44083 6.71143 6.10925
#
# Compressibility (1/GPa) = 0.03421535
#
# Stress axis : x y z
#
# Youngs Moduli (GPa) = 97.65438 42.40772 58.91214
#
# Poissons Ratio (x) = 0.16526 0.26434
# Poissons Ratio (y) = 0.38055 -0.00553
# Poissons Ratio (z) = 0.43817 -0.00398
#
# Static dielectric constant tensor:
#      x y z
#    x 1.879290 -0.178460 -0.084290 
#    y -0.178460 2.183620 0.325690 
#    z -0.084290 0.325690 1.980510 
# 
# From -- ./inp_files/277460.got.cif
#   From: 2010.05.17/outbox.cif.g08.bks.cpg/sg2_139_cif.got.tgz:277460.got - 2010.06.03 11:33:40.
