data_PCOD9047449
_publ_section_title
;
Structure prediction by ZEFSAII (Michael W. Deem and Ramdas Pophale) SiO2 
 PCOD9047449
Probable space group: P -1
;
_chemical_formula_sum "Si O2"
_cell_formula_units_Z 14
_cell_length_a 10.677484
_cell_length_b 14.150497
_cell_length_c 6.628162
_cell_angle_alpha 93.169175
_cell_angle_beta 107.206382
_cell_angle_gamma 44.039840
_cell_volume 646.073748
_symmetry_space_group_name_H-M "P -1"
_symmetry_group_IT_number 2
_symmetry_cell_setting 'triclinic'
loop_
_space_group_symop_operation_xyz
x,y,z
-x,-y,-z
loop_
_atom_site_type_symbol
_atom_site_label
_atom_site_fract_x
_atom_site_fract_y
_atom_site_fract_z
Si Si1 0.723436 0.354415 0.076189
Si Si2 0.109167 0.869904 0.186645
Si Si3 0.654508 0.241790 0.332235
Si Si4 0.099350 0.390363 0.717107
Si Si5 0.209923 0.497346 0.085820
Si Si6 0.708850 0.019234 0.111470
Si Si7 0.437895 0.071575 0.694452
O O1 0.764913 0.272600 0.287714
O O2 0.500000 0.500000 0.000000
O O3 0.751109 0.267892 0.896076
O O4 0.833118 0.391282 0.069898
O O5 0.232905 0.847940 0.423676
O O6 0.939839 0.894134 0.198864
O O7 0.000000 0.000000 0.000000
O O8 0.428261 0.387771 0.265396
O O9 0.660325 0.151033 0.171326
O O10 0.252975 0.237295 0.670389
O O11 0.000000 0.500000 0.500000
O O12 0.938798 0.427263 0.789899
O O13 0.196764 0.411981 0.925669
O O14 0.609183 0.998069 0.210525
O O15 0.618490 0.036734 0.858497
O O16 0.500000 0.000000 0.500000
#
# Coordination Sequence:
#
# PCOD9047449 Si02
#       7
#     2   2   2   2   2   2   2
#     4  10  24  44  67 102 137 182 234 285 349 420
#     4  12  26  42  72 106 141 187 231 288 353 425
#     4  11  24  45  74 100 145 187 228 294 355 422
#     4  11  25  44  71 103 139 192 234 298 352 415
#     4  10  24  45  72 100 147 183 245 285 351 428
#     4  11  25  45  69 102 140 179 243 282 354 424
#     4  11  27  45  73 102 137 185 236 301 350 415
#
# _framework density 21.669352
#
# number of rings (size 3 to 8) (size 9 to 14) (size 15 to 20)
#    0.000    1.143    2.857    1.286    4.000    9.143 
#    0.000    0.000    0.000    0.000    0.000    0.000 
#    0.000    0.000    0.000    0.000    0.000    0.000 
#
# Total GULP energy -78189.242033 kJ/mol
# GULP energy per Si atom -5584.945859 kJ/mol
# Density = 2.162003 g / cm^3
# Si number density = 21.669352 Si / 1000 Ang^3
#
#
#
# Elastic Constant Matrix: (Units=GPa)
#
#
# Indices 1 2 3 4 5 6 
#
# 1 112.2403 38.4732 54.1272 1.0398 -6.3968 3.7071
# 2 38.4732 113.2613 51.9848 28.5551 0.6731 5.5361
# 3 54.1272 51.9848 123.7355 6.1578 4.8086 -11.1832
# 4 1.0398 28.5551 6.1578 36.5940 -2.1424 -9.3328
# 5 -6.3968 0.6731 4.8086 -2.1424 27.1323 -7.9742
# 6 3.7071 5.5361 -11.1832 -9.3328 -7.9742 28.5877
#
#
#
# Elastic Compliance Matrix: (Units=1/GPa)
#
#
# Indices 1 2 3 4 5 6 
#
# 1 0.012257 -0.002618 -0.004622 0.002408 0.003644 -0.001088
# 2 -0.002618 0.017002 -0.006106 -0.015407 -0.004598 -0.011654
# 3 -0.004622 -0.006106 0.013205 0.004788 -0.000435 0.008389
# 4 0.002408 -0.015407 0.004788 0.044659 0.010074 0.021934
# 5 0.003644 -0.004598 -0.000435 0.010074 0.043291 0.015612
# 6 -0.001088 -0.011654 0.008389 0.021934 0.015612 0.052175
#
#
# Mechanical properties :
#
#
# Convention : Reuss Voigt Hill
#
# Bulk Modulus (GPa) = 63.39552 70.93416 67.16484
# Shear Modulus (GPa) = 23.30603 32.10626 27.70615
#
# Velocity S-wave (km/s) = 3.28308 3.85339 3.57961
# Velocity P-wave (km/s) = 6.60991 7.25286 6.93884
#
# Compressibility (1/GPa) = 0.01577399
#
# Stress axis : x y z
#
# Youngs Moduli (GPa) = 81.58719 58.81653 75.72622
#
# Poissons Ratio (x) = 0.15397 0.34997
# Poissons Ratio (y) = 0.21358 0.46236
# Poissons Ratio (z) = 0.37706 0.35912
#
# Static dielectric constant tensor:
#      x y z
#    x 1.820830 0.001210 -0.015880 
#    y 0.001210 1.808490 -0.037340 
#    z -0.015880 -0.037340 1.787000 
# 
# From -- ./inp_files/78203.got.cif
#   From: 2010.05.17/outbox.cif.g08.bks.cpg/sg2_40_cif.got.tgz:78203.got - 2010.06.03 11:33:40.
