data_PCOD9047144
_publ_section_title
;
Structure prediction by ZEFSAII (Michael W. Deem and Ramdas Pophale) SiO2 
 PCOD9047144
Probable space group: P -1
;
_chemical_formula_sum "Si O2"
_cell_formula_units_Z 14
_cell_length_a 8.028740
_cell_length_b 7.126311
_cell_length_c 14.373835
_cell_angle_alpha 49.442805
_cell_angle_beta 107.499285
_cell_angle_gamma 107.333229
_cell_volume 589.927932
_symmetry_space_group_name_H-M "P -1"
_symmetry_group_IT_number 2
_symmetry_cell_setting 'triclinic'
loop_
_space_group_symop_operation_xyz
x,y,z
-x,-y,-z
loop_
_atom_site_type_symbol
_atom_site_label
_atom_site_fract_x
_atom_site_fract_y
_atom_site_fract_z
Si Si1 0.437122 0.862210 0.439928
Si Si2 0.521017 0.263697 0.866059
Si Si3 0.319192 0.304194 0.625359
Si Si4 0.930511 0.152380 0.237721
Si Si5 0.721047 0.566907 0.079915
Si Si6 0.776051 0.921097 0.815692
Si Si7 0.105431 0.617670 0.187926
O O1 0.591167 0.786558 0.423529
O O2 0.334782 0.044113 0.304940
O O3 0.500000 0.000000 0.500000
O O4 0.317908 0.598571 0.525600
O O5 0.406831 0.425722 0.857609
O O6 0.729161 0.354799 0.862858
O O7 0.437796 0.257519 0.750675
O O8 0.500000 0.000000 0.000000
O O9 0.132357 0.133253 0.659810
O O10 0.046711 0.177766 0.156431
O O11 0.040962 0.320207 0.281879
O O12 0.758740 0.290952 0.150397
O O13 0.920648 0.698506 0.096749
O O14 0.673018 0.733734 0.932923
O O15 0.827143 0.197813 0.777536
#
# Coordination Sequence:
#
# PCOD9047144 Si02
#       7
#     2   2   2   2   2   2   2
#     4  11  28  47  77  99 144 201 257 312 351 447
#     4  12  23  43  80 109 151 200 242 305 383 442
#     4  11  26  50  69 109 147 191 253 308 373 435
#     4  10  27  41  75 108 153 189 241 309 378 453
#     4  10  24  43  75 115 159 183 240 312 382 447
#     4  12  22  48  72 106 151 197 242 304 379 433
#     4  10  24  43  72 113 147 193 239 304 377 445
#
# _framework density 23.731715000000001
#
# number of rings (size 3 to 8) (size 9 to 14) (size 15 to 20)
#    0.857    0.286    2.857    1.714    6.000    0.571 
#    0.000    3.571    0.000    0.000    0.000    0.000 
#    0.000    0.000    0.000    0.000    0.000    0.000 
#
# Total GULP energy -78290.152199 kJ/mol
# GULP energy per Si atom -5592.153728 kJ/mol
# Density = 2.367770 g / cm^3
# Si number density = 23.731715 Si / 1000 Ang^3
#
#
#
# Elastic Constant Matrix: (Units=GPa)
#
#
# Indices 1 2 3 4 5 6 
#
# 1 113.2914 41.7324 22.3113 15.5650 -12.1920 -13.3953
# 2 41.7324 139.8093 55.4312 9.4693 -21.6460 -1.6799
# 3 22.3113 55.4312 107.4751 14.7129 -0.9193 1.7608
# 4 15.5650 9.4693 14.7129 39.5414 -0.7142 -11.1313
# 5 -12.1920 -21.6460 -0.9193 -0.7142 25.3394 -1.4003
# 6 -13.3953 -1.6799 1.7608 -11.1313 -1.4003 38.2956
#
#
#
# Elastic Compliance Matrix: (Units=1/GPa)
#
#
# Indices 1 2 3 4 5 6 
#
# 1 0.010878 -0.002186 -0.000809 -0.002511 0.003440 0.003142
# 2 -0.002186 0.011174 -0.005302 0.000419 0.008335 0.000396
# 3 -0.000809 -0.005302 0.012742 -0.003917 -0.004700 -0.002412
# 4 -0.002511 0.000419 -0.003917 0.029899 0.000294 0.008022
# 5 0.003440 0.008335 -0.004700 0.000294 0.048278 0.003636
# 6 0.003142 0.000396 -0.002412 0.008022 0.003636 0.029805
#
#
# Mechanical properties :
#
#
# Convention : Reuss Voigt Hill
#
# Bulk Modulus (GPa) = 54.94296 66.61394 60.77845
# Shear Modulus (GPa) = 30.22299 36.70866 33.46583
#
# Velocity S-wave (km/s) = 3.57252 3.93723 3.75930
# Velocity P-wave (km/s) = 6.34186 6.98567 6.67153
#
# Compressibility (1/GPa) = 0.01820069
#
# Stress axis : x y z
#
# Youngs Moduli (GPa) = 91.92835 89.49405 78.47754
#
# Poissons Ratio (x) = 0.19561 0.06351
# Poissons Ratio (y) = 0.20093 0.41608
# Poissons Ratio (z) = 0.07439 0.47449
#
# Static dielectric constant tensor:
#      x y z
#    x 1.935760 0.001950 0.017790 
#    y 0.001950 1.931490 -0.002540 
#    z 0.017790 -0.002540 1.873870 
# 
# From -- ./inp_files/375640.got.cif
#   From: 2010.05.17/outbox.cif.g08.bks.cpg/sg2_188_cif.got.tgz:375640.got - 2010.06.03 11:33:40.
