data_PCOD9047563
_publ_section_title
;
Structure prediction by ZEFSAII (Michael W. Deem and Ramdas Pophale) SiO2 
 PCOD9047563
Probable space group: P -1
;
_chemical_formula_sum "Si O2"
_cell_formula_units_Z 14
_cell_length_a 11.637168
_cell_length_b 15.022498
_cell_length_c 29.798438
_cell_angle_alpha 18.984956
_cell_angle_beta 20.676299
_cell_angle_gamma 31.096498
_cell_volume 579.802445
_symmetry_space_group_name_H-M "P -1"
_symmetry_group_IT_number 2
_symmetry_cell_setting 'triclinic'
loop_
_space_group_symop_operation_xyz
x,y,z
-x,-y,-z
loop_
_atom_site_type_symbol
_atom_site_label
_atom_site_fract_x
_atom_site_fract_y
_atom_site_fract_z
Si Si1 0.883205 0.070169 0.726112
Si Si2 0.212797 0.191938 0.870083
Si Si3 0.129057 0.106523 0.526296
Si Si4 0.105258 0.942040 0.174253
Si Si5 0.655129 0.488850 0.497061
Si Si6 0.297596 0.598020 0.892302
Si Si7 0.243519 0.532437 0.040310
O O1 0.521132 0.097604 0.826441
O O2 0.987683 0.200238 0.674725
O O3 0.148909 0.181926 0.536039
O O4 0.840929 0.733590 0.907912
O O5 0.386998 0.465198 0.646429
O O6 0.959813 0.249660 0.971967
O O7 0.000000 0.000000 0.000000
O O8 0.441321 0.252758 0.311908
O O9 0.813107 0.218449 0.570536
O O10 0.024767 0.768926 0.723551
O O11 0.949547 0.748017 0.282015
O O12 0.982364 0.227931 0.082604
O O13 0.500000 0.000000 0.000000
O O14 0.500000 0.500000 0.500000
O O15 0.442578 0.611281 0.883529
O O16 0.500000 0.500000 0.000000
#
# Coordination Sequence:
#
# PCOD9047563 Si02
#       7
#     2   2   2   2   2   2   2
#     4  10  24  46  70 104 144 188 242 294 365 428
#     4  11  24  45  71 101 147 189 234 302 362 424
#     4  10  24  44  68 103 144 183 238 304 353 427
#     4  12  26  45  75 108 145 195 239 300 362 433
#     4  11  27  44  72 108 141 191 244 294 361 429
#     4  11  24  44  73 106 141 188 242 294 364 429
#     4  11  24  41  65 104 142 191 235 293 362 430
#
# _framework density 24.146153999999999
#
# number of rings (size 3 to 8) (size 9 to 14) (size 15 to 20)
#    0.000    1.143    0.000    5.571   10.000    3.429 
#    0.000    5.714    0.000    0.000    0.000    0.000 
#    0.000    0.000    0.000    0.000    0.000    0.000 
#
# Total GULP energy -78400.013215 kJ/mol
# GULP energy per Si atom -5600.000944 kJ/mol
# Density = 2.409120 g / cm^3
# Si number density = 24.146154 Si / 1000 Ang^3
#
#
#
# Elastic Constant Matrix: (Units=GPa)
#
#
# Indices 1 2 3 4 5 6 
#
# 1 190.7865 35.8299 47.0518 -0.7251 2.4970 15.2630
# 2 35.8299 88.8585 19.2038 0.3923 -0.7576 6.9492
# 3 47.0518 19.2038 100.3312 15.7449 18.8319 13.5543
# 4 -0.7251 0.3923 15.7449 33.4189 7.6661 6.6372
# 5 2.4970 -0.7576 18.8319 7.6661 43.7138 5.6394
# 6 15.2630 6.9492 13.5543 6.6372 5.6394 38.6451
#
#
#
# Elastic Compliance Matrix: (Units=1/GPa)
#
#
# Indices 1 2 3 4 5 6 
#
# 1 0.006412 -0.001849 -0.002834 0.001643 0.000740 -0.001596
# 2 -0.001849 0.012456 -0.001651 0.000579 0.001084 -0.001188
# 3 -0.002834 -0.001651 0.013497 -0.004996 -0.004574 -0.001792
# 4 0.001643 0.000579 -0.004996 0.033930 -0.003322 -0.004344
# 5 0.000740 0.001084 -0.004574 -0.003322 0.025671 -0.002059
# 6 -0.001596 -0.001188 -0.001792 -0.004344 -0.002059 0.028396
#
#
# Mechanical properties :
#
#
# Convention : Reuss Voigt Hill
#
# Bulk Modulus (GPa) = 50.77115 64.90523 57.83819
# Shear Modulus (GPa) = 35.81786 41.68162 38.74974
#
# Velocity S-wave (km/s) = 3.85564 4.15929 4.01034
# Velocity P-wave (km/s) = 6.39481 7.07140 6.74160
#
# Compressibility (1/GPa) = 0.01969622
#
# Stress axis : x y z
#
# Youngs Moduli (GPa) = 155.95873 80.28384 74.09207
#
# Poissons Ratio (x) = 0.14845 0.21000
# Poissons Ratio (y) = 0.28837 0.12231
# Poissons Ratio (z) = 0.44203 0.13253
#
# Static dielectric constant tensor:
#      x y z
#    x 1.956210 0.002300 0.021850 
#    y 0.002300 1.955800 -0.016920 
#    z 0.021850 -0.016920 1.982190 
# 
# From -- ./inp_files/623102.got.cif
#   From: 2010.05.17/outbox.cif.g08.bks.cpg/sg2_312_cif.got.tgz:623102.got - 2010.06.03 11:33:40.
