data_PCOD9047751
_publ_section_title
;
Structure prediction by ZEFSAII (Michael W. Deem and Ramdas Pophale) SiO2 
 PCOD9047751
Probable space group: P -1
;
_chemical_formula_sum "Si O2"
_cell_formula_units_Z 14
_cell_length_a 9.238894
_cell_length_b 16.320841
_cell_length_c 8.435540
_cell_angle_alpha 35.322937
_cell_angle_beta 95.601766
_cell_angle_gamma 113.067864
_cell_volume 614.843671
_symmetry_space_group_name_H-M "P -1"
_symmetry_group_IT_number 2
_symmetry_cell_setting 'triclinic'
loop_
_space_group_symop_operation_xyz
x,y,z
-x,-y,-z
loop_
_atom_site_type_symbol
_atom_site_label
_atom_site_fract_x
_atom_site_fract_y
_atom_site_fract_z
Si Si1 0.340846 0.877749 0.790052
Si Si2 0.825431 0.324519 0.206164
Si Si3 0.949237 0.786057 0.505961
Si Si4 0.354306 0.529252 0.872431
Si Si5 0.541076 0.317921 0.707279
Si Si6 0.940564 0.058376 0.249728
Si Si7 0.775922 0.666476 0.339951
O O1 0.208007 0.720005 0.911932
O O2 0.240919 0.963059 0.704318
O O3 0.500000 0.000000 0.500000
O O4 0.409347 0.815516 0.036425
O O5 0.673178 0.340850 0.234993
O O6 0.864124 0.188864 0.495279
O O7 0.000000 0.500000 0.000000
O O8 0.865348 0.700876 0.464790
O O9 0.941990 0.948732 0.277694
O O10 0.823803 0.652438 0.838369
O O11 0.399475 0.599018 0.590110
O O12 0.500000 0.500000 0.000000
O O13 0.644220 0.469712 0.604578
O O14 0.340527 0.253140 0.805659
O O15 0.000000 0.000000 0.500000
O O16 0.080108 0.249552 0.912844
#
# Coordination Sequence:
#
# PCOD9047751 Si02
#       7
#     2   2   2   2   2   2   2
#     4  12  28  47  71 104 145 184 233 298 354 417
#     4  10  24  44  70 101 138 182 235 284 345 413
#     4  11  23  46  69 103 139 186 230 289 347 417
#     4  11  23  43  73 103 139 183 235 286 348 416
#     4  11  25  44  70 106 138 183 236 289 349 416
#     4  12  25  46  71 100 140 187 235 286 357 417
#     4  11  25  44  72 100 142 182 239 284 347 424
#
# _framework density 22.770016999999999
#
# number of rings (size 3 to 8) (size 9 to 14) (size 15 to 20)
#    0.000    0.857    2.857    3.857    8.000    0.571 
#    0.000    1.429    0.000    0.000    0.000    0.000 
#    0.000    0.000    0.000    0.000    0.000    0.000 
#
# Total GULP energy -78311.216582 kJ/mol
# GULP energy per Si atom -5593.658327 kJ/mol
# Density = 2.271819 g / cm^3
# Si number density = 22.770017 Si / 1000 Ang^3
#
#
#
# Elastic Constant Matrix: (Units=GPa)
#
#
# Indices 1 2 3 4 5 6 
#
# 1 177.5594 20.9897 52.1402 13.5043 37.5239 -1.8122
# 2 20.9897 72.6779 18.1173 25.8842 11.6138 -5.3238
# 3 52.1402 18.1173 90.6301 24.8424 10.6285 12.2179
# 4 13.5043 25.8842 24.8424 39.6952 4.5431 9.1623
# 5 37.5239 11.6138 10.6285 4.5431 52.7484 -0.9477
# 6 -1.8122 -5.3238 12.2179 9.1623 -0.9477 30.7988
#
#
#
# Elastic Compliance Matrix: (Units=1/GPa)
#
#
# Indices 1 2 3 4 5 6 
#
# 1 0.007916 -0.000493 -0.004265 0.000415 -0.004666 0.001806
# 2 -0.000493 0.020024 -0.000627 -0.013993 -0.002587 0.007764
# 3 -0.004265 -0.000627 0.016167 -0.007247 0.000456 -0.004603
# 4 0.000415 -0.013993 -0.007247 0.041384 0.000469 -0.011816
# 5 -0.004666 -0.002587 0.000456 0.000469 0.022709 -0.000344
# 6 0.001806 0.007764 -0.004603 -0.011816 -0.000344 0.039248
#
#
# Mechanical properties :
#
#
# Convention : Reuss Voigt Hill
#
# Bulk Modulus (GPa) = 29.99794 58.15131 44.07463
# Shear Modulus (GPa) = 29.52832 41.28984 35.40908
#
# Velocity S-wave (km/s) = 3.60503 4.26296 3.94772
# Velocity P-wave (km/s) = 5.52551 7.05864 6.33860
#
# Compressibility (1/GPa) = 0.03333562
#
# Stress axis : x y z
#
# Youngs Moduli (GPa) = 126.33086 49.94097 61.85562
#
# Poissons Ratio (x) = 0.02461 0.26384
# Poissons Ratio (y) = 0.06224 0.03879
# Poissons Ratio (z) = 0.53886 0.03132
#
# Static dielectric constant tensor:
#      x y z
#    x 1.866880 0.006800 0.022470 
#    y 0.006800 1.871310 -0.055990 
#    z 0.022470 -0.055990 1.881070 
# 
# From -- ./inp_files/175392.got.cif
#   From: 2010.05.17/outbox.cif.g08.bks.cpg/sg2_88_cif.got.tgz:175392.got - 2010.06.03 11:33:40.
