data_PCOD9047200
_publ_section_title
;
Structure prediction by ZEFSAII (Michael W. Deem and Ramdas Pophale) SiO2 
 PCOD9047200
Probable space group: P -1
;
_chemical_formula_sum "Si O2"
_cell_formula_units_Z 10
_cell_length_a 5.196404
_cell_length_b 8.889289
_cell_length_c 9.084478
_cell_angle_alpha 104.621777
_cell_angle_beta 88.836691
_cell_angle_gamma 101.820434
_cell_volume 397.213744
_symmetry_space_group_name_H-M "P -1"
_symmetry_group_IT_number 2
_symmetry_cell_setting 'triclinic'
loop_
_space_group_symop_operation_xyz
x,y,z
-x,-y,-z
loop_
_atom_site_type_symbol
_atom_site_label
_atom_site_fract_x
_atom_site_fract_y
_atom_site_fract_z
Si Si1 0.717086 0.391276 0.448526
Si Si2 0.733310 0.432310 0.904194
Si Si3 0.094890 0.904000 0.607865
Si Si4 0.310734 0.309390 0.222949
Si Si5 0.404078 0.115185 0.913342
O O1 0.500000 0.500000 0.500000
O O2 0.620620 0.333781 0.267607
O O3 0.727783 0.220859 0.478618
O O4 0.000000 0.500000 0.500000
O O5 0.748153 0.516924 0.767023
O O6 0.000000 0.500000 0.000000
O O7 0.642210 0.244195 0.871700
O O8 0.852605 0.792479 0.670779
O O9 0.756074 0.977261 0.241331
O O10 0.000000 0.000000 0.500000
O O11 0.246315 0.211045 0.048338
O O12 0.500000 0.500000 0.000000
O O13 0.500000 0.000000 0.000000
#
# Coordination Sequence:
#
# PCOD9047200 Si02
#       5
#     2   2   2   2   2
#     4  12  27  51  79 111 164 215 267 320 405 488
#     4  10  24  43  73 113 152 200 255 314 394 470
#     4  12  28  51  81 122 161 213 267 342 409 468
#     4  11  25  50  81 112 162 210 272 324 405 485
#     4  11  23  48  80 118 158 202 268 343 397 474
#
# _framework density 25.175359
#
# number of rings (size 3 to 8) (size 9 to 14) (size 15 to 20)
#    0.000    0.800    4.000    1.800    5.600    2.400 
#    7.200    0.000    0.000    0.000    0.000    0.000 
#    0.000    0.000    0.000    0.000    0.000    0.000 
#
# Total GULP energy -55891.367306 kJ/mol
# GULP energy per Si atom -5589.136731 kJ/mol
# Density = 2.511806 g / cm^3
# Si number density = 25.175359 Si / 1000 Ang^3
#
#
#
# Elastic Constant Matrix: (Units=GPa)
#
#
# Indices 1 2 3 4 5 6 
#
# 1 189.2343 96.9491 72.1487 -11.2972 41.5856 9.0178
# 2 96.9491 228.7338 94.1395 -28.3388 37.8886 -2.6265
# 3 72.1487 94.1395 143.1063 -22.4941 24.0631 -5.9665
# 4 -11.2972 -28.3388 -22.4941 66.9812 -10.6901 3.7059
# 5 41.5856 37.8886 24.0631 -10.6901 60.7109 1.2421
# 6 9.0178 -2.6265 -5.9665 3.7059 1.2421 64.6089
#
#
#
# Elastic Compliance Matrix: (Units=1/GPa)
#
#
# Indices 1 2 3 4 5 6 
#
# 1 0.007931 -0.001953 -0.002312 -0.000736 -0.003401 -0.001292
# 2 -0.001953 0.006878 -0.003073 0.001295 -0.001513 0.000223
# 3 -0.002312 -0.003073 0.010559 0.001732 -0.000401 0.001081
# 4 -0.000736 0.001295 0.001732 0.016273 0.001888 -0.000654
# 5 -0.003401 -0.001513 -0.000401 0.001888 0.020240 -0.000121
# 6 -0.001292 0.000223 0.001081 -0.000654 -0.000121 0.015807
#
#
# Mechanical properties :
#
#
# Convention : Reuss Voigt Hill
#
# Bulk Modulus (GPa) = 93.50892 120.83877 107.17385
# Shear Modulus (GPa) = 52.12297 58.31600 55.21949
#
# Velocity S-wave (km/s) = 4.55510 4.81811 4.68845
# Velocity P-wave (km/s) = 8.05536 8.89130 8.48364
#
# Compressibility (1/GPa) = 0.01069417
#
# Stress axis : x y z
#
# Youngs Moduli (GPa) = 126.08096 145.39291 94.70259
#
# Poissons Ratio (x) = 0.28396 0.21892
# Poissons Ratio (y) = 0.24624 0.29098
# Poissons Ratio (z) = 0.29146 0.44673
#
# Static dielectric constant tensor:
#      x y z
#    x 2.025310 -0.038270 -0.073500 
#    y -0.038270 2.109380 0.101340 
#    z -0.073500 0.101340 2.189720 
# 
# From -- ./inp_files/129072.got.cif
#   From: 2010.05.17/outbox.cif.g08.bks.cpg/sg2_65_cif.got.tgz:129072.got - 2010.06.03 11:33:40.
