data_PCOD9047744
_publ_section_title
;
Structure prediction by ZEFSAII (Michael W. Deem and Ramdas Pophale) SiO2 
 PCOD9047744
Probable space group: P -1
;
_chemical_formula_sum "Si O2"
_cell_formula_units_Z 12
_cell_length_a 9.699842
_cell_length_b 19.814852
_cell_length_c 7.082167
_cell_angle_alpha 137.227981
_cell_angle_beta 48.040337
_cell_angle_gamma 148.574514
_cell_volume 478.516561
_symmetry_space_group_name_H-M "P -1"
_symmetry_group_IT_number 2
_symmetry_cell_setting 'triclinic'
loop_
_space_group_symop_operation_xyz
x,y,z
-x,-y,-z
loop_
_atom_site_type_symbol
_atom_site_label
_atom_site_fract_x
_atom_site_fract_y
_atom_site_fract_z
Si Si1 0.734000 0.667802 0.073562
Si Si2 0.404022 0.816123 0.391621
Si Si3 0.671129 0.097937 0.860678
Si Si4 0.142246 0.324471 0.462890
Si Si5 0.388242 0.617792 0.750219
Si Si6 0.413340 0.731175 0.611020
O O1 0.645435 0.746618 0.361343
O O2 0.020320 0.758127 0.091161
O O3 0.500000 0.500000 0.000000
O O4 0.781115 0.675365 0.821080
O O5 0.311498 0.738852 0.524134
O O6 0.171435 0.795791 0.476927
O O7 0.440552 0.732013 0.065752
O O8 0.645746 0.985916 0.537847
O O9 0.530127 0.150591 0.066029
O O10 0.500000 0.000000 0.000000
O O11 0.329314 0.329427 0.431247
O O12 0.782569 0.530398 0.289738
O O13 0.260271 0.601830 0.635520
#
# Coordination Sequence:
#
# PCOD9047744 Si02
#       6
#     2   2   2   2   2   2
#     4  12  23  42  74 103 136 179 232 287 341 412
#     4  11  24  46  70  94 141 184 227 283 343 407
#     4  10  24  44  70 101 136 186 232 277 347 411
#     4  11  23  44  66 101 141 178 224 287 345 404
#     4  11  25  42  67 106 137 178 232 284 343 407
#     4  11  24  42  71 102 133 183 232 280 344 410
#
# _framework density 25.077501999999999
#
# number of rings (size 3 to 8) (size 9 to 14) (size 15 to 20)
#    0.000    1.000    6.667    0.500    0.000    8.667 
#    0.000    1.667    0.000    0.000    0.000    0.000 
#    0.000    0.000    0.000    0.000    0.000    0.000 
#
# Total GULP energy -66988.906061 kJ/mol
# GULP energy per Si atom -5582.408838 kJ/mol
# Density = 2.502042 g / cm^3
# Si number density = 25.077502 Si / 1000 Ang^3
#
#
#
# Elastic Constant Matrix: (Units=GPa)
#
#
# Indices 1 2 3 4 5 6 
#
# 1 102.9840 45.6475 26.8025 9.8924 1.7316 -4.2946
# 2 45.6475 109.6422 42.8391 16.2096 -6.6008 1.9756
# 3 26.8025 42.8391 165.2883 33.1283 -27.3628 -12.1500
# 4 9.8924 16.2096 33.1283 26.1117 1.5302 6.7132
# 5 1.7316 -6.6008 -27.3628 1.5302 38.1677 -3.7554
# 6 -4.2946 1.9756 -12.1500 6.7132 -3.7554 30.6965
#
#
#
# Elastic Compliance Matrix: (Units=1/GPa)
#
#
# Indices 1 2 3 4 5 6 
#
# 1 0.012218 -0.004790 -0.000614 -0.001261 -0.001590 0.001856
# 2 -0.004790 0.012365 -0.001570 -0.003652 0.001265 -0.001134
# 3 -0.000614 -0.001570 0.012728 -0.018222 0.010629 0.010339
# 4 -0.001261 -0.003652 -0.018222 0.071744 -0.018991 -0.025167
# 5 -0.001590 0.001265 0.010629 -0.018991 0.036100 0.012473
# 6 0.001856 -0.001134 0.010339 -0.025167 0.012473 0.044032
#
#
# Mechanical properties :
#
#
# Convention : Reuss Voigt Hill
#
# Bulk Modulus (GPa) = 42.80103 67.61028 55.20566
# Shear Modulus (GPa) = 23.70548 36.50355 30.10451
#
# Velocity S-wave (km/s) = 3.07789 3.81941 3.46852
# Velocity P-wave (km/s) = 5.45305 6.81686 6.17274
#
# Compressibility (1/GPa) = 0.02336392
#
# Stress axis : x y z
#
# Youngs Moduli (GPa) = 81.84445 80.87603 78.56495
#
# Poissons Ratio (x) = 0.38738 0.04824
# Poissons Ratio (y) = 0.39202 0.12334
# Poissons Ratio (z) = 0.05025 0.12697
#
# Static dielectric constant tensor:
#      x y z
#    x 2.016990 -0.024430 0.079640 
#    y -0.024430 1.971150 -0.034240 
#    z 0.079640 -0.034240 2.061080 
# 
# From -- ./inp_files/218201.got.cif
#   From: 2010.05.17/outbox.cif.g08.bks.cpg/sg2_110_cif.got.tgz:218201.got - 2010.06.03 11:33:40.
