data_PCOD9047871
_publ_section_title
;
Structure prediction by ZEFSAII (Michael W. Deem and Ramdas Pophale) SiO2 
 PCOD9047871
Probable space group: P -1
;
_chemical_formula_sum "Si O2"
_cell_formula_units_Z 12
_cell_length_a 10.398277
_cell_length_b 15.582349
_cell_length_c 11.803044
_cell_angle_alpha 31.148360
_cell_angle_beta 154.708870
_cell_angle_gamma 143.871867
_cell_volume 417.610265
_symmetry_space_group_name_H-M "P -1"
_symmetry_group_IT_number 2
_symmetry_cell_setting 'triclinic'
loop_
_space_group_symop_operation_xyz
x,y,z
-x,-y,-z
loop_
_atom_site_type_symbol
_atom_site_label
_atom_site_fract_x
_atom_site_fract_y
_atom_site_fract_z
Si Si1 0.398489 0.831073 0.689140
Si Si2 0.527159 0.872340 0.449993
Si Si3 0.705199 0.318663 0.925210
Si Si4 0.095044 0.303868 0.876004
Si Si5 0.167811 0.441689 0.463391
Si Si6 0.248700 0.149632 0.582206
O O1 0.059883 0.733991 0.524664
O O2 0.500000 0.000000 0.500000
O O3 0.435897 0.929421 0.726721
O O4 0.616657 0.698250 0.974807
O O5 0.534991 0.811764 0.396677
O O6 0.188331 0.797278 0.301949
O O7 0.791328 0.798126 0.811462
O O8 0.509468 0.398046 0.774427
O O9 0.812182 0.436423 0.768278
O O10 0.470907 0.165514 0.849735
O O11 0.021258 0.282050 0.267592
O O12 0.973499 0.464276 0.650786
O O13 0.000000 0.000000 0.500000
#
# Coordination Sequence:
#
# PCOD9047871 Si02
#       6
#     2   2   2   2   2   2
#     4  10  24  44  71 102 139 184 234 285 344 407
#     4  11  22  44  66 100 137 176 231 284 340 409
#     4  11  26  43  70 105 138 183 229 280 350 411
#     4  11  23  45  69  97 134 183 230 282 341 405
#     4  11  23  46  71 103 144 182 230 288 343 417
#     4  12  23  43  69 103 139 182 228 285 344 412
#
# _framework density 28.734928
#
# number of rings (size 3 to 8) (size 9 to 14) (size 15 to 20)
#    0.000    1.000    3.333    2.500    0.000    6.667 
#    0.000   20.833    0.000    0.000    0.000    0.000 
#    0.000    0.000    0.000    0.000    0.000    0.000 
#
# Total GULP energy -67174.250719 kJ/mol
# GULP energy per Si atom -5597.854227 kJ/mol
# Density = 2.866953 g / cm^3
# Si number density = 28.734928 Si / 1000 Ang^3
#
#
#
# Elastic Constant Matrix: (Units=GPa)
#
#
# Indices 1 2 3 4 5 6 
#
# 1 192.6195 37.4929 49.8670 -5.6998 36.1972 -20.3560
# 2 37.4929 166.6898 37.4342 34.3231 4.3168 -15.3234
# 3 49.8670 37.4342 160.4054 11.8335 19.3999 -4.1716
# 4 -5.6998 34.3231 11.8335 47.4423 0.4440 12.4146
# 5 36.1972 4.3168 19.3999 0.4440 63.3239 -0.7004
# 6 -20.3560 -15.3234 -4.1716 12.4146 -0.7004 64.0889
#
#
#
# Elastic Compliance Matrix: (Units=1/GPa)
#
#
# Indices 1 2 3 4 5 6 
#
# 1 0.006631 -0.001334 -0.001457 0.001814 -0.003251 0.001306
# 2 -0.001334 0.008091 -0.000997 -0.006479 0.000591 0.002707
# 3 -0.001457 -0.000997 0.007165 -0.001226 -0.001286 -0.000011
# 4 0.001814 -0.006479 -0.001226 0.027990 -0.000487 -0.006480
# 5 -0.003251 0.000591 -0.001286 -0.000487 0.018000 -0.000684
# 6 0.001306 0.002707 -0.000011 -0.006480 -0.000684 0.017912
#
#
# Mechanical properties :
#
#
# Convention : Reuss Voigt Hill
#
# Bulk Modulus (GPa) = 69.86719 85.47810 77.67265
# Shear Modulus (GPa) = 50.95075 61.29906 56.12491
#
# Velocity S-wave (km/s) = 4.21542 4.62373 4.42429
# Velocity P-wave (km/s) = 6.93255 7.63655 7.29305
#
# Compressibility (1/GPa) = 0.01431287
#
# Stress axis : x y z
#
# Youngs Moduli (GPa) = 150.80757 123.60019 139.55917
#
# Poissons Ratio (x) = 0.16482 0.20331
# Poissons Ratio (y) = 0.20110 0.13910
# Poissons Ratio (z) = 0.21970 0.12319
#
# Static dielectric constant tensor:
#      x y z
#    x 2.363180 0.073390 -0.067130 
#    y 0.073390 2.370620 -0.125420 
#    z -0.067130 -0.125420 2.174350 
# 
# From -- ./inp_files/24512.got.cif
#   From: 2010.05.17/outbox.cif.g08.bks.cpg/sg2_13_cif.got.tgz:24512.got - 2010.06.03 11:33:40.
