data_PCOD9047089
_publ_section_title
;
Structure prediction by ZEFSAII (Michael W. Deem and Ramdas Pophale) SiO2 
 PCOD9047089
Probable space group: P -1
;
_chemical_formula_sum "Si O2"
_cell_formula_units_Z 16
_cell_length_a 11.115596
_cell_length_b 10.558171
_cell_length_c 19.465425
_cell_angle_alpha 31.918277
_cell_angle_beta 140.499012
_cell_angle_gamma 149.504274
_cell_volume 606.008685
_symmetry_space_group_name_H-M "P -1"
_symmetry_group_IT_number 2
_symmetry_cell_setting 'triclinic'
loop_
_space_group_symop_operation_xyz
x,y,z
-x,-y,-z
loop_
_atom_site_type_symbol
_atom_site_label
_atom_site_fract_x
_atom_site_fract_y
_atom_site_fract_z
Si Si1 0.316792 0.073297 0.882480
Si Si2 0.693524 0.681281 0.722233
Si Si3 0.228570 0.239045 0.111183
Si Si4 0.066496 0.659576 0.845675
Si Si5 0.914072 0.333301 0.467158
Si Si6 0.188724 0.479047 0.390555
Si Si7 0.241726 0.360814 0.834281
Si Si8 0.301254 0.019809 0.656368
O O1 0.422503 0.381631 0.747318
O O2 0.273599 0.138206 0.908291
O O3 0.103652 0.789230 0.879089
O O4 0.500000 0.000000 0.000000
O O5 0.753772 0.772583 0.790689
O O6 0.799367 0.556285 0.773173
O O7 0.760737 0.977357 0.577960
O O8 0.498266 0.417485 0.117853
O O9 0.137913 0.441602 0.967663
O O10 0.037056 0.907052 0.144882
O O11 0.249020 0.948580 0.746054
O O12 0.768904 0.424013 0.321282
O O13 0.000000 0.500000 0.500000
O O14 0.138173 0.453178 0.461073
O O15 0.247817 0.249166 0.503422
O O16 0.423383 0.810282 0.320096
O O17 0.921443 0.315139 0.316411
#
# Coordination Sequence:
#
# PCOD9047089 Si02
#       8
#     2   2   2   2   2   2   2   2
#     4  11  21  36  60  98 141 177 218 283 344 395
#     4  11  22  37  59 102 136 178 215 283 345 404
#     4  11  23  39  61  95 145 170 222 280 336 402
#     4  12  21  37  69  98 131 179 230 277 342 408
#     4  12  24  45  72 101 140 181 226 276 352 419
#     4  10  24  48  63 100 135 174 225 290 324 401
#     4  11  24  41  58  98 138 180 215 272 350 393
#     4  10  24  43  71  94 134 178 231 276 337 385
#
# _framework density 26.402262
#
# number of rings (size 3 to 8) (size 9 to 14) (size 15 to 20)
#    0.000    1.000    6.250    1.125    1.750    4.000 
#    4.500    0.000    0.000    4.500    0.000    0.000 
#    0.000    0.000    0.000    0.000    0.000    0.000 
#
# Total GULP energy -89268.556764 kJ/mol
# GULP energy per Si atom -5579.284798 kJ/mol
# Density = 2.634217 g / cm^3
# Si number density = 26.402262 Si / 1000 Ang^3
#
#
#
# Elastic Constant Matrix: (Units=GPa)
#
#
# Indices 1 2 3 4 5 6 
#
# 1 74.3471 59.7327 5.6834 4.2961 -3.5542 15.4936
# 2 59.7327 172.8822 36.1810 -36.3204 -8.3508 36.2133
# 3 5.6834 36.1810 83.2450 -15.9060 8.5561 8.3448
# 4 4.2961 -36.3204 -15.9060 27.8615 8.3416 -3.4648
# 5 -3.5542 -8.3508 8.5561 8.3416 32.0812 -6.9907
# 6 15.4936 36.2133 8.3448 -3.4648 -6.9907 44.2821
#
#
#
# Elastic Compliance Matrix: (Units=1/GPa)
#
#
# Indices 1 2 3 4 5 6 
#
# 1 0.026208 -0.014019 -0.001235 -0.024727 0.006361 0.001597
# 2 -0.014019 0.017483 -0.000467 0.025233 -0.005216 -0.008153
# 3 -0.001235 -0.000467 0.015280 0.010256 -0.007535 -0.002453
# 4 -0.024727 0.025233 0.010256 0.084017 -0.023148 -0.010997
# 5 0.006361 -0.005216 -0.007535 -0.023148 0.040292 0.008009
# 6 0.001597 -0.008153 -0.002453 -0.010997 0.008009 0.029557
#
#
# Mechanical properties :
#
#
# Convention : Reuss Voigt Hill
#
# Bulk Modulus (GPa) = 36.32387 59.29650 47.81018
# Shear Modulus (GPa) = 19.72750 36.10344 27.91547
#
# Velocity S-wave (km/s) = 2.73644 3.70190 3.25516
# Velocity P-wave (km/s) = 4.87564 6.38590 5.68118
#
# Compressibility (1/GPa) = 0.02753011
#
# Stress axis : x y z
#
# Youngs Moduli (GPa) = 38.15624 57.19959 65.44580
#
# Poissons Ratio (x) = 0.80186 0.08082
# Poissons Ratio (y) = 0.53490 0.03054
# Poissons Ratio (z) = 0.04712 0.02669
#
# Static dielectric constant tensor:
#      x y z
#    x 2.166220 -0.081400 -0.079310 
#    y -0.081400 2.063170 -0.059480 
#    z -0.079310 -0.059480 1.984820 
# 
# From -- ./inp_files/595067.got.cif
#   From: 2010.05.17/outbox.cif.g08.bks.cpg/sg2_298_cif.got.tgz:595067.got - 2010.06.03 11:33:40.
