data_PCOD9047851
_publ_section_title
;
Structure prediction by ZEFSAII (Michael W. Deem and Ramdas Pophale) SiO2 
 PCOD9047851
Probable space group: P -1
;
_chemical_formula_sum "Si O2"
_cell_formula_units_Z 16
_cell_length_a 23.201255
_cell_length_b 10.970051
_cell_length_c 6.934901
_cell_angle_alpha 115.906719
_cell_angle_beta 129.291895
_cell_angle_gamma 31.524731
_cell_volume 690.774810
_symmetry_space_group_name_H-M "P -1"
_symmetry_group_IT_number 2
_symmetry_cell_setting 'triclinic'
loop_
_space_group_symop_operation_xyz
x,y,z
-x,-y,-z
loop_
_atom_site_type_symbol
_atom_site_label
_atom_site_fract_x
_atom_site_fract_y
_atom_site_fract_z
Si Si1 0.213493 0.410978 0.888212
Si Si2 0.610622 0.531920 0.151253
Si Si3 0.641820 0.261018 0.743842
Si Si4 0.569618 0.766385 0.582418
Si Si5 0.392722 0.959056 0.688195
Si Si6 0.932113 0.591175 0.213635
Si Si7 0.117079 0.716229 0.554001
Si Si8 0.921269 0.820096 0.035743
O O1 0.183086 0.339189 0.928360
O O2 0.113718 0.645751 0.705533
O O3 0.294535 0.212183 0.752655
O O4 0.284542 0.415726 0.170235
O O5 0.575242 0.626376 0.360712
O O6 0.741061 0.426793 0.295019
O O7 0.628613 0.349554 0.989335
O O8 0.483191 0.767864 0.920557
O O9 0.500000 0.500000 0.500000
O O10 0.666854 0.068736 0.595291
O O11 0.788074 0.100642 0.884741
O O12 0.494159 0.871411 0.695571
O O13 0.500000 0.000000 0.500000
O O14 0.892112 0.788061 0.155887
O O15 0.000000 0.500000 0.500000
O O16 0.041817 0.352687 0.152802
O O17 0.057550 0.697547 0.263940
O O18 0.000000 0.000000 0.500000
#
# Coordination Sequence:
#
# PCOD9047851 Si02
#       8
#     2   2   2   2   2   2   2   2
#     4  12  24  45  72 106 141 182 238 296 351 413
#     4  11  23  46  67 100 142 184 231 285 352 415
#     4  10  24  44  70  99 139 187 228 286 350 416
#     4  12  24  40  69 105 136 176 232 291 351 409
#     4  11  24  44  70 101 139 181 233 295 344 407
#     4  11  24  43  70 107 136 180 236 289 346 411
#     4  12  24  45  71  98 142 188 230 285 350 419
#     4  11  24  45  72 101 142 185 233 289 347 416
#
# _framework density 23.162393999999999
#
# number of rings (size 3 to 8) (size 9 to 14) (size 15 to 20)
#    0.000    0.750    5.000    2.625    3.500    0.500 
#    0.000   11.250    0.000    0.000    0.000    0.000 
#    0.000    0.000    0.000    0.000    0.000    0.000 
#
# Total GULP energy -89115.186659 kJ/mol
# GULP energy per Si atom -5569.699166 kJ/mol
# Density = 2.310968 g / cm^3
# Si number density = 23.162394 Si / 1000 Ang^3
#
#
#
# Elastic Constant Matrix: (Units=GPa)
#
#
# Indices 1 2 3 4 5 6 
#
# 1 56.4128 0.5610 12.3883 5.5142 3.8216 -5.8471
# 2 0.5610 93.5483 49.1804 13.0839 -1.9444 7.0271
# 3 12.3883 49.1804 120.6780 11.0984 9.4605 9.5139
# 4 5.5142 13.0839 11.0984 38.8734 -10.0990 4.6433
# 5 3.8216 -1.9444 9.4605 -10.0990 29.3021 4.8970
# 6 -5.8471 7.0271 9.5139 4.6433 4.8970 22.4298
#
#
#
# Elastic Compliance Matrix: (Units=1/GPa)
#
#
# Indices 1 2 3 4 5 6 
#
# 1 0.019795 0.001048 -0.002277 -0.004657 -0.004683 0.007785
# 2 0.001048 0.014201 -0.005685 -0.002577 0.002033 -0.001675
# 3 -0.002277 -0.005685 0.011510 -0.001798 -0.004007 -0.002448
# 4 -0.004657 -0.002577 -0.001798 0.032463 0.013771 -0.009371
# 5 -0.004683 0.002033 -0.004007 0.013771 0.042984 -0.012394
# 6 0.007785 -0.001675 -0.002448 -0.009371 -0.012394 0.052822
#
#
# Mechanical properties :
#
#
# Convention : Reuss Voigt Hill
#
# Bulk Modulus (GPa) = 31.56946 43.87764 37.72355
# Shear Modulus (GPa) = 25.23181 32.02167 28.62674
#
# Velocity S-wave (km/s) = 3.30410 3.72221 3.51937
# Velocity P-wave (km/s) = 5.31181 6.12027 5.73032
#
# Compressibility (1/GPa) = 0.03167618
#
# Stress axis : x y z
#
# Youngs Moduli (GPa) = 50.51661 70.41918 86.88360
#
# Poissons Ratio (x) = -0.07379 0.19788
# Poissons Ratio (y) = -0.05293 0.49395
# Poissons Ratio (z) = 0.11505 0.40034
#
# Static dielectric constant tensor:
#      x y z
#    x 1.469510 -0.020820 0.012220 
#    y -0.020820 1.862030 -0.006070 
#    z 0.012220 -0.006070 1.924850 
# 
# From -- ./inp_files/123749.got.cif
#   From: 2010.05.17/outbox.cif.g08.bks.cpg/sg2_62_cif.got.tgz:123749.got - 2010.06.03 11:33:40.
