data_PCOD9047416
_publ_section_title
;
Structure prediction by ZEFSAII (Michael W. Deem and Ramdas Pophale) SiO2 
 PCOD9047416
Probable space group: P -1
;
_chemical_formula_sum "Si O2"
_cell_formula_units_Z 14
_cell_length_a 10.065844
_cell_length_b 17.522520
_cell_length_c 8.106707
_cell_angle_alpha 31.309268
_cell_angle_beta 136.544898
_cell_angle_gamma 137.770706
_cell_volume 481.250771
_symmetry_space_group_name_H-M "P -1"
_symmetry_group_IT_number 2
_symmetry_cell_setting 'triclinic'
loop_
_space_group_symop_operation_xyz
x,y,z
-x,-y,-z
loop_
_atom_site_type_symbol
_atom_site_label
_atom_site_fract_x
_atom_site_fract_y
_atom_site_fract_z
Si Si1 0.371803 0.225564 0.608657
Si Si2 0.857342 0.818858 0.863327
Si Si3 0.959041 0.146307 0.529101
Si Si4 0.346296 0.939952 0.316720
Si Si5 0.555041 0.370410 0.020159
Si Si6 0.235420 0.590818 0.209755
Si Si7 0.878220 0.382787 0.462811
O O1 0.266414 0.200975 0.382714
O O2 0.585543 0.364168 0.572794
O O3 0.200518 0.233017 0.571875
O O4 0.407586 0.067429 0.995440
O O5 0.683976 0.705700 0.036929
O O6 0.904184 0.995432 0.640310
O O7 0.059872 0.770119 0.134579
O O8 0.870290 0.090162 0.734077
O O9 0.843750 0.262887 0.150806
O O10 0.352604 0.771430 0.579540
O O11 0.500000 0.000000 0.500000
O O12 0.699117 0.468484 0.109955
O O13 0.640535 0.414448 0.835105
O O14 0.033447 0.445564 0.328977
O O15 0.000000 0.500000 0.500000
#
# Coordination Sequence:
#
# PCOD9047416 Si02
#       7
#     2   2   2   2   2   2   2
#     4  12  25  41  66 100 131 172 217 261 319 393
#     4  12  25  41  68  95 135 175 212 258 329 384
#     4  11  23  41  69  97 127 169 218 273 313 378
#     4   9  21  42  68  94 129 159 223 267 315 369
#     4   9  22  41  67  95 127 165 215 267 319 381
#     4  11  25  42  70  98 128 165 221 270 326 369
#     4  10  24  44  66  98 130 168 213 273 322 380
#
# _framework density 29.090862999999999
#
# number of rings (size 3 to 8) (size 9 to 14) (size 15 to 20)
#    0.857    0.571    1.429    3.000    2.000    8.000 
#    0.000    1.429    0.000    0.000    0.000    0.000 
#    0.000    0.000    0.000    0.000    0.000    0.000 
#
# Total GULP energy -78472.629570 kJ/mol
# GULP energy per Si atom -5605.187826 kJ/mol
# Density = 2.902465 g / cm^3
# Si number density = 29.090863 Si / 1000 Ang^3
#
#
#
# Elastic Constant Matrix: (Units=GPa)
#
#
# Indices 1 2 3 4 5 6 
#
# 1 75.2975 14.8511 11.8967 -5.8473 -7.0658 17.6192
# 2 14.8511 143.7497 55.7965 2.0015 6.3027 9.7924
# 3 11.8967 55.7965 140.6504 14.9029 9.5505 -11.9450
# 4 -5.8473 2.0015 14.9029 64.7459 4.4912 -0.3238
# 5 -7.0658 6.3027 9.5505 4.4912 54.1986 4.8204
# 6 17.6192 9.7924 -11.9450 -0.3238 4.8204 63.4143
#
#
#
# Elastic Compliance Matrix: (Units=1/GPa)
#
#
# Indices 1 2 3 4 5 6 
#
# 1 0.015148 -0.000714 -0.001738 0.001584 0.002644 -0.004619
# 2 -0.000714 0.008514 -0.003493 0.000492 -0.000353 -0.001745
# 3 -0.001738 -0.003493 0.009206 -0.002048 -0.001527 0.002862
# 4 0.001584 0.000492 -0.002048 0.016093 -0.000756 -0.000762
# 5 0.002644 -0.000353 -0.001527 -0.000756 0.019386 -0.002445
# 6 -0.004619 -0.001745 0.002862 -0.000762 -0.002445 0.018043
#
#
# Mechanical properties :
#
#
# Convention : Reuss Voigt Hill
#
# Bulk Modulus (GPa) = 47.66859 58.30960 52.98910
# Shear Modulus (GPa) = 47.49605 54.94864 51.22234
#
# Velocity S-wave (km/s) = 4.04503 4.35082 4.20071
# Velocity P-wave (km/s) = 6.18369 6.73253 6.46394
#
# Compressibility (1/GPa) = 0.02097817
#
# Stress axis : x y z
#
# Youngs Moduli (GPa) = 66.01637 117.45680 108.61992
#
# Poissons Ratio (x) = 0.08384 0.18874
# Poissons Ratio (y) = 0.04712 0.37946
# Poissons Ratio (z) = 0.11471 0.41033
#
# Static dielectric constant tensor:
#      x y z
#    x 2.369370 0.008220 0.038950 
#    y 0.008220 7.245240 0.902550 
#    z 0.038950 0.902550 2.653840 
# 
# From -- ./inp_files/281438.got.cif
#   From: 2010.05.17/outbox.cif.g08.bks.cpg/sg2_141_cif.got.tgz:281438.got - 2010.06.03 11:33:40.
