data_PCOD9047338
_publ_section_title
;
Structure prediction by ZEFSAII (Michael W. Deem and Ramdas Pophale) SiO2 
 PCOD9047338
Probable space group: P -1
;
_chemical_formula_sum "Si O2"
_cell_formula_units_Z 16
_cell_length_a 19.306506
_cell_length_b 7.323171
_cell_length_c 7.418009
_cell_angle_alpha 114.734271
_cell_angle_beta 142.813366
_cell_angle_gamma 60.421745
_cell_volume 550.663932
_symmetry_space_group_name_H-M "P -1"
_symmetry_group_IT_number 2
_symmetry_cell_setting 'triclinic'
loop_
_space_group_symop_operation_xyz
x,y,z
-x,-y,-z
loop_
_atom_site_type_symbol
_atom_site_label
_atom_site_fract_x
_atom_site_fract_y
_atom_site_fract_z
Si Si1 0.180804 0.577369 0.341721
Si Si2 0.548719 0.701381 0.218452
Si Si3 0.368859 0.917356 0.220376
Si Si4 0.542426 0.215066 0.294635
Si Si5 0.868480 0.000734 0.781735
Si Si6 0.038005 0.263133 0.795424
Si Si7 0.314341 0.540973 0.097667
Si Si8 0.828647 0.748361 0.267236
O O1 0.200528 0.769231 0.343614
O O2 0.096300 0.675201 0.379310
O O3 0.308853 0.402433 0.555490
O O4 0.093277 0.457950 0.018196
O O5 0.494551 0.804806 0.338080
O O6 0.612985 0.386574 0.560184
O O7 0.500000 0.500000 0.000000
O O8 0.465895 0.847554 0.951932
O O9 0.393010 0.959898 0.497554
O O10 0.304066 0.733249 0.020534
O O11 0.284828 0.105480 0.015122
O O12 0.407491 0.336603 0.121043
O O13 0.118671 0.076412 0.015903
O O14 0.834157 0.830917 0.514107
O O15 0.000000 0.000000 0.000000
O O16 0.061541 0.224275 0.615513
O O17 0.197020 0.476449 0.874753
#
# Coordination Sequence:
#
# PCOD9047338 Si02
#       8
#     2   2   2   2   2   2   2   2
#     4  10  25  49  76 103 147 193 245 299 363 434
#     4  12  21  39  76 102 139 198 230 286 378 425
#     4  10  24  44  65 109 151 187 237 292 365 430
#     4   9  21  43  63 101 150 189 237 285 355 432
#     4  10  25  49  71 107 143 179 254 301 353 429
#     4  10  26  51  73 108 142 193 250 300 354 429
#     4   9  21  44  63 104 153 178 246 282 347 455
#     4  12  26  44  77 109 143 197 239 297 366 433
#
# _framework density 29.055834000000001
#
# number of rings (size 3 to 8) (size 9 to 14) (size 15 to 20)
#    0.750    1.000    1.250    0.750    5.250    5.500 
#    0.000    8.750    0.000    0.000    0.000    0.000 
#    0.000    0.000    0.000    0.000    0.000    0.000 
#
# Total GULP energy -89633.914579 kJ/mol
# GULP energy per Si atom -5602.119661 kJ/mol
# Density = 2.898970 g / cm^3
# Si number density = 29.055834 Si / 1000 Ang^3
#
#
#
# Elastic Constant Matrix: (Units=GPa)
#
#
# Indices 1 2 3 4 5 6 
#
# 1 147.1510 65.1395 42.7345 -18.2569 12.4567 -4.4376
# 2 65.1395 121.3213 43.5244 -16.8136 2.4792 22.2052
# 3 42.7345 43.5244 151.2908 -5.6210 0.1786 -13.0914
# 4 -18.2569 -16.8136 -5.6210 48.1269 -0.1250 6.4757
# 5 12.4567 2.4792 0.1786 -0.1250 44.0494 -8.4190
# 6 -4.4376 22.2052 -13.0914 6.4757 -8.4190 67.3979
#
#
#
# Elastic Compliance Matrix: (Units=1/GPa)
#
#
# Indices 1 2 3 4 5 6 
#
# 1 0.009693 -0.004804 -0.001156 0.001647 -0.002162 0.001568
# 2 -0.004804 0.013334 -0.002845 0.003260 -0.000447 -0.005631
# 3 -0.001156 -0.002845 0.007947 -0.000852 0.000950 0.002605
# 4 0.001647 0.003260 -0.000852 0.022909 -0.001247 -0.003488
# 5 -0.002162 -0.000447 0.000950 -0.001247 0.023962 0.003303
# 6 0.001568 -0.005631 0.002605 -0.003488 0.003303 0.018050
#
#
# Mechanical properties :
#
#
# Convention : Reuss Voigt Hill
#
# Bulk Modulus (GPa) = 74.82665 80.28444 77.55554
# Shear Modulus (GPa) = 42.38746 49.80583 46.09664
#
# Velocity S-wave (km/s) = 3.82360 4.14471 3.98739
# Velocity P-wave (km/s) = 6.73067 7.11308 6.92451
#
# Compressibility (1/GPa) = 0.01336422
#
# Stress axis : x y z
#
# Youngs Moduli (GPa) = 103.17016 74.99600 125.82602
#
# Poissons Ratio (x) = 0.36027 0.14551
# Poissons Ratio (y) = 0.49562 0.35794
# Poissons Ratio (z) = 0.11931 0.21334
#
# Static dielectric constant tensor:
#      x y z
#    x 2.360580 0.072950 -0.042920 
#    y 0.072950 2.461400 0.091070 
#    z -0.042920 0.091070 2.221260 
# 
# From -- ./inp_files/342037.got.cif
#   From: 2010.05.17/outbox.cif.g08.bks.cpg/sg2_172_cif.got.tgz:342037.got - 2010.06.03 11:33:40.
