data_PCOD9047385
_publ_section_title
;
Structure prediction by ZEFSAII (Michael W. Deem and Ramdas Pophale) SiO2 
 PCOD9047385
Probable space group: P -1
;
_chemical_formula_sum "Si O2"
_cell_formula_units_Z 15
_cell_length_a 9.157428
_cell_length_b 25.514953
_cell_length_c 9.635298
_cell_angle_alpha 26.868342
_cell_angle_beta 133.420677
_cell_angle_gamma 143.712982
_cell_volume 597.919131
_symmetry_space_group_name_H-M "P -1"
_symmetry_group_IT_number 2
_symmetry_cell_setting 'triclinic'
loop_
_space_group_symop_operation_xyz
x,y,z
-x,-y,-z
loop_
_atom_site_type_symbol
_atom_site_label
_atom_site_fract_x
_atom_site_fract_y
_atom_site_fract_z
Si Si1 0.774899 0.395622 0.416277
Si Si2 0.000000 0.000000 0.000000
Si Si3 0.017384 0.636882 0.639194
Si Si4 0.746518 0.780139 0.616150
Si Si5 0.875714 0.284103 0.001303
Si Si6 0.424679 0.839077 0.650012
Si Si7 0.285356 0.993920 0.788569
Si Si8 0.219272 0.226734 0.860425
O O1 0.881651 0.342880 0.497672
O O2 0.519475 0.357126 0.280848
O O3 0.968775 0.563591 0.175464
O O4 0.731788 0.305529 0.738913
O O5 0.869217 0.887498 0.312103
O O6 0.855827 0.865674 0.110238
O O7 0.212234 0.761283 0.578607
O O8 0.773144 0.633386 0.491944
O O9 0.000000 0.500000 0.000000
O O10 0.923499 0.736224 0.879402
O O11 0.700886 0.864461 0.500624
O O12 0.701549 0.161860 0.288786
O O13 0.639609 0.988642 0.365564
O O14 0.541972 0.754747 0.964095
O O15 0.015145 0.866994 0.965932
O O16 0.500000 0.000000 0.000000
#
# Coordination Sequence:
#
# PCOD9047385 Si02
#       8
#     2   1   2   2   2   2   2   2
#     4  11  24  46  68 103 141 189 233 296 352 425
#     4  10  24  44  66 104 138 184 230 290 350 420
#     4  12  25  46  75 106 144 187 240 297 358 426
#     4  11  23  44  70  98 138 189 229 288 362 412
#     4  11  26  44  70 102 144 183 243 286 358 425
#     4  12  24  46  73 108 137 192 241 295 355 430
#     4  11  23  45  72 101 141 184 237 294 355 420
#     4  11  25  46  73 104 148 184 244 291 364 425
#
# _framework density 25.087005000000001
#
# number of rings (size 3 to 8) (size 9 to 14) (size 15 to 20)
#    0.000    0.800    4.000    2.400    3.733    0.533 
#    9.600    6.667    0.000    0.000    0.000    0.000 
#    0.000    0.000    0.000    0.000    0.000    0.000 
#
# Total GULP energy -83784.369134 kJ/mol
# GULP energy per Si atom -5585.624609 kJ/mol
# Density = 2.502991 g / cm^3
# Si number density = 25.087005 Si / 1000 Ang^3
#
#
#
# Elastic Constant Matrix: (Units=GPa)
#
#
# Indices 1 2 3 4 5 6 
#
# 1 102.4148 25.7600 29.7687 19.6817 1.4922 0.2622
# 2 25.7600 69.7470 26.9020 12.3331 15.2351 -2.9985
# 3 29.7687 26.9020 55.9354 12.7903 5.6288 -4.1305
# 4 19.6817 12.3331 12.7903 26.2209 7.9706 4.6526
# 5 1.4922 15.2351 5.6288 7.9706 57.0340 21.5054
# 6 0.2622 -2.9985 -4.1305 4.6526 21.5054 37.1513
#
#
#
# Elastic Compliance Matrix: (Units=1/GPa)
#
#
# Indices 1 2 3 4 5 6 
#
# 1 0.012953 -0.002351 -0.004491 -0.006868 0.002126 -0.001151
# 2 -0.002351 0.019831 -0.006565 -0.003407 -0.005894 0.004725
# 3 -0.004491 -0.006565 0.025229 -0.006157 -0.001175 0.003758
# 4 -0.006868 -0.003407 -0.006157 0.049829 -0.003287 -0.005248
# 5 0.002126 -0.005894 -0.001175 -0.003287 0.025209 -0.014802
# 6 -0.001151 0.004725 0.003758 -0.005248 -0.014802 0.036950
#
#
# Mechanical properties :
#
#
# Convention : Reuss Voigt Hill
#
# Bulk Modulus (GPa) = 32.05351 43.66207 37.85779
# Shear Modulus (GPa) = 24.12941 33.79234 28.96087
#
# Velocity S-wave (km/s) = 3.10470 3.67414 3.40136
# Velocity P-wave (km/s) = 5.06526 5.95324 5.52712
#
# Compressibility (1/GPa) = 0.03119784
#
# Stress axis : x y z
#
# Youngs Moduli (GPa) = 77.20283 50.42554 39.63652
#
# Poissons Ratio (x) = 0.11856 0.17802
# Poissons Ratio (y) = 0.18152 0.26023
# Poissons Ratio (z) = 0.34674 0.33106
#
# Static dielectric constant tensor:
#      x y z
#    x 1.971890 0.014860 -0.044620 
#    y 0.014860 1.944050 -0.014920 
#    z -0.044620 -0.014920 2.016030 
# 
# From -- ./inp_files/225905.got.cif
#   From: 2010.05.17/outbox.cif.g08.bks.cpg/sg2_113_cif.got.tgz:225905.got - 2010.06.03 11:33:40.
