data_PCOD9047538
_publ_section_title
;
Structure prediction by ZEFSAII (Michael W. Deem and Ramdas Pophale) SiO2 
 PCOD9047538
Probable space group: P -1
;
_chemical_formula_sum "Si O2"
_cell_formula_units_Z 14
_cell_length_a 10.870069
_cell_length_b 8.375232
_cell_length_c 12.133335
_cell_angle_alpha 125.531344
_cell_angle_beta 41.147690
_cell_angle_gamma 122.339204
_cell_volume 581.647746
_symmetry_space_group_name_H-M "P -1"
_symmetry_group_IT_number 2
_symmetry_cell_setting 'triclinic'
loop_
_space_group_symop_operation_xyz
x,y,z
-x,-y,-z
loop_
_atom_site_type_symbol
_atom_site_label
_atom_site_fract_x
_atom_site_fract_y
_atom_site_fract_z
Si Si1 0.570945 0.726508 0.580595
Si Si2 0.818272 0.229289 0.750547
Si Si3 0.402995 0.277251 0.009865
Si Si4 0.115401 0.409429 0.980941
Si Si5 0.686521 0.904141 0.356863
Si Si6 0.788234 0.074582 0.145041
Si Si7 0.838410 0.802216 0.639696
O O1 0.500000 0.500000 0.500000
O O2 0.705744 0.868134 0.458690
O O3 0.379792 0.815616 0.738819
O O4 0.685371 0.730513 0.617544
O O5 0.850973 0.428388 0.881114
O O6 0.962178 0.255320 0.559076
O O7 0.866418 0.043149 0.712895
O O8 0.591872 0.180363 0.862733
O O9 0.264208 0.272347 0.206884
O O10 0.500000 0.500000 0.000000
O O11 0.279234 0.145630 0.947507
O O12 0.971843 0.211937 0.031193
O O13 0.301330 0.320914 0.783176
O O14 0.000000 0.500000 0.000000
O O15 0.500000 0.000000 0.500000
O O16 0.815625 0.060651 0.252777
#
# Coordination Sequence:
#
# PCOD9047538 Si02
#       7
#     2   2   2   2   2   2   2
#     4  11  23  41  70 104 135 185 238 301 357 428
#     4  11  25  47  72 104 144 192 244 303 365 433
#     4  12  27  46  73 102 151 194 237 299 373 440
#     4  12  24  43  75 108 141 189 253 301 361 437
#     4  10  24  44  68 101 149 184 232 299 369 428
#     4  11  24  45  67 107 143 187 236 300 367 433
#     4  11  25  46  73 106 145 188 249 302 365 437
#
# _framework density 24.069551000000001
#
# number of rings (size 3 to 8) (size 9 to 14) (size 15 to 20)
#    0.000    0.857    1.429    5.143    6.000    1.714 
#    2.571    0.000    0.000    0.000    0.000    0.000 
#    0.000    0.000    0.000    0.000    0.000    0.000 
#
# Total GULP energy -78165.594005 kJ/mol
# GULP energy per Si atom -5583.256715 kJ/mol
# Density = 2.401477 g / cm^3
# Si number density = 24.069551 Si / 1000 Ang^3
#
#
#
# Elastic Constant Matrix: (Units=GPa)
#
#
# Indices 1 2 3 4 5 6 
#
# 1 89.9511 20.3694 37.6969 -3.1507 -10.1817 12.3277
# 2 20.3694 109.9350 42.4638 -7.1204 -8.5980 7.8067
# 3 37.6969 42.4638 145.2540 1.2066 -21.8455 -1.6263
# 4 -3.1507 -7.1204 1.2066 59.4559 -11.0028 9.7439
# 5 -10.1817 -8.5980 -21.8455 -11.0028 26.3623 -1.8076
# 6 12.3277 7.8067 -1.6263 9.7439 -1.8076 38.1521
#
#
#
# Elastic Compliance Matrix: (Units=1/GPa)
#
#
# Indices 1 2 3 4 5 6 
#
# 1 0.013572 -0.000669 -0.002926 0.002057 0.003132 -0.004750
# 2 -0.000669 0.010725 -0.002763 0.002020 0.001619 -0.002535
# 3 -0.002926 -0.002763 0.009363 0.000060 0.005902 0.002174
# 4 0.002057 0.002020 0.000060 0.019841 0.009393 -0.005698
# 5 0.003132 0.001619 0.005902 0.009393 0.048399 -0.001197
# 6 -0.004750 -0.002535 0.002174 -0.005698 -0.001197 0.029756
#
#
# Mechanical properties :
#
#
# Convention : Reuss Voigt Hill
#
# Bulk Modulus (GPa) = 47.74740 60.68891 54.21815
# Shear Modulus (GPa) = 33.03496 41.10140 37.06818
#
# Velocity S-wave (km/s) = 3.70872 4.13681 3.92860
# Velocity P-wave (km/s) = 6.18221 6.93443 6.56910
#
# Compressibility (1/GPa) = 0.02094355
#
# Stress axis : x y z
#
# Youngs Moduli (GPa) = 73.67872 93.23840 106.80164
#
# Poissons Ratio (x) = 0.06239 0.31251
# Poissons Ratio (y) = 0.04930 0.29514
# Poissons Ratio (z) = 0.21559 0.25766
#
# Static dielectric constant tensor:
#      x y z
#    x 1.932740 -0.037000 0.003760 
#    y -0.037000 1.916200 -0.018450 
#    z 0.003760 -0.018450 2.002570 
# 
# From -- ./inp_files/419878.got.cif
#   From: 2010.05.17/outbox.cif.g08.bks.cpg/sg2_210_cif.got.tgz:419878.got - 2010.06.03 11:33:40.
