data_PCOD9047587
_publ_section_title
;
Structure prediction by ZEFSAII (Michael W. Deem and Ramdas Pophale) SiO2 
 PCOD9047587
Probable space group: P -1
;
_chemical_formula_sum "Si O2"
_cell_formula_units_Z 16
_cell_length_a 15.133414
_cell_length_b 9.851564
_cell_length_c 9.330432
_cell_angle_alpha 43.782817
_cell_angle_beta 98.599110
_cell_angle_gamma 66.131740
_cell_volume 630.313364
_symmetry_space_group_name_H-M "P -1"
_symmetry_group_IT_number 2
_symmetry_cell_setting 'triclinic'
loop_
_space_group_symop_operation_xyz
x,y,z
-x,-y,-z
loop_
_atom_site_type_symbol
_atom_site_label
_atom_site_fract_x
_atom_site_fract_y
_atom_site_fract_z
Si Si1 0.945698 0.896916 0.142320
Si Si2 0.241871 0.535940 0.163383
Si Si3 0.015084 0.174406 0.280246
Si Si4 0.384807 0.921299 0.350639
Si Si5 0.459040 0.339456 0.144472
Si Si6 0.398621 0.258948 0.664298
Si Si7 0.299980 0.627379 0.616434
Si Si8 0.910369 0.559195 0.219917
O O1 0.289719 0.524437 0.546600
O O2 0.921289 0.760351 0.130385
O O3 0.000000 0.000000 0.000000
O O4 0.814164 0.184235 0.975938
O O5 0.330901 0.494470 0.094768
O O6 0.320222 0.281138 0.498633
O O7 0.115179 0.623087 0.007653
O O8 0.999827 0.371660 0.243204
O O9 0.000000 0.000000 0.500000
O O10 0.158417 0.919713 0.431282
O O11 0.422629 0.932261 0.512688
O O12 0.505399 0.758904 0.393365
O O13 0.368319 0.717183 0.517966
O O14 0.242686 0.234345 0.021092
O O15 0.500000 0.500000 0.000000
O O16 0.402568 0.361437 0.960143
O O17 0.500000 0.000000 0.000000
O O18 0.043100 0.655652 0.475289
#
# Coordination Sequence:
#
# PCOD9047587 Si02
#       8
#     2   2   2   2   2   2   2   2
#     4  11  26  47  77 108 158 202 248 323 385 461
#     4  11  24  45  73 108 152 200 252 314 390 448
#     4  12  25  44  77 111 154 201 250 320 380 459
#     4  10  24  44  68 107 147 194 254 317 368 461
#     4   9  20  42  71  99 143 201 250 306 381 452
#     4  11  27  43  71 104 146 201 258 313 372 455
#     4  11  23  45  73 102 150 199 253 312 394 441
#     4  11  26  47  74 116 152 199 264 307 388 465
#
# _framework density 25.384201000000001
#
# number of rings (size 3 to 8) (size 9 to 14) (size 15 to 20)
#    0.000    1.250    2.500    1.125    7.000    3.500 
#    0.000    3.750    0.000    0.000    0.000    0.000 
#    0.000    0.000    0.000    0.000    0.000    0.000 
#
# Total GULP energy -89541.596310 kJ/mol
# GULP energy per Si atom -5596.349769 kJ/mol
# Density = 2.532643 g / cm^3
# Si number density = 25.384201 Si / 1000 Ang^3
#
#
#
# Elastic Constant Matrix: (Units=GPa)
#
#
# Indices 1 2 3 4 5 6 
#
# 1 121.5147 68.7718 54.0518 14.7805 4.3451 -4.9221
# 2 68.7718 177.8151 54.5642 22.6749 5.4032 4.0500
# 3 54.0518 54.5642 186.2712 38.7929 35.9409 -0.5330
# 4 14.7805 22.6749 38.7929 52.2404 6.7011 5.3364
# 5 4.3451 5.4032 35.9409 6.7011 46.6939 7.9006
# 6 -4.9221 4.0500 -0.5330 5.3364 7.9006 42.2056
#
#
#
# Elastic Compliance Matrix: (Units=1/GPa)
#
#
# Indices 1 2 3 4 5 6 
#
# 1 0.011450 -0.003745 -0.002382 -0.000122 0.000965 0.001499
# 2 -0.003745 0.007556 -0.000933 -0.001491 0.000592 -0.001096
# 3 -0.002382 -0.000933 0.008400 -0.004583 -0.005745 0.001573
# 4 -0.000122 -0.001491 -0.004583 0.023428 0.000866 -0.003053
# 5 0.000965 0.000592 -0.005745 0.000866 0.026413 -0.005071
# 6 0.001499 -0.001096 0.001573 -0.003053 -0.005071 0.025329
#
#
# Mechanical properties :
#
#
# Convention : Reuss Voigt Hill
#
# Bulk Modulus (GPa) = 75.27367 93.37519 84.32443
# Shear Modulus (GPa) = 41.27967 48.77553 45.02760
#
# Velocity S-wave (km/s) = 4.03699 4.38824 4.21627
# Velocity P-wave (km/s) = 7.17271 7.90823 7.54943
#
# Compressibility (1/GPa) = 0.01328486
#
# Stress axis : x y z
#
# Youngs Moduli (GPa) = 87.33875 132.34773 119.04151
#
# Poissons Ratio (x) = 0.49568 0.28354
# Poissons Ratio (y) = 0.32711 0.11112
# Poissons Ratio (z) = 0.20803 0.12354
#
# Static dielectric constant tensor:
#      x y z
#    x 1.977810 0.087830 0.001590 
#    y 0.087830 2.094320 -0.066670 
#    z 0.001590 -0.066670 2.112460 
# 
# From -- ./inp_files/303025.got.cif
#   From: 2010.05.17/outbox.cif.g08.bks.cpg/sg2_152_cif.got.tgz:303025.got - 2010.06.03 11:33:40.
