data_PCOD9047976
_publ_section_title
;
Structure prediction by ZEFSAII (Michael W. Deem and Ramdas Pophale) SiO2 
 PCOD9047976
Probable space group: P -1
;
_chemical_formula_sum "Si O2"
_cell_formula_units_Z 16
_cell_length_a 10.680901
_cell_length_b 11.148584
_cell_length_c 6.059980
_cell_angle_alpha 93.757574
_cell_angle_beta 85.916085
_cell_angle_gamma 109.341878
_cell_volume 678.472058
_symmetry_space_group_name_H-M "P -1"
_symmetry_group_IT_number 2
_symmetry_cell_setting 'triclinic'
loop_
_space_group_symop_operation_xyz
x,y,z
-x,-y,-z
loop_
_atom_site_type_symbol
_atom_site_label
_atom_site_fract_x
_atom_site_fract_y
_atom_site_fract_z
Si Si1 0.400350 0.918429 0.824577
Si Si2 0.616079 0.880722 0.473393
Si Si3 0.083783 0.272222 0.278045
Si Si4 0.111615 0.015565 0.297103
Si Si5 0.280774 0.498682 0.004214
Si Si6 0.867298 0.230948 0.982642
Si Si7 0.940435 0.567924 0.324152
Si Si8 0.514794 0.595800 0.303081
O O1 0.482329 0.875117 0.621079
O O2 0.348155 0.020725 0.721393
O O3 0.288256 0.810197 0.955048
O O4 0.500000 0.000000 0.000000
O O5 0.740645 0.937322 0.620839
O O6 0.590218 0.738323 0.386054
O O7 0.106829 0.142220 0.192504
O O8 0.102462 0.322031 0.531773
O O9 0.177898 0.386918 0.140459
O O10 0.934858 0.252308 0.216525
O O11 0.100334 0.887711 0.150972
O O12 0.000000 0.000000 0.500000
O O13 0.185575 0.517427 0.816496
O O14 0.386198 0.443840 0.872448
O O15 0.377652 0.589409 0.189900
O O16 0.937745 0.354317 0.840004
O O17 0.000000 0.500000 0.500000
O O18 0.500000 0.500000 0.500000
#
# Coordination Sequence:
#
# PCOD9047976 Si02
#       8
#     2   2   2   2   2   2   2   2
#     4  11  25  49  65 100 146 189 242 280 354 438
#     4  11  26  44  71 102 145 189 233 299 352 428
#     4  11  24  45  70 105 139 175 237 305 359 431
#     4  12  22  41  75 107 139 176 230 304 364 420
#     4  10  24  44  72 103 140 186 241 297 370 430
#     4  11  25  44  74 105 135 192 237 291 372 426
#     4  11  25  49  70 104 144 188 241 306 357 432
#     4  11  24  47  70 107 143 186 243 296 365 434
#
# _framework density 23.582401999999998
#
# number of rings (size 3 to 8) (size 9 to 14) (size 15 to 20)
#    0.000    1.000    2.500    3.375    3.500    4.000 
#   13.500    0.000    0.000    0.000    0.000    0.000 
#    0.000    0.000    0.000    0.000    0.000    0.000 
#
# Total GULP energy -89399.546189 kJ/mol
# GULP energy per Si atom -5587.471637 kJ/mol
# Density = 2.352873 g / cm^3
# Si number density = 23.582402 Si / 1000 Ang^3
#
#
#
# Elastic Constant Matrix: (Units=GPa)
#
#
# Indices 1 2 3 4 5 6 
#
# 1 82.1497 26.9968 28.8840 -6.2128 20.9549 12.7121
# 2 26.9968 83.2079 33.3497 17.4677 10.8513 -5.2909
# 3 28.8840 33.3497 82.8495 11.4648 14.4570 3.6086
# 4 -6.2128 17.4677 11.4648 33.7921 1.3217 1.9626
# 5 20.9549 10.8513 14.4570 1.3217 56.4774 0.4544
# 6 12.7121 -5.2909 3.6086 1.9626 0.4544 36.5356
#
#
#
# Elastic Compliance Matrix: (Units=1/GPa)
#
#
# Indices 1 2 3 4 5 6 
#
# 1 0.018604 -0.006030 -0.004075 0.008536 -0.004842 -0.007342
# 2 -0.006030 0.017914 -0.004065 -0.009315 0.000009 0.005594
# 3 -0.004075 -0.004065 0.015998 -0.003979 -0.001705 -0.000516
# 4 0.008536 -0.009315 -0.003979 0.037719 -0.001194 -0.005937
# 5 -0.004842 0.000009 -0.001705 -0.001194 0.019952 0.001670
# 6 -0.007342 0.005594 -0.000516 -0.005937 0.001670 0.031084
#
#
# Mechanical properties :
#
#
# Convention : Reuss Voigt Hill
#
# Bulk Modulus (GPa) = 41.36491 47.40758 44.38624
# Shear Modulus (GPa) = 28.14225 35.95946 32.05085
#
# Velocity S-wave (km/s) = 3.45825 3.90916 3.69060
# Velocity P-wave (km/s) = 5.79005 6.36569 6.08468
#
# Compressibility (1/GPa) = 0.02417508
#
# Stress axis : x y z
#
# Youngs Moduli (GPa) = 53.75146 55.82316 62.50929
#
# Poissons Ratio (x) = 0.33662 0.25474
# Poissons Ratio (y) = 0.32413 0.25409
# Poissons Ratio (z) = 0.21905 0.22691
#
# Static dielectric constant tensor:
#      x y z
#    x 1.575550 -0.155080 -0.013230 
#    y -0.155080 1.880470 -0.030230 
#    z -0.013230 -0.030230 1.918110 
# 
# From -- ./inp_files/70608.got.cif
#   From: 2010.05.17/outbox.cif.g08.bks.cpg/sg2_36_cif.got.tgz:70608.got - 2010.06.03 11:33:40.
