data_PCOD9047406
_publ_section_title
;
Structure prediction by ZEFSAII (Michael W. Deem and Ramdas Pophale) SiO2 
 PCOD9047406
Probable space group: P -1
;
_chemical_formula_sum "Si O2"
_cell_formula_units_Z 14
_cell_length_a 7.845269
_cell_length_b 14.546850
_cell_length_c 14.047427
_cell_angle_alpha 29.928830
_cell_angle_beta 72.933443
_cell_angle_gamma 54.439125
_cell_volume 556.295092
_symmetry_space_group_name_H-M "P -1"
_symmetry_group_IT_number 2
_symmetry_cell_setting 'triclinic'
loop_
_space_group_symop_operation_xyz
x,y,z
-x,-y,-z
loop_
_atom_site_type_symbol
_atom_site_label
_atom_site_fract_x
_atom_site_fract_y
_atom_site_fract_z
Si Si1 0.089045 0.744189 0.435929
Si Si2 0.160232 0.054232 0.024396
Si Si3 0.314515 0.449614 0.269978
Si Si4 0.591962 0.791330 0.062463
Si Si5 0.846202 0.516883 0.925060
Si Si6 0.553111 0.222942 0.098157
Si Si7 0.860985 0.045211 0.579982
O O1 0.149881 0.856525 0.246391
O O2 0.250904 0.447174 0.676959
O O3 0.143129 0.791634 0.488438
O O4 0.798027 0.930521 0.311998
O O5 0.310086 0.956302 0.990193
O O6 0.323379 0.062148 0.062656
O O7 0.894327 0.341813 0.807762
O O8 0.187203 0.412710 0.243304
O O9 0.579594 0.180597 0.493301
O O10 0.390177 0.600075 0.082843
O O11 0.618145 0.717458 0.014947
O O12 0.575171 0.707074 0.842686
O O13 0.000000 0.500000 0.000000
O O14 0.970711 0.230382 0.156380
O O15 0.000000 0.000000 0.500000
#
# Coordination Sequence:
#
# PCOD9047406 Si02
#       7
#     2   2   2   2   2   2   2
#     4  11  23  42  67  95 125 173 215 261 322 382
#     4  10  24  44  66  95 134 163 217 269 317 384
#     4  11  22  40  64  93 126 166 211 263 315 381
#     4  11  23  46  65  95 131 169 211 272 321 375
#     4  12  24  39  62  93 131 162 208 267 319 380
#     4  11  22  39  66  94 124 170 216 261 319 384
#     4  12  22  39  65  90 125 168 209 257 319 377
#
# _framework density 25.166501
#
# number of rings (size 3 to 8) (size 9 to 14) (size 15 to 20)
#    0.000    0.857    5.714    2.571    0.000    4.000 
#    2.571    1.429    0.000    0.000    0.000    0.000 
#    0.000    0.000    0.000    0.000    0.000    0.000 
#
# Total GULP energy -78343.216207 kJ/mol
# GULP energy per Si atom -5595.944015 kJ/mol
# Density = 2.510922 g / cm^3
# Si number density = 25.166501 Si / 1000 Ang^3
#
#
#
# Elastic Constant Matrix: (Units=GPa)
#
#
# Indices 1 2 3 4 5 6 
#
# 1 77.0636 -3.2666 25.7347 3.6967 13.1951 8.5212
# 2 -3.2666 97.9706 18.6356 -10.1327 3.5975 -23.1290
# 3 25.7347 18.6356 96.6472 -10.2657 16.9433 -14.1136
# 4 3.6967 -10.1327 -10.2657 28.0563 -4.3722 10.2950
# 5 13.1951 3.5975 16.9433 -4.3722 41.5745 -4.8949
# 6 8.5212 -23.1290 -14.1136 10.2950 -4.8949 50.9527
#
#
#
# Elastic Compliance Matrix: (Units=1/GPa)
#
#
# Indices 1 2 3 4 5 6 
#
# 1 0.015639 0.000385 -0.004357 -0.002863 -0.003928 -0.003446
# 2 0.000385 0.011769 -0.001544 0.002033 0.000228 0.004461
# 3 -0.004357 -0.001544 0.013104 0.003336 -0.003158 0.002680
# 4 -0.002863 0.002033 0.003336 0.040481 0.002975 -0.005568
# 5 -0.003928 0.000228 -0.003158 0.002975 0.027102 0.001888
# 6 -0.003446 0.004461 0.002680 -0.005568 0.001888 0.024276
#
#
# Mechanical properties :
#
#
# Convention : Reuss Voigt Hill
#
# Bulk Modulus (GPa) = 33.92341 39.32099 36.62220
# Shear Modulus (GPa) = 32.63047 39.48853 36.05950
#
# Velocity S-wave (km/s) = 3.60472 3.96547 3.78939
# Velocity P-wave (km/s) = 5.55285 6.05185 5.80771
#
# Compressibility (1/GPa) = 0.02947817
#
# Stress axis : x y z
#
# Youngs Moduli (GPa) = 63.94418 84.97021 76.31180
#
# Poissons Ratio (x) = -0.03269 0.33250
# Poissons Ratio (y) = -0.02460 0.11784
# Poissons Ratio (z) = 0.27862 0.13121
#
# Static dielectric constant tensor:
#      x y z
#    x 2.195910 0.062250 -0.024040 
#    y 0.062250 2.028170 -0.005650 
#    z -0.024040 -0.005650 1.992650 
# 
# From -- ./inp_files/177247.got.cif
#   From: 2010.05.17/outbox.cif.g08.bks.cpg/sg2_89_cif.got.tgz:177247.got - 2010.06.03 11:33:40.
