data_PCOD9047677
_publ_section_title
;
Structure prediction by ZEFSAII (Michael W. Deem and Ramdas Pophale) SiO2 
 PCOD9047677
Probable space group: P -1
;
_chemical_formula_sum "Si O2"
_cell_formula_units_Z 16
_cell_length_a 7.377983
_cell_length_b 19.368685
_cell_length_c 4.981404
_cell_angle_alpha 111.166904
_cell_angle_beta 77.320598
_cell_angle_gamma 117.573103
_cell_volume 587.246842
_symmetry_space_group_name_H-M "P -1"
_symmetry_group_IT_number 2
_symmetry_cell_setting 'triclinic'
loop_
_space_group_symop_operation_xyz
x,y,z
-x,-y,-z
loop_
_atom_site_type_symbol
_atom_site_label
_atom_site_fract_x
_atom_site_fract_y
_atom_site_fract_z
Si Si1 0.366357 0.813856 0.674332
Si Si2 0.664227 0.921713 0.379705
Si Si3 0.043803 0.295935 0.572350
Si Si4 0.176319 0.192869 0.003965
Si Si5 0.229915 0.407270 0.162757
Si Si6 0.243041 0.904802 0.216054
Si Si7 0.343316 0.578861 0.175627
Si Si8 0.390973 0.681606 0.848215
O O1 0.594413 0.855461 0.548716
O O2 0.341103 0.753913 0.846538
O O3 0.199193 0.753445 0.443954
O O4 0.312282 0.889743 0.875600
O O5 0.442998 0.908560 0.314065
O O6 0.771625 0.012341 0.583325
O O7 0.788820 0.889479 0.097402
O O8 0.116876 0.229324 0.337162
O O9 0.115727 0.335913 0.889186
O O10 0.140904 0.370769 0.430075
O O11 0.397081 0.267365 0.987645
O O12 0.986609 0.166557 0.820717
O O13 0.469137 0.428144 0.061870
O O14 0.207957 0.489256 0.207765
O O15 0.408761 0.635447 0.502906
O O16 0.254398 0.616547 0.022799
#
# Coordination Sequence:
#
# PCOD9047677 Si02
#       8
#     2   2   2   2   2   2   2   2
#     4  11  26  42  68  97 142 185 227 295 351 409
#     4  11  23  46  71  98 147 182 234 288 354 416
#     4  11  25  41  71 102 138 181 240 281 349 413
#     4  11  22  42  69 104 138 182 234 290 344 413
#     4  11  22  43  66 102 138 183 225 297 345 415
#     4  10  24  44  69 104 138 185 235 285 356 416
#     4  11  23  40  69  99 139 177 235 282 356 411
#     4  12  23  42  67 102 134 185 229 287 340 420
#
# _framework density 27.245781999999998
#
# number of rings (size 3 to 8) (size 9 to 14) (size 15 to 20)
#    0.000    1.000    3.750    2.250    3.500    2.000 
#    2.250    4.375    0.000    0.000    0.000    0.000 
#    0.000    0.000    0.000    0.000    0.000    0.000 
#
# Total GULP energy -89457.715738 kJ/mol
# GULP energy per Si atom -5591.107234 kJ/mol
# Density = 2.718377 g / cm^3
# Si number density = 27.245782 Si / 1000 Ang^3
#
#
#
# Elastic Constant Matrix: (Units=GPa)
#
#
# Indices 1 2 3 4 5 6 
#
# 1 85.3361 21.1331 7.2353 17.5987 15.9143 2.6805
# 2 21.1331 84.6533 47.2227 23.8637 0.9146 1.8163
# 3 7.2353 47.2227 80.4698 14.7170 0.8492 -8.4101
# 4 17.5987 23.8637 14.7170 48.9796 -5.5212 1.9066
# 5 15.9143 0.9146 0.8492 -5.5212 34.7638 9.9696
# 6 2.6805 1.8163 -8.4101 1.9066 9.9696 35.6087
#
#
#
# Elastic Compliance Matrix: (Units=1/GPa)
#
#
# Indices 1 2 3 4 5 6 
#
# 1 0.014931 -0.003176 0.001805 -0.005368 -0.008239 0.002059
# 2 -0.003176 0.020281 -0.011062 -0.005123 0.001387 -0.003522
# 3 0.001805 -0.011062 0.019742 -0.001767 -0.003029 0.006034
# 4 -0.005368 -0.005123 -0.001767 0.026380 0.007784 -0.003344
# 5 -0.008239 0.001387 -0.003029 0.007784 0.036944 -0.010926
# 6 0.002059 -0.003522 0.006034 -0.003344 -0.010926 0.032771
#
#
# Mechanical properties :
#
#
# Convention : Reuss Voigt Hill
#
# Bulk Modulus (GPa) = 33.23553 44.62684 38.93118
# Shear Modulus (GPa) = 26.88967 35.52831 31.20899
#
# Velocity S-wave (km/s) = 3.14495 3.61500 3.38814
# Velocity P-wave (km/s) = 5.04108 5.81715 5.44297
#
# Compressibility (1/GPa) = 0.03008828
#
# Stress axis : x y z
#
# Youngs Moduli (GPa) = 66.97579 49.30624 50.65314
#
# Poissons Ratio (x) = 0.15661 -0.09145
# Poissons Ratio (y) = 0.21273 0.56033
# Poissons Ratio (z) = -0.12092 0.54543
#
# Static dielectric constant tensor:
#      x y z
#    x 2.280520 -0.083610 -0.040010 
#    y -0.083610 2.140730 -0.045690 
#    z -0.040010 -0.045690 2.103460 
# 
# From -- ./inp_files/53688.got.cif
#   From: 2010.05.17/outbox.cif.g08.bks.cpg/sg2_27_cif.got.tgz:53688.got - 2010.06.03 11:33:40.
