data_PCOD9047478
_publ_section_title
;
Structure prediction by ZEFSAII (Michael W. Deem and Ramdas Pophale) SiO2 
 PCOD9047478
Probable space group: P -1
;
_chemical_formula_sum "Si O2"
_cell_formula_units_Z 16
_cell_length_a 9.779406
_cell_length_b 15.750222
_cell_length_c 15.062598
_cell_angle_alpha 151.555404
_cell_angle_beta 86.926566
_cell_angle_gamma 112.331269
_cell_volume 788.308620
_symmetry_space_group_name_H-M "P -1"
_symmetry_group_IT_number 2
_symmetry_cell_setting 'triclinic'
loop_
_space_group_symop_operation_xyz
x,y,z
-x,-y,-z
loop_
_atom_site_type_symbol
_atom_site_label
_atom_site_fract_x
_atom_site_fract_y
_atom_site_fract_z
Si Si1 0.229016 0.154216 0.525556
Si Si2 0.976428 0.612853 0.470186
Si Si3 0.660782 0.724179 0.766612
Si Si4 0.969444 0.728065 0.777963
Si Si5 0.684407 0.996498 0.306268
Si Si6 0.389773 0.611666 0.824525
Si Si7 0.220557 0.268202 0.831100
Si Si8 0.553399 0.191876 0.599592
O O1 0.306350 0.349631 0.623990
O O2 0.245031 0.273713 0.729249
O O3 0.361881 0.100934 0.479526
O O4 0.003284 0.911444 0.302574
O O5 0.038202 0.468436 0.356348
O O6 0.782873 0.440424 0.262216
O O7 0.948518 0.680527 0.628638
O O8 0.139251 0.856919 0.632486
O O9 0.500000 0.500000 0.500000
O O10 0.548672 0.725660 0.848357
O O11 0.792132 0.690728 0.775603
O O12 0.822428 0.991860 0.958686
O O13 0.707810 0.854738 0.243748
O O14 0.680805 0.188316 0.526137
O O15 0.490125 0.797152 0.074362
O O16 0.335709 0.538335 0.115673
O O17 0.500000 0.000000 0.500000
#
# Coordination Sequence:
#
# PCOD9047478 Si02
#       8
#     2   2   2   2   2   2   2   2
#     4  11  24  44  70 101 134 183 225 278 336 397
#     4  11  24  44  65  96 130 174 223 282 334 401
#     4  11  23  43  69  98 130 177 221 277 343 408
#     4  10  24  44  67  93 134 170 223 280 346 397
#     4  12  25  44  67 101 138 178 225 281 337 397
#     4  12  24  42  69  97 134 176 232 275 333 404
#     4  11  24  47  71  94 144 182 219 282 340 392
#     4  12  25  43  69 100 135 182 231 270 338 407
#
# _framework density 20.296619
#
# number of rings (size 3 to 8) (size 9 to 14) (size 15 to 20)
#    0.000    0.750    6.250    1.125    1.750    3.000 
#    2.250    0.000    0.000    0.000    0.000    0.000 
#    0.000    0.000    0.000    0.000    0.000    0.000 
#
# Total GULP energy -89454.001829 kJ/mol
# GULP energy per Si atom -5590.875114 kJ/mol
# Density = 2.025042 g / cm^3
# Si number density = 20.296619 Si / 1000 Ang^3
#
#
#
# Elastic Constant Matrix: (Units=GPa)
#
#
# Indices 1 2 3 4 5 6 
#
# 1 79.3148 5.2071 25.3245 1.2157 5.7099 -4.5067
# 2 5.2071 40.2134 -0.7979 2.3419 8.3389 -6.4179
# 3 25.3245 -0.7979 90.9210 0.0790 14.6292 -4.2294
# 4 1.2157 2.3419 0.0790 21.2780 -1.1652 4.2764
# 5 5.7099 8.3389 14.6292 -1.1652 38.0765 3.1407
# 6 -4.5067 -6.4179 -4.2294 4.2764 3.1407 18.5700
#
#
#
# Elastic Compliance Matrix: (Units=1/GPa)
#
#
# Indices 1 2 3 4 5 6 
#
# 1 0.014086 -0.001294 -0.003713 -0.001188 -0.000645 0.002508
# 2 -0.001294 0.029349 0.002616 -0.006310 -0.008530 0.013321
# 3 -0.003713 0.002616 0.013129 -0.001268 -0.005446 0.004206
# 4 -0.001188 -0.006310 -0.001268 0.051117 0.004878 -0.015355
# 5 -0.000645 -0.008530 -0.005446 0.004878 0.031358 -0.010772
# 6 0.002508 0.013321 0.004206 -0.015355 -0.010772 0.065379
#
#
# Mechanical properties :
#
#
# Convention : Reuss Voigt Hill
#
# Bulk Modulus (GPa) = 19.31235 29.99074 24.65154
# Shear Modulus (GPa) = 22.07885 27.63258 24.85571
#
# Velocity S-wave (km/s) = 3.30177 3.69377 3.50326
# Velocity P-wave (km/s) = 4.90625 5.74458 5.34189
#
# Compressibility (1/GPa) = 0.05178035
#
# Stress axis : x y z
#
# Youngs Moduli (GPa) = 70.99383 34.07246 76.16863
#
# Poissons Ratio (x) = 0.04410 0.28283
# Poissons Ratio (y) = 0.09188 -0.19924
# Poissons Ratio (z) = 0.26361 -0.08912
#
# Static dielectric constant tensor:
#      x y z
#    x 1.697570 0.024680 0.002430 
#    y 0.024680 1.724760 -0.018260 
#    z 0.002430 -0.018260 1.727200 
# 
# From -- ./inp_files/315080.got.cif
#   From: 2010.05.17/outbox.cif.g08.bks.cpg/sg2_158_cif.got.tgz:315080.got - 2010.06.03 11:33:40.
