data_PCOD9047479
_publ_section_title
;
Structure prediction by ZEFSAII (Michael W. Deem and Ramdas Pophale) SiO2 
 PCOD9047479
Probable space group: P -1
;
_chemical_formula_sum "Si O2"
_cell_formula_units_Z 16
_cell_length_a 18.615894
_cell_length_b 8.255349
_cell_length_c 17.311594
_cell_angle_alpha 47.116241
_cell_angle_beta 156.167622
_cell_angle_gamma 131.385460
_cell_volume 780.949070
_symmetry_space_group_name_H-M "P -1"
_symmetry_group_IT_number 2
_symmetry_cell_setting 'triclinic'
loop_
_space_group_symop_operation_xyz
x,y,z
-x,-y,-z
loop_
_atom_site_type_symbol
_atom_site_label
_atom_site_fract_x
_atom_site_fract_y
_atom_site_fract_z
Si Si1 0.175446 0.092870 0.092697
Si Si2 0.380190 0.392481 0.987532
Si Si3 0.485807 0.744918 0.088880
Si Si4 0.617005 0.451075 0.784784
Si Si5 0.308304 0.639314 0.596740
Si Si6 0.719904 0.349017 0.617057
Si Si7 0.030310 0.639928 0.905893
Si Si8 0.030041 0.145657 0.761735
O O1 0.283517 0.307661 0.168669
O O2 0.287392 0.884348 0.270519
O O3 0.114538 0.153005 0.928482
O O4 0.000000 0.000000 0.000000
O O5 0.346220 0.598942 0.942266
O O6 0.511578 0.261579 0.212105
O O7 0.500000 0.500000 0.000000
O O8 0.192006 0.248339 0.832255
O O9 0.429891 0.695248 0.137651
O O10 0.664684 0.623699 0.290226
O O11 0.500000 0.000000 0.000000
O O12 0.431093 0.506206 0.548938
O O13 0.758890 0.341669 0.909842
O O14 0.308457 0.698414 0.486976
O O15 0.136630 0.714918 0.443983
O O16 0.911879 0.494408 0.772686
O O17 0.972904 0.884997 0.774161
O O18 0.000000 0.500000 0.000000
#
# Coordination Sequence:
#
# PCOD9047479 Si02
#       8
#     2   2   2   2   2   2   2   2
#     4  12  19  39  70  93 132 171 208 268 311 388
#     4  10  24  44  67  94 127 163 216 271 328 376
#     4   9  21  44  68  94 122 159 218 272 318 378
#     4  11  23  41  66  93 126 174 219 256 328 377
#     4   9  22  42  68  97 120 168 222 252 326 395
#     4  11  22  41  65  96 132 170 221 257 310 394
#     4  12  26  40  57  97 136 173 211 264 310 372
#     4  12  22  42  65  91 138 169 209 262 330 377
#
# _framework density 20.487891999999999
#
# number of rings (size 3 to 8) (size 9 to 14) (size 15 to 20)
#    0.750    0.500    5.000    0.375    1.750    2.000 
#    2.250    0.625    0.000    0.000    0.000    0.000 
#    0.000    0.000    0.000    0.000    0.000    0.000 
#
# Total GULP energy -89272.910768 kJ/mol
# GULP energy per Si atom -5579.556923 kJ/mol
# Density = 2.044126 g / cm^3
# Si number density = 20.487892 Si / 1000 Ang^3
#
#
#
# Elastic Constant Matrix: (Units=GPa)
#
#
# Indices 1 2 3 4 5 6 
#
# 1 65.2675 12.7544 28.8371 -8.2290 20.8548 15.0743
# 2 12.7544 102.6565 35.2360 -21.4281 9.0736 19.9794
# 3 28.8371 35.2360 105.5811 -14.0902 30.9151 9.0165
# 4 -8.2290 -21.4281 -14.0902 33.1657 -6.4515 -0.4340
# 5 20.8548 9.0736 30.9151 -6.4515 28.5599 6.0191
# 6 15.0743 19.9794 9.0165 -0.4340 6.0191 24.5434
#
#
#
# Elastic Compliance Matrix: (Units=1/GPa)
#
#
# Indices 1 2 3 4 5 6 
#
# 1 0.022779 0.001945 -0.001892 0.003639 -0.011873 -0.011903
# 2 0.001945 0.014892 -0.004126 0.008753 0.002896 -0.012357
# 3 -0.001892 -0.004126 0.015468 0.000666 -0.014402 0.002382
# 4 0.003639 0.008753 0.000666 0.037733 0.004480 -0.010037
# 5 -0.011873 0.002896 -0.014402 0.004480 0.060311 -0.004486
# 6 -0.011903 -0.012357 0.002382 -0.010037 -0.004486 0.058161
#
#
# Mechanical properties :
#
#
# Convention : Reuss Voigt Hill
#
# Bulk Modulus (GPa) = 22.22587 47.46225 34.84406
# Shear Modulus (GPa) = 21.50660 30.36566 25.93613
#
# Velocity S-wave (km/s) = 3.24346 3.85402 3.56184
# Velocity P-wave (km/s) = 4.98984 6.55903 5.82750
#
# Compressibility (1/GPa) = 0.04499262
#
# Stress axis : x y z
#
# Youngs Moduli (GPa) = 43.90000 67.15151 64.65113
#
# Poissons Ratio (x) = -0.13060 0.12232
# Poissons Ratio (y) = -0.08538 0.26673
# Poissons Ratio (z) = 0.08306 0.27705
#
# Static dielectric constant tensor:
#      x y z
#    x 1.814410 0.026940 -0.052460 
#    y 0.026940 1.783090 -0.046110 
#    z -0.052460 -0.046110 1.845120 
# 
# From -- ./inp_files/601132.got.cif
#   From: 2010.05.17/outbox.cif.g08.bks.cpg/sg2_301_cif.got.tgz:601132.got - 2010.06.03 11:33:40.
