data_PCOD9047670
_publ_section_title
;
Structure prediction by ZEFSAII (Michael W. Deem and Ramdas Pophale) SiO2 
 PCOD9047670
Probable space group: P -1
;
_chemical_formula_sum "Si O2"
_cell_formula_units_Z 12
_cell_length_a 9.441433
_cell_length_b 9.345083
_cell_length_c 12.693376
_cell_angle_alpha 68.135273
_cell_angle_beta 47.020923
_cell_angle_gamma 43.911308
_cell_volume 552.488862
_symmetry_space_group_name_H-M "P -1"
_symmetry_group_IT_number 2
_symmetry_cell_setting 'triclinic'
loop_
_space_group_symop_operation_xyz
x,y,z
-x,-y,-z
loop_
_atom_site_type_symbol
_atom_site_label
_atom_site_fract_x
_atom_site_fract_y
_atom_site_fract_z
Si Si1 0.177539 0.964459 0.323343
Si Si2 0.295808 0.569302 0.313550
Si Si3 0.778587 0.428426 0.404098
Si Si4 0.559047 0.000839 0.091481
Si Si5 0.140235 0.501726 0.200474
Si Si6 0.112861 0.776007 0.963156
O O1 0.258053 0.774758 0.265551
O O2 0.433754 0.922911 0.238190
O O3 0.000000 0.000000 0.500000
O O4 0.987930 0.197830 0.307223
O O5 0.199331 0.583690 0.476204
O O6 0.138417 0.570050 0.300725
O O7 0.608115 0.359485 0.201586
O O8 0.500000 0.500000 0.500000
O O9 0.878128 0.544487 0.293260
O O10 0.391228 0.246287 0.138137
O O11 0.869064 0.843775 0.000456
O O12 0.500000 0.000000 0.000000
O O13 0.169395 0.626650 0.070985
O O14 0.000000 0.000000 0.000000
#
# Coordination Sequence:
#
# PCOD9047670 Si02
#       6
#     2   2   2   2   2   2
#     4   9  22  41  67  93 134 169 223 276 334 386
#     4  11  23  44  71  96 141 181 221 280 342 397
#     4  10  24  44  69 103 133 175 233 278 335 406
#     4  11  25  43  68  99 136 178 226 279 339 399
#     4  11  25  46  69  98 141 179 224 282 339 398
#     4  12  27  43  69 103 138 176 234 274 338 411
#
# _framework density 21.719895000000001
#
# number of rings (size 3 to 8) (size 9 to 14) (size 15 to 20)
#    0.000    1.333    1.667    2.000   11.667    1.333 
#    0.000    1.667    0.000    0.000    0.000    0.000 
#    0.000    0.000    0.000    0.000    0.000    0.000 
#
# Total GULP energy -67011.551419 kJ/mol
# GULP energy per Si atom -5584.295952 kJ/mol
# Density = 2.167046 g / cm^3
# Si number density = 21.719895 Si / 1000 Ang^3
#
#
#
# Elastic Constant Matrix: (Units=GPa)
#
#
# Indices 1 2 3 4 5 6 
#
# 1 100.4100 34.8300 12.2517 10.9012 -8.1330 -1.6582
# 2 34.8300 100.0076 27.0978 14.8296 3.0954 32.7062
# 3 12.2517 27.0978 79.8195 3.5198 -6.3622 5.6031
# 4 10.9012 14.8296 3.5198 41.6005 -0.2512 1.3569
# 5 -8.1330 3.0954 -6.3622 -0.2512 46.8573 2.8609
# 6 -1.6582 32.7062 5.6031 1.3569 2.8609 34.7896
#
#
#
# Elastic Compliance Matrix: (Units=1/GPa)
#
#
# Indices 1 2 3 4 5 6 
#
# 1 0.012594 -0.006395 0.000013 -0.001219 0.002208 0.006477
# 2 -0.006395 0.020126 -0.004534 -0.004535 -0.001971 -0.018157
# 3 0.000013 -0.004534 0.014090 0.000374 0.002107 0.001806
# 4 -0.001219 -0.004535 0.000374 0.025841 0.000086 0.003130
# 5 0.002208 -0.001971 0.002107 0.000086 0.022154 -0.000206
# 6 0.006477 -0.018157 0.001806 0.003130 -0.000206 0.045726
#
#
# Mechanical properties :
#
#
# Convention : Reuss Voigt Hill
#
# Bulk Modulus (GPa) = 40.03359 47.62179 43.82769
# Shear Modulus (GPa) = 29.29287 38.38665 33.83976
#
# Velocity S-wave (km/s) = 3.67640 4.20855 3.95144
# Velocity P-wave (km/s) = 6.04095 6.75195 6.40632
#
# Compressibility (1/GPa) = 0.02497902
#
# Stress axis : x y z
#
# Youngs Moduli (GPa) = 79.40170 49.68599 70.97228
#
# Poissons Ratio (x) = 0.31776 -0.00094
# Poissons Ratio (y) = 0.50780 0.32176
# Poissons Ratio (z) = -0.00105 0.22526
#
# Static dielectric constant tensor:
#      x y z
#    x 1.824710 0.005440 -0.052720 
#    y 0.005440 1.821610 -0.046770 
#    z -0.052720 -0.046770 1.833590 
# 
# From -- ./inp_files/37208.got.cif
#   From: 2010.05.17/outbox.cif.g08.bks.cpg/sg2_19_cif.got.tgz:37208.got - 2010.06.03 11:33:40.
