data_PCOD9047694
_publ_section_title
;
Structure prediction by ZEFSAII (Michael W. Deem and Ramdas Pophale) SiO2 
 PCOD9047694
Probable space group: P -1
;
_chemical_formula_sum "Si O2"
_cell_formula_units_Z 12
_cell_length_a 12.306640
_cell_length_b 5.205915
_cell_length_c 8.276104
_cell_angle_alpha 59.964474
_cell_angle_beta 98.482610
_cell_angle_gamma 105.231098
_cell_volume 442.821176
_symmetry_space_group_name_H-M "P -1"
_symmetry_group_IT_number 2
_symmetry_cell_setting 'triclinic'
loop_
_space_group_symop_operation_xyz
x,y,z
-x,-y,-z
loop_
_atom_site_type_symbol
_atom_site_label
_atom_site_fract_x
_atom_site_fract_y
_atom_site_fract_z
Si Si1 0.571223 0.187700 0.599422
Si Si2 0.676442 0.497703 0.992271
Si Si3 0.550218 0.687789 0.199952
Si Si4 0.034420 0.265891 0.792153
Si Si5 0.803927 0.022011 0.668012
Si Si6 0.824817 0.085690 0.280171
O O1 0.585553 0.523879 0.419629
O O2 0.504717 0.070352 0.787725
O O3 0.697071 0.149747 0.657508
O O4 0.500000 0.000000 0.500000
O O5 0.570504 0.474693 0.856867
O O6 0.782676 0.706698 0.859432
O O7 0.641164 0.650445 0.098569
O O8 0.718552 0.191131 0.142050
O O9 0.081749 0.597435 0.773529
O O10 0.920882 0.241453 0.671951
O O11 0.126897 0.155837 0.736135
O O12 0.000000 0.000000 0.000000
O O13 0.797045 0.972583 0.491202
#
# Coordination Sequence:
#
# PCOD9047694 Si02
#       6
#     2   2   2   2   2   2
#     4  11  23  44  70 104 145 193 244 300 374 441
#     4  11  24  46  74 111 145 198 247 304 375 444
#     4  10  24  44  69 107 150 188 248 306 364 447
#     4  12  28  51  78 110 150 193 254 309 372 441
#     4  12  26  46  76 106 147 199 244 307 377 437
#     4  12  28  51  76 111 151 194 249 311 372 443
#
# _framework density 27.098973999999998
#
# number of rings (size 3 to 8) (size 9 to 14) (size 15 to 20)
#    0.000    0.667    5.000    1.500    2.333    3.333 
#    0.000    0.000    0.000    0.000    0.000    0.000 
#    0.000    0.000    0.000    0.000    0.000    0.000 
#
# Total GULP energy -67213.934282 kJ/mol
# GULP energy per Si atom -5601.161190 kJ/mol
# Density = 2.703730 g / cm^3
# Si number density = 27.098974 Si / 1000 Ang^3
#
#
#
# Elastic Constant Matrix: (Units=GPa)
#
#
# Indices 1 2 3 4 5 6 
#
# 1 154.1824 16.8589 23.3573 12.5938 18.2139 17.2188
# 2 16.8589 77.9869 -13.8166 17.5774 2.7485 1.8939
# 3 23.3573 -13.8166 100.5138 0.7728 -9.2822 -1.9400
# 4 12.5938 17.5774 0.7728 38.4963 1.8973 6.8566
# 5 18.2139 2.7485 -9.2822 1.8973 58.1277 2.4506
# 6 17.2188 1.8939 -1.9400 6.8566 2.4506 37.9903
#
#
#
# Elastic Compliance Matrix: (Units=1/GPa)
#
#
# Indices 1 2 3 4 5 6 
#
# 1 0.007767 -0.001693 -0.002328 -0.001025 -0.002557 -0.003205
# 2 -0.001693 0.015098 0.002581 -0.006646 0.000390 0.001321
# 3 -0.002328 0.002581 0.011099 -0.001028 0.002349 0.001527
# 4 -0.001025 -0.006646 -0.001028 0.030218 -0.000317 -0.004690
# 5 -0.002557 0.000390 0.002349 -0.000317 0.018366 0.000132
# 6 -0.003205 0.001321 0.001527 -0.004690 0.000132 0.028625
#
#
# Mechanical properties :
#
#
# Convention : Reuss Voigt Hill
#
# Bulk Modulus (GPa) = 32.16864 42.83137 37.50001
# Shear Modulus (GPa) = 40.18848 47.34176 43.76512
#
# Velocity S-wave (km/s) = 3.85519 4.18424 4.02308
# Velocity P-wave (km/s) = 5.63145 6.25969 5.95386
#
# Compressibility (1/GPa) = 0.03108617
#
# Stress axis : x y z
#
# Youngs Moduli (GPa) = 128.74654 66.23356 90.09901
#
# Poissons Ratio (x) = 0.11211 0.20972
# Poissons Ratio (y) = 0.21792 -0.23257
# Poissons Ratio (z) = 0.29968 -0.17097
#
# Static dielectric constant tensor:
#      x y z
#    x 2.219670 -0.072490 0.039760 
#    y -0.072490 2.437250 -0.199810 
#    z 0.039760 -0.199810 2.188030 
# 
# From -- ./inp_files/40589.got.cif
#   From: 2010.05.17/outbox.cif.g08.bks.cpg/sg2_21_cif.got.tgz:40589.got - 2010.06.03 11:33:40.
