data_PCOD9047151
_publ_section_title
;
Structure prediction by ZEFSAII (Michael W. Deem and Ramdas Pophale) SiO2 
 PCOD9047151
Probable space group: P -1
;
_chemical_formula_sum "Si O2"
_cell_formula_units_Z 16
_cell_length_a 11.745904
_cell_length_b 10.618565
_cell_length_c 7.035637
_cell_angle_alpha 122.270232
_cell_angle_beta 94.317811
_cell_angle_gamma 79.163300
_cell_volume 728.411062
_symmetry_space_group_name_H-M "P -1"
_symmetry_group_IT_number 2
_symmetry_cell_setting 'triclinic'
loop_
_space_group_symop_operation_xyz
x,y,z
-x,-y,-z
loop_
_atom_site_type_symbol
_atom_site_label
_atom_site_fract_x
_atom_site_fract_y
_atom_site_fract_z
Si Si1 0.394628 0.602008 0.679611
Si Si2 0.332588 0.099797 0.215368
Si Si3 0.121780 0.556575 0.019920
Si Si4 0.822211 0.237378 0.471541
Si Si5 0.324831 0.344054 0.722705
Si Si6 0.529499 0.836918 0.081825
Si Si7 0.879604 0.958387 0.032134
Si Si8 0.013483 0.659940 0.715984
O O1 0.500000 0.500000 0.500000
O O2 0.290891 0.673115 0.580677
O O3 0.360728 0.490418 0.746294
O O4 0.446490 0.736722 0.889627
O O5 0.294516 0.240741 0.462791
O O6 0.448167 0.998349 0.233014
O O7 0.371776 0.145234 0.046812
O O8 0.227231 0.008387 0.101221
O O9 0.162564 0.679851 0.262561
O O10 0.218247 0.407860 0.896963
O O11 0.000000 0.500000 0.000000
O O12 0.106878 0.629931 0.869626
O O13 0.934780 0.264868 0.393038
O O14 0.835259 0.055713 0.293590
O O15 0.420337 0.245656 0.787998
O O16 0.907715 0.775176 0.889024
O O17 0.000000 0.000000 0.000000
O O18 0.000000 0.500000 0.500000
#
# Coordination Sequence:
#
# PCOD9047151 Si02
#       8
#     2   2   2   2   2   2   2   2
#     4  12  23  45  70  98 141 183 236 296 356 413
#     4  11  24  47  71 103 146 181 240 291 354 431
#     4  12  26  40  69 105 135 181 237 284 347 420
#     4  11  24  45  63  99 142 177 230 290 352 422
#     4  12  26  43  72 105 140 185 239 298 352 425
#     4  11  25  45  71 106 138 191 234 290 364 422
#     4  10  24  43  72  97 139 191 225 289 363 414
#     4  11  22  43  70  97 134 179 230 286 345 411
#
# _framework density 21.965619
#
# number of rings (size 3 to 8) (size 9 to 14) (size 15 to 20)
#    0.000    0.750    5.000    2.250    3.500    0.500 
#    0.000    3.750    0.000    0.000    0.000    0.000 
#    0.000    0.000    0.000    0.000    0.000    0.000 
#
# Total GULP energy -89293.957203 kJ/mol
# GULP energy per Si atom -5580.872325 kJ/mol
# Density = 2.191562 g / cm^3
# Si number density = 21.965619 Si / 1000 Ang^3
#
#
#
# Elastic Constant Matrix: (Units=GPa)
#
#
# Indices 1 2 3 4 5 6 
#
# 1 96.2894 25.5096 39.0820 10.3330 -0.4385 -6.8759
# 2 25.5096 73.5579 42.1157 13.0526 -4.9348 -17.9932
# 3 39.0820 42.1157 151.8011 28.8544 8.7821 -13.2403
# 4 10.3330 13.0526 28.8544 46.0913 -10.5246 -3.1475
# 5 -0.4385 -4.9348 8.7821 -10.5246 32.3621 4.8372
# 6 -6.8759 -17.9932 -13.2403 -3.1475 4.8372 32.1019
#
#
#
# Elastic Compliance Matrix: (Units=1/GPa)
#
#
# Indices 1 2 3 4 5 6 
#
# 1 0.012096 -0.002803 -0.002260 -0.000457 0.000199 0.000013
# 2 -0.002803 0.019074 -0.003733 -0.001376 0.002228 0.008080
# 3 -0.002260 -0.003733 0.009730 -0.005627 -0.005323 0.001687
# 4 -0.000457 -0.001376 -0.005627 0.028021 0.010732 -0.002060
# 5 0.000199 0.002228 -0.005323 0.010732 0.036988 -0.005425
# 6 0.000013 0.008080 0.001687 -0.002060 -0.005425 0.036994
#
#
# Mechanical properties :
#
#
# Convention : Reuss Voigt Hill
#
# Bulk Modulus (GPa) = 42.90441 59.45145 51.17793
# Shear Modulus (GPa) = 29.71497 36.44047 33.07772
#
# Velocity S-wave (km/s) = 3.68203 4.07747 3.88478
# Velocity P-wave (km/s) = 6.13607 7.02084 6.59331
#
# Compressibility (1/GPa) = 0.02330763
#
# Stress axis : x y z
#
# Youngs Moduli (GPa) = 82.67059 52.42623 102.77679
#
# Poissons Ratio (x) = 0.14697 0.23228
# Poissons Ratio (y) = 0.23176 0.38365
# Poissons Ratio (z) = 0.18684 0.19570
#
# Static dielectric constant tensor:
#      x y z
#    x 1.923780 0.043050 0.001830 
#    y 0.043050 1.980250 0.078330 
#    z 0.001830 0.078330 1.696860 
# 
# From -- ./inp_files/72365.got.cif
#   From: 2010.05.17/outbox.cif.g08.bks.cpg/sg2_37_cif.got.tgz:72365.got - 2010.06.03 11:33:40.
