data_PCOD9047814
_publ_section_title
;
Structure prediction by ZEFSAII (Michael W. Deem and Ramdas Pophale) SiO2 
 PCOD9047814
Probable space group: P -1
;
_chemical_formula_sum "Si O2"
_cell_formula_units_Z 16
_cell_length_a 8.238357
_cell_length_b 22.214290
_cell_length_c 9.621720
_cell_angle_alpha 138.911172
_cell_angle_beta 86.469915
_cell_angle_gamma 59.622297
_cell_volume 623.782535
_symmetry_space_group_name_H-M "P -1"
_symmetry_group_IT_number 2
_symmetry_cell_setting 'triclinic'
loop_
_space_group_symop_operation_xyz
x,y,z
-x,-y,-z
loop_
_atom_site_type_symbol
_atom_site_label
_atom_site_fract_x
_atom_site_fract_y
_atom_site_fract_z
Si Si1 0.041333 0.469976 0.746708
Si Si2 0.743219 0.047753 0.630943
Si Si3 0.677751 0.475184 0.261643
Si Si4 0.524795 0.218418 0.498565
Si Si5 0.290383 0.037715 0.793750
Si Si6 0.894305 0.842293 0.475370
Si Si7 0.729892 0.321936 0.592704
Si Si8 0.923170 0.667464 0.755524
O O1 0.172584 0.509938 0.800232
O O2 0.297332 0.296756 0.522649
O O3 0.007998 0.441280 0.549671
O O4 0.717532 0.630766 0.113167
O O5 0.797757 0.948749 0.333658
O O6 0.376038 0.226939 0.962119
O O7 0.000000 0.000000 0.500000
O O8 0.801642 0.985725 0.676674
O O9 0.343526 0.635255 0.492621
O O10 0.790935 0.440351 0.350564
O O11 0.820716 0.316392 0.913476
O O12 0.733133 0.038759 0.236080
O O13 0.693613 0.231852 0.473960
O O14 0.647201 0.887457 0.520052
O O15 0.173073 0.196544 0.087799
O O16 0.959582 0.800711 0.561664
O O17 0.500000 0.500000 0.000000
#
# Coordination Sequence:
#
# PCOD9047814 Si02
#       8
#     2   2   2   2   2   2   2   2
#     4  10  21  34  62  89 119 159 204 255 299 353
#     4  11  21  35  62  88 121 162 202 243 300 373
#     4  10  17  35  57  86 119 152 201 244 297 358
#     4  10  20  38  59  88 117 158 212 244 292 370
#     4  11  20  36  64  88 121 160 202 252 295 370
#     4  10  17  34  57  91 114 156 207 240 297 353
#     4   9  20  32  60  89 114 157 202 253 290 352
#     4  11  21  37  61  92 124 159 198 253 313 350
#
# _framework density 25.649964000000001
#
# number of rings (size 3 to 8) (size 9 to 14) (size 15 to 20)
#    0.000    1.750    3.750    1.875    1.750    0.500 
#    0.000    0.000    8.250   16.500    0.000    0.000 
#    0.000    0.000    0.000    0.000    0.000    0.000 
#
# Total GULP energy -89283.058869 kJ/mol
# GULP energy per Si atom -5580.191179 kJ/mol
# Density = 2.559158 g / cm^3
# Si number density = 25.649964 Si / 1000 Ang^3
#
#
#
# Elastic Constant Matrix: (Units=GPa)
#
#
# Indices 1 2 3 4 5 6 
#
# 1 114.9324 35.5807 36.9612 7.7017 -5.8112 -6.0989
# 2 35.5807 163.3870 19.7136 17.4188 5.7518 -14.0591
# 3 36.9612 19.7136 34.9113 -3.0213 2.8096 8.0742
# 4 7.7017 17.4188 -3.0213 37.7189 6.2193 13.6645
# 5 -5.8112 5.7518 2.8096 6.2193 20.3809 -0.2685
# 6 -6.0989 -14.0591 8.0742 13.6645 -0.2685 43.6878
#
#
#
# Elastic Compliance Matrix: (Units=1/GPa)
#
#
# Indices 1 2 3 4 5 6 
#
# 1 0.018387 0.000794 -0.024558 -0.012186 0.012271 0.011248
# 2 0.000794 0.008111 -0.007586 -0.007004 0.001204 0.006321
# 3 -0.024558 -0.007586 0.069614 0.027950 -0.023351 -0.027621
# 4 -0.012186 -0.007004 0.027950 0.046338 -0.019804 -0.023736
# 5 0.012271 0.001204 -0.023351 -0.019804 0.061658 0.012989
# 6 0.011248 0.006321 -0.027621 -0.023736 0.012989 0.039103
#
#
# Mechanical properties :
#
#
# Convention : Reuss Voigt Hill
#
# Bulk Modulus (GPa) = 29.92943 55.30463 42.61703
# Shear Modulus (GPa) = 15.77051 35.08920 25.42986
#
# Velocity S-wave (km/s) = 2.48228 3.70266 3.15210
# Velocity P-wave (km/s) = 4.46199 6.31567 5.46796
#
# Compressibility (1/GPa) = 0.03341193
#
# Stress axis : x y z
#
# Youngs Moduli (GPa) = 54.38751 123.28931 14.36487
#
# Poissons Ratio (x) = -0.09791 0.35278
# Poissons Ratio (y) = -0.04319 0.10897
# Poissons Ratio (z) = 1.33566 0.93525
#
# Static dielectric constant tensor:
#      x y z
#    x 1.995140 0.042700 -0.096380 
#    y 0.042700 2.109010 0.043950 
#    z -0.096380 0.043950 2.069040 
# 
# From -- ./inp_files/226675.got.cif
#   From: 2010.05.17/outbox.cif.g08.bks.cpg/sg2_114_cif.got.tgz:226675.got - 2010.06.03 11:33:40.
