data_PCOD9047839
_publ_section_title
;
Structure prediction by ZEFSAII (Michael W. Deem and Ramdas Pophale) SiO2 
 PCOD9047839
Probable space group: P -1
;
_chemical_formula_sum "Si O2"
_cell_formula_units_Z 12
_cell_length_a 4.980637
_cell_length_b 19.970354
_cell_length_c 11.233161
_cell_angle_alpha 150.882282
_cell_angle_beta 72.994206
_cell_angle_gamma 116.959054
_cell_volume 470.580780
_symmetry_space_group_name_H-M "P -1"
_symmetry_group_IT_number 2
_symmetry_cell_setting 'triclinic'
loop_
_space_group_symop_operation_xyz
x,y,z
-x,-y,-z
loop_
_atom_site_type_symbol
_atom_site_label
_atom_site_fract_x
_atom_site_fract_y
_atom_site_fract_z
Si Si1 0.195190 0.661503 0.995320
Si Si2 0.667152 0.934544 0.508349
Si Si3 0.626196 0.221582 0.087889
Si Si4 0.040519 0.840141 0.839262
Si Si5 0.549325 0.820696 0.602838
Si Si6 0.493261 0.498120 0.855819
O O1 0.246234 0.542066 0.889601
O O2 0.834363 0.619156 0.960992
O O3 0.397443 0.823349 0.283827
O O4 0.311275 0.661035 0.845525
O O5 0.645254 0.834974 0.474409
O O6 0.604447 0.070767 0.786303
O O7 0.000000 0.000000 0.500000
O O8 0.875087 0.245775 0.196024
O O9 0.313154 0.196736 0.154758
O O10 0.206759 0.811601 0.657447
O O11 0.221969 0.020744 0.122109
O O12 0.554314 0.671913 0.427500
O O13 0.500000 0.500000 0.000000
#
# Coordination Sequence:
#
# PCOD9047839 Si02
#       6
#     2   2   2   2   2   2
#     4  12  25  43  65 102 139 176 222 273 342 404
#     4  11  23  42  72 104 136 175 223 290 343 388
#     4  11  24  43  69  97 135 173 232 274 338 385
#     4  10  24  45  70  98 128 182 226 288 317 393
#     4  10  24  44  70  98 137 173 233 270 340 395
#     4  12  26  42  66 100 141 181 215 270 343 413
#
# _framework density 25.500401
#
# number of rings (size 3 to 8) (size 9 to 14) (size 15 to 20)
#    0.000    1.000    1.667    5.000    2.333    8.667 
#    0.000    5.000    0.000    0.000    0.000    0.000 
#    0.000    0.000    0.000    0.000    0.000    0.000 
#
# Total GULP energy -67250.325662 kJ/mol
# GULP energy per Si atom -5604.193805 kJ/mol
# Density = 2.544236 g / cm^3
# Si number density = 25.500401 Si / 1000 Ang^3
#
#
#
# Elastic Constant Matrix: (Units=GPa)
#
#
# Indices 1 2 3 4 5 6 
#
# 1 96.4535 22.0020 23.8138 -17.6288 -6.2390 1.8471
# 2 22.0020 153.8343 37.8391 -37.0369 3.0804 -1.3056
# 3 23.8138 37.8391 76.2395 -9.8707 -7.8180 6.5500
# 4 -17.6288 -37.0369 -9.8707 32.2339 3.3297 -11.8929
# 5 -6.2390 3.0804 -7.8180 3.3297 37.1852 6.3181
# 6 1.8471 -1.3056 6.5500 -11.8929 6.3181 43.7316
#
#
#
# Elastic Compliance Matrix: (Units=1/GPa)
#
#
# Indices 1 2 3 4 5 6 
#
# 1 0.012362 0.000891 -0.003487 0.007431 0.000260 0.002010
# 2 0.000891 0.011103 -0.004828 0.014188 -0.003982 0.005451
# 3 -0.003487 -0.004828 0.016873 -0.004361 0.004493 -0.004359
# 4 0.007431 0.014188 -0.004361 0.057517 -0.009004 0.017705
# 5 0.000260 -0.003982 0.004493 -0.009004 0.030313 -0.007631
# 6 0.002010 0.005451 -0.004359 0.017705 -0.007631 0.029515
#
#
# Mechanical properties :
#
#
# Convention : Reuss Voigt Hill
#
# Bulk Modulus (GPa) = 39.23477 54.87079 47.05278
# Shear Modulus (GPa) = 27.61994 38.82162 33.22078
#
# Velocity S-wave (km/s) = 3.29465 3.90602 3.61329
# Velocity P-wave (km/s) = 5.46738 6.47356 5.99163
#
# Compressibility (1/GPa) = 0.02548760
#
# Stress axis : x y z
#
# Youngs Moduli (GPa) = 80.89284 90.06877 59.26635
#
# Poissons Ratio (x) = -0.08022 0.20668
# Poissons Ratio (y) = -0.07205 0.28616
# Poissons Ratio (z) = 0.28210 0.43489
#
# Static dielectric constant tensor:
#      x y z
#    x 2.027510 -0.069090 0.012700 
#    y -0.069090 2.051200 0.035400 
#    z 0.012700 0.035400 2.045150 
# 
# From -- ./inp_files/69542.got.cif
#   From: 2010.05.17/outbox.cif.g08.bks.cpg/sg2_35_cif.got.tgz:69542.got - 2010.06.03 11:33:40.
