data_PCOD9047042
_publ_section_title
;
Structure prediction by ZEFSAII (Michael W. Deem and Ramdas Pophale) SiO2 
 PCOD9047042
Probable space group: P -1
;
_chemical_formula_sum "Si O2"
_cell_formula_units_Z 15
_cell_length_a 14.887805
_cell_length_b 20.910615
_cell_length_c 11.730037
_cell_angle_alpha 148.003338
_cell_angle_beta 140.212184
_cell_angle_gamma 17.579094
_cell_volume 565.791662
_symmetry_space_group_name_H-M "P -1"
_symmetry_group_IT_number 2
_symmetry_cell_setting 'triclinic'
loop_
_space_group_symop_operation_xyz
x,y,z
-x,-y,-z
loop_
_atom_site_type_symbol
_atom_site_label
_atom_site_fract_x
_atom_site_fract_y
_atom_site_fract_z
Si Si1 0.854346 0.927103 0.600729
Si Si2 0.390621 0.385408 0.007442
Si Si3 0.742061 0.758112 0.281689
Si Si4 0.367217 0.331460 0.537253
Si Si5 0.500000 0.000000 0.000000
Si Si6 0.245083 0.089556 0.109030
Si Si7 0.686827 0.226237 0.283042
Si Si8 0.658565 0.310330 0.636535
O O1 0.564357 0.152832 0.572699
O O2 0.951553 0.712720 0.389347
O O3 0.711608 0.085950 0.820316
O O4 0.085893 0.845266 0.649130
O O5 0.437735 0.393148 0.193812
O O6 0.333687 0.550642 0.131545
O O7 0.152753 0.452923 0.883437
O O8 0.500000 0.000000 0.500000
O O9 0.551869 0.871837 0.154968
O O10 0.428690 0.173650 0.275541
O O11 0.475780 0.372302 0.643669
O O12 0.013820 0.623162 0.664007
O O13 0.333450 0.041778 0.994186
O O14 0.135948 0.035657 0.933316
O O15 0.557579 0.357585 0.479780
O O16 0.000000 0.000000 0.500000
#
# Coordination Sequence:
#
# PCOD9047042 Si02
#       8
#     2   2   2   2   1   2   2   2
#     4  11  22  41  72 103 138 187 243 296 354 432
#     4  10  24  43  70  98 142 195 240 292 365 425
#     4   9  21  44  68 100 137 185 245 291 351 436
#     4  12  26  43  72 108 144 190 241 298 371 421
#     4  12  24  44  68 106 144 186 234 300 358 430
#     4  11  24  44  74 102 145 193 235 299 362 432
#     4  11  23  44  69 102 147 185 243 297 357 429
#     4  12  25  44  69 105 146 185 242 303 352 427
#
# _framework density 26.511526
#
# number of rings (size 3 to 8) (size 9 to 14) (size 15 to 20)
#    0.000    1.067    4.000    2.000    1.867    3.200 
#    2.400    0.667    0.000    0.000    0.000    0.000 
#    0.000    0.000    0.000    0.000    0.000    0.000 
#
# Total GULP energy -83851.190350 kJ/mol
# GULP energy per Si atom -5590.079357 kJ/mol
# Density = 2.645118 g / cm^3
# Si number density = 26.511526 Si / 1000 Ang^3
#
#
#
# Elastic Constant Matrix: (Units=GPa)
#
#
# Indices 1 2 3 4 5 6 
#
# 1 146.1736 15.9662 39.5224 -12.3907 22.5509 -12.4339
# 2 15.9662 48.5938 10.3506 -14.9708 10.8998 3.1299
# 3 39.5224 10.3506 151.6309 0.0454 28.3687 1.7054
# 4 -12.3907 -14.9708 0.0454 27.0398 -0.7823 6.5562
# 5 22.5509 10.8998 28.3687 -0.7823 82.4110 -3.4119
# 6 -12.4339 3.1299 1.7054 6.5562 -3.4119 35.0457
#
#
#
# Elastic Compliance Matrix: (Units=1/GPa)
#
#
# Indices 1 2 3 4 5 6 
#
# 1 0.008091 -0.001460 -0.001800 0.002248 -0.001275 0.002544
# 2 -0.001460 0.027171 -0.000847 0.015779 -0.003007 -0.006148
# 3 -0.001800 -0.000847 0.007512 -0.001144 -0.002030 -0.000912
# 4 0.002248 0.015779 -0.001144 0.049101 -0.002255 -0.009961
# 5 -0.001275 -0.003007 -0.002030 -0.002255 0.013627 0.001664
# 6 0.002544 -0.006148 -0.000912 -0.009961 0.001664 0.032056
#
#
# Mechanical properties :
#
#
# Convention : Reuss Voigt Hill
#
# Bulk Modulus (GPa) = 28.93567 53.11962 41.02765
# Shear Modulus (GPa) = 31.78792 47.60325 39.69559
#
# Velocity S-wave (km/s) = 3.46645 4.24201 3.87369
# Velocity P-wave (km/s) = 5.19228 6.63874 5.95955
#
# Compressibility (1/GPa) = 0.03455942
#
# Stress axis : x y z
#
# Youngs Moduli (GPa) = 123.59413 36.80422 133.11378
#
# Poissons Ratio (x) = 0.05374 0.23961
# Poissons Ratio (y) = 0.18048 0.11276
# Poissons Ratio (z) = 0.22248 0.03118
#
# Static dielectric constant tensor:
#      x y z
#    x 2.027080 -0.003330 0.027760 
#    y -0.003330 2.093620 -0.021420 
#    z 0.027760 -0.021420 2.022350 
# 
# From -- ./inp_files/457773.got.cif
#   From: 2010.05.17/outbox.cif.g08.bks.cpg/sg2_229_cif.got.tgz:457773.got - 2010.06.03 11:33:40.
