data_PCOD9047103
_publ_section_title
;
Structure prediction by ZEFSAII (Michael W. Deem and Ramdas Pophale) SiO2 
 PCOD9047103
Probable space group: P -1
;
_chemical_formula_sum "Si O2"
_cell_formula_units_Z 14
_cell_length_a 8.663632
_cell_length_b 12.696629
_cell_length_c 14.392462
_cell_angle_alpha 43.242608
_cell_angle_beta 89.242781
_cell_angle_gamma 55.742605
_cell_volume 639.448048
_symmetry_space_group_name_H-M "P -1"
_symmetry_group_IT_number 2
_symmetry_cell_setting 'triclinic'
loop_
_space_group_symop_operation_xyz
x,y,z
-x,-y,-z
loop_
_atom_site_type_symbol
_atom_site_label
_atom_site_fract_x
_atom_site_fract_y
_atom_site_fract_z
Si Si1 0.457472 0.920578 0.146082
Si Si2 0.925585 0.534576 0.266256
Si Si3 0.466464 0.564999 0.066047
Si Si4 0.459046 0.288833 0.380192
Si Si5 0.998089 0.814093 0.616692
Si Si6 0.868433 0.979102 0.081438
Si Si7 0.584128 0.575032 0.513084
O O1 0.760862 0.692747 0.260191
O O2 0.466947 0.815684 0.306625
O O3 0.329884 0.936246 0.046868
O O4 0.274180 0.218137 0.963055
O O5 0.964903 0.320756 0.387986
O O6 0.204708 0.393424 0.340149
O O7 0.420536 0.438256 0.200037
O O8 0.740410 0.427252 0.174595
O O9 0.500000 0.500000 0.000000
O O10 0.258365 0.841367 0.942137
O O11 0.523830 0.341711 0.435253
O O12 0.721976 0.984475 0.551752
O O13 0.000000 0.000000 0.500000
O O14 0.104123 0.684910 0.307012
O O15 0.000000 0.000000 0.000000
O O16 0.500000 0.500000 0.500000
#
# Coordination Sequence:
#
# PCOD9047103 Si02
#       7
#     2   2   2   2   2   2   2
#     4  11  24  43  72 106 146 189 234 303 366 422
#     4  11  23  47  70  99 154 185 235 305 366 426
#     4  11  24  43  71 103 143 190 240 301 361 425
#     4  11  24  44  67 105 141 190 243 296 358 436
#     4  10  24  43  71  99 137 188 241 293 361 431
#     4  12  21  44  72 107 144 183 246 301 352 431
#     4  12  25  39  75 110 142 189 247 297 358 427
#
# _framework density 21.893884
#
# number of rings (size 3 to 8) (size 9 to 14) (size 15 to 20)
#    0.000    0.857    5.714    0.429    4.000    1.714 
#    0.000    5.714    0.000    0.000    0.000    0.000 
#    0.000    0.000    0.000    0.000    0.000    0.000 
#
# Total GULP energy -77976.357954 kJ/mol
# GULP energy per Si atom -5569.739854 kJ/mol
# Density = 2.184405 g / cm^3
# Si number density = 21.893884 Si / 1000 Ang^3
#
#
#
# Elastic Constant Matrix: (Units=GPa)
#
#
# Indices 1 2 3 4 5 6 
#
# 1 99.9110 22.3184 13.1354 -1.2177 12.8659 3.8778
# 2 22.3184 131.7413 26.0961 -6.7020 -3.1045 3.9942
# 3 13.1354 26.0961 53.2825 -9.1493 -1.3958 -1.9069
# 4 -1.2177 -6.7020 -9.1493 50.0414 -10.2940 0.0193
# 5 12.8659 -3.1045 -1.3958 -10.2940 40.6317 -4.7260
# 6 3.8778 3.9942 -1.9069 0.0193 -4.7260 30.8345
#
#
#
# Elastic Compliance Matrix: (Units=1/GPa)
#
#
# Indices 1 2 3 4 5 6 
#
# 1 0.011294 -0.001536 -0.002436 -0.001267 -0.004335 -0.002036
# 2 -0.001536 0.008687 -0.003771 0.000657 0.001070 -0.001002
# 3 -0.002436 -0.003771 0.022059 0.003992 0.002549 0.002547
# 4 -0.001267 0.000657 0.003992 0.022072 0.006329 0.001277
# 5 -0.004335 0.001070 0.002549 0.006329 0.028327 0.004902
# 6 -0.002036 -0.001002 0.002547 0.001277 0.004902 0.033725
#
#
# Mechanical properties :
#
#
# Convention : Reuss Voigt Hill
#
# Bulk Modulus (GPa) = 37.65892 45.33719 41.49805
# Shear Modulus (GPa) = 33.22253 39.19386 36.20819
#
# Velocity S-wave (km/s) = 3.89965 4.23563 4.07111
# Velocity P-wave (km/s) = 6.12490 6.68382 6.41045
#
# Compressibility (1/GPa) = 0.02655413
#
# Stress axis : x y z
#
# Youngs Moduli (GPa) = 88.54216 115.11751 45.33355
#
# Poissons Ratio (x) = 0.17678 0.11044
# Poissons Ratio (y) = 0.13597 0.17095
# Poissons Ratio (z) = 0.21570 0.43409
#
# Static dielectric constant tensor:
#      x y z
#    x 1.908530 0.052850 0.000680 
#    y 0.052850 1.900490 -0.033780 
#    z 0.000680 -0.033780 1.838760 
# 
# From -- ./inp_files/498866.got.cif
#   From: 2010.05.17/outbox.cif.g08.bks.cpg/sg2_250_cif.got.tgz:498866.got - 2010.06.03 11:33:40.
