data_PCOD9047006
_publ_section_title
;
Structure prediction by ZEFSAII (Michael W. Deem and Ramdas Pophale) SiO2 
 PCOD9047006
Probable space group: P -1
;
_chemical_formula_sum "Si O2"
_cell_formula_units_Z 14
_cell_length_a 10.944039
_cell_length_b 6.730677
_cell_length_c 14.317187
_cell_angle_alpha 77.491826
_cell_angle_beta 35.901640
_cell_angle_gamma 68.271775
_cell_volume 567.727063
_symmetry_space_group_name_H-M "P -1"
_symmetry_group_IT_number 2
_symmetry_cell_setting 'triclinic'
loop_
_space_group_symop_operation_xyz
x,y,z
-x,-y,-z
loop_
_atom_site_type_symbol
_atom_site_label
_atom_site_fract_x
_atom_site_fract_y
_atom_site_fract_z
Si Si1 0.084327 0.601599 0.676554
Si Si2 0.451802 0.156232 0.423759
Si Si3 0.820305 0.722136 0.007839
Si Si4 0.178332 0.719111 0.922425
Si Si5 0.363557 0.813753 0.971184
Si Si6 0.763521 0.449447 0.770551
Si Si7 0.887513 0.965079 0.476064
O O1 0.286041 0.391962 0.538598
O O2 0.097901 0.832200 0.614397
O O3 0.026211 0.618868 0.820111
O O4 0.868777 0.570976 0.766051
O O5 0.670070 0.189177 0.244110
O O6 0.500000 0.000000 0.500000
O O7 0.344338 0.053144 0.417556
O O8 0.936892 0.767109 0.023708
O O9 0.714143 0.541190 0.112093
O O10 0.654851 0.939576 0.042717
O O11 0.167893 0.802112 0.026408
O O12 0.582740 0.641191 0.809459
O O13 0.341500 0.709328 0.094030
O O14 0.958043 0.282579 0.611556
O O15 0.000000 0.000000 0.500000
#
# Coordination Sequence:
#
# PCOD9047006 Si02
#       7
#     2   2   2   2   2   2   2
#     4  11  24  46  73 102 146 185 236 292 363 422
#     4  11  28  49  73 105 147 188 235 301 359 425
#     4  11  24  45  73 104 141 190 232 301 354 422
#     4  11  26  43  71 107 140 181 247 291 356 422
#     4  11  23  43  69 103 145 182 237 292 355 422
#     4  10  24  43  70 104 142 186 230 297 352 417
#     4  11  26  46  76 103 146 191 239 291 358 431
#
# _framework density 24.659737
#
# number of rings (size 3 to 8) (size 9 to 14) (size 15 to 20)
#    0.000    1.143    2.857    1.286    6.000    8.571 
#    0.000    0.000    0.000    0.000    0.000    0.000 
#    0.000    0.000    0.000    0.000    0.000    0.000 
#
# Total GULP energy -78233.444405 kJ/mol
# GULP energy per Si atom -5588.103172 kJ/mol
# Density = 2.460361 g / cm^3
# Si number density = 24.659737 Si / 1000 Ang^3
#
#
#
# Elastic Constant Matrix: (Units=GPa)
#
#
# Indices 1 2 3 4 5 6 
#
# 1 85.9418 32.7096 16.7921 -6.0658 7.9633 8.7788
# 2 32.7096 184.3538 39.1252 -20.1021 -12.3186 -11.4368
# 3 16.7921 39.1252 55.4067 -17.6886 0.1317 1.3138
# 4 -6.0658 -20.1021 -17.6886 46.6391 -1.4925 1.3687
# 5 7.9633 -12.3186 0.1317 -1.4925 27.8200 -2.1122
# 6 8.7788 -11.4368 1.3138 1.3687 -2.1122 31.5562
#
#
#
# Elastic Compliance Matrix: (Units=1/GPa)
#
#
# Indices 1 2 3 4 5 6 
#
# 1 0.014175 -0.002759 -0.002288 -0.000242 -0.005677 -0.005218
# 2 -0.002759 0.007474 -0.004120 0.001329 0.004486 0.003891
# 3 -0.002288 -0.004120 0.023955 0.007043 -0.001075 -0.002232
# 4 -0.000242 0.001329 0.007043 0.024735 0.001899 -0.000690
# 5 -0.005677 0.004486 -0.001075 0.001899 0.040108 0.005852
# 6 -0.005218 0.003891 -0.002232 -0.000690 0.005852 0.035066
#
#
# Mechanical properties :
#
#
# Convention : Reuss Voigt Hill
#
# Bulk Modulus (GPa) = 36.66984 55.88400 46.27692
# Shear Modulus (GPa) = 28.91226 37.00808 32.96017
#
# Velocity S-wave (km/s) = 3.42782 3.87815 3.65992
# Velocity P-wave (km/s) = 5.52894 6.53947 6.05532
#
# Compressibility (1/GPa) = 0.02727037
#
# Stress axis : x y z
#
# Youngs Moduli (GPa) = 70.54781 133.79065 41.74460
#
# Poissons Ratio (x) = 0.36911 0.09550
# Poissons Ratio (y) = 0.19463 0.17200
# Poissons Ratio (z) = 0.16140 0.55126
#
# Static dielectric constant tensor:
#      x y z
#    x 2.052920 -0.005470 -0.023800 
#    y -0.005470 1.966070 0.040270 
#    z -0.023800 0.040270 2.029820 
# 
# From -- ./inp_files/124169.got.cif
#   From: 2010.05.17/outbox.cif.g08.bks.cpg/sg2_63_cif.got.tgz:124169.got - 2010.06.03 11:33:40.
