data_PCOD9047860
_publ_section_title
;
Structure prediction by ZEFSAII (Michael W. Deem and Ramdas Pophale) SiO2 
 PCOD9047860
Probable space group: P -1
;
_chemical_formula_sum "Si O2"
_cell_formula_units_Z 12
_cell_length_a 11.799704
_cell_length_b 10.293532
_cell_length_c 6.564483
_cell_angle_alpha 103.011025
_cell_angle_beta 56.602445
_cell_angle_gamma 127.797294
_cell_volume 518.332584
_symmetry_space_group_name_H-M "P -1"
_symmetry_group_IT_number 2
_symmetry_cell_setting 'triclinic'
loop_
_space_group_symop_operation_xyz
x,y,z
-x,-y,-z
loop_
_atom_site_type_symbol
_atom_site_label
_atom_site_fract_x
_atom_site_fract_y
_atom_site_fract_z
Si Si1 0.369573 0.800674 0.569875
Si Si2 0.017583 0.718325 0.771232
Si Si3 0.342662 0.569809 0.854451
Si Si4 0.145776 0.986794 0.430542
Si Si5 0.419279 0.233745 0.964930
Si Si6 0.781275 0.767091 0.210541
O O1 0.178600 0.737977 0.705955
O O2 0.379883 0.720777 0.737061
O O3 0.432558 0.746272 0.303353
O O4 0.500000 0.000000 0.500000
O O5 0.065689 0.805137 0.533820
O O6 0.842710 0.532583 0.889248
O O7 0.968364 0.819776 0.993460
O O8 0.315556 0.423545 0.687850
O O9 0.487435 0.632669 0.900176
O O10 0.224458 0.114987 0.588741
O O11 0.290626 0.056348 0.143075
O O12 0.000000 0.000000 0.500000
O O13 0.303729 0.245715 0.924693
#
# Coordination Sequence:
#
# PCOD9047860 Si02
#       6
#     2   2   2   2   2   2
#     4  12  27  46  68  98 142 181 230 284 342 405
#     4  10  24  46  70  99 138 182 224 282 340 397
#     4  10  25  45  72  99 137 184 228 280 342 403
#     4  12  24  43  73 105 135 179 228 281 340 406
#     4  12  25  44  70 104 136 180 231 278 344 408
#     4  10  24  44  71 101 137 174 231 283 335 394
#
# _framework density 23.151157999999999
#
# number of rings (size 3 to 8) (size 9 to 14) (size 15 to 20)
#    1.000    0.000    1.667    4.500    2.333    8.667 
#    0.000    0.000    0.000    0.000    0.000    0.000 
#    0.000    0.000    0.000    0.000    0.000    0.000 
#
# Total GULP energy -67069.137212 kJ/mol
# GULP energy per Si atom -5589.094768 kJ/mol
# Density = 2.309846 g / cm^3
# Si number density = 23.151158 Si / 1000 Ang^3
#
#
#
# Elastic Constant Matrix: (Units=GPa)
#
#
# Indices 1 2 3 4 5 6 
#
# 1 118.3314 20.2746 70.2509 -14.2450 0.5761 14.7444
# 2 20.2746 82.9517 33.1052 -28.9796 22.3148 3.6228
# 3 70.2509 33.1052 83.3998 -22.3854 -3.0328 3.4880
# 4 -14.2450 -28.9796 -22.3854 37.3142 -5.4861 1.3919
# 5 0.5761 22.3148 -3.0328 -5.4861 49.8605 -9.3309
# 6 14.7444 3.6228 3.4880 1.3919 -9.3309 33.4830
#
#
#
# Elastic Compliance Matrix: (Units=1/GPa)
#
#
# Indices 1 2 3 4 5 6 
#
# 1 0.019345 0.003702 -0.017794 -0.000781 -0.004605 -0.008316
# 2 0.003702 0.021792 -0.008688 0.011863 -0.010221 -0.006425
# 3 -0.017794 -0.008688 0.032217 0.006713 0.008181 0.007420
# 4 -0.000781 0.011863 0.006713 0.039700 -0.001202 -0.003624
# 5 -0.004605 -0.010221 0.008181 -0.001202 0.026887 0.009824
# 6 -0.008316 -0.006425 0.007420 -0.003624 0.009824 0.036339
#
#
# Mechanical properties :
#
#
# Convention : Reuss Voigt Hill
#
# Bulk Modulus (GPa) = 35.97800 59.10493 47.54146
# Shear Modulus (GPa) = 21.63528 34.86835 28.25182
#
# Velocity S-wave (km/s) = 3.06031 3.88508 3.49710
# Velocity P-wave (km/s) = 5.29732 6.76096 6.07339
#
# Compressibility (1/GPa) = 0.02779476
#
# Stress axis : x y z
#
# Youngs Moduli (GPa) = 51.69268 45.88836 31.03985
#
# Poissons Ratio (x) = -0.16989 0.55233
# Poissons Ratio (y) = -0.19138 0.26966
# Poissons Ratio (z) = 0.91982 0.39866
#
# Static dielectric constant tensor:
#      x y z
#    x 1.837530 0.002470 -0.014890 
#    y 0.002470 1.905630 -0.010020 
#    z -0.014890 -0.010020 1.922540 
# 
# From -- ./inp_files/66701.got.cif
#   From: 2010.05.17/outbox.cif.g08.bks.cpg/sg2_34_cif.got.tgz:66701.got - 2010.06.03 11:33:40.
