data_PCOD9047343
_publ_section_title
;
Structure prediction by ZEFSAII (Michael W. Deem and Ramdas Pophale) SiO2 
 PCOD9047343
Probable space group: P -1
;
_chemical_formula_sum "Si O2"
_cell_formula_units_Z 16
_cell_length_a 16.302723
_cell_length_b 9.917652
_cell_length_c 8.256677
_cell_angle_alpha 90.862989
_cell_angle_beta 111.993011
_cell_angle_gamma 36.828436
_cell_volume 637.251699
_symmetry_space_group_name_H-M "P -1"
_symmetry_group_IT_number 2
_symmetry_cell_setting 'triclinic'
loop_
_space_group_symop_operation_xyz
x,y,z
-x,-y,-z
loop_
_atom_site_type_symbol
_atom_site_label
_atom_site_fract_x
_atom_site_fract_y
_atom_site_fract_z
Si Si1 0.537198 0.072536 0.649171
Si Si2 0.811941 0.867605 0.263238
Si Si3 0.378107 0.505786 0.362416
Si Si4 0.151483 0.670324 0.964004
Si Si5 0.094225 0.455753 0.927110
Si Si6 0.891463 0.053725 0.291492
Si Si7 0.657391 0.255577 0.373893
Si Si8 0.448677 0.219346 0.918163
O O1 0.533064 0.219068 0.554010
O O2 0.399097 0.275668 0.694049
O O3 0.500000 0.000000 0.500000
O O4 0.709393 0.809638 0.867285
O O5 0.919156 0.857877 0.281123
O O6 0.768001 0.975491 0.415037
O O7 0.905990 0.616010 0.250674
O O8 0.613980 0.101199 0.060834
O O9 0.461163 0.472471 0.268736
O O10 0.302411 0.708334 0.438265
O O11 0.245829 0.570426 0.200336
O O12 0.083010 0.902031 0.855747
O O13 0.294477 0.456744 0.926617
O O14 0.040838 0.680871 0.884924
O O15 0.000000 0.500000 0.000000
O O16 0.705845 0.280357 0.251788
O O17 0.000000 0.000000 0.500000
O O18 0.500000 0.000000 0.000000
#
# Coordination Sequence:
#
# PCOD9047343 Si02
#       8
#     2   2   2   2   2   2   2   2
#     4  11  22  38  64  99 134 168 221 284 326 394
#     4   9  21  43  68  91 136 171 220 280 326 403
#     4  11  21  38  65 105 128 167 214 286 341 387
#     4  12  22  41  70  96 131 172 227 274 343 401
#     4  11  25  44  65  98 137 179 223 275 346 400
#     4  10  24  44  65  92 131 183 229 266 327 407
#     4   9  22  40  64  95 136 163 222 272 335 394
#     4  11  19  38  69  99 132 169 220 275 344 389
#
# _framework density 25.107818999999999
#
# number of rings (size 3 to 8) (size 9 to 14) (size 15 to 20)
#    0.750    0.750    5.000    0.750    0.000    8.000 
#    2.250    1.875    0.000    0.000    0.000    0.000 
#    0.000    0.000    0.000    0.000    0.000    0.000 
#
# Total GULP energy -89225.405796 kJ/mol
# GULP energy per Si atom -5576.587862 kJ/mol
# Density = 2.505067 g / cm^3
# Si number density = 25.107819 Si / 1000 Ang^3
#
#
#
# Elastic Constant Matrix: (Units=GPa)
#
#
# Indices 1 2 3 4 5 6 
#
# 1 122.4954 29.4370 21.9431 13.6815 0.9930 15.5637
# 2 29.4370 97.3398 36.9664 35.4250 8.4617 6.6268
# 3 21.9431 36.9664 86.2933 32.9780 6.5419 13.9702
# 4 13.6815 35.4250 32.9780 49.8357 3.6000 1.2847
# 5 0.9930 8.4617 6.5419 3.6000 34.4476 16.1024
# 6 15.5637 6.6268 13.9702 1.2847 16.1024 38.9375
#
#
#
# Elastic Compliance Matrix: (Units=1/GPa)
#
#
# Indices 1 2 3 4 5 6 
#
# 1 0.009406 -0.002307 -0.000720 -0.000533 0.002396 -0.004082
# 2 -0.002307 0.015152 -0.002682 -0.008192 -0.002593 0.000648
# 3 -0.000720 -0.002682 0.017285 -0.009260 0.000958 -0.005548
# 4 -0.000533 -0.008192 -0.009260 0.032169 -0.001716 0.004578
# 5 0.002396 -0.002593 0.000958 -0.001716 0.037152 -0.016168
# 6 -0.004082 0.000648 -0.005548 0.004578 -0.016168 0.035729
#
#
# Mechanical properties :
#
#
# Convention : Reuss Voigt Hill
#
# Bulk Modulus (GPa) = 32.86924 53.64683 43.25804
# Shear Modulus (GPa) = 29.68181 39.16296 34.42238
#
# Velocity S-wave (km/s) = 3.44201 3.95370 3.70670
# Velocity P-wave (km/s) = 5.37738 6.50041 5.96538
#
# Compressibility (1/GPa) = 0.03042358
#
# Stress axis : x y z
#
# Youngs Moduli (GPa) = 106.31708 65.99747 57.85439
#
# Poissons Ratio (x) = 0.15227 0.04168
# Poissons Ratio (y) = 0.24529 0.15516
# Poissons Ratio (z) = 0.07660 0.17700
#
# Static dielectric constant tensor:
#      x y z
#    x 2.122010 0.019230 -0.047310 
#    y 0.019230 2.091360 -0.056110 
#    z -0.047310 -0.056110 2.022310 
# 
# From -- ./inp_files/326321.got.cif
#   From: 2010.05.17/outbox.cif.g08.bks.cpg/sg2_164_cif.got.tgz:326321.got - 2010.06.03 11:33:40.
