data_PCOD9047604
_publ_section_title
;
Structure prediction by ZEFSAII (Michael W. Deem and Ramdas Pophale) SiO2 
 PCOD9047604
Probable space group: P -1
;
_chemical_formula_sum "Si O2"
_cell_formula_units_Z 14
_cell_length_a 15.345882
_cell_length_b 6.357778
_cell_length_c 16.232184
_cell_angle_alpha 84.284995
_cell_angle_beta 153.102536
_cell_angle_gamma 106.649332
_cell_volume 640.459917
_symmetry_space_group_name_H-M "P -1"
_symmetry_group_IT_number 2
_symmetry_cell_setting 'triclinic'
loop_
_space_group_symop_operation_xyz
x,y,z
-x,-y,-z
loop_
_atom_site_type_symbol
_atom_site_label
_atom_site_fract_x
_atom_site_fract_y
_atom_site_fract_z
Si Si1 0.011664 0.053740 0.869714
Si Si2 0.065828 0.780282 0.567826
Si Si3 0.836584 0.227754 0.869567
Si Si4 0.599808 0.881060 0.424661
Si Si5 0.580670 0.479959 0.864819
Si Si6 0.669827 0.142201 0.065389
Si Si7 0.413963 0.817634 0.735683
O O1 0.827044 0.923856 0.651713
O O2 0.888088 0.117969 0.836309
O O3 0.112941 0.895590 0.003918
O O4 0.205589 0.295058 0.992702
O O5 0.114000 0.777576 0.705481
O O6 0.255233 0.875149 0.655669
O O7 0.000000 0.500000 0.500000
O O8 0.000000 0.000000 0.500000
O O9 0.593243 0.193160 0.670033
O O10 0.000000 0.500000 0.000000
O O11 0.511742 0.691459 0.284117
O O12 0.613951 0.116235 0.382725
O O13 0.402690 0.561881 0.740266
O O14 0.635995 0.358204 0.992913
O O15 0.500000 0.000000 0.000000
O O16 0.637566 0.979722 0.965035
#
# Coordination Sequence:
#
# PCOD9047604 Si02
#       7
#     2   2   2   2   2   2   2
#     4  11  25  42  71  98 139 185 235 296 358 429
#     4  11  27  44  68 106 140 185 246 298 361 447
#     4  11  23  46  66 100 141 182 235 290 362 434
#     4  11  24  44  68 104 137 182 240 291 360 430
#     4  11  23  45  70 102 139 185 240 298 359 433
#     4   9  23  43  67  91 137 186 226 292 363 419
#     4  10  24  44  68  94 141 181 235 295 360 428
#
# _framework density 21.859293000000001
#
# number of rings (size 3 to 8) (size 9 to 14) (size 15 to 20)
#    0.000    1.429    2.857    0.429   10.000    2.857 
#    0.000    0.000    0.000    0.000    0.000    0.000 
#    0.000    0.000    0.000    0.000    0.000    0.000 
#
# Total GULP energy -77970.488124 kJ/mol
# GULP energy per Si atom -5569.320580 kJ/mol
# Density = 2.180954 g / cm^3
# Si number density = 21.859293 Si / 1000 Ang^3
#
#
#
# Elastic Constant Matrix: (Units=GPa)
#
#
# Indices 1 2 3 4 5 6 
#
# 1 80.4965 30.5572 24.9408 -13.2853 3.3789 -1.4643
# 2 30.5572 151.7955 49.8205 -16.8045 2.2242 4.7751
# 3 24.9408 49.8205 113.9566 -3.6171 -1.6791 3.2978
# 4 -13.2853 -16.8045 -3.6171 25.8613 0.5472 5.8643
# 5 3.3789 2.2242 -1.6791 0.5472 21.6318 -6.8100
# 6 -1.4643 4.7751 3.2978 5.8643 -6.8100 45.8726
#
#
#
# Elastic Compliance Matrix: (Units=1/GPa)
#
#
# Indices 1 2 3 4 5 6 
#
# 1 0.014909 -0.001415 -0.002463 0.006550 -0.002677 -0.000435
# 2 -0.001415 0.008534 -0.003249 0.004743 -0.001511 -0.001531
# 3 -0.002463 -0.003249 0.010699 -0.001907 0.001588 -0.000030
# 4 0.006550 0.004743 -0.001907 0.046503 -0.004986 -0.006833
# 5 -0.002677 -0.001511 0.001588 -0.004986 0.049554 0.007952
# 6 -0.000435 -0.001531 -0.000030 -0.006833 0.007952 0.024001
#
#
# Mechanical properties :
#
#
# Convention : Reuss Voigt Hill
#
# Bulk Modulus (GPa) = 50.28260 61.87618 56.07939
# Shear Modulus (GPa) = 28.55782 34.73515 31.64648
#
# Velocity S-wave (km/s) = 3.61839 3.99059 3.80904
# Velocity P-wave (km/s) = 6.36473 7.04281 6.71234
#
# Compressibility (1/GPa) = 0.01988760
#
# Stress axis : x y z
#
# Youngs Moduli (GPa) = 67.07491 117.17422 93.47073
#
# Poissons Ratio (x) = 0.16576 0.23026
# Poissons Ratio (y) = 0.09489 0.30368
# Poissons Ratio (z) = 0.16524 0.38069
#
# Static dielectric constant tensor:
#      x y z
#    x 1.820440 0.015340 0.065770 
#    y 0.015340 1.842930 0.069950 
#    z 0.065770 0.069950 2.098690 
# 
# From -- ./inp_files/97876.got.cif
#   From: 2010.05.17/outbox.cif.g08.bks.cpg/sg2_49_cif.got.tgz:97876.got - 2010.06.03 11:33:40.
