data_PCOD9047704
_publ_section_title
;
Structure prediction by ZEFSAII (Michael W. Deem and Ramdas Pophale) SiO2 
 PCOD9047704
Probable space group: P -1
;
_chemical_formula_sum "Si O2"
_cell_formula_units_Z 16
_cell_length_a 10.042750
_cell_length_b 11.950683
_cell_length_c 5.529208
_cell_angle_alpha 86.223404
_cell_angle_beta 115.411447
_cell_angle_gamma 94.965347
_cell_volume 596.845352
_symmetry_space_group_name_H-M "P -1"
_symmetry_group_IT_number 2
_symmetry_cell_setting 'triclinic'
loop_
_space_group_symop_operation_xyz
x,y,z
-x,-y,-z
loop_
_atom_site_type_symbol
_atom_site_label
_atom_site_fract_x
_atom_site_fract_y
_atom_site_fract_z
Si Si1 0.616656 0.915189 0.854012
Si Si2 0.538611 0.566109 0.766251
Si Si3 0.276673 0.696686 0.489155
Si Si4 0.966647 0.262080 0.016369
Si Si5 0.112360 0.058576 0.275587
Si Si6 0.285597 0.899062 0.737151
Si Si7 0.222434 0.289339 0.847938
Si Si8 0.107078 0.456834 0.384733
O O1 0.726516 0.903963 0.716333
O O2 0.439468 0.909284 0.696667
O O3 0.675030 0.815188 0.084263
O O4 0.663084 0.036090 0.991136
O O5 0.500000 0.500000 0.500000
O O6 0.446637 0.675868 0.648698
O O7 0.500000 0.500000 0.000000
O O8 0.704340 0.617736 0.920605
O O9 0.239796 0.766877 0.689981
O O10 0.208747 0.570022 0.413280
O O11 0.200620 0.759528 0.202001
O O12 0.029448 0.169903 0.254792
O O13 0.004061 0.387098 0.124889
O O14 0.066243 0.251961 0.852054
O O15 0.156226 0.970775 0.521465
O O16 0.000000 0.000000 0.000000
O O17 0.205343 0.361361 0.585314
O O18 0.000000 0.500000 0.500000
#
# Coordination Sequence:
#
# PCOD9047704 Si02
#       8
#     2   2   2   2   2   2   2   2
#     4  10  24  44  69  94 135 182 230 294 357 429
#     4  12  27  47  72 106 149 191 245 301 360 435
#     4  12  24  44  67 102 137 179 238 294 359 433
#     4  11  25  44  66  96 138 180 231 297 358 436
#     4  11  23  43  69  98 130 177 232 286 359 424
#     4  11  23  46  65  98 137 177 237 288 359 429
#     4  11  23  45  66  98 135 185 230 288 367 428
#     4  12  25  40  68  97 133 181 229 286 364 428
#
# _framework density 26.807613
#
# number of rings (size 3 to 8) (size 9 to 14) (size 15 to 20)
#    0.000    0.750    5.000    2.250    1.750    1.500 
#    2.250    0.000    0.000    0.000    0.000    0.000 
#    0.000    0.000    0.000    0.000    0.000    0.000 
#
# Total GULP energy -89476.284379 kJ/mol
# GULP energy per Si atom -5592.267774 kJ/mol
# Density = 2.674660 g / cm^3
# Si number density = 26.807613 Si / 1000 Ang^3
#
#
#
# Elastic Constant Matrix: (Units=GPa)
#
#
# Indices 1 2 3 4 5 6 
#
# 1 94.4874 16.2180 29.4672 -16.6649 10.2218 -5.2644
# 2 16.2180 169.5106 41.7693 7.2436 4.6950 -14.1507
# 3 29.4672 41.7693 111.4600 10.1229 19.1993 -2.1697
# 4 -16.6649 7.2436 10.1229 55.4452 -7.0856 2.6854
# 5 10.2218 4.6950 19.1993 -7.0856 37.5219 -0.3844
# 6 -5.2644 -14.1507 -2.1697 2.6854 -0.3844 47.3578
#
#
#
# Elastic Compliance Matrix: (Units=1/GPa)
#
#
# Indices 1 2 3 4 5 6 
#
# 1 0.012622 -0.000461 -0.003401 0.004329 -0.000815 0.000858
# 2 -0.000461 0.006698 -0.002364 -0.000622 0.000399 0.001881
# 3 -0.003401 -0.002364 0.012047 -0.003614 -0.005628 -0.000373
# 4 0.004329 -0.000622 -0.003614 0.020721 0.004650 -0.001007
# 5 -0.000815 0.000399 -0.005628 0.004650 0.030579 -0.000245
# 6 0.000858 0.001881 -0.000373 -0.001007 -0.000245 0.021811
#
#
# Mechanical properties :
#
#
# Convention : Reuss Voigt Hill
#
# Bulk Modulus (GPa) = 52.86049 61.15187 57.00618
# Shear Modulus (GPa) = 40.57267 47.26522 43.91895
#
# Velocity S-wave (km/s) = 3.89456 4.20352 4.05198
# Velocity P-wave (km/s) = 6.32335 6.81324 6.57286
#
# Compressibility (1/GPa) = 0.01891772
#
# Stress axis : x y z
#
# Youngs Moduli (GPa) = 79.22379 149.28828 83.00639
#
# Poissons Ratio (x) = 0.06875 0.28227
# Poissons Ratio (y) = 0.03649 0.19623
# Poissons Ratio (z) = 0.26941 0.35292
#
# Static dielectric constant tensor:
#      x y z
#    x 2.385420 0.106210 0.008140 
#    y 0.106210 2.142680 -0.010280 
#    z 0.008140 -0.010280 2.132890 
# 
# From -- ./inp_files/70856.got.cif
#   From: 2010.05.17/outbox.cif.g08.bks.cpg/sg2_36_cif.got.tgz:70856.got - 2010.06.03 11:33:40.
