data_PCOD9047569
_publ_section_title
;
Structure prediction by ZEFSAII (Michael W. Deem and Ramdas Pophale) SiO2 
 PCOD9047569
Probable space group: P -1
;
_chemical_formula_sum "Si O2"
_cell_formula_units_Z 12
_cell_length_a 5.242207
_cell_length_b 7.005233
_cell_length_c 17.127231
_cell_angle_alpha 62.509267
_cell_angle_beta 80.826759
_cell_angle_gamma 104.806691
_cell_volume 510.421735
_symmetry_space_group_name_H-M "P -1"
_symmetry_group_IT_number 2
_symmetry_cell_setting 'triclinic'
loop_
_space_group_symop_operation_xyz
x,y,z
-x,-y,-z
loop_
_atom_site_type_symbol
_atom_site_label
_atom_site_fract_x
_atom_site_fract_y
_atom_site_fract_z
Si Si1 0.603153 0.050063 0.897216
Si Si2 0.985609 0.416552 0.238478
Si Si3 0.915446 0.064197 0.172797
Si Si4 0.014378 0.995250 0.592727
Si Si5 0.684809 0.561668 0.351614
Si Si6 0.650695 0.283871 0.556797
O O1 0.797085 0.908628 0.889412
O O2 0.338717 0.991471 0.864440
O O3 0.795075 0.322935 0.829902
O O4 0.925692 0.278268 0.186107
O O5 0.724509 0.433835 0.296194
O O6 0.500000 0.000000 0.000000
O O7 0.092832 0.258457 0.317809
O O8 0.852237 0.833081 0.272399
O O9 0.820624 0.131041 0.602250
O O10 0.338831 0.118003 0.577322
O O11 0.000000 0.000000 0.500000
O O12 0.770806 0.441048 0.444653
O O13 0.394578 0.565011 0.398235
#
# Coordination Sequence:
#
# PCOD9047569 Si02
#       6
#     2   2   2   2   2   2
#     4  11  28  52  78 109 143 184 240 307 379 450
#     4  11  26  48  76 110 151 194 244 308 363 431
#     4  11  26  46  77 110 146 185 244 299 374 438
#     4  12  25  42  67 103 148 198 248 291 357 420
#     4  10  24  44  68 104 149 196 244 295 348 419
#     4  11  25  42  65  98 154 198 247 297 340 417
#
# _framework density 23.509967
#
# number of rings (size 3 to 8) (size 9 to 14) (size 15 to 20)
#    0.000    1.000    3.333    1.000    4.667    8.000 
#    0.000    0.000    0.000    0.000    0.000    0.000 
#    0.000    0.000    0.000    0.000    0.000    0.000 
#
# Total GULP energy -67176.011508 kJ/mol
# GULP energy per Si atom -5598.000959 kJ/mol
# Density = 2.345646 g / cm^3
# Si number density = 23.509967 Si / 1000 Ang^3
#
#
#
# Elastic Constant Matrix: (Units=GPa)
#
#
# Indices 1 2 3 4 5 6 
#
# 1 175.0376 94.3967 63.6827 14.0609 -16.8155 -0.0698
# 2 94.3967 169.1463 66.5386 34.1648 -2.0483 -14.7566
# 3 63.6827 66.5386 137.0909 34.7297 -9.4044 3.8083
# 4 14.0609 34.1648 34.7297 40.6049 -7.9842 -1.4804
# 5 -16.8155 -2.0483 -9.4044 -7.9842 29.1928 9.4208
# 6 -0.0698 -14.7566 3.8083 -1.4804 9.4208 41.8206
#
#
#
# Elastic Compliance Matrix: (Units=1/GPa)
#
#
# Indices 1 2 3 4 5 6 
#
# 1 0.010000 -0.005750 -0.002498 0.004748 0.006872 -0.003165
# 2 -0.005750 0.011734 -0.001741 -0.007549 -0.006915 0.005580
# 3 -0.002498 -0.001741 0.011235 -0.007206 0.000754 -0.002066
# 4 0.004748 -0.007549 -0.007206 0.037583 0.011192 -0.003190
# 5 0.006872 -0.006915 0.000754 0.011192 0.044980 -0.012233
# 6 -0.003165 0.005580 -0.002066 -0.003190 -0.012233 0.028706
#
#
# Mechanical properties :
#
#
# Convention : Reuss Voigt Hill
#
# Bulk Modulus (GPa) = 76.98000 103.39010 90.18505
# Shear Modulus (GPa) = 29.66545 39.43411 34.54978
#
# Velocity S-wave (km/s) = 3.55607 4.09997 3.83767
# Velocity P-wave (km/s) = 7.04808 8.15387 7.62106
#
# Compressibility (1/GPa) = 0.01299039
#
# Stress axis : x y z
#
# Youngs Moduli (GPa) = 99.99532 85.22453 89.01132
#
# Poissons Ratio (x) = 0.49006 0.22235
# Poissons Ratio (y) = 0.57499 0.15497
# Poissons Ratio (z) = 0.24979 0.14838
#
# Static dielectric constant tensor:
#      x y z
#    x 1.897970 0.002950 -0.033500 
#    y 0.002950 1.981570 0.000550 
#    z -0.033500 0.000550 1.881180 
# 
# From -- ./inp_files/547880.got.cif
#   From: 2010.05.17/outbox.cif.g08.bks.cpg/sg2_274_cif.got.tgz:547880.got - 2010.06.03 11:33:40.
