data_PCOD9047371
_publ_section_title
;
Structure prediction by ZEFSAII (Michael W. Deem and Ramdas Pophale) SiO2 
 PCOD9047371
Probable space group: P -1
;
_chemical_formula_sum "Si O2"
_cell_formula_units_Z 11
_cell_length_a 9.023603
_cell_length_b 5.296338
_cell_length_c 14.763150
_cell_angle_alpha 100.790684
_cell_angle_beta 139.554214
_cell_angle_gamma 91.070949
_cell_volume 435.006426
_symmetry_space_group_name_H-M "P -1"
_symmetry_group_IT_number 2
_symmetry_cell_setting 'triclinic'
loop_
_space_group_symop_operation_xyz
x,y,z
-x,-y,-z
loop_
_atom_site_type_symbol
_atom_site_label
_atom_site_fract_x
_atom_site_fract_y
_atom_site_fract_z
Si Si1 0.302247 0.649538 0.439989
Si Si2 0.433406 0.837885 0.321160
Si Si3 0.081694 0.310027 0.455318
Si Si4 0.000000 0.500000 0.000000
Si Si5 0.624587 0.733380 0.944999
Si Si6 0.321348 0.155713 0.813140
O O1 0.500000 0.500000 0.500000
O O2 0.288852 0.788168 0.346896
O O3 0.078396 0.441195 0.362305
O O4 0.418080 0.860481 0.584351
O O5 0.646229 0.693055 0.404874
O O6 0.238236 0.731735 0.150055
O O7 0.000000 0.500000 0.500000
O O8 0.917462 0.012384 0.356113
O O9 0.830714 0.688624 0.974021
O O10 0.433970 0.448462 0.847616
O O11 0.498711 0.962708 0.873362
O O12 0.718466 0.809928 0.096080
#
# Coordination Sequence:
#
# PCOD9047371 Si02
#       6
#     2   2   2   1   2   2
#     4   9  22  43  66  98 133 179 235 281 362 419
#     4  10  24  44  66 101 135 183 234 288 360 418
#     4  11  24  41  73 100 136 183 236 300 343 430
#     4  12  26  44  72 102 144 184 242 306 340 434
#     4  10  25  45  69 103 141 190 234 293 363 427
#     4  10  24  47  69 101 144 188 235 289 370 431
#
# _framework density 25.286982999999999
#
# number of rings (size 3 to 8) (size 9 to 14) (size 15 to 20)
#    0.000    1.818    0.000    1.091   12.727    4.364 
#    3.273    0.000    0.000    0.000    0.000    0.000 
#    0.000    0.000    0.000    0.000    0.000    0.000 
#
# Total GULP energy -61314.234534 kJ/mol
# GULP energy per Si atom -5574.021321 kJ/mol
# Density = 2.522943 g / cm^3
# Si number density = 25.286983 Si / 1000 Ang^3
#
#
#
# Elastic Constant Matrix: (Units=GPa)
#
#
# Indices 1 2 3 4 5 6 
#
# 1 116.2122 46.5697 41.1604 2.4556 18.0544 -31.5730
# 2 46.5697 126.8689 46.6120 25.9993 14.4996 -25.7714
# 3 41.1604 46.6120 116.8344 13.2335 20.2989 -6.6166
# 4 2.4556 25.9993 13.2335 37.1649 -14.1355 5.6772
# 5 18.0544 14.4996 20.2989 -14.1355 32.4697 -5.6536
# 6 -31.5730 -25.7714 -6.6166 5.6772 -5.6536 46.1579
#
#
#
# Elastic Compliance Matrix: (Units=1/GPa)
#
#
# Indices 1 2 3 4 5 6 
#
# 1 0.012764 -0.001433 -0.002577 -0.001669 -0.004313 0.007238
# 2 -0.001433 0.014554 -0.001574 -0.014345 -0.009657 0.007501
# 3 -0.002577 -0.001574 0.012152 -0.006030 -0.008291 -0.001173
# 4 -0.001669 -0.014345 -0.006030 0.053351 0.032128 -0.012642
# 5 -0.004313 -0.009657 -0.008291 0.032128 0.055515 -0.006682
# 6 0.007238 0.007501 -0.001173 -0.012642 -0.006682 0.031372
#
#
# Mechanical properties :
#
#
# Convention : Reuss Voigt Hill
#
# Bulk Modulus (GPa) = 35.33360 69.84443 52.58901
# Shear Modulus (GPa) = 24.96156 38.19673 31.57915
#
# Velocity S-wave (km/s) = 3.14527 3.89077 3.53771
# Velocity P-wave (km/s) = 5.21476 6.91844 6.12611
#
# Compressibility (1/GPa) = 0.02830167
#
# Stress axis : x y z
#
# Youngs Moduli (GPa) = 78.34774 68.71099 82.29306
#
# Poissons Ratio (x) = 0.09848 0.21203
# Poissons Ratio (y) = 0.11229 0.12952
# Poissons Ratio (z) = 0.20186 0.10814
#
# Static dielectric constant tensor:
#      x y z
#    x 2.037730 0.087510 -0.076910 
#    y 0.087510 2.070350 -0.074250 
#    z -0.076910 -0.074250 1.936310 
# 
# From -- ./inp_files/17278.got.cif
#   From: 2010.05.17/outbox.cif.g08.bks.cpg/sg2_9_cif.got.tgz:17278.got - 2010.06.03 11:33:40.
