data_PCOD9047754
_publ_section_title
;
Structure prediction by ZEFSAII (Michael W. Deem and Ramdas Pophale) SiO2 
 PCOD9047754
Probable space group: P -1
;
_chemical_formula_sum "Si O2"
_cell_formula_units_Z 13
_cell_length_a 14.469947
_cell_length_b 9.688820
_cell_length_c 5.696575
_cell_angle_alpha 44.297048
_cell_angle_beta 104.236565
_cell_angle_gamma 104.546301
_cell_volume 537.282858
_symmetry_space_group_name_H-M "P -1"
_symmetry_group_IT_number 2
_symmetry_cell_setting 'triclinic'
loop_
_space_group_symop_operation_xyz
x,y,z
-x,-y,-z
loop_
_atom_site_type_symbol
_atom_site_label
_atom_site_fract_x
_atom_site_fract_y
_atom_site_fract_z
Si Si1 0.305816 0.721309 0.189855
Si Si2 0.989723 0.769928 0.867257
Si Si3 0.843214 0.439980 0.020421
Si Si4 0.782224 0.059314 0.759122
Si Si5 0.402362 0.029413 0.538550
Si Si6 0.490835 0.608104 0.615269
Si Si7 0.000000 0.000000 0.000000
O O1 0.245027 0.887261 0.058322
O O2 0.381897 0.661475 0.492966
O O3 0.235330 0.546129 0.246610
O O4 0.370703 0.826159 0.899344
O O5 0.069754 0.662895 0.916472
O O6 0.888697 0.649462 0.891755
O O7 0.000000 0.000000 0.500000
O O8 0.011652 0.790554 0.129258
O O9 0.800255 0.276366 0.379628
O O10 0.689160 0.940364 0.720072
O O11 0.881921 0.965365 0.923150
O O12 0.431394 0.199383 0.542901
O O13 0.500000 0.000000 0.500000
O O14 0.500000 0.500000 0.500000
O O15 0.500000 0.500000 0.000000
#
# Coordination Sequence:
#
# PCOD9047754 Si02
#       7
#     2   2   2   2   2   2   1
#     4  11  24  47  76 103 146 200 250 304 397 462
#     4  11  23  44  67 101 145 192 248 310 369 448
#     4  10  24  44  70 101 144 199 247 310 379 461
#     4  11  24  43  73 106 146 195 256 306 387 454
#     4  11  24  48  78 103 144 204 253 312 387 465
#     4  12  28  47  71 112 153 190 253 327 385 454
#     4  12  24  42  68 108 142 188 250 308 372 464
#
# _framework density 24.195822
#
# number of rings (size 3 to 8) (size 9 to 14) (size 15 to 20)
#    0.000    0.923    4.615    1.385    4.308    3.077 
#    2.769    0.000    0.000    0.000    0.000    0.000 
#    0.000    0.000    0.000    0.000    0.000    0.000 
#
# Total GULP energy -72429.034330 kJ/mol
# GULP energy per Si atom -5571.464179 kJ/mol
# Density = 2.414075 g / cm^3
# Si number density = 24.195822 Si / 1000 Ang^3
#
#
#
# Elastic Constant Matrix: (Units=GPa)
#
#
# Indices 1 2 3 4 5 6 
#
# 1 150.2593 58.0921 32.2903 12.5709 11.1313 21.1418
# 2 58.0921 211.4958 9.5070 6.6155 -2.8564 39.4368
# 3 32.2903 9.5070 44.9482 8.3301 11.3256 12.4030
# 4 12.5709 6.6155 8.3301 28.5650 4.3281 2.4388
# 5 11.1313 -2.8564 11.3256 4.3281 30.3977 10.5424
# 6 21.1418 39.4368 12.4030 2.4388 10.5424 58.3708
#
#
#
# Elastic Compliance Matrix: (Units=1/GPa)
#
#
# Indices 1 2 3 4 5 6 
#
# 1 0.008865 -0.002084 -0.005218 -0.001693 -0.001110 -0.000423
# 2 -0.002084 0.006054 0.000812 -0.000765 0.002501 -0.003928
# 3 -0.005218 0.000812 0.029508 -0.005130 -0.007086 -0.003435
# 4 -0.001693 -0.000765 -0.005130 0.037829 -0.003359 0.001247
# 5 -0.001110 0.002501 -0.007086 -0.003359 0.038974 -0.006681
# 6 -0.000423 -0.003928 -0.003435 0.001247 -0.006681 0.021823
#
#
# Mechanical properties :
#
#
# Convention : Reuss Voigt Hill
#
# Bulk Modulus (GPa) = 31.79744 67.38690 49.59217
# Shear Modulus (GPa) = 30.02714 43.92097 36.97405
#
# Velocity S-wave (km/s) = 3.52661 4.26517 3.91335
# Velocity P-wave (km/s) = 5.45462 7.22265 6.39998
#
# Compressibility (1/GPa) = 0.03144907
#
# Stress axis : x y z
#
# Youngs Moduli (GPa) = 112.79703 165.17514 33.88864
#
# Poissons Ratio (x) = 0.34417 0.17683
# Poissons Ratio (y) = 0.23503 -0.02752
# Poissons Ratio (z) = 0.58856 -0.13412
#
# Static dielectric constant tensor:
#      x y z
#    x 1.987880 -0.022690 -0.043200 
#    y -0.022690 2.018850 0.044400 
#    z -0.043200 0.044400 2.038620 
# 
# From -- ./inp_files/88376.got.cif
#   From: 2010.05.17/outbox.cif.g08.bks.cpg/sg2_45_cif.got.tgz:88376.got - 2010.06.03 11:33:40.
