data_PCOD9047777
_publ_section_title
;
Structure prediction by ZEFSAII (Michael W. Deem and Ramdas Pophale) SiO2 
 PCOD9047777
Probable space group: P -1
;
_chemical_formula_sum "Si O2"
_cell_formula_units_Z 12
_cell_length_a 11.918320
_cell_length_b 9.056212
_cell_length_c 16.871634
_cell_angle_alpha 46.395388
_cell_angle_beta 159.231336
_cell_angle_gamma 133.893702
_cell_volume 459.181865
_symmetry_space_group_name_H-M "P -1"
_symmetry_group_IT_number 2
_symmetry_cell_setting 'triclinic'
loop_
_space_group_symop_operation_xyz
x,y,z
-x,-y,-z
loop_
_atom_site_type_symbol
_atom_site_label
_atom_site_fract_x
_atom_site_fract_y
_atom_site_fract_z
Si Si1 0.159857 0.007360 0.487285
Si Si2 0.246744 0.450154 0.423225
Si Si3 0.327101 0.062025 0.026359
Si Si4 0.296466 0.916734 0.317235
Si Si5 0.729170 0.638830 0.257326
Si Si6 0.693449 0.369756 0.889434
O O1 0.865499 0.838620 0.326773
O O2 0.052946 0.227154 0.349772
O O3 0.438471 0.024356 0.597794
O O4 0.340405 0.934841 0.709502
O O5 0.500000 0.500000 0.500000
O O6 0.160913 0.670176 0.306714
O O7 0.413950 0.393847 0.634640
O O8 0.308511 0.271700 0.888026
O O9 0.036432 0.003204 0.919977
O O10 0.266046 0.868212 0.997505
O O11 0.500000 0.000000 0.500000
O O12 0.396724 0.543158 0.117672
O O13 0.000000 0.500000 0.500000
O O14 0.000000 0.500000 0.000000
#
# Coordination Sequence:
#
# PCOD9047777 Si02
#       6
#     2   2   2   2   2   2
#     4  10  24  44  70 103 145 187 238 295 350 425
#     4   9  21  41  66 107 136 188 231 287 355 417
#     4  11  24  44  71 105 141 187 239 295 354 424
#     4  11  19  39  76 107 147 187 237 288 355 425
#     4  12  27  48  71 104 145 191 237 299 360 413
#     4  11  25  44  70 104 141 183 239 290 357 430
#
# _framework density 26.133438000000002
#
# number of rings (size 3 to 8) (size 9 to 14) (size 15 to 20)
#    0.000    1.333    1.667    3.000    4.667    3.333 
#    3.000    0.000    0.000    0.000    0.000    0.000 
#    0.000    0.000    0.000    0.000    0.000    0.000 
#
# Total GULP energy -67137.833200 kJ/mol
# GULP energy per Si atom -5594.819433 kJ/mol
# Density = 2.607396 g / cm^3
# Si number density = 26.133438 Si / 1000 Ang^3
#
#
#
# Elastic Constant Matrix: (Units=GPa)
#
#
# Indices 1 2 3 4 5 6 
#
# 1 170.7817 30.7805 29.3519 -12.4704 23.8425 20.3323
# 2 30.7805 108.2933 13.3546 -7.3702 3.1919 -15.5152
# 3 29.3519 13.3546 73.8049 -11.2000 8.9740 0.5852
# 4 -12.4704 -7.3702 -11.2000 40.6123 -3.7340 -5.0136
# 5 23.8425 3.1919 8.9740 -3.7340 60.5949 1.7963
# 6 20.3323 -15.5152 0.5852 -5.0136 1.7963 44.7767
#
#
#
# Elastic Compliance Matrix: (Units=1/GPa)
#
#
# Indices 1 2 3 4 5 6 
#
# 1 0.007496 -0.002333 -0.002154 0.000571 -0.002353 -0.004026
# 2 -0.002333 0.010820 -0.000869 0.001663 0.000432 0.004989
# 3 -0.002154 -0.000869 0.015212 0.003379 -0.001178 0.000904
# 4 0.000571 0.001663 0.003379 0.026495 0.000725 0.003210
# 5 -0.002353 0.000432 -0.001178 0.000725 0.017607 0.000608
# 6 -0.004026 0.004989 0.000904 0.003210 0.000608 0.026213
#
#
# Mechanical properties :
#
#
# Convention : Reuss Voigt Hill
#
# Bulk Modulus (GPa) = 43.83369 55.53933 49.68651
# Shear Modulus (GPa) = 40.92942 47.82296 44.37619
#
# Velocity S-wave (km/s) = 3.96178 4.28244 4.12522
# Velocity P-wave (km/s) = 6.14305 6.76393 6.46095
#
# Compressibility (1/GPa) = 0.02281350
#
# Stress axis : x y z
#
# Youngs Moduli (GPa) = 133.41045 92.42262 65.73705
#
# Poissons Ratio (x) = 0.21566 0.14161
# Poissons Ratio (y) = 0.31131 0.05716
# Poissons Ratio (z) = 0.28738 0.08036
#
# Static dielectric constant tensor:
#      x y z
#    x 2.209430 -0.024600 0.063620 
#    y -0.024600 2.105810 0.020160 
#    z 0.063620 0.020160 2.100960 
# 
# From -- ./inp_files/182607.got.cif
#   From: 2010.05.17/outbox.cif.g08.bks.cpg/sg2_92_cif.got.tgz:182607.got - 2010.06.03 11:33:40.
