data_PCOD9047614
_publ_section_title
;
Structure prediction by ZEFSAII (Michael W. Deem and Ramdas Pophale) SiO2 
 PCOD9047614
Probable space group: P -1
;
_chemical_formula_sum "Si O2"
_cell_formula_units_Z 15
_cell_length_a 11.507405
_cell_length_b 8.842852
_cell_length_c 7.766929
_cell_angle_alpha 110.185499
_cell_angle_beta 60.056044
_cell_angle_gamma 117.868900
_cell_volume 598.944794
_symmetry_space_group_name_H-M "P -1"
_symmetry_group_IT_number 2
_symmetry_cell_setting 'triclinic'
loop_
_space_group_symop_operation_xyz
x,y,z
-x,-y,-z
loop_
_atom_site_type_symbol
_atom_site_label
_atom_site_fract_x
_atom_site_fract_y
_atom_site_fract_z
Si Si1 0.547890 0.856563 0.186712
Si Si2 0.815861 0.425139 0.221124
Si Si3 0.115940 0.793766 0.608366
Si Si4 0.500000 0.500000 0.000000
Si Si5 0.837320 0.876954 0.815033
Si Si6 0.905486 0.262249 0.789963
Si Si7 0.414800 0.103643 0.439534
Si Si8 0.370461 0.409447 0.392308
O O1 0.462188 0.677312 0.089397
O O2 0.512948 0.846807 0.409473
O O3 0.503192 0.014802 0.224295
O O4 0.714546 0.881970 0.040795
O O5 0.860478 0.317108 0.294555
O O6 0.682656 0.468647 0.404544
O O7 0.941401 0.615302 0.196896
O O8 0.802013 0.323592 0.012441
O O9 0.094340 0.701921 0.399922
O O10 0.979901 0.851481 0.766385
O O11 0.259161 0.959580 0.538012
O O12 0.501800 0.510976 0.212506
O O13 0.751945 0.701518 0.700646
O O14 0.878937 0.058804 0.753861
O O15 0.393107 0.260680 0.424748
#
# Coordination Sequence:
#
# PCOD9047614 Si02
#       8
#     2   2   2   1   2   2   2   2
#     4  10  25  47  68 106 136 186 235 293 344 434
#     4  11  25  41  66 105 149 177 235 287 357 412
#     4  12  23  44  74 105 141 188 223 302 345 421
#     4  10  24  44  68  96 138 178 232 286 350 404
#     4  11  23  43  71 100 142 179 239 273 357 424
#     4  11  23  42  65 104 139 187 226 284 350 430
#     4  11  24  46  75  96 141 186 240 280 356 416
#     4  11  23  46  67 102 138 186 231 295 343 427
#
# _framework density 25.044044
#
# number of rings (size 3 to 8) (size 9 to 14) (size 15 to 20)
#    0.000    1.067    2.667    3.200    0.000    8.000 
#    7.200    0.000    0.000    0.000    0.000    0.000 
#    0.000    0.000    0.000    0.000    0.000    0.000 
#
# Total GULP energy -83701.841040 kJ/mol
# GULP energy per Si atom -5580.122736 kJ/mol
# Density = 2.498704 g / cm^3
# Si number density = 25.044044 Si / 1000 Ang^3
#
#
#
# Elastic Constant Matrix: (Units=GPa)
#
#
# Indices 1 2 3 4 5 6 
#
# 1 61.7549 18.3587 35.1866 19.7193 -14.9591 -14.2685
# 2 18.3587 72.3506 36.3420 12.9766 -7.0929 -16.0030
# 3 35.1866 36.3420 166.7127 35.7922 -15.8720 -34.2586
# 4 19.7193 12.9766 35.7922 42.2605 -10.2026 -4.0386
# 5 -14.9591 -7.0929 -15.8720 -10.2026 31.6019 3.4548
# 6 -14.2685 -16.0030 -34.2586 -4.0386 3.4548 48.2813
#
#
#
# Elastic Compliance Matrix: (Units=1/GPa)
#
#
# Indices 1 2 3 4 5 6 
#
# 1 0.022267 -0.002280 -0.001369 -0.006519 0.006819 0.003820
# 2 -0.002280 0.016505 -0.002006 -0.001839 0.000678 0.003171
# 3 -0.001369 -0.002006 0.009029 -0.005674 0.001082 0.004785
# 4 -0.006519 -0.001839 -0.005674 0.032812 0.004699 -0.004154
# 5 0.006819 0.000678 0.001082 0.004699 0.037001 0.000753
# 6 0.003820 0.003171 0.004785 -0.004154 0.000753 0.025886
#
#
# Mechanical properties :
#
#
# Convention : Reuss Voigt Hill
#
# Bulk Modulus (GPa) = 27.40300 53.39922 40.40111
# Shear Modulus (GPa) = 29.94473 38.49082 34.21778
#
# Velocity S-wave (km/s) = 3.46162 3.92462 3.70037
# Velocity P-wave (km/s) = 5.19064 6.47343 5.86720
#
# Compressibility (1/GPa) = 0.03649236
#
# Stress axis : x y z
#
# Youngs Moduli (GPa) = 44.90983 60.58646 110.75425
#
# Poissons Ratio (x) = 0.13813 0.15160
# Poissons Ratio (y) = 0.10239 0.22215
# Poissons Ratio (z) = 0.06147 0.12153
#
# Static dielectric constant tensor:
#      x y z
#    x 2.054040 0.066480 -0.045520 
#    y 0.066480 2.063620 -0.058120 
#    z -0.045520 -0.058120 2.024090 
# 
# From -- ./inp_files/240151.got.cif
#   From: 2010.05.17/outbox.cif.g08.bks.cpg/sg2_121_cif.got.tgz:240151.got - 2010.06.03 11:33:40.
