data_PCOD9047477
_publ_section_title
;
Structure prediction by ZEFSAII (Michael W. Deem and Ramdas Pophale) SiO2 
 PCOD9047477
Probable space group: P -1
;
_chemical_formula_sum "Si O2"
_cell_formula_units_Z 16
_cell_length_a 7.349209
_cell_length_b 9.558658
_cell_length_c 18.975339
_cell_angle_alpha 149.695929
_cell_angle_beta 85.026130
_cell_angle_gamma 94.159787
_cell_volume 670.072377
_symmetry_space_group_name_H-M "P -1"
_symmetry_group_IT_number 2
_symmetry_cell_setting 'triclinic'
loop_
_space_group_symop_operation_xyz
x,y,z
-x,-y,-z
loop_
_atom_site_type_symbol
_atom_site_label
_atom_site_fract_x
_atom_site_fract_y
_atom_site_fract_z
Si Si1 0.184128 0.239008 0.037178
Si Si2 0.224491 0.952189 0.050750
Si Si3 0.311915 0.772744 0.566283
Si Si4 0.342775 0.313694 0.584587
Si Si5 0.740277 0.126151 0.239521
Si Si6 0.642036 0.671419 0.243447
Si Si7 0.847481 0.819917 0.701324
Si Si8 0.761695 0.153208 0.708089
O O1 0.132225 0.560897 0.180906
O O2 0.994845 0.075506 0.962028
O O3 0.279738 0.136720 0.061490
O O4 0.296309 0.146685 0.923779
O O5 0.298379 0.640173 0.909784
O O6 0.260258 0.092288 0.185718
O O7 0.472970 0.716091 0.480443
O O8 0.382679 0.804917 0.658333
O O9 0.183633 0.506376 0.451420
O O10 0.234235 0.074975 0.678742
O O11 0.265027 0.615332 0.700635
O O12 0.375560 0.291201 0.655998
O O13 0.215338 0.071233 0.452499
O O14 0.941088 0.117021 0.262960
O O15 0.446138 0.732183 0.241459
O O16 0.792361 0.997356 0.712444
#
# Coordination Sequence:
#
# PCOD9047477 Si02
#       8
#     2   2   2   2   2   2   2   2
#     4  10  24  44  67  93 132 172 214 271 316 382
#     4  10  24  45  64  96 130 172 219 260 327 381
#     4  11  24  42  67  95 132 173 209 268 325 377
#     4  11  24  46  65  96 131 169 219 270 316 383
#     4  11  23  44  68  94 130 173 214 264 326 377
#     4  11  26  44  67  96 129 174 217 264 323 383
#     4  11  26  41  66 102 132 165 219 265 319 391
#     4  11  25  42  64  97 134 165 217 269 316 382
#
# _framework density 23.878018000000001
#
# number of rings (size 3 to 8) (size 9 to 14) (size 15 to 20)
#    0.000    1.250    2.500    2.250    8.750    3.000 
#    0.000    1.250    0.000    0.000    0.000    0.000 
#    0.000    0.000    0.000    0.000    0.000    0.000 
#
# Total GULP energy -89535.841572 kJ/mol
# GULP energy per Si atom -5595.990098 kJ/mol
# Density = 2.382367 g / cm^3
# Si number density = 23.878018 Si / 1000 Ang^3
#
#
#
# Elastic Constant Matrix: (Units=GPa)
#
#
# Indices 1 2 3 4 5 6 
#
# 1 40.2404 30.1546 4.7369 -1.4583 -3.5281 -13.3303
# 2 30.1546 164.1219 52.2775 5.3250 8.5639 -17.9435
# 3 4.7369 52.2775 126.1962 7.2821 7.8002 -1.6357
# 4 -1.4583 5.3250 7.2821 45.4504 -6.2715 -6.8705
# 5 -3.5281 8.5639 7.8002 -6.2715 26.6657 7.0037
# 6 -13.3303 -17.9435 -1.6357 -6.8705 7.0037 34.1310
#
#
#
# Elastic Compliance Matrix: (Units=1/GPa)
#
#
# Indices 1 2 3 4 5 6 
#
# 1 0.032606 -0.005484 0.000708 0.003624 0.004156 0.009763
# 2 -0.005484 0.008586 -0.003055 -0.000753 -0.003500 0.002792
# 3 0.000708 -0.003055 0.009350 -0.001488 -0.001797 -0.000812
# 4 0.003624 -0.000753 -0.001488 0.023911 0.005567 0.004619
# 5 0.004156 -0.003500 -0.001797 0.005567 0.043119 -0.008030
# 6 0.009763 0.002792 -0.000812 0.004619 -0.008030 0.037119
#
#
# Mechanical properties :
#
#
# Convention : Reuss Voigt Hill
#
# Bulk Modulus (GPa) = 28.66885 56.09963 42.38424
# Shear Modulus (GPa) = 27.47570 37.47537 32.47554
#
# Velocity S-wave (km/s) = 3.39583 3.96593 3.69190
# Velocity P-wave (km/s) = 5.23527 6.67208 5.99686
#
# Compressibility (1/GPa) = 0.03488106
#
# Stress axis : x y z
#
# Youngs Moduli (GPa) = 30.66894 116.46874 106.95733
#
# Poissons Ratio (x) = 0.63866 -0.07574
# Poissons Ratio (y) = 0.16817 0.32675
# Poissons Ratio (z) = -0.02172 0.35581
#
# Static dielectric constant tensor:
#      x y z
#    x 2.028580 0.066070 0.005230 
#    y 0.066070 1.894250 -0.006550 
#    z 0.005230 -0.006550 1.923550 
# 
# From -- ./inp_files/187614.got.cif
#   From: 2010.05.17/outbox.cif.g08.bks.cpg/sg2_94_cif.got.tgz:187614.got - 2010.06.03 11:33:40.
