data_PCOD9047321
_publ_section_title
;
Structure prediction by ZEFSAII (Michael W. Deem and Ramdas Pophale) SiO2 
 PCOD9047321
Probable space group: P -1
;
_chemical_formula_sum "Si O2"
_cell_formula_units_Z 12
_cell_length_a 8.491100
_cell_length_b 6.388541
_cell_length_c 13.392335
_cell_angle_alpha 98.027831
_cell_angle_beta 105.822053
_cell_angle_gamma 121.484157
_cell_volume 559.730625
_symmetry_space_group_name_H-M "P -1"
_symmetry_group_IT_number 2
_symmetry_cell_setting 'triclinic'
loop_
_space_group_symop_operation_xyz
x,y,z
-x,-y,-z
loop_
_atom_site_type_symbol
_atom_site_label
_atom_site_fract_x
_atom_site_fract_y
_atom_site_fract_z
Si Si1 0.274705 0.669060 0.837747
Si Si2 0.021263 0.820078 0.116086
Si Si3 0.413449 0.146879 0.545130
Si Si4 0.293263 0.076705 0.003494
Si Si5 0.216007 0.259240 0.342634
Si Si6 0.127416 0.718701 0.620490
O O1 0.082363 0.428608 0.846472
O O2 0.481198 0.706600 0.904737
O O3 0.234967 0.643100 0.711451
O O4 0.306719 0.931894 0.901378
O O5 0.837308 0.816952 0.037642
O O6 0.167168 0.859453 0.054273
O O7 0.156202 0.076259 0.225122
O O8 0.273855 0.154626 0.439096
O O9 0.500000 0.000000 0.500000
O O10 0.594570 0.443092 0.622180
O O11 0.288106 0.985051 0.609166
O O12 0.026637 0.257906 0.341084
O O13 0.000000 0.500000 0.500000
#
# Coordination Sequence:
#
# PCOD9047321 Si02
#       6
#     2   2   2   2   2   2
#     4  11  24  43  67  98 133 170 219 269 327 385
#     4  11  23  43  69  95 131 171 220 271 324 386
#     4  11  25  44  66  96 135 171 220 270 325 396
#     4  10  24  44  64  99 129 175 220 266 327 382
#     4  11  25  43  66  98 131 174 221 267 332 389
#     4  12  24  43  69  96 134 174 215 271 333 387
#
# _framework density 21.438884000000002
#
# number of rings (size 3 to 8) (size 9 to 14) (size 15 to 20)
#    0.000    1.000    3.333    2.500    2.333    1.333 
#   12.000    0.000    0.000    0.000    0.000    0.000 
#    0.000    0.000    0.000    0.000    0.000    0.000 
#
# Total GULP energy -67162.305081 kJ/mol
# GULP energy per Si atom -5596.858757 kJ/mol
# Density = 2.139009 g / cm^3
# Si number density = 21.438884 Si / 1000 Ang^3
#
#
#
# Elastic Constant Matrix: (Units=GPa)
#
#
# Indices 1 2 3 4 5 6 
#
# 1 35.0477 -9.6785 14.0863 6.7369 9.0913 11.9795
# 2 -9.6785 72.6231 36.3189 -16.1432 4.5014 18.9921
# 3 14.0863 36.3189 132.1556 7.3506 9.8021 14.0193
# 4 6.7369 -16.1432 7.3506 32.0968 2.8414 -11.5045
# 5 9.0913 4.5014 9.8021 2.8414 25.3947 -2.5093
# 6 11.9795 18.9921 14.0193 -11.5045 -2.5093 30.8981
#
#
#
# Elastic Compliance Matrix: (Units=1/GPa)
#
#
# Indices 1 2 3 4 5 6 
#
# 1 0.057716 0.018674 -0.004612 -0.013379 -0.024523 -0.038737
# 2 0.018674 0.026488 -0.006622 0.004890 -0.011310 -0.019615
# 3 -0.004612 -0.006622 0.010272 -0.004901 -0.000659 -0.000680
# 4 -0.013379 0.004890 -0.004901 0.044951 0.002897 0.021378
# 5 -0.024523 -0.011310 -0.000659 0.002897 0.052275 0.022083
# 6 -0.038737 -0.019615 -0.000680 0.021378 0.022083 0.069501
#
#
# Mechanical properties :
#
#
# Convention : Reuss Voigt Hill
#
# Bulk Modulus (GPa) = 9.14434 35.69775 22.42104
# Shear Modulus (GPa) = 17.68192 30.95123 24.31658
#
# Velocity S-wave (km/s) = 2.87498 3.80372 3.37148
# Velocity P-wave (km/s) = 3.91091 5.99818 5.06327
#
# Compressibility (1/GPa) = 0.10935732
#
# Stress axis : x y z
#
# Youngs Moduli (GPa) = 17.32608 37.75333 97.35274
#
# Poissons Ratio (x) = -0.70502 0.44896
# Poissons Ratio (y) = -0.32356 0.64469
# Poissons Ratio (z) = 0.07990 0.25001
#
# Static dielectric constant tensor:
#      x y z
#    x 1.766170 -0.016030 0.018820 
#    y -0.016030 1.773560 -0.014810 
#    z 0.018820 -0.014810 1.779180 
# 
# From -- ./inp_files/373103.got.cif
#   From: 2010.05.17/outbox.cif.g08.bks.cpg/sg2_187_cif.got.tgz:373103.got - 2010.06.03 11:33:40.
