data_PCOD9047011
_publ_section_title
;
Structure prediction by ZEFSAII (Michael W. Deem and Ramdas Pophale) SiO2 
 PCOD9047011
Probable space group: P -1
;
_chemical_formula_sum "Si O2"
_cell_formula_units_Z 14
_cell_length_a 6.764205
_cell_length_b 7.060960
_cell_length_c 15.404956
_cell_angle_alpha 94.363638
_cell_angle_beta 49.245755
_cell_angle_gamma 94.263691
_cell_volume 555.444285
_symmetry_space_group_name_H-M "P -1"
_symmetry_group_IT_number 2
_symmetry_cell_setting 'triclinic'
loop_
_space_group_symop_operation_xyz
x,y,z
-x,-y,-z
loop_
_atom_site_type_symbol
_atom_site_label
_atom_site_fract_x
_atom_site_fract_y
_atom_site_fract_z
Si Si1 0.006513 0.990149 0.894115
Si Si2 0.466655 0.680712 0.450678
Si Si3 0.706650 0.648042 0.988524
Si Si4 0.542407 0.001864 0.655626
Si Si5 0.889453 0.673132 0.594445
Si Si6 0.326615 0.644454 0.247231
Si Si7 0.923706 0.615186 0.204740
O O1 0.286956 0.925782 0.776934
O O2 0.994952 0.195649 0.863344
O O3 0.762349 0.850623 0.934744
O O4 0.000000 0.000000 0.000000
O O5 0.500000 0.500000 0.500000
O O6 0.556363 0.897163 0.400521
O O7 0.625285 0.589855 0.319866
O O8 0.166807 0.736525 0.556847
O O9 0.592494 0.672516 0.117717
O O10 0.500000 0.500000 0.000000
O O11 0.979939 0.551110 0.889991
O O12 0.680453 0.175884 0.678559
O O13 0.744331 0.832486 0.587622
O O14 0.706706 0.567585 0.712594
O O15 0.000000 0.500000 0.500000
O O16 0.084686 0.641943 0.249405
#
# Coordination Sequence:
#
# PCOD9047011 Si02
#       7
#     2   2   2   2   2   2   2
#     4  11  24  44  69 105 144 189 242 302 364 435
#     4  11  23  48  71 104 142 186 246 301 360 434
#     4  10  24  43  70 105 143 187 237 301 362 435
#     4  11  26  45  72 107 144 190 247 296 370 438
#     4  12  26  44  71 100 144 192 243 302 366 433
#     4  11  23  44  69 103 142 193 239 298 370 437
#     4  10  25  44  70 105 143 188 245 298 366 433
#
# _framework density 25.20505
#
# number of rings (size 3 to 8) (size 9 to 14) (size 15 to 20)
#    0.000    1.143    4.286    0.429    4.000    5.143 
#    0.000    1.429    0.000    0.000    0.000    0.000 
#    0.000    0.000    0.000    0.000    0.000    0.000 
#
# Total GULP energy -77947.011816 kJ/mol
# GULP energy per Si atom -5567.643701 kJ/mol
# Density = 2.514768 g / cm^3
# Si number density = 25.205050 Si / 1000 Ang^3
#
#
#
# Elastic Constant Matrix: (Units=GPa)
#
#
# Indices 1 2 3 4 5 6 
#
# 1 65.7441 33.0646 3.0803 -9.4178 -7.4933 -6.8216
# 2 33.0646 152.4870 67.8265 -26.3348 0.4333 -29.4818
# 3 3.0803 67.8265 148.6430 -25.0884 -15.9924 -7.4352
# 4 -9.4178 -26.3348 -25.0884 66.1058 1.2322 -5.3922
# 5 -7.4933 0.4333 -15.9924 1.2322 34.9178 -1.3457
# 6 -6.8216 -29.4818 -7.4352 -5.3922 -1.3457 57.3721
#
#
#
# Elastic Compliance Matrix: (Units=1/GPa)
#
#
# Indices 1 2 3 4 5 6 
#
# 1 0.018382 -0.004850 0.002682 0.001634 0.005188 0.000316
# 2 -0.004850 0.010974 -0.004622 0.002362 -0.003200 0.004610
# 3 0.002682 -0.004622 0.009638 0.002066 0.004955 -0.000497
# 4 0.001634 0.002362 0.002066 0.017342 0.000784 0.003324
# 5 0.005188 -0.003200 0.004955 0.000784 0.032050 0.000440
# 6 0.000316 0.004610 -0.000497 0.003324 0.000440 0.020095
#
#
# Mechanical properties :
#
#
# Convention : Reuss Voigt Hill
#
# Bulk Modulus (GPa) = 39.34897 63.86852 51.60874
# Shear Modulus (GPa) = 38.30443 49.20599 43.75521
#
# Velocity S-wave (km/s) = 3.90258 4.42320 4.17102
# Velocity P-wave (km/s) = 5.99602 7.17501 6.61185
#
# Compressibility (1/GPa) = 0.02541363
#
# Stress axis : x y z
#
# Youngs Moduli (GPa) = 54.39998 91.12485 103.75764
#
# Poissons Ratio (x) = 0.44200 -0.27828
# Poissons Ratio (y) = 0.26387 0.47955
# Poissons Ratio (z) = -0.14590 0.42117
#
# Static dielectric constant tensor:
#      x y z
#    x 2.607560 0.147350 -0.077720 
#    y 0.147350 2.062470 0.008360 
#    z -0.077720 0.008360 2.045000 
# 
# From -- ./inp_files/553495.got.cif
#   From: 2010.05.17/outbox.cif.g08.bks.cpg/sg2_277_cif.got.tgz:553495.got - 2010.06.03 11:33:40.
