data_PCOD9047438
_publ_section_title
;
Structure prediction by ZEFSAII (Michael W. Deem and Ramdas Pophale) SiO2 
 PCOD9047438
Probable space group: P -1
;
_chemical_formula_sum "Si O2"
_cell_formula_units_Z 16
_cell_length_a 9.086947
_cell_length_b 10.670988
_cell_length_c 10.311938
_cell_angle_alpha 137.025877
_cell_angle_beta 93.749585
_cell_angle_gamma 83.578769
_cell_volume 677.134445
_symmetry_space_group_name_H-M "P -1"
_symmetry_group_IT_number 2
_symmetry_cell_setting 'triclinic'
loop_
_space_group_symop_operation_xyz
x,y,z
-x,-y,-z
loop_
_atom_site_type_symbol
_atom_site_label
_atom_site_fract_x
_atom_site_fract_y
_atom_site_fract_z
Si Si1 0.596476 0.232943 0.010530
Si Si2 0.225011 0.155382 0.282857
Si Si3 0.095172 0.460516 0.347471
Si Si4 0.069623 0.943445 0.322745
Si Si5 0.138505 0.352084 0.922219
Si Si6 0.416036 0.823760 0.320719
Si Si7 0.207672 0.435209 0.713364
Si Si8 0.644825 0.493686 0.738746
O O1 0.529403 0.244741 0.869871
O O2 0.658894 0.020977 0.872164
O O3 0.726249 0.369060 0.123738
O O4 0.474107 0.336622 0.175375
O O5 0.162240 0.250804 0.220188
O O6 0.275208 0.314677 0.503918
O O7 0.099166 0.083280 0.315163
O O8 0.239766 0.568979 0.415313
O O9 0.000000 0.500000 0.500000
O O10 0.968034 0.516667 0.280218
O O11 0.238229 0.864512 0.311960
O O12 0.945314 0.820251 0.169536
O O13 0.000000 0.000000 0.500000
O O14 0.222570 0.327615 0.769532
O O15 0.244765 0.425913 0.090076
O O16 0.000000 0.500000 0.000000
O O17 0.429408 0.668181 0.314604
O O18 0.500000 0.000000 0.500000
#
# Coordination Sequence:
#
# PCOD9047438 Si02
#       8
#     2   2   2   2   2   2   2   2
#     4  11  26  42  67 105 141 189 226 286 358 421
#     4  10  24  44  67 100 143 182 239 287 344 415
#     4  10  24  46  73  99 136 188 245 293 340 414
#     4  11  22  37  66  98 134 176 226 290 349 402
#     4  12  20  39  67 105 132 169 234 293 351 409
#     4  11  25  41  66 106 148 178 222 290 358 419
#     4  11  21  44  73  96 141 183 228 298 350 411
#     4  12  25  42  72 104 142 184 235 284 360 424
#
# _framework density 23.628983999999999
#
# number of rings (size 3 to 8) (size 9 to 14) (size 15 to 20)
#    0.000    1.000    5.000    1.125    7.000    1.000 
#    0.000    2.500    2.750    0.000    0.000    0.000 
#    0.000    0.000    0.000    0.000    0.000    0.000 
#
# Total GULP energy -89304.684153 kJ/mol
# GULP energy per Si atom -5581.542760 kJ/mol
# Density = 2.357520 g / cm^3
# Si number density = 23.628984 Si / 1000 Ang^3
#
#
#
# Elastic Constant Matrix: (Units=GPa)
#
#
# Indices 1 2 3 4 5 6 
#
# 1 99.2779 6.9604 24.4692 15.6110 -10.2772 -8.5326
# 2 6.9604 84.3247 7.1861 21.0922 5.4180 -5.4155
# 3 24.4692 7.1861 85.1924 24.5961 9.5514 3.0751
# 4 15.6110 21.0922 24.5961 30.6594 5.3640 -8.0288
# 5 -10.2772 5.4180 9.5514 5.3640 41.3026 4.5831
# 6 -8.5326 -5.4155 3.0751 -8.0288 4.5831 25.5900
#
#
#
# Elastic Compliance Matrix: (Units=1/GPa)
#
#
# Indices 1 2 3 4 5 6 
#
# 1 0.011995 0.000155 -0.002829 -0.003985 0.003866 0.002430
# 2 0.000155 0.014677 0.002330 -0.012118 -0.000764 -0.000787
# 3 -0.002829 0.002330 0.017336 -0.015514 -0.002227 -0.007002
# 4 -0.003985 -0.012118 -0.015514 0.061209 -0.005784 0.018211
# 5 0.003866 -0.000764 -0.002227 -0.005784 0.027126 -0.005278
# 6 0.002430 -0.000787 -0.007002 0.018211 -0.005278 0.047222
#
#
# Mechanical properties :
#
#
# Convention : Reuss Voigt Hill
#
# Bulk Modulus (GPa) = 23.08373 38.44737 30.76555
# Shear Modulus (GPa) = 25.68178 34.85569 30.26873
#
# Velocity S-wave (km/s) = 3.30036 3.84490 3.58299
# Velocity P-wave (km/s) = 4.93088 6.00147 5.49232
#
# Compressibility (1/GPa) = 0.04332056
#
# Stress axis : x y z
#
# Youngs Moduli (GPa) = 83.36956 68.13301 57.68500
#
# Poissons Ratio (x) = -0.01059 0.16319
# Poissons Ratio (y) = -0.01296 -0.13441
# Poissons Ratio (z) = 0.23585 -0.15875
#
# Static dielectric constant tensor:
#      x y z
#    x 1.908640 -0.021220 -0.111710 
#    y -0.021220 1.940980 -0.088490 
#    z -0.111710 -0.088490 1.943730 
# 
# From -- ./inp_files/391667.got.cif
#   From: 2010.05.17/outbox.cif.g08.bks.cpg/sg2_196_cif.got.tgz:391667.got - 2010.06.03 11:33:40.
