data_PCOD9047139
_publ_section_title
;
Structure prediction by ZEFSAII (Michael W. Deem and Ramdas Pophale) SiO2 
 PCOD9047139
Probable space group: P -1
;
_chemical_formula_sum "Si O2"
_cell_formula_units_Z 15
_cell_length_a 9.409437
_cell_length_b 13.032535
_cell_length_c 15.776002
_cell_angle_alpha 133.776732
_cell_angle_beta 151.367352
_cell_angle_gamma 54.634906
_cell_volume 667.093958
_symmetry_space_group_name_H-M "P -1"
_symmetry_group_IT_number 2
_symmetry_cell_setting 'triclinic'
loop_
_space_group_symop_operation_xyz
x,y,z
-x,-y,-z
loop_
_atom_site_type_symbol
_atom_site_label
_atom_site_fract_x
_atom_site_fract_y
_atom_site_fract_z
Si Si1 0.000000 0.000000 0.000000
Si Si2 0.116711 0.905399 0.825236
Si Si3 0.136144 0.305890 0.200320
Si Si4 0.425240 0.532650 0.368820
Si Si5 0.901477 0.207194 0.573328
Si Si6 0.216078 0.021242 0.756127
Si Si7 0.752590 0.612064 0.427772
Si Si8 0.462764 0.345924 0.851098
O O1 0.800918 0.843663 0.811194
O O2 0.001822 0.994310 0.893460
O O3 0.124472 0.977923 0.778491
O O4 0.915915 0.759082 0.630057
O O5 0.463833 0.888468 0.020174
O O6 0.292436 0.375894 0.237953
O O7 0.247727 0.429397 0.396903
O O8 0.783986 0.287109 0.992006
O O9 0.238113 0.652892 0.383641
O O10 0.474392 0.557318 0.309838
O O11 0.745263 0.116258 0.362213
O O12 0.221946 0.252864 0.726264
O O13 0.965798 0.104132 0.625897
O O14 0.646595 0.638107 0.292370
O O15 0.000000 0.500000 0.500000
O O16 0.500000 0.500000 0.000000
#
# Coordination Sequence:
#
# PCOD9047139 Si02
#       8
#     1   2   2   2   2   2   2   2
#     4  12  24  44  74 106 146 190 244 300 366 432
#     4  11  24  46  70 108 144 200 245 302 372 438
#     4  11  25  44  73 105 146 194 239 300 369 430
#     4  11  25  46  73 105 146 191 248 304 365 438
#     4  11  23  45  75 110 147 193 248 306 371 441
#     4  10  24  43  72 107 151 193 244 304 372 449
#     4  12  28  46  74 107 147 191 252 308 371 442
#     4  12  25  47  74 104 145 193 242 304 373 437
#
# _framework density 22.485588
#
# number of rings (size 3 to 8) (size 9 to 14) (size 15 to 20)
#    0.000    0.800    4.000    2.400    3.733    4.800 
#    0.000    1.333    0.000    0.000    0.000    0.000 
#    0.000    0.000    0.000    0.000    0.000    0.000 
#
# Total GULP energy -83600.728342 kJ/mol
# GULP energy per Si atom -5573.381889 kJ/mol
# Density = 2.243441 g / cm^3
# Si number density = 22.485588 Si / 1000 Ang^3
#
#
#
# Elastic Constant Matrix: (Units=GPa)
#
#
# Indices 1 2 3 4 5 6 
#
# 1 151.2212 53.8881 36.6796 -9.2551 -10.2874 22.8483
# 2 53.8881 56.1008 1.1677 2.2192 3.7448 7.6647
# 3 36.6796 1.1677 78.0091 4.8146 1.0047 1.9400
# 4 -9.2551 2.2192 4.8146 37.1778 8.8023 4.3008
# 5 -10.2874 3.7448 1.0047 8.8023 44.0418 3.5322
# 6 22.8483 7.6647 1.9400 4.3008 3.5322 29.9709
#
#
#
# Elastic Compliance Matrix: (Units=1/GPa)
#
#
# Indices 1 2 3 4 5 6 
#
# 1 0.015270 -0.013813 -0.007149 0.005519 0.004521 -0.008970
# 2 -0.013813 0.031034 0.006335 -0.005283 -0.005239 0.003559
# 3 -0.007149 0.006335 0.016281 -0.004204 -0.002030 0.003618
# 4 0.005519 -0.005283 -0.004204 0.030788 -0.003793 -0.006555
# 5 0.004521 -0.005239 -0.002030 -0.003793 0.025366 -0.004420
# 6 -0.008970 0.003559 0.003618 -0.006555 -0.004420 0.040521
#
#
# Mechanical properties :
#
#
# Convention : Reuss Voigt Hill
#
# Bulk Modulus (GPa) = 30.00145 52.08909 41.04527
# Shear Modulus (GPa) = 25.04699 35.14451 30.09575
#
# Velocity S-wave (km/s) = 3.34115 3.95774 3.66245
# Velocity P-wave (km/s) = 5.31563 6.64084 6.01484
#
# Compressibility (1/GPa) = 0.03333173
#
# Stress axis : x y z
#
# Youngs Moduli (GPa) = 65.48811 32.22257 61.42060
#
# Poissons Ratio (x) = 0.44510 0.43909
# Poissons Ratio (y) = 0.90461 -0.38913
# Poissons Ratio (z) = 0.46817 -0.20414
#
# Static dielectric constant tensor:
#      x y z
#    x 2.026740 -0.159150 0.214730 
#    y -0.159150 1.999370 -0.149670 
#    z 0.214730 -0.149670 2.021770 
# 
# From -- ./inp_files/383202.got.cif
#   From: 2010.05.17/outbox.cif.g08.bks.cpg/sg2_192_cif.got.tgz:383202.got - 2010.06.03 11:33:40.
