data_PCOD9047034
_publ_section_title
;
Structure prediction by ZEFSAII (Michael W. Deem and Ramdas Pophale) SiO2 
 PCOD9047034
Probable space group: P -1
;
_chemical_formula_sum "Si O2"
_cell_formula_units_Z 16
_cell_length_a 14.988172
_cell_length_b 9.478459
_cell_length_c 15.033637
_cell_angle_alpha 28.724735
_cell_angle_beta 46.261124
_cell_angle_gamma 45.537125
_cell_volume 713.821085
_symmetry_space_group_name_H-M "P -1"
_symmetry_group_IT_number 2
_symmetry_cell_setting 'triclinic'
loop_
_space_group_symop_operation_xyz
x,y,z
-x,-y,-z
loop_
_atom_site_type_symbol
_atom_site_label
_atom_site_fract_x
_atom_site_fract_y
_atom_site_fract_z
Si Si1 0.994756 0.390581 0.463709
Si Si2 0.742151 0.649750 0.202487
Si Si3 0.272616 0.037472 0.405904
Si Si4 0.482531 0.119290 0.545742
Si Si5 0.098837 0.214547 0.135009
Si Si6 0.796599 0.910262 0.199730
Si Si7 0.554098 0.680871 0.183143
Si Si8 0.753215 0.551363 0.959950
O O1 0.894967 0.653827 0.331697
O O2 0.000000 0.500000 0.500000
O O3 0.141449 0.284956 0.387695
O O4 0.944739 0.088724 0.663708
O O5 0.807607 0.790722 0.157298
O O6 0.593759 0.713481 0.240437
O O7 0.768918 0.281348 0.397960
O O8 0.782282 0.807915 0.999713
O O9 0.316300 0.182295 0.207281
O O10 0.387194 0.991977 0.424436
O O11 0.356061 0.044952 0.708452
O O12 0.453235 0.483873 0.363309
O O13 0.500000 0.000000 0.500000
O O14 0.134497 0.323120 0.145303
O O15 0.000000 0.500000 0.000000
O O16 0.809572 0.236220 0.043086
O O17 0.665485 0.506456 0.130297
O O18 0.500000 0.000000 0.000000
#
# Coordination Sequence:
#
# PCOD9047034 Si02
#       8
#     2   2   2   2   2   2   2   2
#     4  12  27  45  73 104 139 183 235 281 348 410
#     4  10  25  43  67 104 137 181 228 288 343 409
#     4  11  26  46  69  99 141 184 231 283 344 412
#     4  11  24  46  70  97 143 180 224 290 347 403
#     4  11  23  45  73  93 142 185 229 280 350 406
#     4  12  27  44  71 107 139 177 237 287 342 408
#     4  10  24  43  70  97 140 182 233 275 352 413
#     4  11  26  45  68 104 139 183 227 291 341 411
#
# _framework density 22.414580000000001
#
# number of rings (size 3 to 8) (size 9 to 14) (size 15 to 20)
#    0.000    1.000    2.500    2.250   12.250    4.000 
#    0.000    0.000    0.000    0.000    0.000    0.000 
#    0.000    0.000    0.000    0.000    0.000    0.000 
#
# Total GULP energy -89232.108691 kJ/mol
# GULP energy per Si atom -5577.006793 kJ/mol
# Density = 2.236356 g / cm^3
# Si number density = 22.414580 Si / 1000 Ang^3
#
#
#
# Elastic Constant Matrix: (Units=GPa)
#
#
# Indices 1 2 3 4 5 6 
#
# 1 158.2072 54.8902 61.8303 -30.4426 7.1813 36.5932
# 2 54.8902 69.1553 27.9526 -19.9629 -0.6149 7.2955
# 3 61.8303 27.9526 112.5439 -29.3162 1.3375 9.0231
# 4 -30.4426 -19.9629 -29.3162 41.1384 0.0850 -4.6864
# 5 7.1813 -0.6149 1.3375 0.0850 41.2899 -1.2020
# 6 36.5932 7.2955 9.0231 -4.6864 -1.2020 38.7049
#
#
#
# Elastic Compliance Matrix: (Units=1/GPa)
#
#
# Indices 1 2 3 4 5 6 
#
# 1 0.013307 -0.007209 -0.004084 0.002297 -0.002587 -0.010073
# 2 -0.007209 0.021467 -0.000303 0.005265 0.001675 0.003529
# 3 -0.004084 -0.000303 0.012633 0.006028 0.000334 0.001713
# 4 0.002297 0.005265 0.006028 0.032790 -0.000602 -0.000618
# 5 -0.002587 0.001675 0.000334 -0.000602 0.024764 0.002749
# 6 -0.010073 0.003529 0.001713 -0.000618 0.002749 0.034305
#
#
# Mechanical properties :
#
#
# Convention : Reuss Voigt Hill
#
# Bulk Modulus (GPa) = 41.29365 69.91697 55.60531
# Shear Modulus (GPa) = 29.32044 37.24219 33.28132
#
# Velocity S-wave (km/s) = 3.62069 4.08059 3.85750
# Velocity P-wave (km/s) = 5.99515 7.31177 6.68595
#
# Compressibility (1/GPa) = 0.02421680
#
# Stress axis : x y z
#
# Youngs Moduli (GPa) = 75.14749 46.58324 79.15725
#
# Poissons Ratio (x) = 0.33582 0.32325
# Poissons Ratio (y) = 0.54174 0.02395
# Poissons Ratio (z) = 0.30688 0.01409
#
# Static dielectric constant tensor:
#      x y z
#    x 2.208680 0.403190 -0.000060 
#    y 0.403190 2.612850 0.155250 
#    z -0.000060 0.155250 1.849450 
# 
# From -- ./inp_files/529221.got.cif
#   From: 2010.05.17/outbox.cif.g08.bks.cpg/sg2_265_cif.got.tgz:529221.got - 2010.06.03 11:33:40.
