data_PCOD9047311
_publ_section_title
;
Structure prediction by ZEFSAII (Michael W. Deem and Ramdas Pophale) SiO2 
 PCOD9047311
Probable space group: P -1
;
_chemical_formula_sum "Si O2"
_cell_formula_units_Z 16
_cell_length_a 14.298451
_cell_length_b 10.042861
_cell_length_c 14.515107
_cell_angle_alpha 136.039652
_cell_angle_beta 31.714110
_cell_angle_gamma 126.330604
_cell_volume 759.455835
_symmetry_space_group_name_H-M "P -1"
_symmetry_group_IT_number 2
_symmetry_cell_setting 'triclinic'
loop_
_space_group_symop_operation_xyz
x,y,z
-x,-y,-z
loop_
_atom_site_type_symbol
_atom_site_label
_atom_site_fract_x
_atom_site_fract_y
_atom_site_fract_z
Si Si1 0.994075 0.295409 0.958251
Si Si2 0.608817 0.340893 0.272452
Si Si3 0.562868 0.328580 0.746230
Si Si4 0.260331 0.486590 0.943872
Si Si5 0.272215 0.294334 0.121593
Si Si6 0.923700 0.134587 0.375190
Si Si7 0.113374 0.818864 0.359674
Si Si8 0.492807 0.976018 0.102650
O O1 0.137081 0.318342 0.930325
O O2 0.787319 0.282072 0.150349
O O3 0.039277 0.096294 0.768205
O O4 0.000000 0.500000 0.000000
O O5 0.500000 0.500000 0.500000
O O6 0.676158 0.408072 0.149208
O O7 0.489680 0.167115 0.260374
O O8 0.441579 0.416643 0.809189
O O9 0.670139 0.498933 0.789249
O O10 0.725839 0.174181 0.519345
O O11 0.410102 0.251239 0.901778
O O12 0.132999 0.631012 0.184775
O O13 0.068187 0.250219 0.253627
O O14 0.330564 0.145813 0.078422
O O15 0.941330 0.209674 0.503125
O O16 0.318812 0.868692 0.219014
O O17 0.000000 0.000000 0.500000
O O18 0.500000 0.000000 0.000000
#
# Coordination Sequence:
#
# PCOD9047311 Si02
#       8
#     2   2   2   2   2   2   2   2
#     4  10  24  44  64  94 136 175 221 275 338 414
#     4  11  24  42  67  97 135 177 219 281 351 401
#     4  11  23  44  69  96 139 182 224 280 336 403
#     4  11  24  45  62  97 140 174 225 281 331 405
#     4  11  22  43  66 102 139 172 230 280 337 403
#     4  12  24  43  71 100 134 185 224 276 347 401
#     4  12  23  37  67 102 134 173 224 284 347 391
#     4  12  21  40  67  99 136 167 225 292 334 395
#
# _framework density 21.067713999999999
#
# number of rings (size 3 to 8) (size 9 to 14) (size 15 to 20)
#    0.000    0.750    5.000    3.375    5.250    0.500 
#    2.250    0.625    0.000    0.000    0.000    0.000 
#    0.000    0.000    0.000    0.000    0.000    0.000 
#
# Total GULP energy -89266.696577 kJ/mol
# GULP energy per Si atom -5579.168536 kJ/mol
# Density = 2.101976 g / cm^3
# Si number density = 21.067714 Si / 1000 Ang^3
#
#
#
# Elastic Constant Matrix: (Units=GPa)
#
#
# Indices 1 2 3 4 5 6 
#
# 1 71.7393 19.4417 29.0984 -0.9502 -22.0188 6.0587
# 2 19.4417 66.1332 27.0187 0.9632 20.1465 15.3056
# 3 29.0984 27.0187 113.8709 10.3297 -4.0365 6.3180
# 4 -0.9502 0.9632 10.3297 36.0842 2.5155 -5.4077
# 5 -22.0188 20.1465 -4.0365 2.5155 29.5417 7.7099
# 6 6.0587 15.3056 6.3180 -5.4077 7.7099 31.1377
#
#
#
# Elastic Compliance Matrix: (Units=1/GPa)
#
#
# Indices 1 2 3 4 5 6 
#
# 1 0.032076 -0.018840 -0.001854 -0.001752 0.038322 -0.006397
# 2 -0.018840 0.034766 -0.004829 0.002199 -0.037900 -0.002677
# 3 -0.001854 -0.004829 0.010918 -0.003483 0.003979 -0.001071
# 4 -0.001752 0.002199 -0.003483 0.030210 -0.007713 0.007123
# 5 0.038322 -0.037900 0.003979 -0.007713 0.093122 -0.014032
# 6 -0.006397 -0.002677 -0.001071 0.007123 -0.014032 0.039605
#
#
# Mechanical properties :
#
#
# Convention : Reuss Voigt Hill
#
# Bulk Modulus (GPa) = 37.43493 44.76234 41.09863
# Shear Modulus (GPa) = 16.63069 31.09837 23.86453
#
# Velocity S-wave (km/s) = 2.81266 3.84619 3.36929
# Velocity P-wave (km/s) = 5.32499 6.40447 5.88952
#
# Compressibility (1/GPa) = 0.02671302
#
# Stress axis : x y z
#
# Youngs Moduli (GPa) = 31.17564 28.76396 91.59233
#
# Poissons Ratio (x) = 0.54192 0.16982
# Poissons Ratio (y) = 0.58736 0.44230
# Poissons Ratio (z) = 0.05780 0.13890
#
# Static dielectric constant tensor:
#      x y z
#    x 1.745530 0.024140 -0.032160 
#    y 0.024140 1.782270 0.037290 
#    z -0.032160 0.037290 1.816070 
# 
# From -- ./inp_files/532708.got.cif
#   From: 2010.05.17/outbox.cif.g08.bks.cpg/sg2_267_cif.got.tgz:532708.got - 2010.06.03 11:33:40.
