data_PCOD9047391
_publ_section_title
;
Structure prediction by ZEFSAII (Michael W. Deem and Ramdas Pophale) SiO2 
 PCOD9047391
Probable space group: P -1
;
_chemical_formula_sum "Si O2"
_cell_formula_units_Z 15
_cell_length_a 10.599643
_cell_length_b 9.631899
_cell_length_c 9.545631
_cell_angle_alpha 43.833681
_cell_angle_beta 122.160819
_cell_angle_gamma 108.067464
_cell_volume 566.832172
_symmetry_space_group_name_H-M "P -1"
_symmetry_group_IT_number 2
_symmetry_cell_setting 'triclinic'
loop_
_space_group_symop_operation_xyz
x,y,z
-x,-y,-z
loop_
_atom_site_type_symbol
_atom_site_label
_atom_site_fract_x
_atom_site_fract_y
_atom_site_fract_z
Si Si1 0.636068 0.980451 0.889750
Si Si2 0.641876 0.743007 0.348984
Si Si3 0.000000 0.000000 0.000000
Si Si4 0.915700 0.615180 0.056067
Si Si5 0.094520 0.749922 0.501177
Si Si6 0.312652 0.667361 0.465642
Si Si7 0.878847 0.889903 0.590824
Si Si8 0.436651 0.318393 0.174431
O O1 0.519883 0.157432 0.762887
O O2 0.760903 0.111697 0.798989
O O3 0.568936 0.861752 0.809474
O O4 0.668560 0.831284 0.146591
O O5 0.661117 0.504159 0.509248
O O6 0.756253 0.814248 0.474919
O O7 0.988908 0.896390 0.232958
O O8 0.045795 0.215323 0.937803
O O9 0.957775 0.707497 0.865094
O O10 0.735892 0.620181 0.930840
O O11 0.967898 0.397654 0.315983
O O12 0.200415 0.608380 0.561101
O O13 0.195663 0.913859 0.506926
O O14 0.461412 0.709913 0.605913
O O15 0.000000 0.000000 0.500000
O O16 0.500000 0.500000 0.000000
#
# Coordination Sequence:
#
# PCOD9047391 Si02
#       8
#     2   2   1   2   2   2   2   2
#     4  11  23  40  68  99 145 186 219 286 348 417
#     4  11  25  43  64 101 142 183 231 286 344 419
#     4  10  24  44  66 106 134 180 236 294 342 402
#     4  11  24  44  73 102 141 184 233 289 346 420
#     4  11  24  45  75  99 137 182 235 296 349 420
#     4  12  24  42  72 105 137 183 233 284 356 421
#     4  11  27  46  66  96 139 183 239 290 348 412
#     4  12  22  43  72 109 144 180 233 283 352 427
#
# _framework density 26.462859000000002
#
# number of rings (size 3 to 8) (size 9 to 14) (size 15 to 20)
#    0.000    0.800    2.667    4.400    0.000    9.067 
#    0.000    0.000    0.000    0.000    0.000    0.000 
#    0.000    0.000    0.000    0.000    0.000    0.000 
#
# Total GULP energy -83843.395337 kJ/mol
# GULP energy per Si atom -5589.559689 kJ/mol
# Density = 2.640263 g / cm^3
# Si number density = 26.462859 Si / 1000 Ang^3
#
#
#
# Elastic Constant Matrix: (Units=GPa)
#
#
# Indices 1 2 3 4 5 6 
#
# 1 65.3002 -0.7185 15.2673 -10.4682 -21.2264 5.5555
# 2 -0.7185 193.5840 91.1077 -15.7081 -0.7229 4.6148
# 3 15.2673 91.1077 218.0125 -21.6152 -27.5513 22.1227
# 4 -10.4682 -15.7081 -21.6152 59.0700 6.2945 6.7831
# 5 -21.2264 -0.7229 -27.5513 6.2945 49.0301 -4.9047
# 6 5.5555 4.6148 22.1227 6.7831 -4.9047 42.9321
#
#
#
# Elastic Compliance Matrix: (Units=1/GPa)
#
#
# Indices 1 2 3 4 5 6 
#
# 1 0.018337 0.000386 -0.000036 0.002783 0.007367 -0.001994
# 2 0.000386 0.006598 -0.002928 0.000854 -0.001446 0.000450
# 3 -0.000036 -0.002928 0.006688 0.001671 0.003182 -0.003027
# 4 0.002783 0.000854 0.001671 0.018837 -0.000699 -0.004369
# 5 0.007367 -0.001446 0.003182 -0.000699 0.025500 0.000586
# 6 -0.001994 0.000450 -0.003027 -0.004369 0.000586 0.025819
#
#
# Mechanical properties :
#
#
# Convention : Reuss Voigt Hill
#
# Bulk Modulus (GPa) = 37.78307 76.46775 57.12541
# Shear Modulus (GPa) = 43.19305 54.95580 49.07443
#
# Velocity S-wave (km/s) = 4.04445 4.56204 4.31102
# Velocity P-wave (km/s) = 6.00990 7.53051 6.81276
#
# Compressibility (1/GPa) = 0.02646688
#
# Stress axis : x y z
#
# Youngs Moduli (GPa) = 54.53416 151.55116 149.51933
#
# Poissons Ratio (x) = -0.05849 0.00540
# Poissons Ratio (y) = -0.02105 0.43782
# Poissons Ratio (z) = 0.00197 0.44377
#
# Static dielectric constant tensor:
#      x y z
#    x 2.065700 -0.067070 -0.071760 
#    y -0.067070 2.041360 0.009370 
#    z -0.071760 0.009370 2.049880 
# 
# From -- ./inp_files/236909.got.cif
#   From: 2010.05.17/outbox.cif.g08.bks.cpg/sg2_119_cif.got.tgz:236909.got - 2010.06.03 11:33:40.
