data_PCOD9047267
_publ_section_title
;
Structure prediction by ZEFSAII (Michael W. Deem and Ramdas Pophale) SiO2 
 PCOD9047267
Probable space group: P -1
;
_chemical_formula_sum "Si O2"
_cell_formula_units_Z 16
_cell_length_a 9.051637
_cell_length_b 21.874410
_cell_length_c 7.091338
_cell_angle_alpha 114.741810
_cell_angle_beta 48.821195
_cell_angle_gamma 135.575612
_cell_volume 736.151056
_symmetry_space_group_name_H-M "P -1"
_symmetry_group_IT_number 2
_symmetry_cell_setting 'triclinic'
loop_
_space_group_symop_operation_xyz
x,y,z
-x,-y,-z
loop_
_atom_site_type_symbol
_atom_site_label
_atom_site_fract_x
_atom_site_fract_y
_atom_site_fract_z
Si Si1 0.533194 0.924456 0.236134
Si Si2 0.017372 0.753653 0.626294
Si Si3 0.239480 0.693369 0.641688
Si Si4 0.251340 0.987984 0.447603
Si Si5 0.511043 0.325022 0.934742
Si Si6 0.310894 0.129172 0.307310
Si Si7 0.181696 0.597009 0.885449
Si Si8 0.417319 0.407896 0.398305
O O1 0.269402 0.844782 0.457112
O O2 0.462642 0.975998 0.244377
O O3 0.731450 0.984814 0.313534
O O4 0.621931 0.886481 0.972335
O O5 0.095549 0.720351 0.685040
O O6 0.876467 0.678448 0.483973
O O7 0.791912 0.754988 0.887591
O O8 0.362730 0.670127 0.355513
O O9 0.473087 0.775164 0.670407
O O10 0.070588 0.616550 0.837391
O O11 0.970512 0.900664 0.512296
O O12 0.300688 0.063680 0.375034
O O13 0.689138 0.333613 0.961788
O O14 0.511139 0.403691 0.103864
O O15 0.426805 0.608359 0.619246
O O16 0.000000 0.500000 0.000000
O O17 0.500000 0.500000 0.500000
#
# Coordination Sequence:
#
# PCOD9047267 Si02
#       8
#     2   2   2   2   2   2   2   2
#     4  11  22  43  68  92 132 174 215 264 325 378
#     4   9  23  42  64  98 128 171 217 261 323 384
#     4  12  23  42  67  93 132 170 216 262 326 385
#     4  10  24  44  61  98 134 167 218 270 317 380
#     4   8  24  43  61  96 129 165 210 268 318 378
#     4  11  25  40  65 100 126 175 216 263 326 378
#     4   9  23  41  63  92 123 168 212 264 321 376
#     4   8  20  43  62  90 131 163 209 265 319 375
#
# _framework density 21.734670999999999
#
# number of rings (size 3 to 8) (size 9 to 14) (size 15 to 20)
#    1.500    0.500    1.250    0.750    7.000    1.500 
#   11.250    1.875    0.000    0.000    0.000    0.000 
#    0.000    0.000    0.000    0.000    0.000    0.000 
#
# Total GULP energy -89111.893370 kJ/mol
# GULP energy per Si atom -5569.493336 kJ/mol
# Density = 2.168520 g / cm^3
# Si number density = 21.734671 Si / 1000 Ang^3
#
#
#
# Elastic Constant Matrix: (Units=GPa)
#
#
# Indices 1 2 3 4 5 6 
#
# 1 83.6635 16.5756 11.6119 -17.7991 8.7628 5.7772
# 2 16.5756 49.3031 -2.6919 1.7748 4.6646 2.0012
# 3 11.6119 -2.6919 54.2175 8.9370 4.2308 -7.0737
# 4 -17.7991 1.7748 8.9370 36.2564 -2.6509 3.1672
# 5 8.7628 4.6646 4.2308 -2.6509 23.4270 -5.7480
# 6 5.7772 2.0012 -7.0737 3.1672 -5.7480 27.1496
#
#
#
# Elastic Compliance Matrix: (Units=1/GPa)
#
#
# Indices 1 2 3 4 5 6 
#
# 1 0.017189 -0.005768 -0.006263 0.010540 -0.004696 -0.007088
# 2 -0.005768 0.022922 0.003532 -0.005110 -0.003548 0.000303
# 3 -0.006263 0.003532 0.022691 -0.009639 -0.001645 0.007761
# 4 0.010540 -0.005110 -0.009639 0.036179 0.000844 -0.008420
# 5 -0.004696 -0.003548 -0.001645 0.000844 0.048227 0.010944
# 6 -0.007088 0.000303 0.007761 -0.008420 0.010944 0.043640
#
#
# Mechanical properties :
#
#
# Convention : Reuss Voigt Hill
#
# Bulk Modulus (GPa) = 21.83271 26.46393 24.14832
# Shear Modulus (GPa) = 22.41009 28.14582 25.27795
#
# Velocity S-wave (km/s) = 3.21452 3.60248 3.41401
# Velocity P-wave (km/s) = 4.88308 5.43195 5.16481
#
# Compressibility (1/GPa) = 0.04580283
#
# Stress axis : x y z
#
# Youngs Moduli (GPa) = 58.17843 43.62587 44.07063
#
# Poissons Ratio (x) = 0.25164 0.27603
# Poissons Ratio (y) = 0.33558 -0.15567
# Poissons Ratio (z) = 0.36440 -0.15410
#
# Static dielectric constant tensor:
#      x y z
#    x 1.845820 0.000010 -0.044720 
#    y 0.000010 1.823060 -0.017280 
#    z -0.044720 -0.017280 1.810380 
# 
# From -- ./inp_files/53232.got.cif
#   From: 2010.05.17/outbox.cif.g08.bks.cpg/sg2_27_cif.got.tgz:53232.got - 2010.06.03 11:33:40.
