data_PCOD9047861
_publ_section_title
;
Structure prediction by ZEFSAII (Michael W. Deem and Ramdas Pophale) SiO2 
 PCOD9047861
Probable space group: P -1
;
_chemical_formula_sum "Si O2"
_cell_formula_units_Z 12
_cell_length_a 15.156962
_cell_length_b 15.682604
_cell_length_c 8.654220
_cell_angle_alpha 152.753629
_cell_angle_beta 140.913139
_cell_angle_gamma 30.388639
_cell_volume 476.029589
_symmetry_space_group_name_H-M "P -1"
_symmetry_group_IT_number 2
_symmetry_cell_setting 'triclinic'
loop_
_space_group_symop_operation_xyz
x,y,z
-x,-y,-z
loop_
_atom_site_type_symbol
_atom_site_label
_atom_site_fract_x
_atom_site_fract_y
_atom_site_fract_z
Si Si1 0.238975 0.856069 0.673465
Si Si2 0.423481 0.357891 0.013782
Si Si3 0.622394 0.584702 0.287339
Si Si4 0.790960 0.769926 0.988489
Si Si5 0.174218 0.274556 0.693222
Si Si6 0.002758 0.109663 0.019824
O O1 0.302754 0.638287 0.301305
O O2 0.392066 0.739115 0.820540
O O3 0.228414 0.053569 0.879731
O O4 0.065339 0.959521 0.706906
O O5 0.436851 0.270626 0.718410
O O6 0.323237 0.299296 0.894602
O O7 0.652974 0.712363 0.670142
O O8 0.816603 0.353331 0.150100
O O9 0.500000 0.500000 0.000000
O O10 0.986460 0.528088 0.856323
O O11 0.779566 0.850220 0.278715
O O12 0.144489 0.156822 0.323699
O O13 0.000000 0.000000 0.000000
#
# Coordination Sequence:
#
# PCOD9047861 Si02
#       6
#     2   2   2   2   2   2
#     4  11  26  44  69 102 138 180 230 277 341 400
#     4  11  26  44  68 100 140 180 227 284 333 402
#     4  11  25  44  71 101 139 177 225 282 339 404
#     4  10  24  45  71 101 136 177 226 280 342 406
#     4  10  24  44  71 101 137 175 225 283 339 405
#     4  11  25  43  71 103 135 179 228 277 342 405
#
# _framework density 25.208515999999999
#
# number of rings (size 3 to 8) (size 9 to 14) (size 15 to 20)
#    0.000    1.333    0.000    3.000   14.000    8.667 
#    0.000    0.000    0.000    0.000    0.000    0.000 
#    0.000    0.000    0.000    0.000    0.000    0.000 
#
# Total GULP energy -67219.185362 kJ/mol
# GULP energy per Si atom -5601.598780 kJ/mol
# Density = 2.515114 g / cm^3
# Si number density = 25.208516 Si / 1000 Ang^3
#
#
#
# Elastic Constant Matrix: (Units=GPa)
#
#
# Indices 1 2 3 4 5 6 
#
# 1 83.9194 16.9917 18.2843 -0.2320 1.7576 10.6264
# 2 16.9917 100.2911 25.8794 -0.6900 -9.9267 11.5617
# 3 18.2843 25.8794 89.7593 -4.7910 -14.9486 -6.7928
# 4 -0.2320 -0.6900 -4.7910 34.0295 6.8642 4.7831
# 5 1.7576 -9.9267 -14.9486 6.8642 36.7903 -5.9010
# 6 10.6264 11.5617 -6.7928 4.7831 -5.9010 49.1929
#
#
#
# Elastic Compliance Matrix: (Units=1/GPa)
#
#
# Indices 1 2 3 4 5 6 
#
# 1 0.013347 -0.001372 -0.003028 0.000702 -0.002914 -0.003397
# 2 -0.001372 0.011419 -0.002958 -0.000143 0.001555 -0.002595
# 3 -0.003028 -0.002958 0.013843 0.000197 0.005561 0.003909
# 4 0.000702 -0.000143 0.000197 0.031266 -0.006452 -0.003905
# 5 -0.002914 0.001555 0.005561 -0.006452 0.032087 0.005508
# 6 -0.003397 -0.002595 0.003909 -0.003905 0.005508 0.023252
#
#
# Mechanical properties :
#
#
# Convention : Reuss Voigt Hill
#
# Bulk Modulus (GPa) = 41.85337 44.03117 42.94227
# Shear Modulus (GPa) = 33.80801 38.19018 35.99909
#
# Velocity S-wave (km/s) = 3.66612 3.89649 3.78306
# Velocity P-wave (km/s) = 5.87874 6.14395 6.01281
#
# Compressibility (1/GPa) = 0.02389294
#
# Stress axis : x y z
#
# Youngs Moduli (GPa) = 74.92421 87.57484 72.23809
#
# Poissons Ratio (x) = 0.12014 0.21875
# Poissons Ratio (y) = 0.10279 0.21367
# Poissons Ratio (z) = 0.22688 0.25904
#
# Static dielectric constant tensor:
#      x y z
#    x 1.887130 -0.140420 0.015410 
#    y -0.140420 1.640360 0.040940 
#    z 0.015410 0.040940 1.996470 
# 
# From -- ./inp_files/152536.got.cif
#   From: 2010.05.17/outbox.cif.g08.bks.cpg/sg2_77_cif.got.tgz:152536.got - 2010.06.03 11:33:40.
