data_PCOD9047349
_publ_section_title
;
Structure prediction by ZEFSAII (Michael W. Deem and Ramdas Pophale) SiO2 
 PCOD9047349
Probable space group: P -1
;
_chemical_formula_sum "Si O2"
_cell_formula_units_Z 16
_cell_length_a 8.895644
_cell_length_b 13.792933
_cell_length_c 18.339920
_cell_angle_alpha 153.489415
_cell_angle_beta 137.316269
_cell_angle_gamma 41.282843
_cell_volume 647.525653
_symmetry_space_group_name_H-M "P -1"
_symmetry_group_IT_number 2
_symmetry_cell_setting 'triclinic'
loop_
_space_group_symop_operation_xyz
x,y,z
-x,-y,-z
loop_
_atom_site_type_symbol
_atom_site_label
_atom_site_fract_x
_atom_site_fract_y
_atom_site_fract_z
Si Si1 0.497545 0.359750 0.480250
Si Si2 0.193972 0.051453 0.353237
Si Si3 0.084391 0.681241 0.304333
Si Si4 0.879545 0.801738 0.811528
Si Si5 0.262611 0.039385 0.532312
Si Si6 0.944108 0.704269 0.059682
Si Si7 0.457081 0.986629 0.060006
Si Si8 0.805080 0.339583 0.294484
O O1 0.500000 0.500000 0.500000
O O2 0.758416 0.284603 0.549848
O O3 0.370136 0.165511 0.295059
O O4 0.356359 0.504136 0.596232
O O5 0.457605 0.038816 0.420417
O O6 0.169027 0.142238 0.489064
O O7 0.011701 0.176291 0.309109
O O8 0.150094 0.806385 0.181842
O O9 0.119148 0.428363 0.120568
O O10 0.827472 0.791761 0.318566
O O11 0.161478 0.828643 0.368882
O O12 0.050920 0.611630 0.691838
O O13 0.761324 0.801251 0.848190
O O14 0.000000 0.000000 0.000000
O O15 0.714293 0.917716 0.140538
O O16 0.000000 0.500000 0.000000
O O17 0.364193 0.769825 0.883280
O O18 0.500000 0.000000 0.000000
#
# Coordination Sequence:
#
# PCOD9047349 Si02
#       8
#     2   2   2   2   2   2   2   2
#     4  12  24  40  69 103 134 178 230 283 343 416
#     4  11  23  43  69  94 134 181 225 284 347 410
#     4  11  24  43  67  97 134 178 226 284 340 416
#     4  10  25  41  64 101 138 181 221 283 358 403
#     4  10  24  44  65  95 135 179 229 274 344 422
#     4  12  25  42  70 102 135 179 232 291 345 408
#     4  11  22  43  70  97 139 179 229 280 344 422
#     4  11  22  42  66 100 136 176 225 290 345 411
#
# _framework density 24.709444999999999
#
# number of rings (size 3 to 8) (size 9 to 14) (size 15 to 20)
#    0.000    1.000    3.750    2.625    1.750    1.500 
#    0.000    2.500    0.000    0.000    0.000    0.000 
#    0.000    0.000    0.000    0.000    0.000    0.000 
#
# Total GULP energy -89072.234036 kJ/mol
# GULP energy per Si atom -5567.014627 kJ/mol
# Density = 2.465321 g / cm^3
# Si number density = 24.709445 Si / 1000 Ang^3
#
#
#
# Elastic Constant Matrix: (Units=GPa)
#
#
# Indices 1 2 3 4 5 6 
#
# 1 193.6938 42.2352 23.3508 12.1853 -24.4014 -18.8912
# 2 42.2352 73.3053 -2.0987 -7.7725 -9.3614 19.9057
# 3 23.3508 -2.0987 94.6999 -5.7067 15.3208 -0.6711
# 4 12.1853 -7.7725 -5.7067 29.9687 -4.4712 -3.7842
# 5 -24.4014 -9.3614 15.3208 -4.4712 37.9883 -0.3638
# 6 -18.8912 19.9057 -0.6711 -3.7842 -0.3638 44.5240
#
#
#
# Elastic Compliance Matrix: (Units=1/GPa)
#
#
# Indices 1 2 3 4 5 6 
#
# 1 0.008389 -0.006425 -0.003174 -0.004223 0.004646 0.006063
# 2 -0.006425 0.021476 0.002254 0.007288 0.001002 -0.011666
# 3 -0.003174 0.002254 0.012569 0.003096 -0.006207 -0.001953
# 4 -0.004223 0.007288 0.003096 0.037676 0.002252 -0.001783
# 5 0.004646 0.001002 -0.006207 0.002252 0.032342 0.001885
# 6 0.006063 -0.011666 -0.001953 -0.001783 0.001885 0.030082
#
#
# Mechanical properties :
#
#
# Convention : Reuss Voigt Hill
#
# Bulk Modulus (GPa) = 36.04173 54.29706 45.16939
# Shear Modulus (GPa) = 30.03525 42.37699 36.20612
#
# Velocity S-wave (km/s) = 3.49024 4.14576 3.83204
# Velocity P-wave (km/s) = 5.55520 6.70361 6.15624
#
# Compressibility (1/GPa) = 0.02774562
#
# Stress axis : x y z
#
# Youngs Moduli (GPa) = 119.20852 46.56274 79.55992
#
# Poissons Ratio (x) = 0.29915 0.25252
# Poissons Ratio (y) = 0.76589 -0.17937
# Poissons Ratio (z) = 0.37837 -0.10497
#
# Static dielectric constant tensor:
#      x y z
#    x 1.955860 0.030320 -0.115500 
#    y 0.030320 1.998460 0.003350 
#    z -0.115500 0.003350 2.043810 
# 
# From -- ./inp_files/561446.got.cif
#   From: 2010.05.17/outbox.cif.g08.bks.cpg/sg2_281_cif.got.tgz:561446.got - 2010.06.03 11:33:40.
