data_PCOD9047244
_publ_section_title
;
Structure prediction by ZEFSAII (Michael W. Deem and Ramdas Pophale) SiO2 
 PCOD9047244
Probable space group: P -1
;
_chemical_formula_sum "Si O2"
_cell_formula_units_Z 13
_cell_length_a 9.931370
_cell_length_b 7.783910
_cell_length_c 9.671649
_cell_angle_alpha 100.572985
_cell_angle_beta 46.606819
_cell_angle_gamma 93.162333
_cell_volume 531.435448
_symmetry_space_group_name_H-M "P -1"
_symmetry_group_IT_number 2
_symmetry_cell_setting 'triclinic'
loop_
_space_group_symop_operation_xyz
x,y,z
-x,-y,-z
loop_
_atom_site_type_symbol
_atom_site_label
_atom_site_fract_x
_atom_site_fract_y
_atom_site_fract_z
Si Si1 0.092855 0.424555 0.783429
Si Si2 0.773034 0.518181 0.820592
Si Si3 0.533238 0.510987 0.742073
Si Si4 0.500000 0.500000 0.500000
Si Si5 0.359675 0.075247 0.994078
Si Si6 0.031208 0.031079 0.819281
Si Si7 0.416265 0.867767 0.435353
O O1 0.274001 0.523185 0.667333
O O2 0.109173 0.216746 0.764317
O O3 0.972338 0.463827 0.735804
O O4 0.000000 0.500000 0.000000
O O5 0.712263 0.459779 0.703209
O O6 0.630050 0.455719 0.027572
O O7 0.726888 0.727196 0.880954
O O8 0.521118 0.647363 0.648354
O O9 0.511184 0.342342 0.627139
O O10 0.488236 0.094718 0.771864
O O11 0.500000 0.000000 0.000000
O O12 0.176570 0.973115 0.094463
O O13 0.193392 0.895957 0.616832
O O14 0.000000 0.000000 0.000000
O O15 0.500000 0.000000 0.500000
#
# Coordination Sequence:
#
# PCOD9047244 Si02
#       7
#     2   2   2   1   2   2   2
#     4  12  27  46  76 108 148 197 253 308 373 446
#     4  10  24  50  72 108 149 195 249 309 375 443
#     4  10  24  43  76 103 146 196 247 311 367 443
#     4  12  26  44  74 110 142 192 256 302 372 438
#     4  11  27  48  76 107 152 197 244 316 379 446
#     4  12  27  46  74 109 150 200 247 309 378 447
#     4  11  24  46  72 106 149 193 252 305 374 444
#
# _framework density 24.462049
#
# number of rings (size 3 to 8) (size 9 to 14) (size 15 to 20)
#    0.000    0.923    3.077    1.846   10.769    4.923 
#    0.000    0.000    0.000    0.000    0.000    0.000 
#    0.000    0.000    0.000    0.000    0.000    0.000 
#
# Total GULP energy -72559.651117 kJ/mol
# GULP energy per Si atom -5581.511624 kJ/mol
# Density = 2.440637 g / cm^3
# Si number density = 24.462049 Si / 1000 Ang^3
#
#
#
# Elastic Constant Matrix: (Units=GPa)
#
#
# Indices 1 2 3 4 5 6 
#
# 1 197.8696 5.7405 58.2247 -9.9327 7.0197 -2.7736
# 2 5.7405 79.1980 25.9752 5.1525 6.9603 -16.9972
# 3 58.2247 25.9752 116.0816 -22.7731 -3.6955 7.6616
# 4 -9.9327 5.1525 -22.7731 43.8162 3.8493 -5.8438
# 5 7.0197 6.9603 -3.6955 3.8493 54.7682 -3.3684
# 6 -2.7736 -16.9972 7.6616 -5.8438 -3.3684 34.4802
#
#
#
# Elastic Compliance Matrix: (Units=1/GPa)
#
#
# Indices 1 2 3 4 5 6 
#
# 1 0.006105 0.001192 -0.003528 -0.000269 -0.001048 0.001715
# 2 0.001192 0.016646 -0.005604 -0.003260 -0.001875 0.008811
# 3 -0.003528 -0.005604 0.013165 0.005939 0.001338 -0.004834
# 4 -0.000269 -0.003260 0.005939 0.026507 -0.000924 0.001454
# 5 -0.001048 -0.001875 0.001338 -0.000924 0.018810 0.000375
# 6 0.001715 0.008811 -0.004834 0.001454 0.000375 0.034841
#
#
# Mechanical properties :
#
#
# Convention : Reuss Voigt Hill
#
# Bulk Modulus (GPa) = 49.90788 63.66998 56.78893
# Shear Modulus (GPa) = 36.06666 46.82682 41.44674
#
# Velocity S-wave (km/s) = 3.84395 4.37998 4.12069
# Velocity P-wave (km/s) = 6.33622 7.18773 6.77537
#
# Compressibility (1/GPa) = 0.02003691
#
# Stress axis : x y z
#
# Youngs Moduli (GPa) = 163.79447 60.07476 75.95772
#
# Poissons Ratio (x) = -0.07163 0.26802
# Poissons Ratio (y) = -0.19531 0.42564
# Poissons Ratio (z) = 0.57795 0.33664
#
# Static dielectric constant tensor:
#      x y z
#    x 2.092470 -0.142180 0.094170 
#    y -0.142180 2.170090 -0.140280 
#    z 0.094170 -0.140280 2.137770 
# 
# From -- ./inp_files/159463.got.cif
#   From: 2010.05.17/outbox.cif.g08.bks.cpg/sg2_80_cif.got.tgz:159463.got - 2010.06.03 11:33:40.
