data_PCOD9047432
_publ_section_title
;
Structure prediction by ZEFSAII (Michael W. Deem and Ramdas Pophale) SiO2 
 PCOD9047432
Probable space group: P -1
;
_chemical_formula_sum "Si O2"
_cell_formula_units_Z 15
_cell_length_a 15.033539
_cell_length_b 9.423420
_cell_length_c 8.586080
_cell_angle_alpha 49.952880
_cell_angle_beta 51.067878
_cell_angle_gamma 62.536991
_cell_volume 721.022927
_symmetry_space_group_name_H-M "P -1"
_symmetry_group_IT_number 2
_symmetry_cell_setting 'triclinic'
loop_
_space_group_symop_operation_xyz
x,y,z
-x,-y,-z
loop_
_atom_site_type_symbol
_atom_site_label
_atom_site_fract_x
_atom_site_fract_y
_atom_site_fract_z
Si Si1 0.219992 0.208608 0.676360
Si Si2 0.477843 0.702996 0.456304
Si Si3 0.375967 0.988914 0.916001
Si Si4 0.541648 0.692764 0.756996
Si Si5 0.918376 0.434425 0.269779
Si Si6 0.000000 0.000000 0.000000
Si Si7 0.959418 0.894964 0.464695
Si Si8 0.253563 0.855821 0.439385
O O1 0.323069 0.277507 0.408652
O O2 0.155623 0.391597 0.696678
O O3 0.284379 0.077856 0.829594
O O4 0.120903 0.100662 0.784955
O O5 0.500000 0.500000 0.500000
O O6 0.507164 0.699640 0.608358
O O7 0.348546 0.789401 0.507912
O O8 0.563072 0.843043 0.191544
O O9 0.471664 0.858244 0.811104
O O10 0.317176 0.875586 0.192070
O O11 0.500000 0.500000 0.000000
O O12 0.833201 0.301138 0.376743
O O13 0.994134 0.317723 0.400489
O O14 0.000000 0.500000 0.000000
O O15 0.014572 0.972917 0.194310
O O16 0.822982 0.952471 0.575022
O O17 0.000000 0.000000 0.500000
#
# Coordination Sequence:
#
# PCOD9047432 Si02
#       8
#     2   2   2   2   2   1   2   2
#     4  11  23  42  69  98 136 183 230 293 350 424
#     4  11  23  40  66 104 136 176 235 286 354 428
#     4  11  23  44  71  97 143 184 227 292 366 427
#     4  11  25  45  68 101 143 184 231 290 366 427
#     4  11  22  44  66  99 142 185 235 293 365 415
#     4  12  26  44  72  98 142 182 256 276 362 428
#     4  10  24  44  67 100 137 188 233 294 359 415
#     4  11  22  41  71  96 135 179 231 289 353 425
#
# _framework density 20.803778000000001
#
# number of rings (size 3 to 8) (size 9 to 14) (size 15 to 20)
#    0.000    1.067    0.000    9.200    3.733    0.533 
#    2.400    0.000    0.000    0.000    0.000    0.000 
#    0.000    0.000    0.000    0.000    0.000    0.000 
#
# Total GULP energy -83598.314816 kJ/mol
# GULP energy per Si atom -5573.220988 kJ/mol
# Density = 2.075643 g / cm^3
# Si number density = 20.803778 Si / 1000 Ang^3
#
#
#
# Elastic Constant Matrix: (Units=GPa)
#
#
# Indices 1 2 3 4 5 6 
#
# 1 95.4518 26.2433 49.4730 -12.1029 -33.9401 -1.4477
# 2 26.2433 113.3211 43.2041 7.5819 -12.2096 -19.5646
# 3 49.4730 43.2041 162.9317 13.1081 -16.9127 6.4344
# 4 -12.1029 7.5819 13.1081 34.3017 7.2400 -3.1991
# 5 -33.9401 -12.2096 -16.9127 7.2400 46.1667 2.8754
# 6 -1.4477 -19.5646 6.4344 -3.1991 2.8754 33.1744
#
#
#
# Elastic Compliance Matrix: (Units=1/GPa)
#
#
# Indices 1 2 3 4 5 6 
#
# 1 0.017470 -0.001680 -0.004350 0.006159 0.009817 0.000358
# 2 -0.001680 0.011630 -0.002651 -0.001634 0.000685 0.007083
# 3 -0.004350 -0.002651 0.008724 -0.004708 0.000280 -0.003924
# 4 0.006159 -0.001634 -0.004708 0.034537 -0.003284 0.003833
# 5 0.009817 0.000685 0.000280 -0.003284 0.029809 -0.002122
# 6 0.000358 0.007083 -0.003924 0.003833 -0.002122 0.035651
#
#
# Mechanical properties :
#
#
# Convention : Reuss Voigt Hill
#
# Bulk Modulus (GPa) = 48.86889 67.72725 58.29807
# Shear Modulus (GPa) = 30.86363 39.58085 35.22224
#
# Velocity S-wave (km/s) = 3.85588 4.36659 4.11916
# Velocity P-wave (km/s) = 6.58522 7.61897 7.12088
#
# Compressibility (1/GPa) = 0.02046291
#
# Stress axis : x y z
#
# Youngs Moduli (GPa) = 57.24106 85.98334 114.62666
#
# Poissons Ratio (x) = 0.14444 0.49860
# Poissons Ratio (y) = 0.09616 0.30388
# Poissons Ratio (z) = 0.24898 0.22794
#
# Static dielectric constant tensor:
#      x y z
#    x 1.768370 -0.008070 -0.001280 
#    y -0.008070 1.761300 -0.016800 
#    z -0.001280 -0.016800 1.751680 
# 
# From -- ./inp_files/293875.got.cif
#   From: 2010.05.17/outbox.cif.g08.bks.cpg/sg2_147_cif.got.tgz:293875.got - 2010.06.03 11:33:40.
