data_PCOD9047882
_publ_section_title
;
Structure prediction by ZEFSAII (Michael W. Deem and Ramdas Pophale) SiO2 
 PCOD9047882
Probable space group: P -1
;
_chemical_formula_sum "Si O2"
_cell_formula_units_Z 14
_cell_length_a 12.124086
_cell_length_b 11.580002
_cell_length_c 21.210611
_cell_angle_alpha 157.227749
_cell_angle_beta 35.158264
_cell_angle_gamma 133.432673
_cell_volume 633.665143
_symmetry_space_group_name_H-M "P -1"
_symmetry_group_IT_number 2
_symmetry_cell_setting 'triclinic'
loop_
_space_group_symop_operation_xyz
x,y,z
-x,-y,-z
loop_
_atom_site_type_symbol
_atom_site_label
_atom_site_fract_x
_atom_site_fract_y
_atom_site_fract_z
Si Si1 0.335348 0.158719 0.991115
Si Si2 0.118983 0.697011 0.912118
Si Si3 0.969993 0.369929 0.707358
Si Si4 0.243607 0.378954 0.815921
Si Si5 0.648980 0.586070 0.523569
Si Si6 0.587797 0.663201 0.820014
Si Si7 0.229200 0.797648 0.601109
O O1 0.318531 0.322320 0.148715
O O2 0.240661 0.412732 0.110874
O O3 0.225907 0.887558 0.913168
O O4 0.559828 0.950587 0.766691
O O5 0.004311 0.501453 0.826234
O O6 0.261479 0.448915 0.768488
O O7 0.979163 0.975739 0.160638
O O8 0.135842 0.454756 0.628373
O O9 0.000000 0.000000 0.500000
O O10 0.389977 0.551977 0.865493
O O11 0.311907 0.040822 0.645615
O O12 0.000000 0.500000 0.000000
O O13 0.500000 0.500000 0.500000
O O14 0.666656 0.377382 0.472831
O O15 0.749392 0.462087 0.593412
O O16 0.500000 0.000000 0.000000
#
# Coordination Sequence:
#
# PCOD9047882 Si02
#       7
#     2   2   2   2   2   2   2
#     4  12  25  46  74 104 148 186 241 295 351 439
#     4  11  22  48  71 103 145 192 234 291 365 424
#     4  12  29  48  73 108 143 186 245 304 352 421
#     4  10  24  44  71 103 143 187 232 297 354 426
#     4  12  24  44  78 100 138 196 239 285 361 424
#     4  12  24  43  70 110 143 182 242 290 360 423
#     4  11  24  43  72 104 140 190 236 289 361 422
#
# _framework density 22.093686999999999
#
# number of rings (size 3 to 8) (size 9 to 14) (size 15 to 20)
#    0.000    0.571    5.714    1.714    2.000    4.571 
#    2.571    0.000    0.000    0.000    0.000    0.000 
#    0.000    0.000    0.000    0.000    0.000    0.000 
#
# Total GULP energy -78134.779283 kJ/mol
# GULP energy per Si atom -5581.055663 kJ/mol
# Density = 2.204340 g / cm^3
# Si number density = 22.093687 Si / 1000 Ang^3
#
#
#
# Elastic Constant Matrix: (Units=GPa)
#
#
# Indices 1 2 3 4 5 6 
#
# 1 127.2015 12.5943 34.4538 28.0932 5.8895 -17.6908
# 2 12.5943 64.0101 27.4638 10.9172 -7.2237 -5.4776
# 3 34.4538 27.4638 121.2342 1.6895 3.4135 -11.5334
# 4 28.0932 10.9172 1.6895 48.4537 -8.8944 -7.9935
# 5 5.8895 -7.2237 3.4135 -8.8944 46.2400 9.5754
# 6 -17.6908 -5.4776 -11.5334 -7.9935 9.5754 30.5460
#
#
#
# Elastic Compliance Matrix: (Units=1/GPa)
#
#
# Indices 1 2 3 4 5 6 
#
# 1 0.010624 -0.000027 -0.002387 -0.005894 -0.003296 0.004737
# 2 -0.000027 0.018290 -0.004157 -0.003503 0.002495 -0.000004
# 3 -0.002387 -0.004157 0.010125 0.002181 -0.001222 0.002648
# 4 -0.005894 -0.003503 0.002181 0.025964 0.004594 0.002136
# 5 -0.003296 0.002495 -0.001222 0.004594 0.025194 -0.008618
# 6 0.004737 -0.000004 0.002648 0.002136 -0.008618 0.039741
#
#
# Mechanical properties :
#
#
# Convention : Reuss Voigt Hill
#
# Bulk Modulus (GPa) = 38.61805 51.27439 44.94622
# Shear Modulus (GPa) = 32.95651 40.91020 36.93336
#
# Velocity S-wave (km/s) = 3.86641 4.30777 4.09304
# Velocity P-wave (km/s) = 6.11958 6.92825 6.53643
#
# Compressibility (1/GPa) = 0.02589463
#
# Stress axis : x y z
#
# Youngs Moduli (GPa) = 94.12571 54.67373 98.76772
#
# Poissons Ratio (x) = 0.00149 0.23581
# Poissons Ratio (y) = 0.00257 0.41063
# Poissons Ratio (z) = 0.22472 0.22731
#
# Static dielectric constant tensor:
#      x y z
#    x 1.801360 0.009130 -0.018600 
#    y 0.009130 1.844460 -0.061750 
#    z -0.018600 -0.061750 1.847950 
# 
# From -- ./inp_files/398054.got.cif
#   From: 2010.05.17/outbox.cif.g08.bks.cpg/sg2_200_cif.got.tgz:398054.got - 2010.06.03 11:33:40.
