data_PCOD9047334
_publ_section_title
;
Structure prediction by ZEFSAII (Michael W. Deem and Ramdas Pophale) SiO2 
 PCOD9047334
Probable space group: P -1
;
_chemical_formula_sum "Si O2"
_cell_formula_units_Z 16
_cell_length_a 8.404333
_cell_length_b 4.968343
_cell_length_c 19.800882
_cell_angle_alpha 79.531920
_cell_angle_beta 55.428327
_cell_angle_gamma 68.906096
_cell_volume 634.907083
_symmetry_space_group_name_H-M "P -1"
_symmetry_group_IT_number 2
_symmetry_cell_setting 'triclinic'
loop_
_space_group_symop_operation_xyz
x,y,z
-x,-y,-z
loop_
_atom_site_type_symbol
_atom_site_label
_atom_site_fract_x
_atom_site_fract_y
_atom_site_fract_z
Si Si1 0.736904 0.149051 0.785881
Si Si2 0.273044 0.935707 0.831431
Si Si3 0.042038 0.757401 0.640702
Si Si4 0.472133 0.407800 0.725215
Si Si5 0.828720 0.271938 0.896160
Si Si6 0.484093 0.648398 0.570527
Si Si7 0.468936 0.853235 0.929166
Si Si8 0.891092 0.728318 0.459237
O O1 0.653225 0.378352 0.736635
O O2 0.874640 0.203272 0.809272
O O3 0.545446 0.114471 0.874883
O O4 0.855372 0.856487 0.731890
O O5 0.291553 0.680817 0.785021
O O6 0.361335 0.796956 0.888606
O O7 0.410957 0.120136 0.760908
O O8 0.048343 0.165619 0.882971
O O9 0.241829 0.783663 0.629677
O O10 0.075304 0.455233 0.610303
O O11 0.022203 0.006083 0.578202
O O12 0.538053 0.443832 0.632182
O O13 0.669405 0.595654 0.916365
O O14 0.697900 0.099317 0.974706
O O15 0.500000 0.500000 0.500000
O O16 0.646239 0.822516 0.525590
O O17 0.000000 0.500000 0.500000
#
# Coordination Sequence:
#
# PCOD9047334 Si02
#       8
#     2   2   2   2   2   2   2   2
#     4  11  24  43  68  96 141 173 235 277 346 400
#     4  11  25  45  70 102 140 179 233 274 345 399
#     4  11  25  40  68  95 128 177 219 277 333 408
#     4  11  25  45  67 100 134 182 222 290 333 411
#     4  11  23  42  72  96 140 183 227 282 344 402
#     4  10  24  44  66  96 135 171 229 275 341 404
#     4  10  24  44  65 105 137 182 227 284 338 408
#     4  11  24  43  66  96 131 171 220 276 344 398
#
# _framework density 25.200536
#
# number of rings (size 3 to 8) (size 9 to 14) (size 15 to 20)
#    0.000    1.250    1.250    3.000    5.250    8.000 
#    0.000    1.875    0.000    0.000    0.000    0.000 
#    0.000    0.000    0.000    0.000    0.000    0.000 
#
# Total GULP energy -89440.414435 kJ/mol
# GULP energy per Si atom -5590.025902 kJ/mol
# Density = 2.514318 g / cm^3
# Si number density = 25.200536 Si / 1000 Ang^3
#
#
#
# Elastic Constant Matrix: (Units=GPa)
#
#
# Indices 1 2 3 4 5 6 
#
# 1 66.6101 30.8702 33.8769 5.3503 4.5422 -24.1449
# 2 30.8702 96.2967 25.7548 -5.7691 5.9051 -3.8203
# 3 33.8769 25.7548 126.3468 -11.1092 15.2965 -3.4917
# 4 5.3503 -5.7691 -11.1092 36.2425 -3.7460 -0.0208
# 5 4.5422 5.9051 15.2965 -3.7460 48.2230 1.7011
# 6 -24.1449 -3.8203 -3.4917 -0.0208 1.7011 40.9487
#
#
#
# Elastic Compliance Matrix: (Units=1/GPa)
#
#
# Indices 1 2 3 4 5 6 
#
# 1 0.027355 -0.006933 -0.006020 -0.007071 -0.000897 0.015003
# 2 -0.006933 0.012831 -0.000535 0.002856 -0.000424 -0.002917
# 3 -0.006020 -0.000535 0.010157 0.003687 -0.002210 -0.002640
# 4 -0.007071 0.002856 0.003687 0.030388 0.001636 -0.003641
# 5 -0.000897 -0.000424 -0.002210 0.001636 0.021760 -0.001660
# 6 0.015003 -0.002917 -0.002640 -0.003641 -0.001660 0.032837
#
#
# Mechanical properties :
#
#
# Convention : Reuss Voigt Hill
#
# Bulk Modulus (GPa) = 42.79387 52.25080 47.52234
# Shear Modulus (GPa) = 29.39601 38.33297 33.86449
#
# Velocity S-wave (km/s) = 3.41909 3.90438 3.66977
# Velocity P-wave (km/s) = 5.71009 6.41129 6.07082
#
# Compressibility (1/GPa) = 0.02336783
#
# Stress axis : x y z
#
# Youngs Moduli (GPa) = 36.55685 77.93363 98.45816
#
# Poissons Ratio (x) = 0.54028 0.59271
# Poissons Ratio (y) = 0.25343 0.05267
# Poissons Ratio (z) = 0.22007 0.04169
#
# Static dielectric constant tensor:
#      x y z
#    x 2.087670 -0.035550 -0.003420 
#    y -0.035550 2.033550 0.005660 
#    z -0.003420 0.005660 1.985240 
# 
# From -- ./inp_files/142520.got.cif
#   From: 2010.05.17/outbox.cif.g08.bks.cpg/sg2_72_cif.got.tgz:142520.got - 2010.06.03 11:33:40.
