data_PCOD9047560
_publ_section_title
;
Structure prediction by ZEFSAII (Michael W. Deem and Ramdas Pophale) SiO2 
 PCOD9047560
Probable space group: P -1
;
_chemical_formula_sum "Si O2"
_cell_formula_units_Z 12
_cell_length_a 9.224583
_cell_length_b 15.573770
_cell_length_c 12.364241
_cell_angle_alpha 26.624402
_cell_angle_beta 63.633478
_cell_angle_gamma 47.861359
_cell_volume 521.489266
_symmetry_space_group_name_H-M "P -1"
_symmetry_group_IT_number 2
_symmetry_cell_setting 'triclinic'
loop_
_space_group_symop_operation_xyz
x,y,z
-x,-y,-z
loop_
_atom_site_type_symbol
_atom_site_label
_atom_site_fract_x
_atom_site_fract_y
_atom_site_fract_z
Si Si1 0.378440 0.104184 0.093079
Si Si2 0.905511 0.096834 0.119122
Si Si3 0.155493 0.207051 0.822100
Si Si4 0.525795 0.356861 0.280893
Si Si5 0.168676 0.618132 0.718789
Si Si6 0.686361 0.005260 0.426242
O O1 0.614760 0.978509 0.108661
O O2 0.414507 0.881882 0.400239
O O3 0.220093 0.191936 0.943410
O O4 0.279043 0.356293 0.913008
O O5 0.751688 0.029316 0.257278
O O6 0.732809 0.390442 0.895588
O O7 0.106991 0.849909 0.401276
O O8 0.019837 0.117696 0.961436
O O9 0.000000 0.500000 0.500000
O O10 0.675851 0.412862 0.208955
O O11 0.599272 0.242640 0.265105
O O12 0.921866 0.753382 0.682124
O O13 0.500000 0.000000 0.500000
#
# Coordination Sequence:
#
# PCOD9047560 Si02
#       6
#     2   2   2   2   2   2
#     4  11  25  43  74 103 136 181 241 277 353 413
#     4  10  24  44  68 103 141 180 233 284 349 409
#     4  11  23  46  72 100 140 184 225 296 343 412
#     4  12  23  46  72 100 146 183 228 288 346 411
#     4  10  26  44  68 106 141 176 235 286 346 412
#     4  10  25  44  72 103 140 187 231 282 348 413
#
# _framework density 23.011019000000001
#
# number of rings (size 3 to 8) (size 9 to 14) (size 15 to 20)
#    1.000    0.333    3.333    1.000    4.667    2.667 
#    0.000    1.667    0.000    0.000    0.000    0.000 
#    0.000    0.000    0.000    0.000    0.000    0.000 
#
# Total GULP energy -66933.321956 kJ/mol
# GULP energy per Si atom -5577.776830 kJ/mol
# Density = 2.295864 g / cm^3
# Si number density = 23.011019 Si / 1000 Ang^3
#
#
#
# Elastic Constant Matrix: (Units=GPa)
#
#
# Indices 1 2 3 4 5 6 
#
# 1 148.1304 88.3440 40.6585 -8.3577 -22.8392 -18.2474
# 2 88.3440 83.7708 38.4998 -15.5882 -9.1414 -16.1221
# 3 40.6585 38.4998 146.4507 -8.2209 -1.1939 0.3680
# 4 -8.3577 -15.5882 -8.2209 54.5106 -4.9239 -12.3950
# 5 -22.8392 -9.1414 -1.1939 -4.9239 19.4492 2.1255
# 6 -18.2474 -16.1221 0.3680 -12.3950 2.1255 53.9704
#
#
#
# Elastic Compliance Matrix: (Units=1/GPa)
#
#
# Indices 1 2 3 4 5 6 
#
# 1 0.022096 -0.021723 -0.000382 -0.001488 0.015333 0.000039
# 2 -0.021723 0.038574 -0.003728 0.008002 -0.006269 0.006289
# 3 -0.000382 -0.003728 0.007882 -0.000387 -0.001671 -0.001320
# 4 -0.001488 0.008002 -0.000387 0.022518 0.006949 0.006788
# 5 0.015333 -0.006269 -0.001671 0.006949 0.067886 0.002245
# 6 0.000039 0.006289 -0.001320 0.006788 0.002245 0.021900
#
#
# Mechanical properties :
#
#
# Convention : Reuss Voigt Hill
#
# Bulk Modulus (GPa) = 59.21692 79.26184 69.23938
# Shear Modulus (GPa) = 20.99510 39.64267 30.31889
#
# Velocity S-wave (km/s) = 3.02386 4.15513 3.63379
# Velocity P-wave (km/s) = 6.16293 7.58552 6.91092
#
# Compressibility (1/GPa) = 0.01688707
#
# Stress axis : x y z
#
# Youngs Moduli (GPa) = 45.25721 25.92397 126.86631
#
# Poissons Ratio (x) = 0.56314 0.04852
# Poissons Ratio (y) = 0.98311 0.47290
# Poissons Ratio (z) = 0.01731 0.09663
#
# Static dielectric constant tensor:
#      x y z
#    x 1.898420 -0.022270 0.004700 
#    y -0.022270 1.838990 0.057390 
#    z 0.004700 0.057390 1.951660 
# 
# From -- ./inp_files/395050.got.cif
#   From: 2010.05.17/outbox.cif.g08.bks.cpg/sg2_198_cif.got.tgz:395050.got - 2010.06.03 11:33:40.
