data_PCOD9047044
_publ_section_title
;
Structure prediction by ZEFSAII (Michael W. Deem and Ramdas Pophale) SiO2 
 PCOD9047044
Probable space group: P -1
;
_chemical_formula_sum "Si O2"
_cell_formula_units_Z 16
_cell_length_a 8.373009
_cell_length_b 20.291712
_cell_length_c 5.513118
_cell_angle_alpha 77.674491
_cell_angle_beta 118.267483
_cell_angle_gamma 126.249733
_cell_volume 662.381905
_symmetry_space_group_name_H-M "P -1"
_symmetry_group_IT_number 2
_symmetry_cell_setting 'triclinic'
loop_
_space_group_symop_operation_xyz
x,y,z
-x,-y,-z
loop_
_atom_site_type_symbol
_atom_site_label
_atom_site_fract_x
_atom_site_fract_y
_atom_site_fract_z
Si Si1 0.167091 0.241314 0.994887
Si Si2 0.221027 0.784324 0.959517
Si Si3 0.883673 0.348111 0.366222
Si Si4 0.633933 0.577096 0.212795
Si Si5 0.730816 0.060611 0.252114
Si Si6 0.540673 0.263682 0.564969
Si Si7 0.059261 0.934561 0.110820
Si Si8 0.255109 0.573208 0.114785
O O1 0.314983 0.245786 0.320722
O O2 0.934839 0.221205 0.935148
O O3 0.287918 0.330791 0.888227
O O4 0.118069 0.162325 0.872557
O O5 0.088140 0.695852 0.806420
O O6 0.252683 0.855584 0.759914
O O7 0.448097 0.797350 0.197980
O O8 0.701695 0.273850 0.458431
O O9 0.131900 0.409899 0.585618
O O10 0.756640 0.390016 0.178804
O O11 0.440478 0.555438 0.281645
O O12 0.500000 0.500000 0.000000
O O13 0.770003 0.035256 0.562404
O O14 0.886362 0.071617 0.128629
O O15 0.500000 0.000000 0.000000
O O16 0.674190 0.353939 0.707167
O O17 0.000000 0.000000 0.000000
O O18 0.000000 0.500000 0.000000
#
# Coordination Sequence:
#
# PCOD9047044 Si02
#       8
#     2   2   2   2   2   2   2   2
#     4  11  24  45  70 100 143 177 241 292 359 433
#     4  10  24  43  70  99 137 182 234 290 360 426
#     4  11  23  43  67  92 133 175 233 290 351 429
#     4  12  25  41  69  95 133 185 226 293 358 420
#     4  11  25  46  75 109 151 190 242 299 367 444
#     4  11  23  42  68  98 131 185 233 294 361 424
#     4  11  26  48  75 111 149 193 240 305 368 436
#     4  11  26  42  62  97 133 177 237 293 356 431
#
# _framework density 24.155249999999999
#
# number of rings (size 3 to 8) (size 9 to 14) (size 15 to 20)
#    0.000    1.000    2.500    3.000    7.000    3.500 
#    0.000    0.000    0.000    0.000    0.000    0.000 
#    0.000    0.000    0.000    0.000    0.000    0.000 
#
# Total GULP energy -89182.129205 kJ/mol
# GULP energy per Si atom -5573.883075 kJ/mol
# Density = 2.410027 g / cm^3
# Si number density = 24.155250 Si / 1000 Ang^3
#
#
#
# Elastic Constant Matrix: (Units=GPa)
#
#
# Indices 1 2 3 4 5 6 
#
# 1 63.5751 15.4988 1.2291 -7.0181 4.6140 -16.6580
# 2 15.4988 77.0113 17.0132 13.4758 9.0122 -15.3864
# 3 1.2291 17.0132 113.5740 -3.4059 26.4829 -10.3184
# 4 -7.0181 13.4758 -3.4059 39.4840 -4.0612 -1.0716
# 5 4.6140 9.0122 26.4829 -4.0612 36.3343 4.6013
# 6 -16.6580 -15.3864 -10.3184 -1.0716 4.6013 26.3806
#
#
#
# Elastic Compliance Matrix: (Units=1/GPa)
#
#
# Indices 1 2 3 4 5 6 
#
# 1 0.020773 -0.002130 0.002770 0.004484 -0.005411 0.014084
# 2 -0.002130 0.017159 -0.000664 -0.006600 -0.005388 0.009075
# 3 0.002770 -0.000664 0.011871 0.000954 -0.009712 0.007737
# 4 0.004484 -0.006600 0.000954 0.028827 0.003607 -0.000103
# 5 -0.005411 -0.005388 -0.009712 0.003607 0.039187 -0.017047
# 6 0.014084 0.009075 0.007737 -0.000103 -0.017047 0.058088
#
#
# Mechanical properties :
#
#
# Convention : Reuss Voigt Hill
#
# Bulk Modulus (GPa) = 20.09882 35.73806 27.91844
# Shear Modulus (GPa) = 25.96881 35.13441 30.55161
#
# Velocity S-wave (km/s) = 3.28240 3.81796 3.56026
# Velocity P-wave (km/s) = 4.76490 5.85346 5.33701
#
# Compressibility (1/GPa) = 0.04975416
#
# Stress axis : x y z
#
# Youngs Moduli (GPa) = 48.13889 58.27785 84.24153
#
# Poissons Ratio (x) = 0.12414 -0.23335
# Poissons Ratio (y) = 0.10254 0.05597
# Poissons Ratio (z) = -0.13335 0.03872
#
# Static dielectric constant tensor:
#      x y z
#    x 2.597730 0.213750 -0.291330 
#    y 0.213750 2.076130 -0.140950 
#    z -0.291330 -0.140950 2.096810 
# 
# From -- ./inp_files/47083.got.cif
#   From: 2010.05.17/outbox.cif.g08.bks.cpg/sg2_24_cif.got.tgz:47083.got - 2010.06.03 11:33:40.
