data_PCOD9047418
_publ_section_title
;
Structure prediction by ZEFSAII (Michael W. Deem and Ramdas Pophale) SiO2 
 PCOD9047418
Probable space group: P -1
;
_chemical_formula_sum "Si O2"
_cell_formula_units_Z 14
_cell_length_a 14.733618
_cell_length_b 8.322007
_cell_length_c 14.050160
_cell_angle_alpha 112.624710
_cell_angle_beta 28.892414
_cell_angle_gamma 131.190643
_cell_volume 532.028689
_symmetry_space_group_name_H-M "P -1"
_symmetry_group_IT_number 2
_symmetry_cell_setting 'triclinic'
loop_
_space_group_symop_operation_xyz
x,y,z
-x,-y,-z
loop_
_atom_site_type_symbol
_atom_site_label
_atom_site_fract_x
_atom_site_fract_y
_atom_site_fract_z
Si Si1 0.717858 0.031456 0.749059
Si Si2 0.241207 0.000512 0.507642
Si Si3 0.702808 0.429465 0.326787
Si Si4 0.249656 0.609146 0.395209
Si Si5 0.580919 0.659053 0.263727
Si Si6 0.304788 0.203267 0.101266
Si Si7 0.944791 0.237609 0.096274
O O1 0.638513 0.904646 0.689241
O O2 0.977391 0.326128 0.552603
O O3 0.778916 0.925548 0.748391
O O4 0.500000 0.000000 0.000000
O O5 0.179517 0.755013 0.527517
O O6 0.960490 0.919517 0.742309
O O7 0.461556 0.196803 0.429002
O O8 0.595340 0.495906 0.516094
O O9 0.826875 0.347627 0.251195
O O10 0.929208 0.656503 0.100970
O O11 0.385712 0.572115 0.338166
O O12 0.495418 0.794752 0.136606
O O13 0.814827 0.674462 0.038830
O O14 0.728938 0.939633 0.219064
O O15 0.500000 0.500000 0.000000
#
# Coordination Sequence:
#
# PCOD9047418 Si02
#       7
#     2   2   2   2   2   2   2
#     4  12  26  49  74 103 142 183 232 291 358 411
#     4  12  26  46  72 105 144 185 236 286 351 419
#     4  11  25  44  69 103 142 182 231 285 342 412
#     4  12  27  47  72 107 141 188 231 292 349 415
#     4  11  25  44  71 101 141 182 233 281 347 407
#     4  12  27  47  73 101 144 184 237 289 346 421
#     4  10  24  44  66  98 141 183 233 280 340 409
#
# _framework density 26.314367000000001
#
# number of rings (size 3 to 8) (size 9 to 14) (size 15 to 20)
#    0.000    0.571    4.286    2.571    6.000    3.429 
#    0.000    0.000    0.000    0.000    0.000    0.000 
#    0.000    0.000    0.000    0.000    0.000    0.000 
#
# Total GULP energy -78537.438869 kJ/mol
# GULP energy per Si atom -5609.817062 kJ/mol
# Density = 2.625447 g / cm^3
# Si number density = 26.314367 Si / 1000 Ang^3
#
#
#
# Elastic Constant Matrix: (Units=GPa)
#
#
# Indices 1 2 3 4 5 6 
#
# 1 154.0040 18.9567 44.7083 10.5283 -5.3666 -4.1781
# 2 18.9567 61.3378 25.4433 -6.1812 -2.7322 -21.7437
# 3 44.7083 25.4433 152.8448 11.3568 -7.5532 3.6949
# 4 10.5283 -6.1812 11.3568 38.9006 -15.6006 1.0611
# 5 -5.3666 -2.7322 -7.5532 -15.6006 47.9725 6.4552
# 6 -4.1781 -21.7437 3.6949 1.0611 6.4552 46.9969
#
#
#
# Elastic Compliance Matrix: (Units=1/GPa)
#
#
# Indices 1 2 3 4 5 6 
#
# 1 0.007327 -0.001716 -0.001732 -0.001811 -0.000147 0.000055
# 2 -0.001716 0.022703 -0.003880 0.005237 0.000790 0.010429
# 3 -0.001732 -0.003880 0.007945 -0.002210 0.000466 -0.002588
# 4 -0.001811 0.005237 -0.002210 0.031675 0.010002 0.000347
# 5 -0.000147 0.000790 0.000466 0.010002 0.024643 -0.003295
# 6 0.000055 0.010429 -0.002588 0.000347 -0.003295 0.026756
#
#
# Mechanical properties :
#
#
# Convention : Reuss Voigt Hill
#
# Bulk Modulus (GPa) = 42.88033 60.71143 51.79588
# Shear Modulus (GPa) = 34.84864 45.37922 40.11393
#
# Velocity S-wave (km/s) = 3.64307 4.15722 3.90861
# Velocity P-wave (km/s) = 5.83324 6.79448 6.33213
#
# Compressibility (1/GPa) = 0.02332072
#
# Stress axis : x y z
#
# Youngs Moduli (GPa) = 136.47356 44.04759 125.87005
#
# Poissons Ratio (x) = 0.07558 0.21798
# Poissons Ratio (y) = 0.23416 0.48831
# Poissons Ratio (z) = 0.23634 0.17088
#
# Static dielectric constant tensor:
#      x y z
#    x 2.084210 -0.052070 0.031680 
#    y -0.052070 2.017250 0.044460 
#    z 0.031680 0.044460 2.068170 
# 
# From -- ./inp_files/529594.got.cif
#   From: 2010.05.17/outbox.cif.g08.bks.cpg/sg2_265_cif.got.tgz:529594.got - 2010.06.03 11:33:40.
