data_PCOD9047917
_publ_section_title
;
Structure prediction by ZEFSAII (Michael W. Deem and Ramdas Pophale) SiO2 
 PCOD9047917
Probable space group: P -1
;
_chemical_formula_sum "Si O2"
_cell_formula_units_Z 13
_cell_length_a 8.732931
_cell_length_b 7.402616
_cell_length_c 14.206329
_cell_angle_alpha 133.391275
_cell_angle_beta 52.204664
_cell_angle_gamma 105.605943
_cell_volume 508.554478
_symmetry_space_group_name_H-M "P -1"
_symmetry_group_IT_number 2
_symmetry_cell_setting 'triclinic'
loop_
_space_group_symop_operation_xyz
x,y,z
-x,-y,-z
loop_
_atom_site_type_symbol
_atom_site_label
_atom_site_fract_x
_atom_site_fract_y
_atom_site_fract_z
Si Si1 0.500000 0.500000 0.500000
Si Si2 0.398068 0.083065 0.287547
Si Si3 0.124766 0.266301 0.809102
Si Si4 0.060940 0.832433 0.819373
Si Si5 0.630073 0.764372 0.928537
Si Si6 0.438832 0.731930 0.321099
Si Si7 0.013886 0.976151 0.598661
O O1 0.449460 0.350922 0.371354
O O2 0.257638 0.593894 0.656000
O O3 0.182405 0.110669 0.332759
O O4 0.412306 0.983006 0.353915
O O5 0.556975 0.856819 0.093500
O O6 0.349620 0.291197 0.717590
O O7 0.118761 0.024068 0.789962
O O8 0.009385 0.240425 0.747457
O O9 0.000000 0.500000 0.000000
O O10 0.864736 0.747513 0.829893
O O11 0.000000 0.000000 0.000000
O O12 0.570338 0.510899 0.826192
O O13 0.500000 0.000000 0.000000
O O14 0.231699 0.797971 0.480116
O O15 0.000000 0.000000 0.500000
#
# Coordination Sequence:
#
# PCOD9047917 Si02
#       7
#     1   2   2   2   2   2   2
#     4  12  24  46  74 106 154 192 260 304 378 450
#     4  11  23  45  71 104 142 198 245 302 371 453
#     4  12  25  47  75 110 150 196 256 314 379 464
#     4  12  26  48  74 112 155 204 251 315 388 452
#     4  12  25  45  70 111 150 193 245 315 384 447
#     4  11  23  45  71 103 142 194 248 302 371 448
#     4  10  24  44  71 109 146 189 253 310 380 444
#
# _framework density 25.562646999999998
#
# number of rings (size 3 to 8) (size 9 to 14) (size 15 to 20)
#    0.000    0.615    3.077    4.615    0.000    7.385 
#    8.308    3.077    0.000    0.000    0.000    0.000 
#    0.000    0.000    0.000    0.000    0.000    0.000 
#
# Total GULP energy -72558.232168 kJ/mol
# GULP energy per Si atom -5581.402474 kJ/mol
# Density = 2.550447 g / cm^3
# Si number density = 25.562647 Si / 1000 Ang^3
#
#
#
# Elastic Constant Matrix: (Units=GPa)
#
#
# Indices 1 2 3 4 5 6 
#
# 1 183.0259 49.0837 52.2245 -15.5082 -8.2833 60.4450
# 2 49.0837 76.8266 12.1205 -5.2024 -8.7177 7.5682
# 3 52.2245 12.1205 142.9429 -11.7068 10.6705 18.3276
# 4 -15.5082 -5.2024 -11.7068 21.3901 14.7308 -10.3677
# 5 -8.2833 -8.7177 10.6705 14.7308 65.1544 -8.8960
# 6 60.4450 7.5682 18.3276 -10.3677 -8.8960 53.5060
#
#
#
# Elastic Compliance Matrix: (Units=1/GPa)
#
#
# Indices 1 2 3 4 5 6 
#
# 1 0.011401 -0.005869 -0.002111 0.000674 -0.000687 -0.011310
# 2 -0.005869 0.016563 0.000050 0.000765 0.001936 0.004741
# 3 -0.002111 0.000050 0.008374 0.004968 -0.002754 0.000014
# 4 0.000674 0.000765 0.004968 0.063317 -0.013933 0.007381
# 5 -0.000687 0.001936 -0.002754 -0.013933 0.019390 0.001969
# 6 -0.011310 0.004741 0.000014 0.007381 0.001969 0.032549
#
#
# Mechanical properties :
#
#
# Convention : Reuss Voigt Hill
#
# Bulk Modulus (GPa) = 48.83486 69.96142 59.39814
# Shear Modulus (GPa) = 28.68949 47.30121 37.99535
#
# Velocity S-wave (km/s) = 3.35374 4.30630 3.85952
# Velocity P-wave (km/s) = 5.84313 7.22175 6.56871
#
# Compressibility (1/GPa) = 0.02047718
#
# Stress axis : x y z
#
# Youngs Moduli (GPa) = 87.70817 60.37663 119.42408
#
# Poissons Ratio (x) = 0.35437 0.25213
# Poissons Ratio (y) = 0.51478 -0.00600
# Poissons Ratio (z) = 0.18517 -0.00303
#
# Static dielectric constant tensor:
#      x y z
#    x 2.034920 0.009220 0.064810 
#    y 0.009220 2.180140 0.047120 
#    z 0.064810 0.047120 2.124710 
# 
# From -- ./inp_files/183497.got.cif
#   From: 2010.05.17/outbox.cif.g08.bks.cpg/sg2_92_cif.got.tgz:183497.got - 2010.06.03 11:33:40.
