data_PCOD9047890
_publ_section_title
;
Structure prediction by ZEFSAII (Michael W. Deem and Ramdas Pophale) SiO2 
 PCOD9047890
Probable space group: P -1
;
_chemical_formula_sum "Si O2"
_cell_formula_units_Z 14
_cell_length_a 13.297378
_cell_length_b 8.208472
_cell_length_c 14.350192
_cell_angle_alpha 44.880372
_cell_angle_beta 137.014773
_cell_angle_gamma 145.295417
_cell_volume 584.388733
_symmetry_space_group_name_H-M "P -1"
_symmetry_group_IT_number 2
_symmetry_cell_setting 'triclinic'
loop_
_space_group_symop_operation_xyz
x,y,z
-x,-y,-z
loop_
_atom_site_type_symbol
_atom_site_label
_atom_site_fract_x
_atom_site_fract_y
_atom_site_fract_z
Si Si1 0.856183 0.087463 0.126448
Si Si2 0.015541 0.599457 0.579322
Si Si3 0.127888 0.241538 0.906036
Si Si4 0.462941 0.534040 0.143973
Si Si5 0.394710 0.162399 0.596631
Si Si6 0.377577 0.771390 0.588383
Si Si7 0.257534 0.535225 0.174732
O O1 0.840779 0.914390 0.092260
O O2 0.674142 0.849185 0.163005
O O3 0.081601 0.274084 0.225220
O O4 0.825452 0.328500 0.991120
O O5 0.040240 0.388272 0.742105
O O6 0.000000 0.500000 0.500000
O O7 0.807921 0.506984 0.477968
O O8 0.182495 0.940078 0.584534
O O9 0.329876 0.498827 0.986495
O O10 0.000000 0.000000 0.000000
O O11 0.508948 0.313646 0.247012
O O12 0.342030 0.440246 0.195135
O O13 0.500000 0.500000 0.500000
O O14 0.556709 0.202566 0.751130
O O15 0.353045 0.959226 0.564147
O O16 0.500000 0.000000 0.500000
#
# Coordination Sequence:
#
# PCOD9047890 Si02
#       7
#     2   2   2   2   2   2   2
#     4  11  24  42  69 100 141 185 232 301 369 424
#     4  10  24  44  71 104 142 192 243 291 367 444
#     4  12  23  43  76 106 143 191 254 306 360 442
#     4  12  24  44  74 101 141 190 249 295 364 438
#     4  11  24  43  71  98 149 190 239 304 368 434
#     4  11  24  45  70 106 140 190 248 302 360 444
#     4  11  25  44  64 105 148 180 235 304 371 428
#
# _framework density 23.956655999999999
#
# number of rings (size 3 to 8) (size 9 to 14) (size 15 to 20)
#    0.000    0.857    1.429    6.000    6.000    0.000 
#    2.571    1.429    0.000    0.000    0.000    0.000 
#    0.000    0.000    0.000    0.000    0.000    0.000 
#
# Total GULP energy -78066.458019 kJ/mol
# GULP energy per Si atom -5576.175573 kJ/mol
# Density = 2.390213 g / cm^3
# Si number density = 23.956656 Si / 1000 Ang^3
#
#
#
# Elastic Constant Matrix: (Units=GPa)
#
#
# Indices 1 2 3 4 5 6 
#
# 1 45.2187 35.7881 10.8292 8.8331 18.2496 16.7521
# 2 35.7881 141.8175 31.2500 32.9442 9.6384 17.7226
# 3 10.8292 31.2500 108.7602 3.2339 6.7839 10.5192
# 4 8.8331 32.9442 3.2339 46.1728 -4.4816 15.3351
# 5 18.2496 9.6384 6.7839 -4.4816 22.4340 0.0997
# 6 16.7521 17.7226 10.5192 15.3351 0.0997 28.6634
#
#
#
# Elastic Compliance Matrix: (Units=1/GPa)
#
#
# Indices 1 2 3 4 5 6 
#
# 1 0.055354 -0.008156 0.002162 0.000351 -0.041984 -0.028143
# 2 -0.008156 0.010780 -0.002421 -0.006676 0.001391 0.002557
# 3 0.002162 -0.002421 0.010270 0.001738 -0.003457 -0.004453
# 4 0.000351 -0.006676 0.001738 0.031580 0.008427 -0.013640
# 5 -0.041984 0.001391 -0.003457 0.008427 0.080770 0.020157
# 6 -0.028143 0.002557 -0.004453 -0.013640 0.020157 0.058617
#
#
# Mechanical properties :
#
#
# Convention : Reuss Voigt Hill
#
# Bulk Modulus (GPa) = 16.78597 50.17009 33.47803
# Shear Modulus (GPa) = 17.60210 33.98264 25.79237
#
# Velocity S-wave (km/s) = 2.71356 3.77039 3.28476
# Velocity P-wave (km/s) = 4.10365 6.31996 5.32831
#
# Compressibility (1/GPa) = 0.05957354
#
# Stress axis : x y z
#
# Youngs Moduli (GPa) = 18.06559 92.76692 97.37561
#
# Poissons Ratio (x) = 0.75663 -0.21055
# Poissons Ratio (y) = 0.14735 0.23572
# Poissons Ratio (z) = -0.03906 0.22457
#
# Static dielectric constant tensor:
#      x y z
#    x 1.423910 -0.303390 0.102020 
#    y -0.303390 1.685370 0.064210 
#    z 0.102020 0.064210 1.935060 
# 
# From -- ./inp_files/227912.got.cif
#   From: 2010.05.17/outbox.cif.g08.bks.cpg/sg2_114_cif.got.tgz:227912.got - 2010.06.03 11:33:40.
