data_PCOD9047796
_publ_section_title
;
Structure prediction by ZEFSAII (Michael W. Deem and Ramdas Pophale) SiO2 
 PCOD9047796
Probable space group: P -1
;
_chemical_formula_sum "Si O2"
_cell_formula_units_Z 16
_cell_length_a 5.415002
_cell_length_b 12.707253
_cell_length_c 14.818528
_cell_angle_alpha 48.742128
_cell_angle_beta 66.964135
_cell_angle_gamma 92.657245
_cell_volume 633.445627
_symmetry_space_group_name_H-M "P -1"
_symmetry_group_IT_number 2
_symmetry_cell_setting 'triclinic'
loop_
_space_group_symop_operation_xyz
x,y,z
-x,-y,-z
loop_
_atom_site_type_symbol
_atom_site_label
_atom_site_fract_x
_atom_site_fract_y
_atom_site_fract_z
Si Si1 0.326393 0.009822 0.428598
Si Si2 0.652977 0.846566 0.398163
Si Si3 0.750482 0.276599 0.742742
Si Si4 0.655561 0.547147 0.547506
Si Si5 0.199266 0.156299 0.211193
Si Si6 0.856579 0.553411 0.908881
Si Si7 0.762777 0.292970 0.940175
Si Si8 0.237178 0.013904 0.884031
O O1 0.367230 0.878803 0.438142
O O2 0.500000 0.000000 0.500000
O O3 0.419519 0.151288 0.262431
O O4 0.000000 0.000000 0.500000
O O5 0.581047 0.673843 0.536269
O O6 0.729841 0.869856 0.267986
O O7 0.944078 0.984269 0.323249
O O8 0.585102 0.389499 0.699070
O O9 0.842117 0.290853 0.825425
O O10 0.552265 0.099760 0.842192
O O11 0.998759 0.353024 0.587037
O O12 0.500000 0.500000 0.500000
O O13 0.039711 0.261986 0.207493
O O14 0.410021 0.226943 0.053841
O O15 0.904729 0.464025 0.866537
O O16 0.500000 0.500000 0.000000
O O17 0.000000 0.500000 0.000000
O O18 0.832848 0.155513 0.048236
O O19 0.000000 0.000000 0.000000
#
# Coordination Sequence:
#
# PCOD9047796 Si02
#       8
#     2   2   2   2   2   2   2   2
#     4  12  27  48  72 108 147 196 265 314 376 458
#     4  12  24  45  79 106 145 207 247 317 395 450
#     4  11  25  44  71 110 151 200 254 308 383 466
#     4  11  25  48  69 100 157 199 254 313 373 468
#     4  11  24  47  78 108 152 191 255 321 391 460
#     4  10  24  44  70 105 149 190 237 301 380 455
#     4  11  23  44  71 108 146 193 243 313 388 451
#     4  12  23  41  75 111 156 190 251 309 381 472
#
# _framework density 25.258676999999999
#
# number of rings (size 3 to 8) (size 9 to 14) (size 15 to 20)
#    0.000    0.750    3.750    3.375    1.750    2.000 
#    2.250    0.000    0.000    0.000    0.000    0.000 
#    0.000    0.000    0.000    0.000    0.000    0.000 
#
# Total GULP energy -89375.105116 kJ/mol
# GULP energy per Si atom -5585.944070 kJ/mol
# Density = 2.520119 g / cm^3
# Si number density = 25.258677 Si / 1000 Ang^3
#
#
#
# Elastic Constant Matrix: (Units=GPa)
#
#
# Indices 1 2 3 4 5 6 
#
# 1 111.0609 34.8446 25.7534 -6.4191 15.1118 -7.7281
# 2 34.8446 139.2556 26.1726 -20.6774 4.5402 -19.0037
# 3 25.7534 26.1726 62.8992 2.1567 9.4684 -9.9361
# 4 -6.4191 -20.6774 2.1567 55.8122 -11.8123 8.3489
# 5 15.1118 4.5402 9.4684 -11.8123 50.9799 0.6243
# 6 -7.7281 -19.0037 -9.9361 8.3489 0.6243 46.9805
#
#
#
# Elastic Compliance Matrix: (Units=1/GPa)
#
#
# Indices 1 2 3 4 5 6 
#
# 1 0.010702 -0.001951 -0.003161 0.000075 -0.002398 0.000321
# 2 -0.001951 0.008916 -0.002832 0.003082 0.000998 0.002126
# 3 -0.003161 -0.002832 0.019457 -0.003309 -0.003229 0.003081
# 4 0.000075 0.003082 -0.003309 0.020768 0.005169 -0.003200
# 5 -0.002398 0.000998 -0.003229 0.005169 0.022058 -0.001885
# 6 0.000321 0.002126 0.003081 -0.003200 -0.001885 0.023444
#
#
# Mechanical properties :
#
#
# Convention : Reuss Voigt Hill
#
# Bulk Modulus (GPa) = 43.12330 54.08410 48.60370
# Shear Modulus (GPa) = 38.77128 45.85088 42.31108
#
# Velocity S-wave (km/s) = 3.92212 4.26520 4.09725
# Velocity P-wave (km/s) = 6.13355 6.76125 6.45503
#
# Compressibility (1/GPa) = 0.02318932
#
# Stress axis : x y z
#
# Youngs Moduli (GPa) = 93.44008 112.15182 51.39530
#
# Poissons Ratio (x) = 0.21877 0.16246
# Poissons Ratio (y) = 0.18227 0.14553
# Poissons Ratio (z) = 0.29536 0.31756
#
# Static dielectric constant tensor:
#      x y z
#    x 4.005320 0.613620 -2.454990 
#    y 0.613620 2.238380 -0.804350 
#    z -2.454990 -0.804350 5.225060 
# 
# From -- ./inp_files/482613.got.cif
#   From: 2010.05.17/outbox.cif.g08.bks.cpg/sg2_242_cif.got.tgz:482613.got - 2010.06.03 11:33:40.
