data_PCOD9047804
_publ_section_title
;
Structure prediction by ZEFSAII (Michael W. Deem and Ramdas Pophale) SiO2 
 PCOD9047804
Probable space group: P -1
;
_chemical_formula_sum "Si O2"
_cell_formula_units_Z 12
_cell_length_a 7.166476
_cell_length_b 13.094486
_cell_length_c 7.288829
_cell_angle_alpha 136.437111
_cell_angle_beta 83.395676
_cell_angle_gamma 103.117062
_cell_volume 457.828461
_symmetry_space_group_name_H-M "P -1"
_symmetry_group_IT_number 2
_symmetry_cell_setting 'triclinic'
loop_
_space_group_symop_operation_xyz
x,y,z
-x,-y,-z
loop_
_atom_site_type_symbol
_atom_site_label
_atom_site_fract_x
_atom_site_fract_y
_atom_site_fract_z
Si Si1 0.069371 0.361467 0.491780
Si Si2 0.465558 0.019408 0.309803
Si Si3 0.614012 0.448754 0.122376
Si Si4 0.654419 0.350958 0.594896
Si Si5 0.292857 0.192288 0.972417
Si Si6 0.951121 0.946628 0.724467
O O1 0.190808 0.523895 0.751202
O O2 0.172899 0.295319 0.227840
O O3 0.061931 0.234492 0.492619
O O4 0.851385 0.369268 0.490753
O O5 0.588595 0.179283 0.440742
O O6 0.247724 0.015489 0.271224
O O7 0.500000 0.000000 0.500000
O O8 0.561456 0.890026 0.038425
O O9 0.520395 0.585972 0.387591
O O10 0.443908 0.302513 0.971514
O O11 0.681518 0.451476 0.908905
O O12 0.129782 0.051654 0.734503
O O13 0.000000 0.000000 0.000000
#
# Coordination Sequence:
#
# PCOD9047804 Si02
#       6
#     2   2   2   2   2   2
#     4  11  23  43  70 101 139 186 238 295 353 424
#     4  12  24  46  73 108 144 188 237 301 355 424
#     4  11  24  45  66 102 143 187 234 294 359 425
#     4  11  24  43  70 100 141 191 234 290 361 428
#     4  11  25  43  71 108 138 185 242 298 353 422
#     4  10  24  44  70 107 141 185 236 292 356 424
#
# _framework density 26.210688000000001
#
# number of rings (size 3 to 8) (size 9 to 14) (size 15 to 20)
#    0.000    1.000    5.000    1.000    0.000    8.000 
#    6.000    0.000    0.000    0.000    0.000    0.000 
#    0.000    0.000    0.000    0.000    0.000    0.000 
#
# Total GULP energy -67128.016800 kJ/mol
# GULP energy per Si atom -5594.001400 kJ/mol
# Density = 2.615103 g / cm^3
# Si number density = 26.210688 Si / 1000 Ang^3
#
#
#
# Elastic Constant Matrix: (Units=GPa)
#
#
# Indices 1 2 3 4 5 6 
#
# 1 175.4326 56.5748 33.6460 -11.7135 8.6021 6.6682
# 2 56.5748 99.4680 30.8375 8.6046 11.5662 5.3498
# 3 33.6460 30.8375 73.4264 -8.8354 -16.2865 -0.1466
# 4 -11.7135 8.6046 -8.8354 33.2757 -3.0795 -5.5288
# 5 8.6021 11.5662 -16.2865 -3.0795 42.0912 7.3123
# 6 6.6682 5.3498 -0.1466 -5.5288 7.3123 46.5685
#
#
#
# Elastic Compliance Matrix: (Units=1/GPa)
#
#
# Indices 1 2 3 4 5 6 
#
# 1 0.007540 -0.003969 -0.001588 0.003163 -0.000812 -0.000126
# 2 -0.003969 0.016280 -0.007595 -0.008477 -0.007008 -0.001232
# 3 -0.001588 -0.007595 0.020956 0.008056 0.011042 0.000389
# 4 0.003163 -0.008477 0.008056 0.036766 0.006823 0.003840
# 5 -0.000812 -0.007008 0.011042 0.006823 0.031164 -0.003127
# 6 -0.000126 -0.001232 0.000389 0.003840 -0.003127 0.022581
#
#
# Mechanical properties :
#
#
# Convention : Reuss Voigt Hill
#
# Bulk Modulus (GPa) = 54.13667 65.60485 59.87076
# Shear Modulus (GPa) = 29.80618 39.53833 34.67225
#
# Velocity S-wave (km/s) = 3.37586 3.88813 3.64102
# Velocity P-wave (km/s) = 5.99120 6.72613 6.36928
#
# Compressibility (1/GPa) = 0.01847177
#
# Stress axis : x y z
#
# Youngs Moduli (GPa) = 132.61766 61.42462 47.71901
#
# Poissons Ratio (x) = 0.24379 0.07578
# Poissons Ratio (y) = 0.52636 0.36245
# Poissons Ratio (z) = 0.21060 0.46655
#
# Static dielectric constant tensor:
#      x y z
#    x 2.027220 -0.021350 -0.025040 
#    y -0.021350 2.168270 -0.020920 
#    z -0.025040 -0.020920 2.084820 
# 
# From -- ./inp_files/69540.got.cif
#   From: 2010.05.17/outbox.cif.g08.bks.cpg/sg2_35_cif.got.tgz:69540.got - 2010.06.03 11:33:40.
