data_PCOD9047651
_publ_section_title
;
Structure prediction by ZEFSAII (Michael W. Deem and Ramdas Pophale) SiO2 
 PCOD9047651
Probable space group: P -1
;
_chemical_formula_sum "Si O2"
_cell_formula_units_Z 16
_cell_length_a 7.784838
_cell_length_b 5.405002
_cell_length_c 15.243567
_cell_angle_alpha 76.179919
_cell_angle_beta 88.707613
_cell_angle_gamma 82.777046
_cell_volume 617.875098
_symmetry_space_group_name_H-M "P -1"
_symmetry_group_IT_number 2
_symmetry_cell_setting 'triclinic'
loop_
_space_group_symop_operation_xyz
x,y,z
-x,-y,-z
loop_
_atom_site_type_symbol
_atom_site_label
_atom_site_fract_x
_atom_site_fract_y
_atom_site_fract_z
Si Si1 0.697183 0.274971 0.308688
Si Si2 0.028187 0.617138 0.226469
Si Si3 0.811286 0.131548 0.132774
Si Si4 0.133995 0.516431 0.575998
Si Si5 0.570639 0.017667 0.884646
Si Si6 0.362763 0.686331 0.299590
Si Si7 0.468336 0.150735 0.575556
Si Si8 0.240230 0.539527 0.062461
O O1 0.786093 0.285968 0.212384
O O2 0.819110 0.224180 0.398861
O O3 0.544440 0.509889 0.298373
O O4 0.596243 0.029432 0.333656
O O5 0.205274 0.543854 0.285274
O O6 0.097937 0.498377 0.141635
O O7 0.902373 0.600405 0.315373
O O8 0.962038 0.903448 0.168671
O O9 0.633464 0.005648 0.122834
O O10 0.836638 0.312172 0.035089
O O11 0.000000 0.500000 0.500000
O O12 0.314386 0.376516 0.549899
O O13 0.658771 0.738990 0.938502
O O14 0.647604 0.071462 0.784463
O O15 0.628402 0.264635 0.915560
O O16 0.357863 0.767381 0.392981
O O17 0.500000 0.000000 0.500000
#
# Coordination Sequence:
#
# PCOD9047651 Si02
#       8
#     2   2   2   2   2   2   2   2
#     4  11  24  47  72  98 142 192 238 297 358 436
#     4  11  25  45  66 105 145 185 237 298 370 422
#     4  12  22  46  71 104 144 188 245 299 364 427
#     4  11  27  45  69 107 141 183 235 300 369 432
#     4  11  23  46  71 105 142 195 248 298 353 433
#     4  10  24  44  69 100 140 186 237 298 357 435
#     4  11  25  44  72  99 132 187 241 291 365 430
#     4  11  27  44  74 106 146 197 246 297 364 436
#
# _framework density 25.895202999999999
#
# number of rings (size 3 to 8) (size 9 to 14) (size 15 to 20)
#    0.000    1.000    2.500    3.375    3.500    6.500 
#    0.000    3.750    0.000    0.000    0.000    0.000 
#    0.000    0.000    0.000    0.000    0.000    0.000 
#
# Total GULP energy -89256.759792 kJ/mol
# GULP energy per Si atom -5578.547487 kJ/mol
# Density = 2.583626 g / cm^3
# Si number density = 25.895203 Si / 1000 Ang^3
#
#
#
# Elastic Constant Matrix: (Units=GPa)
#
#
# Indices 1 2 3 4 5 6 
#
# 1 63.1604 -7.4699 13.7218 9.6126 6.8147 -10.2581
# 2 -7.4699 50.8383 0.7775 -12.6479 -0.1864 4.9246
# 3 13.7218 0.7775 134.0109 10.9700 -3.5074 12.1441
# 4 9.6126 -12.6479 10.9700 46.2591 4.9995 1.3606
# 5 6.8147 -0.1864 -3.5074 4.9995 52.9515 -0.5131
# 6 -10.2581 4.9246 12.1441 1.3606 -0.5131 24.9109
#
#
#
# Elastic Compliance Matrix: (Units=1/GPa)
#
#
# Indices 1 2 3 4 5 6 
#
# 1 0.018638 0.001178 -0.002526 -0.002973 -0.002196 0.008791
# 2 0.001178 0.021718 -0.000396 0.005980 -0.000704 -0.003956
# 3 -0.002526 -0.000396 0.008318 -0.001516 0.000970 -0.004914
# 4 -0.002973 0.005980 -0.001516 0.024540 -0.002043 -0.003050
# 5 -0.002196 -0.000704 0.000970 -0.002043 0.019415 -0.000726
# 6 0.008791 -0.003956 -0.004914 -0.003050 -0.000726 0.047092
#
#
# Mechanical properties :
#
#
# Convention : Reuss Voigt Hill
#
# Bulk Modulus (GPa) = 22.13107 29.11872 25.62490
# Shear Modulus (GPa) = 31.59139 40.88966 36.24053
#
# Velocity S-wave (km/s) = 3.49660 3.97803 3.74506
# Velocity P-wave (km/s) = 4.98664 5.68936 5.34955
#
# Compressibility (1/GPa) = 0.04518534
#
# Stress axis : x y z
#
# Youngs Moduli (GPa) = 53.65408 46.04558 120.22371
#
# Poissons Ratio (x) = -0.05424 0.30368
# Poissons Ratio (y) = -0.06320 0.04761
# Poissons Ratio (z) = 0.13553 0.01823
#
# Static dielectric constant tensor:
#      x y z
#    x 2.333560 0.269060 -0.006110 
#    y 0.269060 2.117990 0.030660 
#    z -0.006110 0.030660 2.047300 
# 
# From -- ./inp_files/328326.got.cif
#   From: 2010.05.17/outbox.cif.g08.bks.cpg/sg2_165_cif.got.tgz:328326.got - 2010.06.03 11:33:40.
