data_PCOD9047634
_publ_section_title
;
Structure prediction by ZEFSAII (Michael W. Deem and Ramdas Pophale) SiO2 
 PCOD9047634
Probable space group: P -1
;
_chemical_formula_sum "Si O2"
_cell_formula_units_Z 13
_cell_length_a 14.739423
_cell_length_b 14.676004
_cell_length_c 10.576653
_cell_angle_alpha 46.324370
_cell_angle_beta 135.930044
_cell_angle_gamma 160.508497
_cell_volume 530.102168
_symmetry_space_group_name_H-M "P -1"
_symmetry_group_IT_number 2
_symmetry_cell_setting 'triclinic'
loop_
_space_group_symop_operation_xyz
x,y,z
-x,-y,-z
loop_
_atom_site_type_symbol
_atom_site_label
_atom_site_fract_x
_atom_site_fract_y
_atom_site_fract_z
Si Si1 0.724614 0.516625 0.621471
Si Si2 0.409106 0.513764 0.746829
Si Si3 0.000000 0.000000 0.000000
Si Si4 0.277569 0.762731 0.107739
Si Si5 0.194543 0.057056 0.694940
Si Si6 0.856613 0.512928 0.313741
Si Si7 0.278207 0.985390 0.092960
O O1 0.654435 0.547153 0.406691
O O2 0.656007 0.318094 0.694905
O O3 0.513032 0.351432 0.685496
O O4 0.042299 0.809153 0.708147
O O5 0.268468 0.520088 0.660264
O O6 0.744443 0.804044 0.826818
O O7 0.248289 0.264699 0.897663
O O8 0.250099 0.834744 0.126676
O O9 0.000000 0.500000 0.000000
O O10 0.500000 0.000000 0.000000
O O11 0.000000 0.000000 0.500000
O O12 0.194718 0.021500 0.875795
O O13 0.000000 0.500000 0.500000
O O14 0.073556 0.796245 0.190368
O O15 0.595886 0.270056 0.189275
#
# Coordination Sequence:
#
# PCOD9047634 Si02
#       7
#     2   2   1   2   2   2   2
#     4  12  24  45  71 102 137 181 233 291 348 426
#     4  11  25  46  73 101 139 186 244 291 352 410
#     4  10  24  44  68  98 132 184 250 286 334 410
#     4  12  22  42  71  99 140 174 228 283 345 422
#     4  12  27  45  69 105 142 183 233 289 363 421
#     4  12  27  46  71 105 147 186 236 294 359 431
#     4  12  25  45  72 103 147 187 233 290 364 420
#
# _framework density 24.523574
#
# number of rings (size 3 to 8) (size 9 to 14) (size 15 to 20)
#    0.000    0.308    3.077    5.538    0.000    9.846 
#    0.000    0.000    0.000    0.000    0.000    0.000 
#    0.000    0.000    0.000    0.000    0.000    0.000 
#
# Total GULP energy -72603.612056 kJ/mol
# GULP energy per Si atom -5584.893235 kJ/mol
# Density = 2.446776 g / cm^3
# Si number density = 24.523574 Si / 1000 Ang^3
#
#
#
# Elastic Constant Matrix: (Units=GPa)
#
#
# Indices 1 2 3 4 5 6 
#
# 1 82.3535 -1.8161 9.8119 5.6543 -5.9433 -6.8131
# 2 -1.8161 175.6769 42.9565 15.7564 -16.8723 20.7475
# 3 9.8119 42.9565 159.5064 3.7118 -4.6563 6.4393
# 4 5.6543 15.7564 3.7118 46.7887 -0.1684 -1.2802
# 5 -5.9433 -16.8723 -4.6563 -0.1684 35.1337 -2.7037
# 6 -6.8131 20.7475 6.4393 -1.2802 -2.7037 39.7425
#
#
#
# Elastic Compliance Matrix: (Units=1/GPa)
#
#
# Indices 1 2 3 4 5 6 
#
# 1 0.012722 0.000461 -0.000889 -0.001553 0.002417 0.002199
# 2 0.000461 0.006965 -0.001635 -0.002347 0.002951 -0.003167
# 3 -0.000889 -0.001635 0.006776 0.000109 -0.000068 -0.000398
# 4 -0.001553 -0.002347 0.000109 0.022381 -0.001146 0.001584
# 5 0.002417 0.002951 -0.000068 -0.001146 0.030344 0.000912
# 6 0.002199 -0.003167 -0.000398 0.001584 0.000912 0.027370
#
#
# Mechanical properties :
#
#
# Convention : Reuss Voigt Hill
#
# Bulk Modulus (GPa) = 44.77150 57.71572 51.24361
# Shear Modulus (GPa) = 42.32605 48.77194 45.54899
#
# Velocity S-wave (km/s) = 4.15894 4.46441 4.31438
# Velocity P-wave (km/s) = 6.43106 7.08241 6.76458
#
# Compressibility (1/GPa) = 0.02233564
#
# Stress axis : x y z
#
# Youngs Moduli (GPa) = 78.60518 143.57719 147.58052
#
# Poissons Ratio (x) = -0.06613 0.13115
# Poissons Ratio (y) = -0.03620 0.24136
# Poissons Ratio (z) = 0.06985 0.23481
#
# Static dielectric constant tensor:
#      x y z
#    x 1.997690 0.011950 0.043050 
#    y 0.011950 1.900290 -0.058170 
#    z 0.043050 -0.058170 1.929650 
# 
# From -- ./inp_files/313825.got.cif
#   From: 2010.05.17/outbox.cif.g08.bks.cpg/sg2_157_cif.got.tgz:313825.got - 2010.06.03 11:33:40.
