data_PCOD9047203
_publ_section_title
;
Structure prediction by ZEFSAII (Michael W. Deem and Ramdas Pophale) SiO2 
 PCOD9047203
Probable space group: P -1
;
_chemical_formula_sum "Si O2"
_cell_formula_units_Z 12
_cell_length_a 17.774320
_cell_length_b 9.049218
_cell_length_c 11.564350
_cell_angle_alpha 142.246533
_cell_angle_beta 37.552193
_cell_angle_gamma 150.226857
_cell_volume 529.672982
_symmetry_space_group_name_H-M "P -1"
_symmetry_group_IT_number 2
_symmetry_cell_setting 'triclinic'
loop_
_space_group_symop_operation_xyz
x,y,z
-x,-y,-z
loop_
_atom_site_type_symbol
_atom_site_label
_atom_site_fract_x
_atom_site_fract_y
_atom_site_fract_z
Si Si1 0.711849 0.187943 0.085343
Si Si2 0.172977 0.636649 0.695251
Si Si3 0.260775 0.222084 0.375186
Si Si4 0.566686 0.881849 0.505441
Si Si5 0.895789 0.639483 0.946211
Si Si6 0.828058 0.210818 0.583026
O O1 0.815464 0.285183 0.135342
O O2 0.537923 0.043176 0.257522
O O3 0.783204 0.493738 0.106904
O O4 0.715019 0.953333 0.858427
O O5 0.172277 0.346378 0.511239
O O6 0.028200 0.602272 0.794434
O O7 0.334254 0.912228 0.600092
O O8 0.434240 0.522548 0.402026
O O9 0.165096 0.993195 0.458781
O O10 0.701133 0.981944 0.497637
O O11 0.786179 0.396458 0.825057
O O12 0.000000 0.000000 0.000000
O O13 0.000000 0.500000 0.500000
#
# Coordination Sequence:
#
# PCOD9047203 Si02
#       6
#     2   2   2   2   2   2
#     4  10  24  44  68 104 134 180 232 280 339 404
#     4  11  24  44  70 101 139 183 226 278 346 404
#     4  10  24  43  73  97 139 181 227 283 342 399
#     4  11  24  44  70 101 140 180 229 278 344 403
#     4  11  26  44  68 102 139 179 229 285 342 402
#     4  11  24  44  67 102 133 182 230 275 341 404
#
# _framework density 22.655487000000001
#
# number of rings (size 3 to 8) (size 9 to 14) (size 15 to 20)
#    0.000    1.333    1.667    3.000    4.667   12.000 
#    0.000    0.000    0.000    0.000    0.000    0.000 
#    0.000    0.000    0.000    0.000    0.000    0.000 
#
# Total GULP energy -67072.334210 kJ/mol
# GULP energy per Si atom -5589.361184 kJ/mol
# Density = 2.260392 g / cm^3
# Si number density = 22.655487 Si / 1000 Ang^3
#
#
#
# Elastic Constant Matrix: (Units=GPa)
#
#
# Indices 1 2 3 4 5 6 
#
# 1 109.2793 57.7196 51.4051 7.0686 16.3756 -6.4412
# 2 57.7196 134.3638 39.3466 -0.0131 5.0293 -16.7500
# 3 51.4051 39.3466 130.7007 11.1911 22.7975 -0.6260
# 4 7.0686 -0.0131 11.1911 49.3511 -1.3276 3.2005
# 5 16.3756 5.0293 22.7975 -1.3276 38.5508 -7.3615
# 6 -6.4412 -16.7500 -0.6260 3.2005 -7.3615 40.8181
#
#
#
# Elastic Compliance Matrix: (Units=1/GPa)
#
#
# Indices 1 2 3 4 5 6 
#
# 1 0.013860 -0.004921 -0.003259 -0.001314 -0.003440 -0.000399
# 2 -0.004921 0.010444 -0.001705 0.000911 0.002505 0.003863
# 3 -0.003259 -0.001705 0.010474 -0.001926 -0.004998 -0.001804
# 4 -0.001314 0.000911 -0.001926 0.021018 0.002086 -0.001135
# 5 -0.003440 0.002505 -0.004998 0.002086 0.031224 0.005876
# 6 -0.000399 0.003863 -0.001804 -0.001135 0.005876 0.027142
#
#
# Mechanical properties :
#
#
# Convention : Reuss Voigt Hill
#
# Bulk Modulus (GPa) = 66.63250 74.58739 70.60995
# Shear Modulus (GPa) = 35.98826 40.80219 38.39522
#
# Velocity S-wave (km/s) = 3.98992 4.24841 4.12119
# Velocity P-wave (km/s) = 7.12047 7.55375 7.34031
#
# Compressibility (1/GPa) = 0.01500769
#
# Stress axis : x y z
#
# Youngs Moduli (GPa) = 72.15050 95.75315 95.47134
#
# Poissons Ratio (x) = 0.47117 0.31117
# Poissons Ratio (y) = 0.35503 0.16279
# Poissons Ratio (z) = 0.23516 0.16327
#
# Static dielectric constant tensor:
#      x y z
#    x 1.866070 0.025060 0.004080 
#    y 0.025060 1.866640 0.008360 
#    z 0.004080 0.008360 1.876230 
# 
# From -- ./inp_files/181990.got.cif
#   From: 2010.05.17/outbox.cif.g08.bks.cpg/sg2_91_cif.got.tgz:181990.got - 2010.06.03 11:33:40.
