data_PCOD9047498
_publ_section_title
;
Structure prediction by ZEFSAII (Michael W. Deem and Ramdas Pophale) SiO2 
 PCOD9047498
Probable space group: P -1
;
_chemical_formula_sum "Si O2"
_cell_formula_units_Z 16
_cell_length_a 10.772136
_cell_length_b 11.408650
_cell_length_c 11.389888
_cell_angle_alpha 139.314676
_cell_angle_beta 66.049052
_cell_angle_gamma 87.487561
_cell_volume 673.154791
_symmetry_space_group_name_H-M "P -1"
_symmetry_group_IT_number 2
_symmetry_cell_setting 'triclinic'
loop_
_space_group_symop_operation_xyz
x,y,z
-x,-y,-z
loop_
_atom_site_type_symbol
_atom_site_label
_atom_site_fract_x
_atom_site_fract_y
_atom_site_fract_z
Si Si1 0.232708 0.667444 0.695729
Si Si2 0.974141 0.771846 0.269466
Si Si3 0.918489 0.205495 0.506005
Si Si4 0.887448 0.866177 0.862004
Si Si5 0.534218 0.587208 0.935554
Si Si6 0.634752 0.901056 0.586628
Si Si7 0.327423 0.234537 0.265471
Si Si8 0.685683 0.495579 0.196456
O O1 0.345782 0.435616 0.406228
O O2 0.275948 0.601516 0.762804
O O3 0.046416 0.737507 0.789685
O O4 0.230210 0.884738 0.848688
O O5 0.032630 0.713846 0.338830
O O6 0.788052 0.837663 0.395985
O O7 0.137253 0.585239 0.991884
O O8 0.940115 0.994104 0.395665
O O9 0.728704 0.399214 0.689521
O O10 0.035975 0.127617 0.287719
O O11 0.798593 0.750555 0.771565
O O12 0.400800 0.599692 0.909732
O O13 0.500000 0.500000 0.000000
O O14 0.489806 0.832574 0.152661
O O15 0.708083 0.793989 0.607063
O O16 0.568965 0.763952 0.455801
O O17 0.500000 0.000000 0.000000
#
# Coordination Sequence:
#
# PCOD9047498 Si02
#       8
#     2   2   2   2   2   2   2   2
#     4  10  24  44  67  98 127 173 222 265 323 386
#     4  11  19  41  69  95 131 171 216 263 329 391
#     4  11  22  38  70  98 125 178 215 263 326 391
#     4  11  22  46  70  92 133 172 222 272 320 383
#     4  12  23  42  64  96 137 167 216 269 324 391
#     4  11  24  42  65  97 131 175 211 266 338 379
#     4  11  25  45  67  97 133 172 217 273 324 388
#     4  11  23  43  64  98 134 170 219 271 317 398
#
# _framework density 23.768678000000001
#
# number of rings (size 3 to 8) (size 9 to 14) (size 15 to 20)
#    0.000    1.000    5.000    2.250    1.750    1.000 
#    9.000    0.000    0.000    0.000    0.000    0.000 
#    0.000    0.000    0.000    0.000    0.000    0.000 
#
# Total GULP energy -89382.046004 kJ/mol
# GULP energy per Si atom -5586.377875 kJ/mol
# Density = 2.371458 g / cm^3
# Si number density = 23.768678 Si / 1000 Ang^3
#
#
#
# Elastic Constant Matrix: (Units=GPa)
#
#
# Indices 1 2 3 4 5 6 
#
# 1 16.8274 11.9739 11.7257 -25.0802 5.2106 -23.1388
# 2 11.9739 76.3994 1.0665 -0.3735 1.6859 -17.6816
# 3 11.7257 1.0665 142.6402 32.0881 10.9967 15.8515
# 4 -25.0802 -0.3735 32.0881 26.3981 -3.0254 -1.7034
# 5 5.2106 1.6859 10.9967 -3.0254 36.1346 -9.7142
# 6 -23.1388 -17.6816 15.8515 -1.7034 -9.7142 39.8667
#
#
#
# Elastic Compliance Matrix: (Units=1/GPa)
#
#
# Indices 1 2 3 4 5 6 
#
# 1 -0.016633 -0.001746 0.011161 -0.031544 -0.008471 -0.018278
# 2 -0.001746 0.014781 -0.000791 0.000083 0.001483 0.006222
# 3 0.011161 -0.000791 0.004595 0.005114 -0.001421 0.004172
# 4 -0.031544 0.000083 0.005114 0.000043 -0.002639 -0.020946
# 5 -0.008471 0.001483 -0.001421 -0.002639 0.029978 0.003498
# 6 -0.018278 0.006222 0.004172 -0.020946 0.003498 0.015533
#
#
# Mechanical properties :
#
#
# Convention : Reuss Voigt Hill
#
# Bulk Modulus (GPa) = 50.02746 31.71102 40.86924
# Shear Modulus (GPa) = 132.57820 34.55327 83.56573
#
# Velocity S-wave (km/s) = 7.47661 3.81692 5.93584
# Velocity P-wave (km/s) = 9.77886 5.72675 8.01317
#
# Compressibility (1/GPa) = 0.01998902
#
# Stress axis : x y z
#
# Youngs Moduli (GPa) = -60.12120 67.65216 217.65081
#
# Poissons Ratio (x) = 0.11815 -2.42918
# Poissons Ratio (y) = -0.10500 0.17225
# Poissons Ratio (z) = 0.67101 0.05354
#
# Static dielectric constant tensor:
#      x y z
#    x 1.924380 0.015220 0.031350 
#    y 0.015220 1.864840 -0.016990 
#    z 0.031350 -0.016990 1.977800 
# 
# From -- ./inp_files/429043.got.cif
#   From: 2010.05.17/outbox.cif.g08.bks.cpg/sg2_215_cif.got.tgz:429043.got - 2010.06.03 11:33:40.
