data_PCOD9047772
_publ_section_title
;
Structure prediction by ZEFSAII (Michael W. Deem and Ramdas Pophale) SiO2 
 PCOD9047772
Probable space group: P -1
;
_chemical_formula_sum "Si O2"
_cell_formula_units_Z 16
_cell_length_a 12.520810
_cell_length_b 15.245482
_cell_length_c 7.716772
_cell_angle_alpha 131.328250
_cell_angle_beta 49.187732
_cell_angle_gamma 144.304609
_cell_volume 621.863333
_symmetry_space_group_name_H-M "P -1"
_symmetry_group_IT_number 2
_symmetry_cell_setting 'triclinic'
loop_
_space_group_symop_operation_xyz
x,y,z
-x,-y,-z
loop_
_atom_site_type_symbol
_atom_site_label
_atom_site_fract_x
_atom_site_fract_y
_atom_site_fract_z
Si Si1 0.589584 0.020472 0.152297
Si Si2 0.053016 0.450822 0.662438
Si Si3 0.352348 0.072960 0.661037
Si Si4 0.539162 0.635638 0.902402
Si Si5 0.944264 0.790759 0.780565
Si Si6 0.968549 0.310459 0.939971
Si Si7 0.233021 0.274206 0.760539
Si Si8 0.527367 0.279944 0.283201
O O1 0.457828 0.057120 0.384058
O O2 0.635236 0.989070 0.249807
O O3 0.778425 0.163407 0.041446
O O4 0.491652 0.863410 0.943915
O O5 0.026551 0.333231 0.400139
O O6 0.276195 0.590287 0.654316
O O7 0.954183 0.344476 0.801560
O O8 0.969995 0.533808 0.826240
O O9 0.451651 0.251016 0.826791
O O10 0.127562 0.951005 0.711600
O O11 0.754724 0.708913 0.764931
O O12 0.400488 0.456512 0.873318
O O13 0.475418 0.645352 0.793841
O O14 0.901861 0.815362 0.048625
O O15 0.112329 0.282411 0.762707
O O16 0.340471 0.220812 0.505844
#
# Coordination Sequence:
#
# PCOD9047772 Si02
#       8
#     2   2   2   2   2   2   2   2
#     4  10  24  47  70  99 139 185 228 283 343 413
#     4  11  26  44  69 103 140 180 236 282 342 407
#     4  10  24  44  70 103 140 179 229 282 351 402
#     4  11  23  44  71 101 140 181 225 285 344 410
#     4  12  25  44  68 105 139 180 230 288 340 413
#     4  11  25  45  69 103 136 183 233 280 344 406
#     4  12  24  44  72 104 137 183 230 283 347 406
#     4  11  24  47  70  99 142 184 226 281 345 410
#
# _framework density 25.729126000000001
#
# number of rings (size 3 to 8) (size 9 to 14) (size 15 to 20)
#    0.000    1.000    3.750    1.875    5.250    2.500 
#    4.500    0.000    0.000    0.000    0.000    0.000 
#    0.000    0.000    0.000    0.000    0.000    0.000 
#
# Total GULP energy -89780.560055 kJ/mol
# GULP energy per Si atom -5611.285003 kJ/mol
# Density = 2.567057 g / cm^3
# Si number density = 25.729126 Si / 1000 Ang^3
#
#
#
# Elastic Constant Matrix: (Units=GPa)
#
#
# Indices 1 2 3 4 5 6 
#
# 1 74.3851 9.6703 14.5154 -4.9508 -8.4521 -3.5200
# 2 9.6703 116.7630 53.3899 -10.8221 -7.5342 8.6645
# 3 14.5154 53.3899 176.6215 -5.0514 -26.0686 0.1913
# 4 -4.9508 -10.8221 -5.0514 47.8828 -2.7310 -7.9709
# 5 -8.4521 -7.5342 -26.0686 -2.7310 34.4574 -4.8563
# 6 -3.5200 8.6645 0.1913 -7.9709 -4.8563 28.0514
#
#
#
# Elastic Compliance Matrix: (Units=1/GPa)
#
#
# Indices 1 2 3 4 5 6 
#
# 1 0.014327 -0.000860 -0.000316 0.002011 0.003709 0.003279
# 2 -0.000860 0.010370 -0.003111 0.001393 -0.000609 -0.003000
# 3 -0.000316 -0.003111 0.007409 0.000667 0.005176 0.001956
# 4 0.002011 0.001393 0.000667 0.022882 0.004107 0.007031
# 5 0.003709 -0.000609 0.005176 0.004107 0.035148 0.007870
# 6 0.003279 -0.003000 0.001956 0.007031 0.007870 0.040334
#
#
# Mechanical properties :
#
#
# Convention : Reuss Voigt Hill
#
# Bulk Modulus (GPa) = 42.49317 58.10232 50.29775
# Shear Modulus (GPa) = 34.03923 41.42459 37.73191
#
# Velocity S-wave (km/s) = 3.64123 4.01687 3.83365
# Velocity P-wave (km/s) = 5.85060 6.64417 6.25997
#
# Compressibility (1/GPa) = 0.02353319
#
# Stress axis : x y z
#
# Youngs Moduli (GPa) = 69.79608 96.42808 134.96823
#
# Poissons Ratio (x) = 0.08289 0.04269
# Poissons Ratio (y) = 0.06000 0.41989
# Poissons Ratio (z) = 0.02208 0.29999
#
# Static dielectric constant tensor:
#      x y z
#    x 2.085310 -0.006060 -0.009080 
#    y -0.006060 1.959900 0.007560 
#    z -0.009080 0.007560 2.024610 
# 
# From -- ./inp_files/318135.got.cif
#   From: 2010.05.17/outbox.cif.g08.bks.cpg/sg2_160_cif.got.tgz:318135.got - 2010.06.03 11:33:40.
