data_PCOD9047537
_publ_section_title
;
Structure prediction by ZEFSAII (Michael W. Deem and Ramdas Pophale) SiO2 
 PCOD9047537
Probable space group: P -1
;
_chemical_formula_sum "Si O2"
_cell_formula_units_Z 16
_cell_length_a 14.418032
_cell_length_b 11.200367
_cell_length_c 19.944818
_cell_angle_alpha 154.001654
_cell_angle_beta 148.004417
_cell_angle_gamma 39.392884
_cell_volume 747.296028
_symmetry_space_group_name_H-M "P -1"
_symmetry_group_IT_number 2
_symmetry_cell_setting 'triclinic'
loop_
_space_group_symop_operation_xyz
x,y,z
-x,-y,-z
loop_
_atom_site_type_symbol
_atom_site_label
_atom_site_fract_x
_atom_site_fract_y
_atom_site_fract_z
Si Si1 0.573467 0.285490 0.539430
Si Si2 0.630613 0.974186 0.228292
Si Si3 0.902499 0.538380 0.221004
Si Si4 0.498438 0.671156 0.798476
Si Si5 0.792429 0.050339 0.160909
Si Si6 0.744441 0.241963 0.090924
Si Si7 0.873724 0.816936 0.479490
Si Si8 0.728707 0.531056 0.640941
O O1 0.520457 0.381977 0.629806
O O2 0.716693 0.042092 0.501453
O O3 0.665837 0.528779 0.677799
O O4 0.394659 0.269185 0.379099
O O5 0.771464 0.722151 0.187873
O O6 0.586668 0.124357 0.207381
O O7 0.692769 0.222584 0.437744
O O8 0.454641 0.839823 0.078430
O O9 0.821598 0.292839 0.089925
O O10 0.070110 0.432260 0.229715
O O11 0.948777 0.751339 0.417280
O O12 0.360575 0.716080 0.796423
O O13 0.691873 0.780076 0.983751
O O14 0.827817 0.046091 0.100742
O O15 0.966287 0.109488 0.338124
O O16 0.781825 0.534955 0.294707
#
# Coordination Sequence:
#
# PCOD9047537 Si02
#       8
#     2   2   2   2   2   2   2   2
#     4  10  20  33  51  83 116 141 171 221 288 313
#     4  10  17  34  57  84 110 132 184 225 270 308
#     4  10  20  31  58  89 102 140 186 219 263 323
#     4   9  21  34  59  81 106 142 176 235 267 316
#     4  10  19  39  57  78 104 142 194 220 262 311
#     4   9  21  34  57  83 107 144 181 227 261 312
#     4  10  20  32  56  80 106 144 182 219 261 327
#     4  10  19  33  55  83 113 143 171 226 269 329
#
# _framework density 21.410523999999999
#
# number of rings (size 3 to 8) (size 9 to 14) (size 15 to 20)
#    0.750    1.500    1.250    2.625    1.750    0.500 
#    0.000    0.625    0.000   17.250    0.000    0.000 
#    0.000    0.000    0.000    0.000    0.000    0.000 
#
# Total GULP energy -89112.867503 kJ/mol
# GULP energy per Si atom -5569.554219 kJ/mol
# Density = 2.136179 g / cm^3
# Si number density = 21.410524 Si / 1000 Ang^3
#
#
#
# Elastic Constant Matrix: (Units=GPa)
#
#
# Indices 1 2 3 4 5 6 
#
# 1 3.8995 -15.0433 -7.5061 -88.0774 30.7586 27.5734
# 2 -15.0433 49.2295 23.4577 -50.7397 19.8123 -2.3317
# 3 -7.5061 23.4577 75.1285 -15.9655 12.7072 6.1632
# 4 -88.0774 -50.7397 -15.9655 -123.6328 11.6210 49.2343
# 5 30.7586 19.8123 12.7072 11.6210 28.3610 -7.6107
# 6 27.5734 -2.3317 6.1632 49.2343 -7.6107 8.2176
#
#
#
# Elastic Compliance Matrix: (Units=1/GPa)
#
#
# Indices 1 2 3 4 5 6 
#
# 1 0.021343 -0.004059 0.002712 -0.014972 -0.015161 0.000860
# 2 -0.004059 0.027263 -0.009603 0.000576 -0.005109 0.020374
# 3 0.002712 -0.009603 0.017180 -0.003577 -0.004452 -0.007404
# 4 -0.014972 0.000576 -0.003577 0.009389 0.016954 0.012535
# 5 -0.015161 -0.005109 -0.004452 0.016954 0.049528 -0.002948
# 6 0.000860 0.020374 -0.007404 0.012535 -0.002948 0.052307
#
#
# Mechanical properties :
#
#
# Convention : Reuss Voigt Hill
#
# Bulk Modulus (GPa) = 22.78612 14.45267 18.61940
# Shear Modulus (GPa) = 23.41479 -8.92089 7.24695
#
# Velocity S-wave (km/s) = 3.31057 -2.04344 1.84177
# Velocity P-wave (km/s) = 5.02780 1.09426 3.63842
#
# Compressibility (1/GPa) = 0.04388636
#
# Stress axis : x y z
#
# Youngs Moduli (GPa) = 46.85354 36.67908 58.20653
#
# Poissons Ratio (x) = 0.14889 -0.15786
# Poissons Ratio (y) = 0.19019 0.55895
# Poissons Ratio (z) = -0.12707 0.35223
#
# Static dielectric constant tensor:
#      x y z
#    x 1.837230 0.030180 -0.029280 
#    y 0.030180 1.777380 0.015820 
#    z -0.029280 0.015820 1.816030 
# 
# From -- ./inp_files/597897.got.cif
#   From: 2010.05.17/outbox.cif.g08.bks.cpg/sg2_299_cif.got.tgz:597897.got - 2010.06.03 11:33:40.
