data_PCOD9047926
_publ_section_title
;
Structure prediction by ZEFSAII (Michael W. Deem and Ramdas Pophale) SiO2 
 PCOD9047926
Probable space group: P -1
;
_chemical_formula_sum "Si O2"
_cell_formula_units_Z 16
_cell_length_a 11.214576
_cell_length_b 7.262077
_cell_length_c 13.276054
_cell_angle_alpha 113.165117
_cell_angle_beta 96.501469
_cell_angle_gamma 42.476032
_cell_volume 643.428469
_symmetry_space_group_name_H-M "P -1"
_symmetry_group_IT_number 2
_symmetry_cell_setting 'triclinic'
loop_
_space_group_symop_operation_xyz
x,y,z
-x,-y,-z
loop_
_atom_site_type_symbol
_atom_site_label
_atom_site_fract_x
_atom_site_fract_y
_atom_site_fract_z
Si Si1 0.924654 0.778266 0.467407
Si Si2 0.999459 0.444599 0.219228
Si Si3 0.353890 0.315465 0.825192
Si Si4 0.893326 0.304184 0.838589
Si Si5 0.842826 0.007704 0.024812
Si Si6 0.484317 0.314727 0.026602
Si Si7 0.538180 0.153645 0.598929
Si Si8 0.170417 0.759695 0.603541
O O1 0.987303 0.507739 0.349343
O O2 0.097687 0.655789 0.515419
O O3 0.743032 0.969361 0.556941
O O4 0.857617 0.025613 0.431734
O O5 0.787838 0.680678 0.214309
O O6 0.093470 0.515969 0.190460
O O7 0.107571 0.119910 0.111908
O O8 0.228557 0.676317 0.900225
O O9 0.493064 0.173082 0.715696
O O10 0.459748 0.173368 0.910431
O O11 0.691292 0.475106 0.873996
O O12 0.984750 0.244770 0.941244
O O13 0.028290 0.976270 0.727325
O O14 0.673714 0.079295 0.054110
O O15 0.500000 0.500000 0.000000
O O16 0.374469 0.499628 0.612719
O O17 0.500000 0.000000 0.500000
#
# Coordination Sequence:
#
# PCOD9047926 Si02
#       8
#     2   2   2   2   2   2   2   2
#     4  10  24  46  66  97 131 173 224 268 322 390
#     4  11  23  43  66  96 134 168 214 273 323 381
#     4  11  23  43  62  97 131 171 213 260 329 392
#     4  11  23  43  67  95 132 168 219 271 319 387
#     4  11  23  42  69  91 131 173 211 266 329 384
#     4  10  25  39  62  98 126 169 217 260 318 392
#     4  12  24  42  66  97 132 170 220 272 325 384
#     4  10  24  44  71  93 128 180 220 268 328 387
#
# _framework density 24.866790000000002
#
# number of rings (size 3 to 8) (size 9 to 14) (size 15 to 20)
#    0.000    1.250    3.750    1.125    5.250    2.000 
#    0.000    0.000    0.000    0.000    0.000    0.000 
#    0.000    0.000    0.000    0.000    0.000    0.000 
#
# Total GULP energy -89581.319178 kJ/mol
# GULP energy per Si atom -5598.832449 kJ/mol
# Density = 2.481019 g / cm^3
# Si number density = 24.866790 Si / 1000 Ang^3
#
#
#
# Elastic Constant Matrix: (Units=GPa)
#
#
# Indices 1 2 3 4 5 6 
#
# 1 129.7231 25.2449 34.5982 9.5550 -26.3437 -26.3200
# 2 25.2449 60.7571 5.2741 6.4166 -13.1390 -15.7785
# 3 34.5982 5.2741 137.3477 23.4713 -12.2237 -0.0466
# 4 9.5550 6.4166 23.4713 24.3875 -5.9284 -2.6435
# 5 -26.3437 -13.1390 -12.2237 -5.9284 52.9520 1.7058
# 6 -26.3200 -15.7785 -0.0466 -2.6435 1.7058 43.1400
#
#
#
# Elastic Compliance Matrix: (Units=1/GPa)
#
#
# Indices 1 2 3 4 5 6 
#
# 1 0.010658 -0.001879 -0.002262 0.000116 0.004145 0.005656
# 2 -0.001879 0.019823 0.000648 -0.003619 0.003543 0.005743
# 3 -0.002262 0.000648 0.009273 -0.008315 0.000298 -0.001654
# 4 0.000116 -0.003619 -0.008315 0.050801 0.002872 0.001737
# 5 0.004145 0.003543 0.000298 0.002872 0.022116 0.003127
# 6 0.005656 0.005743 -0.001654 0.001737 0.003127 0.028713
#
#
# Mechanical properties :
#
#
# Convention : Reuss Voigt Hill
#
# Bulk Modulus (GPa) = 30.51715 50.89581 40.70648
# Shear Modulus (GPa) = 31.38868 41.60996 36.49932
#
# Velocity S-wave (km/s) = 3.55670 4.09505 3.83534
# Velocity P-wave (km/s) = 5.40053 6.54760 6.00154
#
# Compressibility (1/GPa) = 0.03276846
#
# Stress axis : x y z
#
# Youngs Moduli (GPa) = 93.82188 50.44536 107.84382
#
# Poissons Ratio (x) = 0.09480 0.24391
# Poissons Ratio (y) = 0.17632 -0.06988
# Poissons Ratio (z) = 0.21220 -0.03269
#
# Static dielectric constant tensor:
#      x y z
#    x 1.994500 0.031450 0.009510 
#    y 0.031450 2.052800 0.004250 
#    z 0.009510 0.004250 1.966230 
# 
# From -- ./inp_files/514621.got.cif
#   From: 2010.05.17/outbox.cif.g08.bks.cpg/sg2_258_cif.got.tgz:514621.got - 2010.06.03 11:33:40.
