data_PCOD9047061
_publ_section_title
;
Structure prediction by ZEFSAII (Michael W. Deem and Ramdas Pophale) SiO2 
 PCOD9047061
Probable space group: P -1
;
_chemical_formula_sum "Si O2"
_cell_formula_units_Z 16
_cell_length_a 17.797692
_cell_length_b 10.781382
_cell_length_c 9.670225
_cell_angle_alpha 126.433167
_cell_angle_beta 115.068138
_cell_angle_gamma 28.377350
_cell_volume 685.429408
_symmetry_space_group_name_H-M "P -1"
_symmetry_group_IT_number 2
_symmetry_cell_setting 'triclinic'
loop_
_space_group_symop_operation_xyz
x,y,z
-x,-y,-z
loop_
_atom_site_type_symbol
_atom_site_label
_atom_site_fract_x
_atom_site_fract_y
_atom_site_fract_z
Si Si1 0.783260 0.934585 0.161032
Si Si2 0.778024 0.677183 0.775699
Si Si3 0.085480 0.694505 0.874687
Si Si4 0.978328 0.817631 0.585478
Si Si5 0.468425 0.470855 0.808321
Si Si6 0.976682 0.180698 0.783301
Si Si7 0.346737 0.813428 0.500635
Si Si8 0.434278 0.208276 0.712823
O O1 0.624656 0.252797 0.168904
O O2 0.740870 0.943509 0.287796
O O3 0.888935 0.922343 0.247554
O O4 0.836773 0.717664 0.952240
O O5 0.894040 0.484240 0.604991
O O6 0.815672 0.462402 0.750575
O O7 0.591035 0.987574 0.786933
O O8 0.003833 0.735463 0.711552
O O9 0.278394 0.392613 0.793369
O O10 0.050388 0.706035 0.010991
O O11 0.000000 0.000000 0.000000
O O12 0.982237 0.064935 0.334093
O O13 0.790700 0.091562 0.581474
O O14 0.602543 0.202050 0.620145
O O15 0.374784 0.465574 0.771819
O O16 0.500000 0.500000 0.000000
O O17 0.500000 0.500000 0.500000
O O18 0.500000 0.000000 0.500000
#
# Coordination Sequence:
#
# PCOD9047061 Si02
#       8
#     2   2   2   2   2   2   2   2
#     4  11  24  45  67 100 141 180 235 283 350 422
#     4  12  25  43  70 101 145 181 230 298 344 421
#     4  10  24  43  71 102 138 180 237 289 345 422
#     4  11  23  45  71 102 137 185 239 286 348 415
#     4  11  24  44  72  97 134 189 224 286 355 404
#     4  11  25  42  73  99 138 191 229 285 360 414
#     4  10  25  42  70 102 137 177 237 282 341 424
#     4  12  26  46  69 107 143 177 239 296 347 416
#
# _framework density 23.343029999999999
#
# number of rings (size 3 to 8) (size 9 to 14) (size 15 to 20)
#    0.000    1.000    3.750    2.250    5.250    2.500 
#    0.000    1.250    0.000    0.000    0.000    0.000 
#    0.000    0.000    0.000    0.000    0.000    0.000 
#
# Total GULP energy -89294.558683 kJ/mol
# GULP energy per Si atom -5580.909918 kJ/mol
# Density = 2.328990 g / cm^3
# Si number density = 23.343030 Si / 1000 Ang^3
#
#
#
# Elastic Constant Matrix: (Units=GPa)
#
#
# Indices 1 2 3 4 5 6 
#
# 1 48.7145 5.9365 27.8882 -5.4432 -11.6521 -11.2618
# 2 5.9365 92.7329 24.5861 -22.0164 -6.3707 -27.8153
# 3 27.8882 24.5861 143.6457 -15.1512 -19.0173 -0.9896
# 4 -5.4432 -22.0164 -15.1512 37.2381 5.9948 0.7781
# 5 -11.6521 -6.3707 -19.0173 5.9948 44.0417 -4.0808
# 6 -11.2618 -27.8153 -0.9896 0.7781 -4.0808 32.4879
#
#
#
# Elastic Compliance Matrix: (Units=1/GPa)
#
#
# Indices 1 2 3 4 5 6 
#
# 1 0.028324 0.005448 -0.004991 0.003888 0.006998 0.015117
# 2 0.005448 0.019393 -0.002720 0.010219 0.003404 0.018592
# 3 -0.004991 -0.002720 0.008686 0.001020 0.001562 -0.003623
# 4 0.003888 0.010219 0.001020 0.033816 -0.000801 0.009217
# 5 0.006998 0.003404 0.001562 -0.000801 0.026644 0.008754
# 6 0.015117 0.018592 -0.003623 0.009217 0.008754 0.052707
#
#
# Mechanical properties :
#
#
# Convention : Reuss Voigt Hill
#
# Bulk Modulus (GPa) = 19.27657 44.65721 31.96689
# Shear Modulus (GPa) = 26.12495 37.86570 31.99533
#
# Velocity S-wave (km/s) = 3.34904 4.03195 3.70626
# Velocity P-wave (km/s) = 4.81981 6.39124 5.66032
#
# Compressibility (1/GPa) = 0.05187646
#
# Stress axis : x y z
#
# Youngs Moduli (GPa) = 35.30570 51.56548 115.13338
#
# Poissons Ratio (x) = -0.28094 0.57460
# Poissons Ratio (y) = -0.19235 0.31322
# Poissons Ratio (z) = 0.17620 0.14028
#
# Static dielectric constant tensor:
#      x y z
#    x 1.853350 0.024520 0.002210 
#    y 0.024520 1.994930 0.044820 
#    z 0.002210 0.044820 1.969080 
# 
# From -- ./inp_files/332378.got.cif
#   From: 2010.05.17/outbox.cif.g08.bks.cpg/sg2_167_cif.got.tgz:332378.got - 2010.06.03 11:33:40.
