data_PCOD9047022
_publ_section_title
;
Structure prediction by ZEFSAII (Michael W. Deem and Ramdas Pophale) SiO2 
 PCOD9047022
Probable space group: P -1
;
_chemical_formula_sum "Si O2"
_cell_formula_units_Z 16
_cell_length_a 11.310911
_cell_length_b 9.396845
_cell_length_c 11.014240
_cell_angle_alpha 90.874986
_cell_angle_beta 119.636214
_cell_angle_gamma 50.838498
_cell_volume 708.210900
_symmetry_space_group_name_H-M "P -1"
_symmetry_group_IT_number 2
_symmetry_cell_setting 'triclinic'
loop_
_space_group_symop_operation_xyz
x,y,z
-x,-y,-z
loop_
_atom_site_type_symbol
_atom_site_label
_atom_site_fract_x
_atom_site_fract_y
_atom_site_fract_z
Si Si1 0.174171 0.444291 0.850492
Si Si2 0.498333 0.379057 0.893950
Si Si3 0.198095 0.097504 0.894346
Si Si4 0.977162 0.684204 0.966621
Si Si5 0.556386 0.542979 0.407432
Si Si6 0.862968 0.695059 0.517783
Si Si7 0.000198 0.158550 0.550083
Si Si8 0.549702 0.056478 0.643415
O O1 0.299163 0.437822 0.816269
O O2 0.257141 0.222869 0.917988
O O3 0.145213 0.574128 0.950561
O O4 0.950854 0.587780 0.691790
O O5 0.518408 0.429184 0.769182
O O6 0.500000 0.500000 0.000000
O O7 0.655613 0.134294 0.988159
O O8 0.140980 0.089708 0.732038
O O9 0.020440 0.235305 0.903891
O O10 0.759242 0.874795 0.806550
O O11 0.000000 0.500000 0.000000
O O12 0.500000 0.500000 0.500000
O O13 0.788572 0.361712 0.497095
O O14 0.478169 0.758733 0.398794
O O15 0.640077 0.837343 0.371345
O O16 0.000000 0.500000 0.500000
O O17 0.918668 0.813898 0.521750
O O18 0.000000 0.000000 0.500000
O O19 0.500000 0.000000 0.500000
#
# Coordination Sequence:
#
# PCOD9047022 Si02
#       8
#     2   2   2   2   2   2   2   2
#     4  11  22  44  74 105 144 188 244 308 365 441
#     4  12  26  49  71 107 149 195 249 306 375 445
#     4  11  24  45  73 106 143 189 242 311 373 437
#     4  10  24  43  70 112 146 181 238 303 377 433
#     4  12  28  50  70 106 153 195 251 304 369 450
#     4  12  22  43  76 104 142 187 246 311 350 436
#     4  12  27  46  72 107 147 195 248 298 374 441
#     4  12  24  45  76 107 140 191 252 301 367 436
#
# _framework density 22.592141000000002
#
# number of rings (size 3 to 8) (size 9 to 14) (size 15 to 20)
#    0.000    0.500    6.250    1.125    3.500    3.000 
#    2.250    1.250    0.000    0.000    0.000    0.000 
#    0.000    0.000    0.000    0.000    0.000    0.000 
#
# Total GULP energy -89223.007140 kJ/mol
# GULP energy per Si atom -5576.437946 kJ/mol
# Density = 2.254072 g / cm^3
# Si number density = 22.592141 Si / 1000 Ang^3
#
#
#
# Elastic Constant Matrix: (Units=GPa)
#
#
# Indices 1 2 3 4 5 6 
#
# 1 96.6646 45.1107 32.2307 -13.5577 -21.3122 9.8869
# 2 45.1107 145.8816 45.2336 9.3180 -10.8091 9.1845
# 3 32.2307 45.2336 83.2237 -5.1709 -21.4108 6.3115
# 4 -13.5577 9.3180 -5.1709 52.4090 -4.1902 -5.0854
# 5 -21.3122 -10.8091 -21.4108 -4.1902 28.4930 2.2310
# 6 9.8869 9.1845 6.3115 -5.0854 2.2310 36.7400
#
#
#
# Elastic Compliance Matrix: (Units=1/GPa)
#
#
# Indices 1 2 3 4 5 6 
#
# 1 0.015928 -0.004088 -0.000554 0.005370 0.010978 -0.003092
# 2 -0.004088 0.009592 -0.004664 -0.003570 -0.003387 -0.000785
# 3 -0.000554 -0.004664 0.018262 0.003257 0.012184 -0.002111
# 4 0.005370 -0.003570 0.003257 0.022229 0.008264 0.001463
# 5 0.010978 -0.003387 0.012184 0.008264 0.052884 -0.006268
# 6 -0.003092 -0.000785 -0.002111 0.001463 -0.006268 0.029192
#
#
# Mechanical properties :
#
#
# Convention : Reuss Voigt Hill
#
# Bulk Modulus (GPa) = 39.73045 63.43555 51.58300
# Shear Modulus (GPa) = 28.55705 37.07474 32.81590
#
# Velocity S-wave (km/s) = 3.55917 4.05538 3.81535
# Velocity P-wave (km/s) = 5.87490 7.07585 6.50316
#
# Compressibility (1/GPa) = 0.02516961
#
# Stress axis : x y z
#
# Youngs Moduli (GPa) = 62.78413 104.25721 54.75861
#
# Poissons Ratio (x) = 0.42625 0.03032
# Poissons Ratio (y) = 0.25669 0.25537
# Poissons Ratio (z) = 0.03476 0.48622
#
# Static dielectric constant tensor:
#      x y z
#    x 2.002420 -0.122000 -0.070940 
#    y -0.122000 1.833500 0.066830 
#    z -0.070940 0.066830 2.002590 
# 
# From -- ./inp_files/419462.got.cif
#   From: 2010.05.17/outbox.cif.g08.bks.cpg/sg2_210_cif.got.tgz:419462.got - 2010.06.03 11:33:40.
