data_PCOD9047542
_publ_section_title
;
Structure prediction by ZEFSAII (Michael W. Deem and Ramdas Pophale) SiO2 
 PCOD9047542
Probable space group: P -1
;
_chemical_formula_sum "Si O2"
_cell_formula_units_Z 16
_cell_length_a 14.170366
_cell_length_b 11.345199
_cell_length_c 7.905596
_cell_angle_alpha 109.100026
_cell_angle_beta 70.834868
_cell_angle_gamma 147.951760
_cell_volume 633.982863
_symmetry_space_group_name_H-M "P -1"
_symmetry_group_IT_number 2
_symmetry_cell_setting 'triclinic'
loop_
_space_group_symop_operation_xyz
x,y,z
-x,-y,-z
loop_
_atom_site_type_symbol
_atom_site_label
_atom_site_fract_x
_atom_site_fract_y
_atom_site_fract_z
Si Si1 0.110425 0.907186 0.997742
Si Si2 0.185723 0.796057 0.440773
Si Si3 0.699166 0.713842 0.709146
Si Si4 0.754651 0.217372 0.232432
Si Si5 0.545432 0.710352 0.501262
Si Si6 0.073198 0.277043 0.340161
Si Si7 0.651630 0.269583 0.803253
Si Si8 0.754335 0.482441 0.187713
O O1 0.933968 0.734011 0.135946
O O2 0.263253 0.153817 0.097183
O O3 0.169391 0.824152 0.928445
O O4 0.050668 0.872392 0.823427
O O5 0.162339 0.705079 0.592902
O O6 0.227093 0.730313 0.252940
O O7 0.033883 0.742270 0.482518
O O8 0.360833 0.063426 0.487873
O O9 0.673924 0.766879 0.578036
O O10 0.519125 0.442911 0.686730
O O11 0.861920 0.785032 0.652359
O O12 0.789757 0.385053 0.204865
O O13 0.541477 0.975852 0.255207
O O14 0.367023 0.559956 0.640036
O O15 0.245690 0.532454 0.291887
O O16 0.642380 0.331390 0.014394
#
# Coordination Sequence:
#
# PCOD9047542 Si02
#       8
#     2   2   2   2   2   2   2   2
#     4  10  24  44  68 102 135 177 226 276 338 402
#     4  11  24  42  67 102 139 171 228 278 341 402
#     4  11  25  47  67  94 139 185 226 275 331 399
#     4  11  22  41  69 101 138 176 220 283 341 399
#     4  11  26  44  68 102 132 181 232 274 330 405
#     4  10  24  44  68 102 135 177 226 276 338 402
#     4  11  22  41  69 101 138 176 220 283 341 399
#     4  11  24  42  67 102 139 171 228 278 341 402
#
# _framework density 25.237273999999999
#
# number of rings (size 3 to 8) (size 9 to 14) (size 15 to 20)
#    0.000    1.250    1.250    3.375    3.500    4.000 
#    0.000   13.125    0.000    0.000    0.000    0.000 
#    0.000    0.000    0.000    0.000    0.000    0.000 
#
# Total GULP energy -89680.177143 kJ/mol
# GULP energy per Si atom -5605.011071 kJ/mol
# Density = 2.517983 g / cm^3
# Si number density = 25.237274 Si / 1000 Ang^3
#
#
#
# Elastic Constant Matrix: (Units=GPa)
#
#
# Indices 1 2 3 4 5 6 
#
# 1 150.3178 13.3174 30.3381 4.7610 -4.8218 0.1231
# 2 13.3174 87.3877 53.9999 28.6576 -4.7385 3.0617
# 3 30.3381 53.9999 82.7082 24.1883 -7.3821 5.7150
# 4 4.7610 28.6576 24.1883 40.8436 4.8471 -5.9998
# 5 -4.8218 -4.7385 -7.3821 4.8471 20.1362 6.1380
# 6 0.1231 3.0617 5.7150 -5.9998 6.1380 32.4522
#
#
#
# Elastic Compliance Matrix: (Units=1/GPa)
#
#
# Indices 1 2 3 4 5 6 
#
# 1 0.007252 0.000750 -0.003342 0.000643 0.000368 0.000540
# 2 0.000750 0.021623 -0.010979 -0.009681 0.004406 -0.002733
# 3 -0.003342 -0.010979 0.024228 -0.008347 0.009507 -0.006559
# 4 0.000643 -0.009681 -0.008347 0.040373 -0.018999 0.013438
# 5 0.000368 0.004406 0.009507 -0.018999 0.064258 -0.017758
# 6 0.000540 -0.002733 -0.006559 0.013438 -0.017758 0.038069
#
#
# Mechanical properties :
#
#
# Convention : Reuss Voigt Hill
#
# Bulk Modulus (GPa) = 38.52116 57.30271 47.91193
# Shear Modulus (GPa) = 21.58906 33.53695 27.56301
#
# Velocity S-wave (km/s) = 2.92797 3.64932 3.30836
# Velocity P-wave (km/s) = 5.16986 6.36487 5.79823
#
# Compressibility (1/GPa) = 0.02595976
#
# Stress axis : x y z
#
# Youngs Moduli (GPa) = 137.89904 46.24726 41.27465
#
# Poissons Ratio (x) = -0.03471 0.13796
# Poissons Ratio (y) = -0.10349 0.45317
# Poissons Ratio (z) = 0.46092 0.50777
#
# Static dielectric constant tensor:
#      x y z
#    x 1.962250 0.037240 0.007170 
#    y 0.037240 2.012380 0.016570 
#    z 0.007170 0.016570 1.950810 
# 
# From -- ./inp_files/307985.got.cif
#   From: 2010.05.17/outbox.cif.g08.bks.cpg/sg2_154_cif.got.tgz:307985.got - 2010.06.03 11:33:40.
