data_PCOD9047711
_publ_section_title
;
Structure prediction by ZEFSAII (Michael W. Deem and Ramdas Pophale) SiO2 
 PCOD9047711
Probable space group: P -1
;
_chemical_formula_sum "Si O2"
_cell_formula_units_Z 16
_cell_length_a 13.033922
_cell_length_b 9.048515
_cell_length_c 6.862858
_cell_angle_alpha 122.983135
_cell_angle_beta 82.416224
_cell_angle_gamma 106.299859
_cell_volume 651.433496
_symmetry_space_group_name_H-M "P -1"
_symmetry_group_IT_number 2
_symmetry_cell_setting 'triclinic'
loop_
_space_group_symop_operation_xyz
x,y,z
-x,-y,-z
loop_
_atom_site_type_symbol
_atom_site_label
_atom_site_fract_x
_atom_site_fract_y
_atom_site_fract_z
Si Si1 0.972499 0.626136 0.768986
Si Si2 0.380952 0.835924 0.028409
Si Si3 0.768919 0.361680 0.756265
Si Si4 0.574204 0.360892 0.512143
Si Si5 0.668353 0.782119 0.813580
Si Si6 0.450527 0.279363 0.836843
Si Si7 0.046248 0.763711 0.242032
Si Si8 0.096893 0.166660 0.365065
O O1 0.851470 0.552408 0.826547
O O2 0.974175 0.807226 0.781964
O O3 0.000000 0.500000 0.500000
O O4 0.041046 0.646811 0.962370
O O5 0.410447 0.741520 0.760355
O O6 0.284519 0.694356 0.061210
O O7 0.478186 0.836827 0.153488
O O8 0.356800 0.028930 0.119145
O O9 0.672945 0.338587 0.611026
O O10 0.855915 0.241600 0.643047
O O11 0.591708 0.579966 0.640727
O O12 0.467293 0.263093 0.591193
O O13 0.780727 0.777221 0.689071
O O14 0.657972 0.777071 0.051241
O O15 0.500000 0.500000 0.000000
O O16 0.938273 0.725427 0.367905
O O17 0.068607 0.963164 0.296080
#
# Coordination Sequence:
#
# PCOD9047711 Si02
#       8
#     2   2   2   2   2   2   2   2
#     4  12  25  40  67  91 131 178 221 277 337 390
#     4  11  24  43  70  99 132 175 217 270 333 393
#     4  11  23  40  64  97 128 171 225 272 320 400
#     4  10  24  44  69  96 137 172 217 274 334 392
#     4  11  22  43  69  97 133 171 222 270 327 396
#     4   9  22  45  68 102 136 165 220 274 323 404
#     4  11  25  43  64  94 133 174 225 276 330 389
#     4  11  24  44  62  96 132 174 224 275 327 396
#
# _framework density 24.561218
#
# number of rings (size 3 to 8) (size 9 to 14) (size 15 to 20)
#    0.000    1.250    3.750    1.125    3.500    2.500 
#    4.500    8.750    0.000    0.000    0.000    0.000 
#    0.000    0.000    0.000    0.000    0.000    0.000 
#
# Total GULP energy -89272.984854 kJ/mol
# GULP energy per Si atom -5579.561553 kJ/mol
# Density = 2.450532 g / cm^3
# Si number density = 24.561218 Si / 1000 Ang^3
#
#
#
# Elastic Constant Matrix: (Units=GPa)
#
#
# Indices 1 2 3 4 5 6 
#
# 1 69.5547 25.8571 30.8952 -8.7320 -29.1432 4.0838
# 2 25.8571 168.3554 65.4975 -20.0936 -12.1437 -31.6246
# 3 30.8952 65.4975 147.6440 -9.8743 -27.0234 9.9826
# 4 -8.7320 -20.0936 -9.8743 45.6022 4.0209 -15.5670
# 5 -29.1432 -12.1437 -27.0234 4.0209 41.8213 -16.3346
# 6 4.0838 -31.6246 9.9826 -15.5670 -16.3346 50.8498
#
#
#
# Elastic Compliance Matrix: (Units=1/GPa)
#
#
# Indices 1 2 3 4 5 6 
#
# 1 0.021966 -0.000265 -0.001679 0.003924 0.015565 0.004602
# 2 -0.000265 0.010898 -0.004347 0.007263 0.003808 0.011099
# 3 -0.001679 -0.004347 0.009642 -0.001812 0.002302 -0.004277
# 4 0.003924 0.007263 -0.001812 0.030369 0.007049 0.016119
# 5 0.015565 0.003808 0.002302 0.007049 0.043196 0.016700
# 6 0.004602 0.011099 -0.004277 0.016119 0.016700 0.037338
#
#
# Mechanical properties :
#
#
# Convention : Reuss Voigt Hill
#
# Bulk Modulus (GPa) = 33.41713 70.00600 51.71157
# Shear Modulus (GPa) = 28.41479 45.20827 36.81153
#
# Velocity S-wave (km/s) = 3.40501 4.29492 3.87559
# Velocity P-wave (km/s) = 5.39388 7.29107 6.41302
#
# Compressibility (1/GPa) = 0.02992477
#
# Stress axis : x y z
#
# Youngs Moduli (GPa) = 45.52576 91.75956 103.71285
#
# Poissons Ratio (x) = 0.02431 0.17410
# Poissons Ratio (y) = 0.01206 0.45083
# Poissons Ratio (z) = 0.07642 0.39887
#
# Static dielectric constant tensor:
#      x y z
#    x 2.022220 -0.017070 0.023060 
#    y -0.017070 1.970870 0.023840 
#    z 0.023060 0.023840 2.002400 
# 
# From -- ./inp_files/90948.got.cif
#   From: 2010.05.17/outbox.cif.g08.bks.cpg/sg2_46_cif.got.tgz:90948.got - 2010.06.03 11:33:40.
