data_PCOD9047950
_publ_section_title
;
Structure prediction by ZEFSAII (Michael W. Deem and Ramdas Pophale) SiO2 
 PCOD9047950
Probable space group: P -1
;
_chemical_formula_sum "Si O2"
_cell_formula_units_Z 14
_cell_length_a 6.941216
_cell_length_b 14.110383
_cell_length_c 9.047978
_cell_angle_alpha 92.513591
_cell_angle_beta 48.829134
_cell_angle_gamma 116.005970
_cell_volume 558.913696
_symmetry_space_group_name_H-M "P -1"
_symmetry_group_IT_number 2
_symmetry_cell_setting 'triclinic'
loop_
_space_group_symop_operation_xyz
x,y,z
-x,-y,-z
loop_
_atom_site_type_symbol
_atom_site_label
_atom_site_fract_x
_atom_site_fract_y
_atom_site_fract_z
Si Si1 0.918470 0.040035 0.798989
Si Si2 0.477916 0.944935 0.255765
Si Si3 0.226381 0.280330 0.824021
Si Si4 0.240980 0.528066 0.606854
Si Si5 0.444474 0.873231 0.578492
Si Si6 0.733439 0.330811 0.133711
Si Si7 0.548160 0.394849 0.952996
O O1 0.077887 0.160050 0.812725
O O2 0.192890 0.033326 0.602754
O O3 0.746963 0.048256 0.744652
O O4 0.704675 0.944573 0.020172
O O5 0.664283 0.064102 0.257274
O O6 0.351980 0.856790 0.450329
O O7 0.559286 0.363911 0.591070
O O8 0.295993 0.301858 0.964212
O O9 0.996903 0.323275 0.919226
O O10 0.500000 0.500000 0.500000
O O11 0.169899 0.566160 0.798919
O O12 0.893624 0.441365 0.723219
O O13 0.408439 0.772709 0.687173
O O14 0.522005 0.336054 0.118356
O O15 0.500000 0.500000 0.000000
#
# Coordination Sequence:
#
# PCOD9047950 Si02
#       7
#     2   2   2   2   2   2   2
#     4  11  23  45  69 103 141 183 235 289 349 424
#     4  10  24  44  72 100 144 186 231 285 355 424
#     4  12  25  45  68 107 140 186 241 298 350 431
#     4  12  24  48  75  98 142 187 239 296 363 428
#     4  11  23  45  70 104 139 187 234 286 356 425
#     4  12  25  46  69 105 146 180 240 306 349 429
#     4  12  26  46  75 102 143 190 239 300 365 418
#
# _framework density 25.048591999999999
#
# number of rings (size 3 to 8) (size 9 to 14) (size 15 to 20)
#    0.000    0.571    5.714    2.571    0.000    2.286 
#    2.571    0.000    0.000    0.000    0.000    0.000 
#    0.000    0.000    0.000    0.000    0.000    0.000 
#
# Total GULP energy -78138.939425 kJ/mol
# GULP energy per Si atom -5581.352816 kJ/mol
# Density = 2.499158 g / cm^3
# Si number density = 25.048592 Si / 1000 Ang^3
#
#
#
# Elastic Constant Matrix: (Units=GPa)
#
#
# Indices 1 2 3 4 5 6 
#
# 1 174.2510 42.7237 42.1213 -7.8812 38.3213 -3.7910
# 2 42.7237 77.7879 -2.9533 4.9783 24.6754 -3.0421
# 3 42.1213 -2.9533 123.6189 -9.2569 25.4732 -7.5729
# 4 -7.8812 4.9783 -9.2569 29.3157 -8.4913 5.4017
# 5 38.3213 24.6754 25.4732 -8.4913 64.7683 2.8338
# 6 -3.7910 -3.0421 -7.5729 5.4017 2.8338 38.8953
#
#
#
# Elastic Compliance Matrix: (Units=1/GPa)
#
#
# Indices 1 2 3 4 5 6 
#
# 1 0.007707 -0.003744 -0.002179 0.001416 -0.002091 -0.000010
# 2 -0.003744 0.017497 0.002768 -0.005460 -0.006377 0.002765
# 3 -0.002179 0.002768 0.009822 0.000604 -0.003641 0.002098
# 4 0.001416 -0.005460 0.000604 0.038543 0.006320 -0.005985
# 5 -0.002091 -0.006377 -0.003641 0.006320 0.021535 -0.003858
# 6 -0.000010 0.002765 0.002098 -0.005985 -0.003858 0.027446
#
#
# Mechanical properties :
#
#
# Convention : Reuss Voigt Hill
#
# Bulk Modulus (GPa) = 34.82318 59.93793 47.38056
# Shear Modulus (GPa) = 36.11867 46.18026 41.14947
#
# Velocity S-wave (km/s) = 3.80141 4.29841 4.05753
# Velocity P-wave (km/s) = 5.76195 6.97249 6.39593
#
# Compressibility (1/GPa) = 0.02871650
#
# Stress axis : x y z
#
# Youngs Moduli (GPa) = 129.75036 57.15272 101.81164
#
# Poissons Ratio (x) = 0.21396 0.22188
# Poissons Ratio (y) = 0.48573 -0.28182
# Poissons Ratio (z) = 0.28277 -0.15820
#
# Static dielectric constant tensor:
#      x y z
#    x 2.028630 -0.049380 -0.002910 
#    y -0.049380 2.032660 -0.078230 
#    z -0.002910 -0.078230 2.042780 
# 
# From -- ./inp_files/135235.got.cif
#   From: 2010.05.17/outbox.cif.g08.bks.cpg/sg2_68_cif.got.tgz:135235.got - 2010.06.03 11:33:40.
