data_PCOD9047572
_publ_section_title
;
Structure prediction by ZEFSAII (Michael W. Deem and Ramdas Pophale) SiO2 
 PCOD9047572
Probable space group: P -1
;
_chemical_formula_sum "Si O2"
_cell_formula_units_Z 14
_cell_length_a 5.141079
_cell_length_b 10.819385
_cell_length_c 11.649639
_cell_angle_alpha 123.869108
_cell_angle_beta 84.178593
_cell_angle_gamma 91.199771
_cell_volume 534.764019
_symmetry_space_group_name_H-M "P -1"
_symmetry_group_IT_number 2
_symmetry_cell_setting 'triclinic'
loop_
_space_group_symop_operation_xyz
x,y,z
-x,-y,-z
loop_
_atom_site_type_symbol
_atom_site_label
_atom_site_fract_x
_atom_site_fract_y
_atom_site_fract_z
Si Si1 0.294624 0.699505 0.263516
Si Si2 0.753806 0.695507 0.402205
Si Si3 0.065771 0.127389 0.805439
Si Si4 0.635035 0.126161 0.335609
Si Si5 0.097888 0.598752 0.655971
Si Si6 0.709426 0.643404 0.912086
Si Si7 0.378365 0.914074 0.062944
O O1 0.577433 0.735625 0.319110
O O2 0.174525 0.800751 0.221643
O O3 0.316356 0.526519 0.141167
O O4 0.061753 0.707444 0.373850
O O5 0.619431 0.797974 0.556820
O O6 0.712077 0.523738 0.350939
O O7 0.922179 0.051750 0.881557
O O8 0.177372 0.983933 0.653260
O O9 0.183074 0.270742 0.936960
O O10 0.772610 0.256699 0.328234
O O11 0.540145 0.987399 0.194967
O O12 0.000000 0.500000 0.500000
O O13 0.882922 0.645389 0.787730
O O14 0.442578 0.739732 0.950568
O O15 0.500000 0.000000 0.000000
#
# Coordination Sequence:
#
# PCOD9047572 Si02
#       7
#     2   2   2   2   2   2   2
#     4  11  27  47  75 103 145 188 248 291 353 421
#     4  11  27  46  73 108 139 190 240 298 355 420
#     4  11  26  46  69 103 142 194 233 294 357 419
#     4  11  25  43  69 102 143 183 239 291 362 424
#     4  11  24  46  77 105 143 183 236 300 364 425
#     4  10  24  44  68 105 137 186 239 294 352 424
#     4  11  25  40  71 101 142 186 233 294 358 423
#
# _framework density 26.179773999999998
#
# number of rings (size 3 to 8) (size 9 to 14) (size 15 to 20)
#    0.000    1.143    0.000    4.286   16.000    4.000 
#    0.000    0.000    0.000    0.000    0.000    0.000 
#    0.000    0.000    0.000    0.000    0.000    0.000 
#
# Total GULP energy -78245.031584 kJ/mol
# GULP energy per Si atom -5588.930827 kJ/mol
# Density = 2.612019 g / cm^3
# Si number density = 26.179774 Si / 1000 Ang^3
#
#
#
# Elastic Constant Matrix: (Units=GPa)
#
#
# Indices 1 2 3 4 5 6 
#
# 1 56.9780 3.2490 21.4049 21.1080 -22.8913 1.6648
# 2 3.2490 108.6189 42.3348 29.1958 -18.1863 7.6776
# 3 21.4049 42.3348 120.9433 36.2986 -29.6785 -8.9233
# 4 21.1080 29.1958 36.2986 48.9138 -8.3751 -3.4801
# 5 -22.8913 -18.1863 -29.6785 -8.3751 48.6681 4.4009
# 6 1.6648 7.6776 -8.9233 -3.4801 4.4009 36.6845
#
#
#
# Elastic Compliance Matrix: (Units=1/GPa)
#
#
# Indices 1 2 3 4 5 6 
#
# 1 0.027555 0.005260 0.000102 -0.013217 0.013181 -0.005162
# 2 0.005260 0.013296 -0.002302 -0.007974 0.005114 -0.004951
# 3 0.000102 -0.002302 0.012663 -0.006965 0.005510 0.002236
# 4 -0.013217 -0.007974 -0.006965 0.035078 -0.007846 0.004843
# 5 0.013181 0.005114 0.005510 -0.007846 0.031102 -0.004804
# 6 -0.005162 -0.004951 0.002236 0.004843 -0.004804 0.030110
#
#
# Mechanical properties :
#
#
# Convention : Reuss Voigt Hill
#
# Bulk Modulus (GPa) = 16.76846 46.72418 31.74632
# Shear Modulus (GPa) = 30.56958 41.49006 36.02982
#
# Velocity S-wave (km/s) = 3.42084 3.98529 3.71380
# Velocity P-wave (km/s) = 4.69275 6.25003 5.52652
#
# Compressibility (1/GPa) = 0.05963577
#
# Stress axis : x y z
#
# Youngs Moduli (GPa) = 36.29113 75.20980 78.96763
#
# Poissons Ratio (x) = -0.39562 -0.00809
# Poissons Ratio (y) = -0.19090 0.18179
# Poissons Ratio (z) = -0.00372 0.17314
#
# Static dielectric constant tensor:
#      x y z
#    x 1.334660 0.081450 0.038210 
#    y 0.081450 2.066500 -0.119440 
#    z 0.038210 -0.119440 2.048680 
# 
# From -- ./inp_files/65178.got.cif
#   From: 2010.05.17/outbox.cif.g08.bks.cpg/sg2_33_cif.got.tgz:65178.got - 2010.06.03 11:33:40.
