data_PCOD9047790
_publ_section_title
;
Structure prediction by ZEFSAII (Michael W. Deem and Ramdas Pophale) SiO2 
 PCOD9047790
Probable space group: P -1
;
_chemical_formula_sum "Si O2"
_cell_formula_units_Z 13
_cell_length_a 9.414169
_cell_length_b 15.597216
_cell_length_c 5.036406
_cell_angle_alpha 69.742529
_cell_angle_beta 106.863998
_cell_angle_gamma 130.059378
_cell_volume 528.666798
_symmetry_space_group_name_H-M "P -1"
_symmetry_group_IT_number 2
_symmetry_cell_setting 'triclinic'
loop_
_space_group_symop_operation_xyz
x,y,z
-x,-y,-z
loop_
_atom_site_type_symbol
_atom_site_label
_atom_site_fract_x
_atom_site_fract_y
_atom_site_fract_z
Si Si1 0.881519 0.385083 0.888254
Si Si2 0.494229 0.646673 0.377008
Si Si3 0.223946 0.295156 0.915609
Si Si4 0.507855 0.068138 0.679085
Si Si5 0.207612 0.116923 0.453744
Si Si6 0.093554 0.712893 0.481884
Si Si7 0.500000 0.500000 0.000000
O O1 0.675485 0.351585 0.787453
O O2 0.960992 0.389123 0.638460
O O3 0.876262 0.297665 0.183497
O O4 0.000000 0.500000 0.000000
O O5 0.562807 0.612431 0.194267
O O6 0.680830 0.776811 0.389766
O O7 0.442208 0.565397 0.683377
O O8 0.271005 0.388348 0.062736
O O9 0.057251 0.264595 0.674856
O O10 0.199508 0.185372 0.132446
O O11 0.345029 0.081931 0.548116
O O12 0.707607 0.189277 0.641275
O O13 0.500000 0.000000 0.500000
O O14 0.500000 0.000000 0.000000
O O15 0.000000 0.000000 0.500000
#
# Coordination Sequence:
#
# PCOD9047790 Si02
#       7
#     2   2   2   2   2   2   1
#     4  12  27  47  75 106 151 195 245 305 371 438
#     4  11  25  46  74 105 145 195 245 304 366 450
#     4  11  26  43  74 104 146 190 244 300 368 439
#     4  12  27  48  75 104 145 194 245 306 367 434
#     4  11  26  47  73 106 147 192 248 304 371 439
#     4  12  27  48  71 110 147 192 250 301 371 442
#     4  10  24  44  70 104 144 184 244 292 372 426
#
# _framework density 24.590160000000001
#
# number of rings (size 3 to 8) (size 9 to 14) (size 15 to 20)
#    0.000    0.615    1.538    4.615   12.923    0.615 
#    0.000    0.000    0.000    0.000    0.000    0.000 
#    0.000    0.000    0.000    0.000    0.000    0.000 
#
# Total GULP energy -72552.855261 kJ/mol
# GULP energy per Si atom -5580.988866 kJ/mol
# Density = 2.453419 g / cm^3
# Si number density = 24.590160 Si / 1000 Ang^3
#
#
#
# Elastic Constant Matrix: (Units=GPa)
#
#
# Indices 1 2 3 4 5 6 
#
# 1 150.6898 47.1761 89.4649 0.2024 40.8905 11.6463
# 2 47.1761 128.6240 64.3903 -21.1152 17.0907 7.7963
# 3 89.4649 64.3903 232.5084 -9.8376 35.4312 12.0797
# 4 0.2024 -21.1152 -9.8376 46.8332 -1.9765 -4.6077
# 5 40.8905 17.0907 35.4312 -1.9765 59.5481 15.6396
# 6 11.6463 7.7963 12.0797 -4.6077 15.6396 47.0625
#
#
#
# Elastic Compliance Matrix: (Units=1/GPa)
#
#
# Indices 1 2 3 4 5 6 
#
# 1 0.010194 -0.002027 -0.002691 -0.001733 -0.004861 -0.000050
# 2 -0.002027 0.010154 -0.001806 0.004175 -0.000250 -0.000225
# 3 -0.002691 -0.001806 0.006040 0.000401 -0.001174 -0.000156
# 4 -0.001733 0.004175 0.000401 0.023517 0.000027 0.001928
# 5 -0.004861 -0.000250 -0.001174 0.000027 0.022456 -0.005914
# 6 -0.000050 -0.000225 -0.000156 0.001928 -0.005914 0.023492
#
#
# Mechanical properties :
#
#
# Convention : Reuss Voigt Hill
#
# Bulk Modulus (GPa) = 74.95772 101.54277 88.25024
# Shear Modulus (GPa) = 44.11196 51.40815 47.76006
#
# Velocity S-wave (km/s) = 4.24003 4.57727 4.41187
# Velocity P-wave (km/s) = 7.38373 8.32580 7.86887
#
# Compressibility (1/GPa) = 0.01334085
#
# Stress axis : x y z
#
# Youngs Moduli (GPa) = 98.09926 98.48031 165.55482
#
# Poissons Ratio (x) = 0.19965 0.44549
# Poissons Ratio (y) = 0.19888 0.29892
# Poissons Ratio (z) = 0.26397 0.17781
#
# Static dielectric constant tensor:
#      x y z
#    x 2.016170 -0.240210 -0.125300 
#    y -0.240210 2.341190 0.191140 
#    z -0.125300 0.191140 2.041970 
# 
# From -- ./inp_files/36802.got.cif
#   From: 2010.05.17/outbox.cif.g08.bks.cpg/sg2_19_cif.got.tgz:36802.got - 2010.06.03 11:33:40.
