data_PCOD9047989
_publ_section_title
;
Structure prediction by ZEFSAII (Michael W. Deem and Ramdas Pophale) SiO2 
 PCOD9047989
Probable space group: P -1
;
_chemical_formula_sum "Si O2"
_cell_formula_units_Z 13
_cell_length_a 7.174394
_cell_length_b 12.950238
_cell_length_c 14.683260
_cell_angle_alpha 40.409856
_cell_angle_beta 31.244004
_cell_angle_gamma 49.554136
_cell_volume 458.692254
_symmetry_space_group_name_H-M "P -1"
_symmetry_group_IT_number 2
_symmetry_cell_setting 'triclinic'
loop_
_space_group_symop_operation_xyz
x,y,z
-x,-y,-z
loop_
_atom_site_type_symbol
_atom_site_label
_atom_site_fract_x
_atom_site_fract_y
_atom_site_fract_z
Si Si1 0.530712 0.727884 0.525567
Si Si2 0.870757 0.398762 0.969075
Si Si3 0.500000 0.500000 0.500000
Si Si4 0.527224 0.193174 0.693893
Si Si5 0.924323 0.059469 0.165770
Si Si6 0.210047 0.122162 0.202527
Si Si7 0.512965 0.578629 0.144134
O O1 0.575982 0.682083 0.429943
O O2 0.649963 0.576753 0.635081
O O3 0.117745 0.774750 0.689432
O O4 0.739656 0.891464 0.343174
O O5 0.114348 0.452572 0.747918
O O6 0.157937 0.391544 0.939785
O O7 0.694699 0.222530 0.153075
O O8 0.598499 0.520756 0.044856
O O9 0.694992 0.336342 0.583576
O O10 0.724437 0.046333 0.663007
O O11 0.214373 0.105620 0.937529
O O12 0.102820 0.055684 0.192716
O O13 0.562758 0.234957 0.968023
#
# Coordination Sequence:
#
# PCOD9047989 Si02
#       7
#     2   2   1   2   2   2   2
#     4  12  20  37  62  86 114 154 188 234 290 342
#     4   9  16  32  54  81 104 149 191 222 262 350
#     4  10  18  34  58  82 104 156 190 228 274 346
#     4  11  23  37  60  85 117 147 197 236 284 337
#     4  10  22  36  58  85 120 150 185 235 296 334
#     4  11  21  38  61  87 110 150 199 240 266 343
#     4  10  17  34  58  80 110 149 196 222 276 342
#
# _framework density 28.341443999999999
#
# number of rings (size 3 to 8) (size 9 to 14) (size 15 to 20)
#    0.000    1.538    6.154    1.846    0.000    0.000 
#    0.000    0.769    6.769    4.615    0.000    0.000 
#    0.000    0.000    0.000    0.000    0.000    0.000 
#
# Total GULP energy -72400.830970 kJ/mol
# GULP energy per Si atom -5569.294690 kJ/mol
# Density = 2.827694 g / cm^3
# Si number density = 28.341444 Si / 1000 Ang^3
#
#
#
# Elastic Constant Matrix: (Units=GPa)
#
#
# Indices 1 2 3 4 5 6 
#
# 1 66.0880 32.6601 54.4419 3.2356 0.7201 14.6813
# 2 32.6601 162.8479 79.1378 -21.2695 16.0294 3.9557
# 3 54.4419 79.1378 244.3534 -44.6560 30.2526 16.7448
# 4 3.2356 -21.2695 -44.6560 83.6557 10.5108 9.0380
# 5 0.7201 16.0294 30.2526 10.5108 29.3536 -6.3549
# 6 14.6813 3.9557 16.7448 9.0380 -6.3549 34.3127
#
#
#
# Elastic Compliance Matrix: (Units=1/GPa)
#
#
# Indices 1 2 3 4 5 6 
#
# 1 0.022339 -0.003125 -0.005733 -0.005381 0.008245 -0.003456
# 2 -0.003125 0.007928 -0.000902 0.002243 -0.004238 -0.000512
# 3 -0.005733 -0.000902 0.008819 0.006856 -0.012168 -0.005807
# 4 -0.005381 0.002243 0.006856 0.019607 -0.017272 -0.009665
# 5 0.008245 -0.004238 -0.012168 -0.017272 0.058878 0.018353
# 6 -0.003456 -0.000512 -0.005807 -0.009665 0.018353 0.039460
#
#
# Mechanical properties :
#
#
# Convention : Reuss Voigt Hill
#
# Bulk Modulus (GPa) = 51.10344 89.52987 70.31666
# Shear Modulus (GPa) = 27.31145 49.93439 38.62292
#
# Velocity S-wave (km/s) = 3.10765 4.20204 3.69558
# Velocity P-wave (km/s) = 5.56302 7.42975 6.56309
#
# Compressibility (1/GPa) = 0.01956815
#
# Stress axis : x y z
#
# Youngs Moduli (GPa) = 44.76396 126.13265 113.38922
#
# Poissons Ratio (x) = 0.39416 0.65001
# Poissons Ratio (y) = 0.13989 0.10225
# Poissons Ratio (z) = 0.25661 0.11374
#
# Static dielectric constant tensor:
#      x y z
#    x 2.497380 0.005710 -0.003200 
#    y 0.005710 2.650940 -0.163990 
#    z -0.003200 -0.163990 2.253910 
# 
# From -- ./inp_files/497381.got.cif
#   From: 2010.05.17/outbox.cif.g08.bks.cpg/sg2_249_cif.got.tgz:497381.got - 2010.06.03 11:33:40.
