data_PCOD9047193
_publ_section_title
;
Structure prediction by ZEFSAII (Michael W. Deem and Ramdas Pophale) SiO2 
 PCOD9047193
Probable space group: P -1
;
_chemical_formula_sum "Si O2"
_cell_formula_units_Z 13
_cell_length_a 7.379834
_cell_length_b 5.162948
_cell_length_c 14.676512
_cell_angle_alpha 112.999687
_cell_angle_beta 69.031225
_cell_angle_gamma 98.632938
_cell_volume 480.624328
_symmetry_space_group_name_H-M "P -1"
_symmetry_group_IT_number 2
_symmetry_cell_setting 'triclinic'
loop_
_space_group_symop_operation_xyz
x,y,z
-x,-y,-z
loop_
_atom_site_type_symbol
_atom_site_label
_atom_site_fract_x
_atom_site_fract_y
_atom_site_fract_z
Si Si1 0.854500 0.489499 0.438736
Si Si2 0.374057 0.360821 0.341760
Si Si3 0.500000 0.000000 0.000000
Si Si4 0.769080 0.555277 0.063198
Si Si5 0.152280 0.779344 0.309281
Si Si6 0.218811 0.912075 0.764300
Si Si7 0.829237 0.720831 0.886344
O O1 0.657376 0.538862 0.534611
O O2 0.848894 0.211921 0.338001
O O3 0.000000 0.500000 0.500000
O O4 0.943365 0.730045 0.388906
O O5 0.299656 0.606742 0.323892
O O6 0.590627 0.261250 0.272702
O O7 0.234741 0.086514 0.325133
O O8 0.360985 0.719786 0.957445
O O9 0.673197 0.894874 0.883065
O O10 0.740350 0.758750 0.181965
O O11 0.714407 0.735454 0.005705
O O12 0.000000 0.500000 0.000000
O O13 0.151108 0.596803 0.192497
O O14 0.041598 0.849472 0.857351
#
# Coordination Sequence:
#
# PCOD9047193 Si02
#       7
#     2   2   1   2   2   2   2
#     4   9  21  45  74 104 146 197 252 319 383 456
#     4  11  23  44  72 109 149 193 256 318 381 454
#     4  12  26  46  74 100 152 194 252 304 384 442
#     4  12  27  47  74 109 154 195 257 316 380 461
#     4  10  24  43  73 107 148 198 256 305 388 458
#     4  11  24  45  69 109 148 196 256 316 386 451
#     4  11  26  44  70 104 147 201 248 315 379 456
#
# _framework density 27.048152000000002
#
# number of rings (size 3 to 8) (size 9 to 14) (size 15 to 20)
#    0.000    1.231    1.538    2.769    4.308    2.462 
#    0.000   11.538    0.000    0.000    0.000    0.000 
#    0.000    0.000    0.000    0.000    0.000    0.000 
#
# Total GULP energy -72606.628107 kJ/mol
# GULP energy per Si atom -5585.125239 kJ/mol
# Density = 2.698659 g / cm^3
# Si number density = 27.048152 Si / 1000 Ang^3
#
#
#
# Elastic Constant Matrix: (Units=GPa)
#
#
# Indices 1 2 3 4 5 6 
#
# 1 128.7028 55.9620 42.6538 1.5254 -9.9951 27.8906
# 2 55.9620 166.0539 68.4177 14.1899 17.5996 19.6594
# 3 42.6538 68.4177 145.1763 16.7500 5.8322 12.0270
# 4 1.5254 14.1899 16.7500 43.8867 17.6999 7.6300
# 5 -9.9951 17.5996 5.8322 17.6999 62.7562 4.1257
# 6 27.8906 19.6594 12.0270 7.6300 4.1257 37.9309
#
#
#
# Elastic Compliance Matrix: (Units=1/GPa)
#
#
# Indices 1 2 3 4 5 6 
#
# 1 0.011176 -0.002646 -0.001719 0.001185 0.002798 -0.006844
# 2 -0.002646 0.008589 -0.003033 -0.000362 -0.002366 -0.001214
# 3 -0.001719 -0.003033 0.009077 -0.002688 0.000462 0.000448
# 4 0.001185 -0.000362 -0.002688 0.027474 -0.006906 -0.004606
# 5 0.002798 -0.002366 0.000462 -0.006906 0.019058 -0.001661
# 6 -0.006844 -0.001214 0.000448 -0.004606 -0.001661 0.032991
#
#
# Mechanical properties :
#
#
# Convention : Reuss Voigt Hill
#
# Bulk Modulus (GPa) = 71.18918 86.00002 78.59460
# Shear Modulus (GPa) = 39.11065 47.10807 43.10936
#
# Velocity S-wave (km/s) = 3.80671 4.17782 3.99657
# Velocity P-wave (km/s) = 6.76002 7.42539 7.10051
#
# Compressibility (1/GPa) = 0.01404708
#
# Stress axis : x y z
#
# Youngs Moduli (GPa) = 89.47478 116.42888 110.16849
#
# Poissons Ratio (x) = 0.30805 0.18936
# Poissons Ratio (y) = 0.23673 0.33414
# Poissons Ratio (z) = 0.15379 0.35312
#
# Static dielectric constant tensor:
#      x y z
#    x 1.687720 0.209310 -0.069740 
#    y 0.209310 1.881750 -0.013870 
#    z -0.069740 -0.013870 2.160780 
# 
# From -- ./inp_files/31442.got.cif
#   From: 2010.05.17/outbox.cif.g08.bks.cpg/sg2_16_cif.got.tgz:31442.got - 2010.06.03 11:33:40.
