data_PCOD9047922
_publ_section_title
;
Structure prediction by ZEFSAII (Michael W. Deem and Ramdas Pophale) SiO2 
 PCOD9047922
Probable space group: P -1
;
_chemical_formula_sum "Si O2"
_cell_formula_units_Z 16
_cell_length_a 12.408605
_cell_length_b 5.035193
_cell_length_c 12.766294
_cell_angle_alpha 60.868060
_cell_angle_beta 70.284471
_cell_angle_gamma 97.144203
_cell_volume 614.169220
_symmetry_space_group_name_H-M "P -1"
_symmetry_group_IT_number 2
_symmetry_cell_setting 'triclinic'
loop_
_space_group_symop_operation_xyz
x,y,z
-x,-y,-z
loop_
_atom_site_type_symbol
_atom_site_label
_atom_site_fract_x
_atom_site_fract_y
_atom_site_fract_z
Si Si1 0.613136 0.178845 0.004359
Si Si2 0.631763 0.762066 0.587234
Si Si3 0.846011 0.749826 0.752796
Si Si4 0.013776 0.850961 0.883859
Si Si5 0.382598 0.491691 0.841247
Si Si6 0.214097 0.660772 0.430035
Si Si7 0.244753 0.901125 0.704265
Si Si8 0.036196 0.486277 0.699840
O O1 0.578654 0.320005 0.096369
O O2 0.668889 0.895399 0.057454
O O3 0.712856 0.483483 0.859450
O O4 0.500000 0.000000 0.000000
O O5 0.498321 0.570910 0.711110
O O6 0.720330 0.552628 0.610148
O O7 0.683285 0.092986 0.573985
O O8 0.642564 0.847535 0.443382
O O9 0.918785 0.765369 0.834065
O O10 0.933517 0.631948 0.672866
O O11 0.831637 0.087596 0.665827
O O12 0.161946 0.014499 0.788700
O O13 0.989423 0.183359 0.855238
O O14 0.000000 0.500000 0.000000
O O15 0.287204 0.636217 0.796315
O O16 0.103456 0.435324 0.582068
O O17 0.144476 0.749851 0.676441
#
# Coordination Sequence:
#
# PCOD9047922 Si02
#       8
#     2   2   2   2   2   2   2   2
#     4  12  29  51  73 109 149 195 256 311 373 443
#     4  11  24  46  73 111 148 197 246 313 368 436
#     4  11  27  43  74 106 143 201 245 308 376 451
#     4  11  24  43  71 107 152 191 250 305 376 445
#     4  12  27  47  79 105 148 202 252 307 376 446
#     4  11  24  46  73 107 150 192 250 308 371 442
#     4  10  24  44  71 111 152 192 249 306 371 450
#     4  10  24  45  71 110 149 196 245 311 371 447
#
# _framework density 26.051452000000001
#
# number of rings (size 3 to 8) (size 9 to 14) (size 15 to 20)
#    0.000    1.000    1.250    3.375    8.750    2.500 
#    0.000    3.125    0.000    0.000    0.000    0.000 
#    0.000    0.000    0.000    0.000    0.000    0.000 
#
# Total GULP energy -89494.665384 kJ/mol
# GULP energy per Si atom -5593.416587 kJ/mol
# Density = 2.599216 g / cm^3
# Si number density = 26.051452 Si / 1000 Ang^3
#
#
#
# Elastic Constant Matrix: (Units=GPa)
#
#
# Indices 1 2 3 4 5 6 
#
# 1 85.2590 15.3472 19.9952 -5.4204 -0.0249 -21.6415
# 2 15.3472 129.7697 36.4815 -11.7962 -5.1775 -19.2494
# 3 19.9952 36.4815 96.3744 -30.8297 11.1407 -14.9788
# 4 -5.4204 -11.7962 -30.8297 43.2359 -19.1162 5.9002
# 5 -0.0249 -5.1775 11.1407 -19.1162 46.4037 -12.7463
# 6 -21.6415 -19.2494 -14.9788 5.9002 -12.7463 43.1844
#
#
#
# Elastic Compliance Matrix: (Units=1/GPa)
#
#
# Indices 1 2 3 4 5 6 
#
# 1 0.014011 0.000111 -0.001961 0.000610 0.002693 0.007102
# 2 0.000111 0.009375 -0.002857 0.001515 0.003472 0.004061
# 3 -0.001961 -0.002857 0.015234 0.009844 0.000588 0.001856
# 4 0.000610 0.001515 0.009844 0.036211 0.013681 0.003486
# 5 0.002693 0.003472 0.000588 0.013681 0.030222 0.010152
# 6 0.007102 0.004061 0.001856 0.003486 0.010152 0.031690
#
#
# Mechanical properties :
#
#
# Convention : Reuss Voigt Hill
#
# Bulk Modulus (GPa) = 34.24102 50.56119 42.40111
# Shear Modulus (GPa) = 32.07306 42.53673 37.30489
#
# Velocity S-wave (km/s) = 3.51257 4.04517 3.78824
# Velocity P-wave (km/s) = 5.44270 6.42404 5.95362
#
# Compressibility (1/GPa) = 0.02920474
#
# Stress axis : x y z
#
# Youngs Moduli (GPa) = 71.37082 106.67027 65.64141
#
# Poissons Ratio (x) = -0.01181 0.12874
# Poissons Ratio (y) = -0.00790 0.18755
# Poissons Ratio (z) = 0.13998 0.30477
#
# Static dielectric constant tensor:
#      x y z
#    x 2.016180 0.004880 0.047400 
#    y 0.004880 2.145390 0.102340 
#    z 0.047400 0.102340 2.171090 
# 
# From -- ./inp_files/510672.got.cif
#   From: 2010.05.17/outbox.cif.g08.bks.cpg/sg2_256_cif.got.tgz:510672.got - 2010.06.03 11:33:40.
