data_PCOD9047344
_publ_section_title
;
Structure prediction by ZEFSAII (Michael W. Deem and Ramdas Pophale) SiO2 
 PCOD9047344
Probable space group: P -1
;
_chemical_formula_sum "Si O2"
_cell_formula_units_Z 14
_cell_length_a 12.920805
_cell_length_b 10.097258
_cell_length_c 16.762416
_cell_angle_alpha 137.191810
_cell_angle_beta 23.278805
_cell_angle_gamma 134.185145
_cell_volume 585.145106
_symmetry_space_group_name_H-M "P -1"
_symmetry_group_IT_number 2
_symmetry_cell_setting 'triclinic'
loop_
_space_group_symop_operation_xyz
x,y,z
-x,-y,-z
loop_
_atom_site_type_symbol
_atom_site_label
_atom_site_fract_x
_atom_site_fract_y
_atom_site_fract_z
Si Si1 0.277138 0.473931 0.833787
Si Si2 0.358066 0.206720 0.377218
Si Si3 0.899220 0.469704 0.837458
Si Si4 0.717534 0.209380 0.379371
Si Si5 0.459147 0.039712 0.734823
Si Si6 0.049184 0.732253 0.583795
Si Si7 0.526862 0.805521 0.048615
O O1 0.479525 0.647576 0.733297
O O2 0.422348 0.282103 0.623537
O O3 0.225445 0.485002 0.969391
O O4 0.000000 0.500000 0.000000
O O5 0.511897 0.168371 0.333853
O O6 0.090711 0.294287 0.628764
O O7 0.355076 0.991288 0.245958
O O8 0.659259 0.390451 0.915956
O O9 0.087997 0.644682 0.745506
O O10 0.690524 0.003946 0.260618
O O11 0.820270 0.226369 0.403915
O O12 0.745185 0.152820 0.569548
O O13 0.342607 0.163514 0.942543
O O14 0.000000 0.500000 0.500000
O O15 0.763368 0.812120 0.821827
#
# Coordination Sequence:
#
# PCOD9047344 Si02
#       7
#     2   2   2   2   2   2   2
#     4  11  23  39  69  97 134 167 207 261 322 386
#     4   9  23  41  63 101 126 167 214 257 324 371
#     4  11  22  42  68  94 137 165 210 266 311 387
#     4  11  25  42  66 100 127 171 213 259 322 376
#     4  10  24  44  65  93 133 164 215 269 310 380
#     4  12  26  45  67  92 129 169 221 264 317 379
#     4  10  25  42  66  94 125 174 212 261 320 374
#
# _framework density 23.925688999999998
#
# number of rings (size 3 to 8) (size 9 to 14) (size 15 to 20)
#    0.857    0.571    0.000    4.286    4.000    8.000 
#    0.000    0.000    0.000    0.000    0.000    0.000 
#    0.000    0.000    0.000    0.000    0.000    0.000 
#
# Total GULP energy -78246.816129 kJ/mol
# GULP energy per Si atom -5589.058295 kJ/mol
# Density = 2.387123 g / cm^3
# Si number density = 23.925689 Si / 1000 Ang^3
#
#
#
# Elastic Constant Matrix: (Units=GPa)
#
#
# Indices 1 2 3 4 5 6 
#
# 1 71.6041 7.4018 10.0007 7.2146 9.5588 11.3571
# 2 7.4018 64.3364 12.8110 -4.6075 14.3808 3.2681
# 3 10.0007 12.8110 124.8475 3.4096 17.8033 -6.2992
# 4 7.2146 -4.6075 3.4096 30.1689 -6.5581 2.5151
# 5 9.5588 14.3808 17.8033 -6.5581 38.3986 -4.2621
# 6 11.3571 3.2681 -6.2992 2.5151 -4.2621 37.4014
#
#
#
# Elastic Compliance Matrix: (Units=1/GPa)
#
#
# Indices 1 2 3 4 5 6 
#
# 1 0.016036 -0.000707 -0.000673 -0.004469 -0.004752 -0.005162
# 2 -0.000707 0.017376 -0.001070 0.001879 -0.005766 -0.002267
# 3 -0.000673 -0.001070 0.008827 -0.001926 -0.003688 0.001494
# 4 -0.004469 0.001879 -0.001926 0.036398 0.007437 -0.000732
# 5 -0.004752 -0.005766 -0.003688 0.007437 0.032872 0.004571
# 6 -0.005162 -0.002267 0.001494 -0.000732 0.004571 0.029324
#
#
# Mechanical properties :
#
#
# Convention : Reuss Voigt Hill
#
# Bulk Modulus (GPa) = 26.78029 35.69055 31.23542
# Shear Modulus (GPa) = 31.60956 36.56541 34.08748
#
# Velocity S-wave (km/s) = 3.63871 3.91358 3.77865
# Velocity P-wave (km/s) = 5.37318 5.94736 5.66755
#
# Compressibility (1/GPa) = 0.03734090
#
# Stress axis : x y z
#
# Youngs Moduli (GPa) = 62.35945 57.54948 113.28493
#
# Poissons Ratio (x) = 0.04067 0.07622
# Poissons Ratio (y) = 0.04407 0.12120
# Poissons Ratio (z) = 0.04196 0.06157
#
# Static dielectric constant tensor:
#      x y z
#    x 1.987120 0.001810 -0.017200 
#    y 0.001810 1.889530 0.033600 
#    z -0.017200 0.033600 1.866950 
# 
# From -- ./inp_files/109390.got.cif
#   From: 2010.05.17/outbox.cif.g08.bks.cpg/sg2_55_cif.got.tgz:109390.got - 2010.06.03 11:33:40.
