data_PCOD9047650
_publ_section_title
;
Structure prediction by ZEFSAII (Michael W. Deem and Ramdas Pophale) SiO2 
 PCOD9047650
Probable space group: P -1
;
_chemical_formula_sum "Si O2"
_cell_formula_units_Z 12
_cell_length_a 16.035950
_cell_length_b 10.669587
_cell_length_c 4.951810
_cell_angle_alpha 77.025813
_cell_angle_beta 80.894984
_cell_angle_gamma 36.064790
_cell_volume 485.637804
_symmetry_space_group_name_H-M "P -1"
_symmetry_group_IT_number 2
_symmetry_cell_setting 'triclinic'
loop_
_space_group_symop_operation_xyz
x,y,z
-x,-y,-z
loop_
_atom_site_type_symbol
_atom_site_label
_atom_site_fract_x
_atom_site_fract_y
_atom_site_fract_z
Si Si1 0.319806 0.114611 0.585586
Si Si2 0.215475 0.384979 0.999538
Si Si3 0.391680 0.371863 0.220584
Si Si4 0.049847 0.306779 0.714187
Si Si5 0.061704 0.003990 0.713760
Si Si6 0.381659 0.551929 0.656045
O O1 0.282943 0.194477 0.257631
O O2 0.217111 0.125835 0.736207
O O3 0.481270 0.880277 0.655200
O O4 0.273750 0.288436 0.719761
O O5 0.269615 0.448615 0.079173
O O6 0.046452 0.582181 0.021456
O O7 0.346790 0.496243 0.456611
O O8 0.447795 0.403676 0.955921
O O9 0.000000 0.500000 0.500000
O O10 0.021620 0.204071 0.640146
O O11 0.232623 0.792589 0.711879
O O12 0.000000 0.000000 0.500000
O O13 0.000000 0.000000 0.000000
O O14 0.500000 0.500000 0.500000
#
# Coordination Sequence:
#
# PCOD9047650 Si02
#       6
#     2   2   2   2   2   2
#     4  11  23  40  65  98 134 176 223 279 341 412
#     4  11  22  40  64  98 133 175 225 281 343 410
#     4  12  24  43  67  96 136 181 227 285 346 411
#     4  10  24  44  69 100 136 180 231 286 344 410
#     4  12  27  48  74 105 142 186 235 289 350 417
#     4  12  26  45  68  99 135 182 233 288 345 412
#
# _framework density 24.709772000000001
#
# number of rings (size 3 to 8) (size 9 to 14) (size 15 to 20)
#    0.000    0.667    0.000    8.000    0.000    9.333 
#    0.000    0.000    0.000    0.000    0.000    0.000 
#    0.000    0.000    0.000    0.000    0.000    0.000 
#
# Total GULP energy -67217.457489 kJ/mol
# GULP energy per Si atom -5601.454791 kJ/mol
# Density = 2.465353 g / cm^3
# Si number density = 24.709772 Si / 1000 Ang^3
#
#
#
# Elastic Constant Matrix: (Units=GPa)
#
#
# Indices 1 2 3 4 5 6 
#
# 1 135.3463 55.8146 23.6040 11.4216 -9.8746 7.6570
# 2 55.8146 102.3724 40.6581 12.4186 -20.5900 18.3856
# 3 23.6040 40.6581 136.4281 8.4317 -8.1402 11.4557
# 4 11.4216 12.4186 8.4317 36.0726 4.3986 -1.2140
# 5 -9.8746 -20.5900 -8.1402 4.3986 45.7149 16.3779
# 6 7.6570 18.3856 11.4557 -1.2140 16.3779 50.5417
#
#
#
# Elastic Compliance Matrix: (Units=1/GPa)
#
#
# Indices 1 2 3 4 5 6 
#
# 1 0.009602 -0.005240 -0.000101 -0.001144 -0.000401 0.000577
# 2 -0.005240 0.017910 -0.002795 -0.005354 0.009979 -0.008450
# 3 -0.000101 -0.002795 0.008386 -0.001092 0.000722 -0.001129
# 4 -0.001144 -0.005354 -0.001092 0.031338 -0.007904 0.005683
# 5 -0.000401 0.009979 0.000722 -0.007904 0.032331 -0.014400
# 6 0.000577 -0.008450 -0.001129 0.005683 -0.014400 0.027831
#
#
# Mechanical properties :
#
#
# Convention : Reuss Voigt Hill
#
# Bulk Modulus (GPa) = 50.95687 68.25559 59.60623
# Shear Modulus (GPa) = 33.28665 43.40386 38.34525
#
# Velocity S-wave (km/s) = 3.67427 4.19566 3.94360
# Velocity P-wave (km/s) = 6.21830 7.15223 6.70155
#
# Compressibility (1/GPa) = 0.01962444
#
# Stress axis : x y z
#
# Youngs Moduli (GPa) = 104.14753 55.83611 119.25145
#
# Poissons Ratio (x) = 0.29259 0.01207
# Poissons Ratio (y) = 0.54576 0.33329
# Poissons Ratio (z) = 0.01054 0.15605
#
# Static dielectric constant tensor:
#      x y z
#    x 2.022280 0.008060 -0.030330 
#    y 0.008060 1.968970 -0.024420 
#    z -0.030330 -0.024420 1.853480 
# 
# From -- ./inp_files/90055.got.cif
#   From: 2010.05.17/outbox.cif.g08.bks.cpg/sg2_46_cif.got.tgz:90055.got - 2010.06.03 11:33:40.
