data_PCOD9047369
_publ_section_title
;
Structure prediction by ZEFSAII (Michael W. Deem and Ramdas Pophale) SiO2 
 PCOD9047369
Probable space group: P -1
;
_chemical_formula_sum "Si O2"
_cell_formula_units_Z 12
_cell_length_a 8.948768
_cell_length_b 9.659608
_cell_length_c 11.174717
_cell_angle_alpha 139.294178
_cell_angle_beta 71.392653
_cell_angle_gamma 84.713190
_cell_volume 502.350412
_symmetry_space_group_name_H-M "P -1"
_symmetry_group_IT_number 2
_symmetry_cell_setting 'triclinic'
loop_
_space_group_symop_operation_xyz
x,y,z
-x,-y,-z
loop_
_atom_site_type_symbol
_atom_site_label
_atom_site_fract_x
_atom_site_fract_y
_atom_site_fract_z
Si Si1 0.283266 0.224458 0.470608
Si Si2 0.673051 0.439718 0.148304
Si Si3 0.156968 0.481567 0.198071
Si Si4 0.673718 0.212334 0.693382
Si Si5 0.580038 0.711734 0.768458
Si Si6 0.086470 0.220502 0.850102
O O1 0.338605 0.318891 0.633354
O O2 0.345215 0.318934 0.404234
O O3 0.060608 0.370856 0.620893
O O4 0.349583 0.935049 0.287094
O O5 0.527352 0.565422 0.158391
O O6 0.579423 0.343523 0.200996
O O7 0.894983 0.232533 0.939265
O O8 0.200471 0.669733 0.241484
O O9 0.264750 0.427560 0.259780
O O10 0.195591 0.240772 0.951067
O O11 0.782569 0.003342 0.421569
O O12 0.500000 0.000000 0.000000
O O13 0.000000 0.500000 0.000000
#
# Coordination Sequence:
#
# PCOD9047369 Si02
#       6
#     2   2   2   2   2   2
#     4  11  22  43  68  93 134 175 219 269 338 394
#     4  10  24  44  66 101 131 174 226 275 328 404
#     4  10  24  44  66 101 131 174 226 275 328 404
#     4  11  23  43  74  98 137 174 213 292 333 382
#     4  11  26  42  64  96 136 179 220 273 335 397
#     4  11  23  41  72 102 131 171 230 270 341 392
#
# _framework density 23.887709000000001
#
# number of rings (size 3 to 8) (size 9 to 14) (size 15 to 20)
#    0.000    1.333    3.333    2.000    4.667    0.000 
#    0.000    5.000    0.000    0.000    0.000    0.000 
#    0.000    0.000    0.000    0.000    0.000    0.000 
#
# Total GULP energy -67136.207445 kJ/mol
# GULP energy per Si atom -5594.683954 kJ/mol
# Density = 2.383334 g / cm^3
# Si number density = 23.887709 Si / 1000 Ang^3
#
#
#
# Elastic Constant Matrix: (Units=GPa)
#
#
# Indices 1 2 3 4 5 6 
#
# 1 119.5665 47.4565 29.7781 -14.0109 3.4300 37.0543
# 2 47.4565 146.6744 27.8677 -18.3282 -10.8309 38.2143
# 3 29.7781 27.8677 105.6424 -5.6476 -0.2110 17.7920
# 4 -14.0109 -18.3282 -5.6476 41.2701 4.7745 0.5122
# 5 3.4300 -10.8309 -0.2110 4.7745 28.3576 -8.4288
# 6 37.0543 38.2143 17.7920 0.5122 -8.4288 45.3704
#
#
#
# Elastic Compliance Matrix: (Units=1/GPa)
#
#
# Indices 1 2 3 4 5 6 
#
# 1 0.013055 -0.001141 -0.001416 0.004536 -0.005845 -0.010283
# 2 -0.001141 0.009646 -0.000901 0.003716 0.001211 -0.006657
# 3 -0.001416 -0.000901 0.010542 0.000698 -0.000925 -0.002398
# 4 0.004536 0.003716 0.000698 0.028371 -0.006466 -0.008629
# 5 -0.005845 0.001211 -0.000925 -0.006466 0.041026 0.011811
# 6 -0.010283 -0.006657 -0.002398 -0.008629 0.011811 0.039278
#
#
# Mechanical properties :
#
#
# Convention : Reuss Voigt Hill
#
# Bulk Modulus (GPa) = 37.98287 64.67646 51.32966
# Shear Modulus (GPa) = 31.72380 40.78500 36.25440
#
# Velocity S-wave (km/s) = 3.64818 4.13651 3.89999
# Velocity P-wave (km/s) = 5.80351 7.06741 6.46641
#
# Compressibility (1/GPa) = 0.02632766
#
# Stress axis : x y z
#
# Youngs Moduli (GPa) = 76.59931 103.66821 94.85702
#
# Poissons Ratio (x) = 0.11824 0.13435
# Poissons Ratio (y) = 0.08737 0.08546
# Poissons Ratio (z) = 0.10849 0.09339
#
# Static dielectric constant tensor:
#      x y z
#    x 2.788350 -0.775530 0.327110 
#    y -0.775530 2.904490 -0.507080 
#    z 0.327110 -0.507080 2.166860 
# 
# From -- ./inp_files/156731.got.cif
#   From: 2010.05.17/outbox.cif.g08.bks.cpg/sg2_79_cif.got.tgz:156731.got - 2010.06.03 11:33:40.
