data_PCOD9047838
_publ_section_title
;
Structure prediction by ZEFSAII (Michael W. Deem and Ramdas Pophale) SiO2 
 PCOD9047838
Probable space group: P -1
;
_chemical_formula_sum "Si O2"
_cell_formula_units_Z 16
_cell_length_a 11.296824
_cell_length_b 19.371839
_cell_length_c 13.973828
_cell_angle_alpha 149.666305
_cell_angle_beta 46.127101
_cell_angle_gamma 150.999904
_cell_volume 724.490072
_symmetry_space_group_name_H-M "P -1"
_symmetry_group_IT_number 2
_symmetry_cell_setting 'triclinic'
loop_
_space_group_symop_operation_xyz
x,y,z
-x,-y,-z
loop_
_atom_site_type_symbol
_atom_site_label
_atom_site_fract_x
_atom_site_fract_y
_atom_site_fract_z
Si Si1 0.258199 0.734054 0.107544
Si Si2 0.822802 0.710346 0.670778
Si Si3 0.443027 0.667564 0.766540
Si Si4 0.096459 0.691021 0.617516
Si Si5 0.651416 0.843221 0.162708
Si Si6 0.732759 0.070269 0.006276
Si Si7 0.530206 0.854781 0.462742
Si Si8 0.336523 0.445303 0.116232
O O1 0.456920 0.795912 0.145508
O O2 0.280105 0.912362 0.320352
O O3 0.304734 0.703662 0.939225
O O4 0.000000 0.500000 0.000000
O O5 0.605090 0.683917 0.770890
O O6 0.739189 0.551919 0.446064
O O7 0.876880 0.652179 0.662306
O O8 0.074825 0.944649 0.776716
O O9 0.642930 0.856659 0.805274
O O10 0.264399 0.875526 0.820963
O O11 0.256452 0.753595 0.509238
O O12 0.000000 0.500000 0.500000
O O13 0.604226 0.868033 0.327990
O O14 0.637266 0.669797 0.968198
O O15 0.033741 0.274372 0.056253
O O16 0.500000 0.000000 0.000000
O O17 0.472146 0.676472 0.339177
O O18 0.500000 0.500000 0.000000
#
# Coordination Sequence:
#
# PCOD9047838 Si02
#       8
#     2   2   2   2   2   2   2   2
#     4  12  26  41  68 103 137 174 233 294 347 411
#     4  11  24  44  70  97 140 182 231 287 342 422
#     4  11  25  41  65 104 136 177 231 292 346 399
#     4  12  24  41  69  98 134 182 228 279 353 422
#     4  11  23  44  73  97 132 188 230 280 349 427
#     4  12  24  41  69 100 139 173 237 296 342 410
#     4  11  23  43  67  98 134 177 229 283 341 420
#     4  10  24  44  70  98 136 189 231 278 354 425
#
# _framework density 22.084498
#
# number of rings (size 3 to 8) (size 9 to 14) (size 15 to 20)
#    0.000    0.750    5.000    1.875    3.500    2.000 
#    0.000    0.625    0.000    0.000    0.000    0.000 
#    0.000    0.000    0.000    0.000    0.000    0.000 
#
# Total GULP energy -89261.319757 kJ/mol
# GULP energy per Si atom -5578.832485 kJ/mol
# Density = 2.203423 g / cm^3
# Si number density = 22.084498 Si / 1000 Ang^3
#
#
#
# Elastic Constant Matrix: (Units=GPa)
#
#
# Indices 1 2 3 4 5 6 
#
# 1 116.8651 -2.0115 22.6067 17.0345 -13.3451 -0.7817
# 2 -2.0115 81.0488 34.1700 8.5294 -5.7493 -2.9105
# 3 22.6067 34.1700 121.9496 22.1735 -30.2809 -2.8638
# 4 17.0345 8.5294 22.1735 56.4524 -9.3876 -5.3295
# 5 -13.3451 -5.7493 -30.2809 -9.3876 37.0943 8.2286
# 6 -0.7817 -2.9105 -2.8638 -5.3295 8.2286 25.6134
#
#
#
# Elastic Compliance Matrix: (Units=1/GPa)
#
#
# Indices 1 2 3 4 5 6 
#
# 1 0.009369 0.001053 -0.001072 -0.002271 0.002288 -0.000922
# 2 0.001053 0.014244 -0.004374 -0.000867 -0.001530 0.001473
# 3 -0.001072 -0.004374 0.012227 -0.002590 0.008825 -0.002537
# 4 -0.002271 -0.000867 -0.002590 0.020073 0.001280 0.003308
# 5 0.002288 -0.001530 0.008825 0.001280 0.037489 -0.010895
# 6 -0.000922 0.001473 -0.002537 0.003308 -0.010895 0.043086
#
#
# Mechanical properties :
#
#
# Convention : Reuss Voigt Hill
#
# Bulk Modulus (GPa) = 36.96472 47.71044 42.33758
# Shear Modulus (GPa) = 32.40606 41.50525 36.95565
#
# Velocity S-wave (km/s) = 3.83478 4.33989 4.09513
# Velocity P-wave (km/s) = 6.03171 6.83837 6.44767
#
# Compressibility (1/GPa) = 0.02705282
#
# Stress axis : x y z
#
# Youngs Moduli (GPa) = 106.73941 70.20473 81.78547
#
# Poissons Ratio (x) = -0.07391 0.08769
# Poissons Ratio (y) = -0.11238 0.35773
# Poissons Ratio (z) = 0.11445 0.30708
#
# Static dielectric constant tensor:
#      x y z
#    x 1.823090 -0.005520 -0.035890 
#    y -0.005520 1.737840 -0.081350 
#    z -0.035890 -0.081350 1.795100 
# 
# From -- ./inp_files/524094.got.cif
#   From: 2010.05.17/outbox.cif.g08.bks.cpg/sg2_263_cif.got.tgz:524094.got - 2010.06.03 11:33:40.
