data_PCOD9047333
_publ_section_title
;
Structure prediction by ZEFSAII (Michael W. Deem and Ramdas Pophale) SiO2 
 PCOD9047333
Probable space group: P -1
;
_chemical_formula_sum "Si O2"
_cell_formula_units_Z 14
_cell_length_a 17.989455
_cell_length_b 9.199131
_cell_length_c 5.087344
_cell_angle_alpha 58.309507
_cell_angle_beta 65.615871
_cell_angle_gamma 56.429554
_cell_volume 587.921639
_symmetry_space_group_name_H-M "P -1"
_symmetry_group_IT_number 2
_symmetry_cell_setting 'triclinic'
loop_
_space_group_symop_operation_xyz
x,y,z
-x,-y,-z
loop_
_atom_site_type_symbol
_atom_site_label
_atom_site_fract_x
_atom_site_fract_y
_atom_site_fract_z
Si Si1 0.939904 0.103961 0.735876
Si Si2 0.751523 0.792865 0.533593
Si Si3 0.579662 0.203979 0.848655
Si Si4 0.345253 0.227597 0.817723
Si Si5 0.398914 0.494410 0.809421
Si Si6 0.262319 0.825989 0.964318
Si Si7 0.059113 0.495162 0.666327
O O1 0.841167 0.107912 0.867763
O O2 0.923304 0.320160 0.542159
O O3 0.000000 0.000000 0.500000
O O4 0.000000 0.000000 0.000000
O O5 0.739762 0.721300 0.905258
O O6 0.846009 0.683281 0.351379
O O7 0.680125 0.778296 0.443150
O O8 0.737451 0.008311 0.380893
O O9 0.482788 0.337109 0.995531
O O10 0.576429 0.335846 0.481238
O O11 0.667257 0.185035 0.901267
O O12 0.590901 0.992055 0.992366
O O13 0.383454 0.375932 0.705623
O O14 0.304540 0.616667 0.977158
O O15 0.000000 0.500000 0.500000
O O16 0.000000 0.500000 0.000000
#
# Coordination Sequence:
#
# PCOD9047333 Si02
#       7
#     2   2   2   2   2   2   2
#     4  12  28  46  74 105 137 184 235 289 355 423
#     4  11  24  44  67  99 134 182 225 286 344 413
#     4  10  24  44  65 104 138 185 231 289 343 411
#     4  11  24  43  67 100 138 182 230 279 343 406
#     4  11  23  42  71  98 139 187 234 282 348 411
#     4  11  24  44  71  97 144 176 235 286 352 406
#     4  12  25  45  68  99 136 178 228 294 353 414
#
# _framework density 23.812698000000001
#
# number of rings (size 3 to 8) (size 9 to 14) (size 15 to 20)
#    0.000    0.857    1.429    5.143    6.000    1.143 
#    0.000    2.143    0.000    0.000    0.000    0.000 
#    0.000    0.000    0.000    0.000    0.000    0.000 
#
# Total GULP energy -78315.287638 kJ/mol
# GULP energy per Si atom -5593.949117 kJ/mol
# Density = 2.375850 g / cm^3
# Si number density = 23.812698 Si / 1000 Ang^3
#
#
#
# Elastic Constant Matrix: (Units=GPa)
#
#
# Indices 1 2 3 4 5 6 
#
# 1 115.2663 37.6101 13.7084 6.5812 -8.7756 -5.4561
# 2 37.6101 172.5033 16.4062 0.6750 -10.2695 -2.5461
# 3 13.7084 16.4062 74.6087 8.3799 0.7385 -1.0789
# 4 6.5812 0.6750 8.3799 37.7653 7.7566 -10.7342
# 5 -8.7756 -10.2695 0.7385 7.7566 34.8597 3.3785
# 6 -5.4561 -2.5461 -1.0789 -10.7342 3.3785 51.4184
#
#
#
# Elastic Compliance Matrix: (Units=1/GPa)
#
#
# Indices 1 2 3 4 5 6 
#
# 1 0.009715 -0.001856 -0.001197 -0.001748 0.002274 0.000400
# 2 -0.001856 0.006389 -0.001097 0.000178 0.001394 0.000042
# 3 -0.001197 -0.001097 0.014199 -0.003023 -0.000204 -0.000501
# 4 -0.001748 0.000178 -0.003023 0.030986 -0.007872 0.006746
# 5 0.002274 0.001394 -0.000204 -0.007872 0.031758 -0.003424
# 6 0.000400 0.000042 -0.000501 0.006746 -0.003424 0.021116
#
#
# Mechanical properties :
#
#
# Convention : Reuss Voigt Hill
#
# Bulk Modulus (GPa) = 45.45044 55.31421 50.38233
# Shear Modulus (GPa) = 38.52162 44.45223 41.48693
#
# Velocity S-wave (km/s) = 4.02642 4.32527 4.17852
# Velocity P-wave (km/s) = 6.38311 6.94430 6.66961
#
# Compressibility (1/GPa) = 0.02200199
#
# Stress axis : x y z
#
# Youngs Moduli (GPa) = 102.92845 156.51996 70.42844
#
# Poissons Ratio (x) = 0.29053 0.08433
# Poissons Ratio (y) = 0.19106 0.07727
# Poissons Ratio (z) = 0.12324 0.17171
#
# Static dielectric constant tensor:
#      x y z
#    x 1.908340 -0.030320 -0.028240 
#    y -0.030320 1.939730 0.051180 
#    z -0.028240 0.051180 1.958830 
# 
# From -- ./inp_files/38319.got.cif
#   From: 2010.05.17/outbox.cif.g08.bks.cpg/sg2_20_cif.got.tgz:38319.got - 2010.06.03 11:33:40.
