data_PCOD9047676
_publ_section_title
;
Structure prediction by ZEFSAII (Michael W. Deem and Ramdas Pophale) SiO2 
 PCOD9047676
Probable space group: P -1
;
_chemical_formula_sum "Si O2"
_cell_formula_units_Z 14
_cell_length_a 9.707508
_cell_length_b 14.818272
_cell_length_c 25.250366
_cell_angle_alpha 26.600669
_cell_angle_beta 154.374962
_cell_angle_gamma 146.670432
_cell_volume 695.276443
_symmetry_space_group_name_H-M "P -1"
_symmetry_group_IT_number 2
_symmetry_cell_setting 'triclinic'
loop_
_space_group_symop_operation_xyz
x,y,z
-x,-y,-z
loop_
_atom_site_type_symbol
_atom_site_label
_atom_site_fract_x
_atom_site_fract_y
_atom_site_fract_z
Si Si1 0.637748 0.755136 0.861034
Si Si2 0.519736 0.170000 0.603530
Si Si3 0.806404 0.675387 0.499431
Si Si4 0.217202 0.313971 0.938079
Si Si5 0.203064 0.337184 0.806262
Si Si6 0.377615 0.760211 0.088388
Si Si7 0.494733 0.608547 0.321516
O O1 0.412343 0.541863 0.888236
O O2 0.511066 0.950000 0.690046
O O3 0.665170 0.797948 0.911638
O O4 0.993670 0.730198 0.977953
O O5 0.253893 0.162493 0.562392
O O6 0.480704 0.364358 0.451562
O O7 0.882599 0.224533 0.724955
O O8 0.500000 0.500000 0.500000
O O9 0.750974 0.715803 0.397137
O O10 0.113761 0.561004 0.670516
O O11 0.254898 0.230855 0.935930
O O12 0.845077 0.332227 0.808625
O O13 0.499166 0.341920 0.867218
O O14 0.534442 0.676787 0.239001
O O15 0.500000 0.000000 0.000000
#
# Coordination Sequence:
#
# PCOD9047676 Si02
#       7
#     2   2   2   2   2   2   2
#     4  10  23  34  54  83 110 133 186 209 269 314
#     4  10  17  34  57  86  99 134 183 227 250 314
#     4   8  15  30  54  84  99 131 177 223 257 304
#     4  10  19  38  55  78 107 148 166 224 262 313
#     4  10  18  34  57  76 108 139 178 214 269 304
#     4  11  22  35  51  83 109 143 173 218 263 321
#     4   9  18  34  57  77 109 136 177 216 271 302
#
# _framework density 20.135874000000001
#
# number of rings (size 3 to 8) (size 9 to 14) (size 15 to 20)
#    0.000    2.571    5.714    0.000    0.000    5.143 
#    0.000    0.000    0.000    0.857    0.000    0.000 
#    0.000    0.000    0.000    0.000    0.000    0.000 
#
# Total GULP energy -78053.008161 kJ/mol
# GULP energy per Si atom -5575.214869 kJ/mol
# Density = 2.009004 g / cm^3
# Si number density = 20.135874 Si / 1000 Ang^3
#
#
#
# Elastic Constant Matrix: (Units=GPa)
#
#
# Indices 1 2 3 4 5 6 
#
# 1 130.2405 -1.6602 38.0826 2.1869 -2.0401 -1.0328
# 2 -1.6602 20.7745 11.3421 -6.6264 -2.2047 4.2270
# 3 38.0826 11.3421 79.5228 -13.4713 -7.6720 -2.5913
# 4 2.1869 -6.6264 -13.4713 25.9593 -2.2924 -2.8537
# 5 -2.0401 -2.2047 -7.6720 -2.2924 35.3511 -4.4065
# 6 -1.0328 4.2270 -2.5913 -2.8537 -4.4065 6.8294
#
#
#
# Elastic Compliance Matrix: (Units=1/GPa)
#
#
# Indices 1 2 3 4 5 6 
#
# 1 0.009495 0.003907 -0.006067 -0.003720 -0.001489 -0.005800
# 2 0.003907 0.065369 -0.012195 0.004780 -0.003623 -0.044836
# 3 -0.006067 -0.012195 0.020589 0.011312 0.007047 0.023717
# 4 -0.003720 0.004780 0.011312 0.049760 0.009192 0.027495
# 5 -0.001489 -0.003623 0.007047 0.009192 0.033891 0.030399
# 6 -0.005800 -0.044836 0.023717 0.027495 0.030399 0.213401
#
#
# Mechanical properties :
#
#
# Convention : Reuss Voigt Hill
#
# Bulk Modulus (GPa) = 14.98311 36.22963 25.60637
# Shear Modulus (GPa) = 11.27491 25.81286 18.54388
#
# Velocity S-wave (km/s) = 2.36888 3.58429 3.03799
# Velocity P-wave (km/s) = 3.86513 5.92969 5.00502
#
# Compressibility (1/GPa) = 0.06674182
#
# Stress axis : x y z
#
# Youngs Moduli (GPa) = 105.31746 15.29772 48.57000
#
# Poissons Ratio (x) = -0.05976 0.29468
# Poissons Ratio (y) = -0.41143 0.59232
# Poissons Ratio (z) = 0.63898 0.18656
#
# Static dielectric constant tensor:
#      x y z
#    x 1.756940 -0.053210 -0.022630 
#    y -0.053210 1.741490 -0.005840 
#    z -0.022630 -0.005840 1.759150 
# 
# From -- ./inp_files/216327.got.cif
#   From: 2010.05.17/outbox.cif.g08.bks.cpg/sg2_109_cif.got.tgz:216327.got - 2010.06.03 11:33:40.
