data_PCOD9047941
_publ_section_title
;
Structure prediction by ZEFSAII (Michael W. Deem and Ramdas Pophale) SiO2 
 PCOD9047941
Probable space group: P -1
;
_chemical_formula_sum "Si O2"
_cell_formula_units_Z 14
_cell_length_a 9.054224
_cell_length_b 11.535273
_cell_length_c 16.131974
_cell_angle_alpha 30.455994
_cell_angle_beta 129.781756
_cell_angle_gamma 136.458796
_cell_volume 587.771351
_symmetry_space_group_name_H-M "P -1"
_symmetry_group_IT_number 2
_symmetry_cell_setting 'triclinic'
loop_
_space_group_symop_operation_xyz
x,y,z
-x,-y,-z
loop_
_atom_site_type_symbol
_atom_site_label
_atom_site_fract_x
_atom_site_fract_y
_atom_site_fract_z
Si Si1 0.568449 0.771351 0.898492
Si Si2 0.081608 0.884506 0.525313
Si Si3 0.209827 0.191629 0.694839
Si Si4 0.842298 0.567931 0.209333
Si Si5 0.747697 0.301431 0.024558
Si Si6 0.511969 0.595407 0.674214
Si Si7 0.894359 0.226366 0.675840
O O1 0.380284 0.752610 0.901698
O O2 0.652040 0.010421 0.718948
O O3 0.500000 0.500000 0.000000
O O4 0.772462 0.771065 0.020745
O O5 0.128019 0.640227 0.708299
O O6 0.912977 0.811532 0.432815
O O7 0.305915 0.118312 0.437223
O O8 0.000000 0.000000 0.500000
O O9 0.390827 0.464134 0.625521
O O10 0.032786 0.100860 0.760386
O O11 0.285637 0.972891 0.849576
O O12 0.661643 0.433304 0.299362
O O13 0.059706 0.703455 0.255403
O O14 0.632051 0.426990 0.848584
O O15 0.000000 0.500000 0.000000
O O16 0.000000 0.500000 0.500000
#
# Coordination Sequence:
#
# PCOD9047941 Si02
#       7
#     2   2   2   2   2   2   2
#     4  11  26  41  72 108 138 191 242 291 361 432
#     4  12  26  42  67 103 144 188 236 297 362 429
#     4  11  24  44  69 100 140 184 238 296 363 423
#     4  10  24  46  68 100 142 183 237 288 356 434
#     4  11  22  44  70 101 147 187 238 301 364 429
#     4  10  24  44  71  99 136 194 237 294 362 427
#     4  11  23  46  73 103 140 188 238 296 356 428
#
# _framework density 23.818784999999998
#
# number of rings (size 3 to 8) (size 9 to 14) (size 15 to 20)
#    0.000    1.143    2.857    2.143    4.000    5.143 
#    0.000    0.000    0.000    0.000    0.000    0.000 
#    0.000    0.000    0.000    0.000    0.000    0.000 
#
# Total GULP energy -78202.184270 kJ/mol
# GULP energy per Si atom -5585.870305 kJ/mol
# Density = 2.376457 g / cm^3
# Si number density = 23.818785 Si / 1000 Ang^3
#
#
#
# Elastic Constant Matrix: (Units=GPa)
#
#
# Indices 1 2 3 4 5 6 
#
# 1 123.1703 26.2322 46.2549 -23.2372 30.6990 -15.8211
# 2 26.2322 124.5252 39.8214 0.6398 -1.8626 -7.5586
# 3 46.2549 39.8214 103.6853 -25.6226 12.3553 4.6458
# 4 -23.2372 0.6398 -25.6226 46.5607 3.4467 4.4935
# 5 30.6990 -1.8626 12.3553 3.4467 41.5271 -6.2017
# 6 -15.8211 -7.5586 4.6458 4.4935 -6.2017 36.9074
#
#
#
# Elastic Compliance Matrix: (Units=1/GPa)
#
#
# Indices 1 2 3 4 5 6 
#
# 1 0.013332 -0.001777 -0.003047 0.005317 -0.008935 0.003586
# 2 -0.001777 0.010214 -0.004805 -0.004272 0.004024 0.003131
# 3 -0.003047 -0.004805 0.015587 0.008001 -0.004149 -0.005924
# 4 0.005317 -0.004272 0.008001 0.029780 -0.009700 -0.004859
# 5 -0.008935 0.004024 -0.004149 -0.009700 0.033553 0.004335
# 6 0.003586 0.003131 -0.005924 -0.004859 0.004335 0.031339
#
#
# Mechanical properties :
#
#
# Convention : Reuss Voigt Hill
#
# Bulk Modulus (GPa) = 50.31935 63.99974 57.15954
# Shear Modulus (GPa) = 31.31103 40.93718 36.12411
#
# Velocity S-wave (km/s) = 3.62961 4.15021 3.89861
# Velocity P-wave (km/s) = 6.22392 7.06353 6.65697
#
# Compressibility (1/GPa) = 0.01987307
#
# Stress axis : x y z
#
# Youngs Moduli (GPa) = 75.00606 97.90733 64.15784
#
# Poissons Ratio (x) = 0.17402 0.19550
# Poissons Ratio (y) = 0.13331 0.30829
# Poissons Ratio (z) = 0.22856 0.47046
#
# Static dielectric constant tensor:
#      x y z
#    x 1.929240 0.105820 -0.025270 
#    y 0.105820 2.209890 0.049510 
#    z -0.025270 0.049510 2.020420 
# 
# From -- ./inp_files/559605.got.cif
#   From: 2010.05.17/outbox.cif.g08.bks.cpg/sg2_280_cif.got.tgz:559605.got - 2010.06.03 11:33:40.
