data_PCOD9047630
_publ_section_title
;
Structure prediction by ZEFSAII (Michael W. Deem and Ramdas Pophale) SiO2 
 PCOD9047630
Probable space group: P -1
;
_chemical_formula_sum "Si O2"
_cell_formula_units_Z 16
_cell_length_a 12.453325
_cell_length_b 17.538283
_cell_length_c 6.451956
_cell_angle_alpha 52.490828
_cell_angle_beta 50.926879
_cell_angle_gamma 46.378439
_cell_volume 753.027304
_symmetry_space_group_name_H-M "P -1"
_symmetry_group_IT_number 2
_symmetry_cell_setting 'triclinic'
loop_
_space_group_symop_operation_xyz
x,y,z
-x,-y,-z
loop_
_atom_site_type_symbol
_atom_site_label
_atom_site_fract_x
_atom_site_fract_y
_atom_site_fract_z
Si Si1 0.625395 0.131178 0.392330
Si Si2 0.308292 0.195154 0.842035
Si Si3 0.124588 0.952531 0.113473
Si Si4 0.495638 0.630199 0.985076
Si Si5 0.259289 0.547963 0.331541
Si Si6 0.120285 0.068756 0.324032
Si Si7 0.306295 0.358046 0.902614
Si Si8 0.070181 0.380094 0.508494
O O1 0.472085 0.117768 0.647296
O O2 0.561383 0.262176 0.268664
O O3 0.761839 0.051516 0.517630
O O4 0.705095 0.102645 0.114447
O O5 0.351273 0.250609 0.887626
O O6 0.194075 0.290451 0.663636
O O7 0.208205 0.138645 0.134105
O O8 0.055111 0.885841 0.438790
O O9 0.110796 0.046123 0.131778
O O10 0.000000 0.000000 0.000000
O O11 0.638958 0.525275 0.867852
O O12 0.352150 0.605205 0.220973
O O13 0.558635 0.650484 0.090811
O O14 0.256418 0.461584 0.640551
O O15 0.081257 0.633439 0.336215
O O16 0.161212 0.376959 0.194664
O O17 0.000000 0.500000 0.500000
#
# Coordination Sequence:
#
# PCOD9047630 Si02
#       8
#     2   2   2   2   2   2   2   2
#     4  11  22  44  65  97 134 169 218 276 328 384
#     4  12  26  41  68 101 134 172 224 271 332 395
#     4   9  22  44  68  90 134 171 218 272 327 386
#     4  11  24  43  66  98 134 171 222 275 326 390
#     4  11  24  42  66  96 131 176 222 269 331 396
#     4  10  24  44  68  98 131 175 220 268 329 404
#     4  12  22  43  67  92 137 171 221 271 331 393
#     4  12  23  43  64  93 137 171 217 278 326 384
#
# _framework density 21.247568999999999
#
# number of rings (size 3 to 8) (size 9 to 14) (size 15 to 20)
#    0.000    1.000    5.000    1.125    1.750    6.500 
#    0.000    0.000    0.000    0.000    0.000    0.000 
#    0.000    0.000    0.000    0.000    0.000    0.000 
#
# Total GULP energy -89377.891913 kJ/mol
# GULP energy per Si atom -5586.118245 kJ/mol
# Density = 2.119921 g / cm^3
# Si number density = 21.247569 Si / 1000 Ang^3
#
#
#
# Elastic Constant Matrix: (Units=GPa)
#
#
# Indices 1 2 3 4 5 6 
#
# 1 147.1057 26.1683 49.1895 10.3654 -4.0252 13.0013
# 2 26.1683 23.6944 24.0890 10.3757 3.7274 3.0211
# 3 49.1895 24.0890 93.7963 29.8256 -15.1332 17.8114
# 4 10.3654 10.3757 29.8256 35.4543 -2.6733 -1.6600
# 5 -4.0252 3.7274 -15.1332 -2.6733 34.5910 -7.1432
# 6 13.0013 3.0211 17.8114 -1.6600 -7.1432 31.8595
#
#
#
# Elastic Compliance Matrix: (Units=1/GPa)
#
#
# Indices 1 2 3 4 5 6 
#
# 1 0.009229 -0.007778 -0.003355 0.002390 0.000437 -0.000930
# 2 -0.007778 0.071007 -0.014337 -0.007568 -0.015283 0.000635
# 3 -0.003355 -0.014337 0.024008 -0.014823 0.008540 -0.009551
# 4 0.002390 -0.007568 -0.014823 0.042673 0.000025 0.010258
# 5 0.000437 -0.015283 0.008540 0.000025 0.035254 0.004402
# 6 -0.000930 0.000635 -0.009551 0.010258 0.004402 0.038568
#
#
# Mechanical properties :
#
#
# Convention : Reuss Voigt Hill
#
# Bulk Modulus (GPa) = 18.76053 51.49890 35.12971
# Shear Modulus (GPa) = 17.27418 31.39093 24.33255
#
# Velocity S-wave (km/s) = 2.85440 3.84785 3.38774
# Velocity P-wave (km/s) = 4.43984 6.63562 5.64551
#
# Compressibility (1/GPa) = 0.05330340
#
# Stress axis : x y z
#
# Youngs Moduli (GPa) = 108.35163 14.08303 41.65277
#
# Poissons Ratio (x) = 0.10954 0.13975
# Poissons Ratio (y) = 0.84280 0.59718
# Poissons Ratio (z) = 0.36354 0.20191
#
# Static dielectric constant tensor:
#      x y z
#    x 1.765720 -0.007670 -0.020560 
#    y -0.007670 1.769570 0.017350 
#    z -0.020560 0.017350 1.796120 
# 
# From -- ./inp_files/81194.got.cif
#   From: 2010.05.17/outbox.cif.g08.bks.cpg/sg2_41_cif.got.tgz:81194.got - 2010.06.03 11:33:40.
