data_PCOD9047328
_publ_section_title
;
Structure prediction by ZEFSAII (Michael W. Deem and Ramdas Pophale) SiO2 
 PCOD9047328
Probable space group: P -1
;
_chemical_formula_sum "Si O2"
_cell_formula_units_Z 16
_cell_length_a 8.938530
_cell_length_b 15.968030
_cell_length_c 10.186104
_cell_angle_alpha 41.005201
_cell_angle_beta 43.733389
_cell_angle_gamma 51.260897
_cell_volume 648.984618
_symmetry_space_group_name_H-M "P -1"
_symmetry_group_IT_number 2
_symmetry_cell_setting 'triclinic'
loop_
_space_group_symop_operation_xyz
x,y,z
-x,-y,-z
loop_
_atom_site_type_symbol
_atom_site_label
_atom_site_fract_x
_atom_site_fract_y
_atom_site_fract_z
Si Si1 0.471389 0.677994 0.641847
Si Si2 0.643421 0.030469 0.747314
Si Si3 0.303675 0.447703 0.615526
Si Si4 0.924305 0.613923 0.518581
Si Si5 0.424864 0.110249 0.311303
Si Si6 0.060725 0.837397 0.447941
Si Si7 0.037970 0.619222 0.926185
Si Si8 0.134373 0.851410 0.099401
O O1 0.429134 0.829672 0.446218
O O2 0.589414 0.608000 0.521029
O O3 0.663024 0.644083 0.668655
O O4 0.253574 0.617209 0.882688
O O5 0.878199 0.040145 0.656084
O O6 0.625085 0.935102 0.751068
O O7 0.500000 0.000000 0.000000
O O8 0.500000 0.500000 0.500000
O O9 0.090066 0.560229 0.594590
O O10 0.188857 0.345846 0.890665
O O11 0.000000 0.500000 0.500000
O O12 0.988062 0.748305 0.269544
O O13 0.182251 0.167778 0.443786
O O14 0.500000 0.000000 0.500000
O O15 0.636124 0.177282 0.088840
O O16 0.094789 0.723504 0.664256
O O17 0.198353 0.827958 0.239335
O O18 0.000000 0.500000 0.000000
O O19 0.000000 0.000000 0.000000
#
# Coordination Sequence:
#
# PCOD9047328 Si02
#       8
#     2   2   2   2   2   2   2   2
#     4  10  24  44  65 100 139 182 241 291 367 435
#     4  11  24  45  72 101 147 191 233 306 371 429
#     4  11  23  42  71  97 138 184 240 296 360 432
#     4  10  25  46  68 102 145 193 238 297 371 436
#     4  12  26  45  70 104 143 190 242 300 366 442
#     4  11  26  42  71 105 138 185 241 301 368 436
#     4  11  23  41  68 102 132 179 237 294 354 433
#     4  12  24  46  74 105 145 190 243 302 371 434
#
# _framework density 24.653896
#
# number of rings (size 3 to 8) (size 9 to 14) (size 15 to 20)
#    0.000    1.000    3.750    1.875    5.250    0.500 
#    9.000    0.000    0.000    0.000    0.000    0.000 
#    0.000    0.000    0.000    0.000    0.000    0.000 
#
# Total GULP energy -89305.384316 kJ/mol
# GULP energy per Si atom -5581.586520 kJ/mol
# Density = 2.459778 g / cm^3
# Si number density = 24.653896 Si / 1000 Ang^3
#
#
#
# Elastic Constant Matrix: (Units=GPa)
#
#
# Indices 1 2 3 4 5 6 
#
# 1 107.3845 12.7027 35.3915 4.6604 -27.5871 -19.0424
# 2 12.7027 47.0165 17.8579 1.7897 -16.0587 -12.4418
# 3 35.3915 17.8579 126.0423 15.1243 -25.3405 -5.0538
# 4 4.6604 1.7897 15.1243 46.8941 -4.2497 -3.3618
# 5 -27.5871 -16.0587 -25.3405 -4.2497 55.7206 9.6671
# 6 -19.0424 -12.4418 -5.0538 -3.3618 9.6671 51.2332
#
#
#
# Elastic Compliance Matrix: (Units=1/GPa)
#
#
# Indices 1 2 3 4 5 6 
#
# 1 0.011747 0.000032 -0.002351 0.000211 0.004188 0.003366
# 2 0.000032 0.025298 -0.002384 0.000645 0.005415 0.004941
# 3 -0.002351 -0.002384 0.009721 -0.002661 0.002567 -0.001153
# 4 0.000211 0.000645 -0.002661 0.022282 0.000549 0.001331
# 5 0.004188 0.005415 0.002567 0.000549 0.022994 -0.001178
# 6 0.003366 0.004941 -0.001153 0.001331 -0.001178 0.022165
#
#
# Mechanical properties :
#
#
# Convention : Reuss Voigt Hill
#
# Bulk Modulus (GPa) = 26.76640 45.81639 36.29140
# Shear Modulus (GPa) = 36.74641 45.06899 40.90770
#
# Velocity S-wave (km/s) = 3.86488 4.28023 4.07784
# Velocity P-wave (km/s) = 5.54949 6.56135 6.07652
#
# Compressibility (1/GPa) = 0.03736027
#
# Stress axis : x y z
#
# Youngs Moduli (GPa) = 85.12763 39.52831 102.87092
#
# Poissons Ratio (x) = -0.00128 0.24189
# Poissons Ratio (y) = -0.00276 0.24525
# Poissons Ratio (z) = 0.20017 0.09424
#
# Static dielectric constant tensor:
#      x y z
#    x 2.065760 -0.024320 0.022150 
#    y -0.024320 2.078260 -0.038140 
#    z 0.022150 -0.038140 1.978310 
# 
# From -- ./inp_files/405233.got.cif
#   From: 2010.05.17/outbox.cif.g08.bks.cpg/sg2_203_cif.got.tgz:405233.got - 2010.06.03 11:33:40.
