data_PCOD9047366
_publ_section_title
;
Structure prediction by ZEFSAII (Michael W. Deem and Ramdas Pophale) SiO2 
 PCOD9047366
Probable space group: P -1
;
_chemical_formula_sum "Si O2"
_cell_formula_units_Z 16
_cell_length_a 8.747374
_cell_length_b 11.941199
_cell_length_c 13.112998
_cell_angle_alpha 45.631733
_cell_angle_beta 45.036521
_cell_angle_gamma 45.367841
_cell_volume 631.259578
_symmetry_space_group_name_H-M "P -1"
_symmetry_group_IT_number 2
_symmetry_cell_setting 'triclinic'
loop_
_space_group_symop_operation_xyz
x,y,z
-x,-y,-z
loop_
_atom_site_type_symbol
_atom_site_label
_atom_site_fract_x
_atom_site_fract_y
_atom_site_fract_z
Si Si1 0.795013 0.100176 0.954553
Si Si2 0.562122 0.833424 0.232311
Si Si3 0.523286 0.077260 0.557635
Si Si4 0.020925 0.325368 0.151908
Si Si5 0.952723 0.017354 0.717036
Si Si6 0.576697 0.722086 0.840915
Si Si7 0.237730 0.541661 0.627952
Si Si8 0.858090 0.622158 0.584498
O O1 0.646784 0.985129 0.072932
O O2 0.626028 0.268464 0.989750
O O3 0.914397 0.109471 0.785943
O O4 0.000000 0.000000 0.000000
O O5 0.534517 0.824791 0.371116
O O6 0.755438 0.646514 0.228946
O O7 0.299236 0.880433 0.284332
O O8 0.798995 0.013961 0.434795
O O9 0.334100 0.207660 0.486904
O O10 0.478903 0.908451 0.714019
O O11 0.039810 0.175901 0.161351
O O12 0.806286 0.357710 0.309429
O O13 0.224293 0.280080 0.171146
O O14 0.000000 0.500000 0.000000
O O15 0.694120 0.593761 0.772629
O O16 0.500000 0.500000 0.500000
O O17 0.061639 0.627251 0.562136
O O18 0.000000 0.500000 0.500000
#
# Coordination Sequence:
#
# PCOD9047366 Si02
#       8
#     2   2   2   2   2   2   2   2
#     4  11  24  44  67 101 137 180 240 289 342 408
#     4  11  23  43  71 101 143 184 237 291 339 423
#     4  11  22  42  71 104 136 176 236 290 349 405
#     4  11  24  42  66  97 140 182 227 287 346 411
#     4  12  24  42  76 100 137 188 240 282 353 415
#     4  10  24  44  66 100 138 178 235 289 339 413
#     4  11  25  44  69 105 143 180 233 289 355 418
#     4  11  23  42  67  98 145 178 220 284 357 410
#
# _framework density 25.346150000000002
#
# number of rings (size 3 to 8) (size 9 to 14) (size 15 to 20)
#    0.000    1.000    3.750    3.375    5.250    1.000 
#    0.000    1.250    0.000    4.500    0.000    0.000 
#    0.000    0.000    0.000    0.000    0.000    0.000 
#
# Total GULP energy -89309.973775 kJ/mol
# GULP energy per Si atom -5581.873361 kJ/mol
# Density = 2.528846 g / cm^3
# Si number density = 25.346150 Si / 1000 Ang^3
#
#
#
# Elastic Constant Matrix: (Units=GPa)
#
#
# Indices 1 2 3 4 5 6 
#
# 1 73.0111 32.7704 31.9532 7.1061 8.1697 -1.5565
# 2 32.7704 114.6048 47.4604 15.7573 3.2703 2.6478
# 3 31.9532 47.4604 98.5011 39.2810 15.2850 13.3233
# 4 7.1061 15.7573 39.2810 59.1057 15.1244 8.2029
# 5 8.1697 3.2703 15.2850 15.1244 41.1547 7.0892
# 6 -1.5565 2.6478 13.3233 8.2029 7.0892 51.0124
#
#
#
# Elastic Compliance Matrix: (Units=1/GPa)
#
#
# Indices 1 2 3 4 5 6 
#
# 1 0.017399 -0.003247 -0.004909 0.002432 -0.002602 0.001952
# 2 -0.003247 0.011597 -0.004845 0.000106 0.001423 0.000350
# 3 -0.004909 -0.004845 0.018566 -0.009666 -0.001469 -0.002989
# 4 0.002432 0.000106 -0.009666 0.024594 -0.005845 -0.000549
# 5 -0.002602 0.001423 -0.001469 -0.005845 0.027861 -0.002702
# 6 0.001952 0.000350 -0.002989 -0.000549 -0.002702 0.020889
#
#
# Mechanical properties :
#
#
# Convention : Reuss Voigt Hill
#
# Bulk Modulus (GPa) = 46.38348 56.72056 51.55202
# Shear Modulus (GPa) = 32.44743 41.85011 37.14877
#
# Velocity S-wave (km/s) = 3.58183 4.06783 3.83254
# Velocity P-wave (km/s) = 5.95363 6.67008 6.32201
#
# Compressibility (1/GPa) = 0.02155940
#
# Stress axis : x y z
#
# Youngs Moduli (GPa) = 57.47537 86.22744 53.86145
#
# Poissons Ratio (x) = 0.27999 0.26443
# Poissons Ratio (y) = 0.18663 0.26095
# Poissons Ratio (z) = 0.28217 0.41776
#
# Static dielectric constant tensor:
#      x y z
#    x 2.045760 0.081300 -0.029190 
#    y 0.081300 2.171430 0.046180 
#    z -0.029190 0.046180 2.081590 
# 
# From -- ./inp_files/398538.got.cif
#   From: 2010.05.17/outbox.cif.g08.bks.cpg/sg2_200_cif.got.tgz:398538.got - 2010.06.03 11:33:40.
