data_PCOD9047888
_publ_section_title
;
Structure prediction by ZEFSAII (Michael W. Deem and Ramdas Pophale) SiO2 
 PCOD9047888
Probable space group: P -1
;
_chemical_formula_sum "Si O2"
_cell_formula_units_Z 14
_cell_length_a 19.176990
_cell_length_b 11.094993
_cell_length_c 14.378638
_cell_angle_alpha 143.056321
_cell_angle_beta 160.357087
_cell_angle_gamma 37.968342
_cell_volume 608.416843
_symmetry_space_group_name_H-M "P -1"
_symmetry_group_IT_number 2
_symmetry_cell_setting 'triclinic'
loop_
_space_group_symop_operation_xyz
x,y,z
-x,-y,-z
loop_
_atom_site_type_symbol
_atom_site_label
_atom_site_fract_x
_atom_site_fract_y
_atom_site_fract_z
Si Si1 0.793462 0.635235 0.370590
Si Si2 0.095519 0.015022 0.380449
Si Si3 0.526809 0.318906 0.348227
Si Si4 0.140949 0.399442 0.354509
Si Si5 0.135418 0.162849 0.728972
Si Si6 0.742961 0.029461 0.821469
Si Si7 0.452873 0.540053 0.197894
O O1 0.782507 0.586359 0.434532
O O2 0.000000 0.500000 0.500000
O O3 0.816922 0.865187 0.520151
O O4 0.605199 0.581520 0.039565
O O5 0.231671 0.791756 0.416628
O O6 0.138672 0.117952 0.595209
O O7 0.848677 0.035247 0.059570
O O8 0.500000 0.500000 0.500000
O O9 0.465785 0.412731 0.228501
O O10 0.368438 0.155525 0.060237
O O11 0.319983 0.410712 0.510086
O O12 0.969662 0.599763 0.244112
O O13 0.111505 0.164830 0.162614
O O14 0.000000 0.000000 0.500000
O O15 0.719318 0.252529 0.883514
O O16 0.500000 0.000000 0.500000
#
# Coordination Sequence:
#
# PCOD9047888 Si02
#       7
#     2   2   2   2   2   2   2
#     4  12  22  41  70 102 139 177 238 290 352 416
#     4  12  25  45  72 101 142 188 236 294 355 425
#     4  12  28  48  72 106 146 190 242 293 359 425
#     4  11  24  42  70 105 138 184 235 295 354 416
#     4  12  26  46  72 104 146 193 241 290 358 429
#     4  10  24  44  71 104 142 181 235 296 360 419
#     4  11  23  46  69 102 142 185 233 292 351 428
#
# _framework density 23.010539999999999
#
# number of rings (size 3 to 8) (size 9 to 14) (size 15 to 20)
#    0.000    0.571    4.286    2.571    4.000    4.000 
#    0.000    5.000    0.000    0.000    0.000    0.000 
#    0.000    0.000    0.000    0.000    0.000    0.000 
#
# Total GULP energy -78231.369885 kJ/mol
# GULP energy per Si atom -5587.954992 kJ/mol
# Density = 2.295817 g / cm^3
# Si number density = 23.010540 Si / 1000 Ang^3
#
#
#
# Elastic Constant Matrix: (Units=GPa)
#
#
# Indices 1 2 3 4 5 6 
#
# 1 66.0637 14.1264 5.5011 1.5056 6.0857 10.2727
# 2 14.1264 130.6280 13.9182 -7.7776 -3.1683 -3.0651
# 3 5.5011 13.9182 101.4900 -6.5926 -2.3357 7.8919
# 4 1.5056 -7.7776 -6.5926 33.7007 1.4858 -1.6247
# 5 6.0857 -3.1683 -2.3357 1.4858 27.3747 3.7879
# 6 10.2727 -3.0651 7.8919 -1.6247 3.7879 36.9567
#
#
#
# Elastic Compliance Matrix: (Units=1/GPa)
#
#
# Indices 1 2 3 4 5 6 
#
# 1 0.016625 -0.002015 -0.000445 -0.001363 -0.003282 -0.004417
# 2 -0.002015 0.008143 -0.000977 0.001802 0.001013 0.001420
# 3 -0.000445 -0.000977 0.010315 0.001659 0.001080 -0.002198
# 4 -0.001363 0.001802 0.001659 0.030608 -0.001236 0.001646
# 5 -0.003282 0.001013 0.001080 -0.001236 0.037976 -0.003181
# 6 -0.004417 0.001420 -0.002198 0.001646 -0.003181 0.029272
#
#
# Mechanical properties :
#
#
# Convention : Reuss Voigt Hill
#
# Bulk Modulus (GPa) = 35.45231 40.58590 38.01910
# Shear Modulus (GPa) = 33.50839 37.24882 35.37860
#
# Velocity S-wave (km/s) = 3.82018 4.02776 3.92534
# Velocity P-wave (km/s) = 5.90752 6.26951 6.09121
#
# Compressibility (1/GPa) = 0.02820691
#
# Stress axis : x y z
#
# Youngs Moduli (GPa) = 60.15043 122.81228 96.94739
#
# Poissons Ratio (x) = 0.24744 0.04319
# Poissons Ratio (y) = 0.12119 0.09476
# Poissons Ratio (z) = 0.02679 0.12005
#
# Static dielectric constant tensor:
#      x y z
#    x 1.808620 -0.000190 0.049110 
#    y -0.000190 1.919110 0.022670 
#    z 0.049110 0.022670 1.948510 
# 
# From -- ./inp_files/243598.got.cif
#   From: 2010.05.17/outbox.cif.g08.bks.cpg/sg2_122_cif.got.tgz:243598.got - 2010.06.03 11:33:40.
