data_PCOD9047553
_publ_section_title
;
Structure prediction by ZEFSAII (Michael W. Deem and Ramdas Pophale) SiO2 
 PCOD9047553
Probable space group: P -1
;
_chemical_formula_sum "Si O2"
_cell_formula_units_Z 13
_cell_length_a 13.556936
_cell_length_b 6.836300
_cell_length_c 8.887627
_cell_angle_alpha 124.644739
_cell_angle_beta 86.043556
_cell_angle_gamma 66.447956
_cell_volume 571.299216
_symmetry_space_group_name_H-M "P -1"
_symmetry_group_IT_number 2
_symmetry_cell_setting 'triclinic'
loop_
_space_group_symop_operation_xyz
x,y,z
-x,-y,-z
loop_
_atom_site_type_symbol
_atom_site_label
_atom_site_fract_x
_atom_site_fract_y
_atom_site_fract_z
Si Si1 0.921796 0.097077 0.198945
Si Si2 0.000000 0.500000 0.500000
Si Si3 0.273046 0.834948 0.287413
Si Si4 0.719834 0.173224 0.061342
Si Si5 0.374547 0.208176 0.028839
Si Si6 0.040163 0.205476 0.644572
Si Si7 0.515909 0.774857 0.280663
O O1 0.793203 0.214666 0.197668
O O2 0.955564 0.839142 0.197521
O O3 0.937963 0.325287 0.383136
O O4 0.000000 0.000000 0.000000
O O5 0.969319 0.489199 0.681194
O O6 0.169760 0.077280 0.502452
O O7 0.390008 0.841761 0.270221
O O8 0.229487 0.866950 0.132678
O O9 0.309490 0.535398 0.223169
O O10 0.590967 0.456516 0.192477
O O11 0.703805 0.919562 0.991842
O O12 0.407566 0.213835 0.855581
O O13 0.500000 0.000000 0.000000
O O14 0.000000 0.000000 0.500000
O O15 0.500000 0.000000 0.500000
#
# Coordination Sequence:
#
# PCOD9047553 Si02
#       7
#     2   1   2   2   2   2   2
#     4  11  26  46  71 104 138 180 240 288 353 424
#     4  10  24  48  72  94 142 174 226 300 350 410
#     4  11  23  42  69  97 140 183 231 288 344 413
#     4  11  23  42  67 101 135 184 235 278 348 417
#     4  11  21  43  65  94 134 182 226 280 340 407
#     4  10  24  44  68 103 132 177 233 284 353 412
#     4  11  25  39  63 100 141 180 229 284 340 416
#
# _framework density 22.755153
#
# number of rings (size 3 to 8) (size 9 to 14) (size 15 to 20)
#    0.000    1.231    3.077    2.769    4.308    8.615 
#    0.000    0.000    0.000    0.000    0.000    0.000 
#    0.000    0.000    0.000    0.000    0.000    0.000 
#
# Total GULP energy -72411.106901 kJ/mol
# GULP energy per Si atom -5570.085146 kJ/mol
# Density = 2.270336 g / cm^3
# Si number density = 22.755153 Si / 1000 Ang^3
#
#
#
# Elastic Constant Matrix: (Units=GPa)
#
#
# Indices 1 2 3 4 5 6 
#
# 1 99.3365 38.8473 26.8358 -4.8399 9.8525 -0.4360
# 2 38.8473 118.5159 30.2240 -12.1986 12.7105 19.7613
# 3 26.8358 30.2240 79.6740 -12.4842 7.7783 -2.1639
# 4 -4.8399 -12.1986 -12.4842 35.0965 -1.4454 4.1277
# 5 9.8525 12.7105 7.7783 -1.4454 43.4190 -2.9531
# 6 -0.4360 19.7613 -2.1639 4.1277 -2.9531 32.5265
#
#
#
# Elastic Compliance Matrix: (Units=1/GPa)
#
#
# Indices 1 2 3 4 5 6 
#
# 1 0.012321 -0.003688 -0.002717 -0.000857 -0.001106 0.002233
# 2 -0.003688 0.012481 -0.002876 0.003698 -0.002760 -0.008543
# 3 -0.002717 -0.002876 0.015306 0.003775 -0.001011 0.002158
# 4 -0.000857 0.003698 0.003775 0.031683 -0.000925 -0.006112
# 5 -0.001106 -0.002760 -0.001011 -0.000925 0.024508 0.003937
# 6 0.002233 -0.008543 0.002158 -0.006112 0.003937 0.037241
#
#
# Mechanical properties :
#
#
# Convention : Reuss Voigt Hill
#
# Bulk Modulus (GPa) = 46.40929 54.37118 50.39024
# Shear Modulus (GPa) = 31.39080 35.64968 33.52024
#
# Velocity S-wave (km/s) = 3.71820 3.96240 3.84224
# Velocity P-wave (km/s) = 6.23479 6.69926 6.47119
#
# Compressibility (1/GPa) = 0.02154741
#
# Stress axis : x y z
#
# Youngs Moduli (GPa) = 81.16529 80.12299 65.33442
#
# Poissons Ratio (x) = 0.29546 0.17749
# Poissons Ratio (y) = 0.29930 0.18788
# Poissons Ratio (z) = 0.22049 0.23041
#
# Static dielectric constant tensor:
#      x y z
#    x 1.821790 -0.067760 0.002940 
#    y -0.067760 1.979090 0.029900 
#    z 0.002940 0.029900 1.815940 
# 
# From -- ./inp_files/287467.got.cif
#   From: 2010.05.17/outbox.cif.g08.bks.cpg/sg2_144_cif.got.tgz:287467.got - 2010.06.03 11:33:40.
