data_PCOD9047873
_publ_section_title
;
Structure prediction by ZEFSAII (Michael W. Deem and Ramdas Pophale) SiO2 
 PCOD9047873
Probable space group: P -1
;
_chemical_formula_sum "Si O2"
_cell_formula_units_Z 14
_cell_length_a 11.036900
_cell_length_b 7.819464
_cell_length_c 7.942117
_cell_angle_alpha 94.349930
_cell_angle_beta 89.755945
_cell_angle_gamma 126.215974
_cell_volume 550.704421
_symmetry_space_group_name_H-M "P -1"
_symmetry_group_IT_number 2
_symmetry_cell_setting 'triclinic'
loop_
_space_group_symop_operation_xyz
x,y,z
-x,-y,-z
loop_
_atom_site_type_symbol
_atom_site_label
_atom_site_fract_x
_atom_site_fract_y
_atom_site_fract_z
Si Si1 0.530453 0.679570 0.697235
Si Si2 0.004838 0.864231 0.637158
Si Si3 0.663626 0.997625 0.410853
Si Si4 0.225595 0.290563 0.109069
Si Si5 0.835221 0.411947 0.053872
Si Si6 0.372357 0.091183 0.955412
Si Si7 0.238046 0.546247 0.572789
O O1 0.636284 0.614210 0.752096
O O2 0.517778 0.782335 0.877134
O O3 0.363641 0.509547 0.618007
O O4 0.616372 0.854737 0.564687
O O5 0.930706 0.878908 0.807071
O O6 0.884929 0.617614 0.568907
O O7 0.169265 0.922078 0.640556
O O8 0.000000 0.000000 0.500000
O O9 0.674781 0.209063 0.464947
O O10 0.569018 0.887059 0.232076
O O11 0.271679 0.180154 0.970336
O O12 0.217605 0.468146 0.041065
O O13 0.840767 0.471335 0.253100
O O14 0.000000 0.500000 0.000000
O O15 0.728127 0.157504 0.018287
#
# Coordination Sequence:
#
# PCOD9047873 Si02
#       7
#     2   2   2   2   2   2   2
#     4  10  24  48  71 106 143 191 234 301 360 428
#     4  12  25  43  69 102 140 189 236 299 355 423
#     4  11  23  46  74 103 142 193 234 303 358 424
#     4  10  24  44  71 102 144 190 232 300 359 416
#     4  11  25  42  72 107 142 191 233 302 355 430
#     4   9  24  46  72 104 145 183 244 287 365 422
#     4  11  27  45  71 107 141 184 250 288 362 437
#
# _framework density 25.421986
#
# number of rings (size 3 to 8) (size 9 to 14) (size 15 to 20)
#    0.857    0.571    1.429    2.571    8.000    4.571 
#    2.571    0.000    0.000    0.000    0.000    0.000 
#    0.000    0.000    0.000    0.000    0.000    0.000 
#
# Total GULP energy -78457.690970 kJ/mol
# GULP energy per Si atom -5604.120784 kJ/mol
# Density = 2.536412 g / cm^3
# Si number density = 25.421986 Si / 1000 Ang^3
#
#
#
# Elastic Constant Matrix: (Units=GPa)
#
#
# Indices 1 2 3 4 5 6 
#
# 1 141.4717 33.6386 18.2855 -11.0637 12.7857 -10.4683
# 2 33.6386 88.9367 44.3066 -22.2781 -0.2167 -21.9801
# 3 18.2855 44.3066 130.2072 -2.6039 -0.7865 -11.8947
# 4 -11.0637 -22.2781 -2.6039 49.7576 -6.4941 9.5325
# 5 12.7857 -0.2167 -0.7865 -6.4941 29.2184 -10.5689
# 6 -10.4683 -21.9801 -11.8947 9.5325 -10.5689 47.5781
#
#
#
# Elastic Compliance Matrix: (Units=1/GPa)
#
#
# Indices 1 2 3 4 5 6 
#
# 1 0.008138 -0.003149 -0.000144 0.000002 -0.003784 -0.000541
# 2 -0.003149 0.018141 -0.004997 0.006631 0.005111 0.006246
# 3 -0.000144 -0.004997 0.009398 -0.001850 0.000006 0.000381
# 4 0.000002 0.006631 -0.001850 0.023817 0.004901 -0.001082
# 5 -0.003784 0.005111 0.000006 0.004901 0.040457 0.009535
# 6 -0.000541 0.006246 0.000381 -0.001082 0.009535 0.026215
#
#
# Mechanical properties :
#
#
# Convention : Reuss Voigt Hill
#
# Bulk Modulus (GPa) = 52.35851 61.45300 56.90576
# Shear Modulus (GPa) = 33.53194 42.93649 38.23422
#
# Velocity S-wave (km/s) = 3.63576 4.11414 3.88233
# Velocity P-wave (km/s) = 6.18591 6.84061 6.52148
#
# Compressibility (1/GPa) = 0.01909909
#
# Stress axis : x y z
#
# Youngs Moduli (GPa) = 122.88173 55.12243 106.40066
#
# Poissons Ratio (x) = 0.17358 0.01528
# Poissons Ratio (y) = 0.38694 0.53167
# Poissons Ratio (z) = 0.01764 0.27544
#
# Static dielectric constant tensor:
#      x y z
#    x 2.034180 0.004050 -0.040840 
#    y 0.004050 1.975370 0.014230 
#    z -0.040840 0.014230 2.052910 
# 
# From -- ./inp_files/244120.got.cif
#   From: 2010.05.17/outbox.cif.g08.bks.cpg/sg2_123_cif.got.tgz:244120.got - 2010.06.03 11:33:40.
