data_PCOD9047559
_publ_section_title
;
Structure prediction by ZEFSAII (Michael W. Deem and Ramdas Pophale) SiO2 
 PCOD9047559
Probable space group: P -1
;
_chemical_formula_sum "Si O2"
_cell_formula_units_Z 16
_cell_length_a 13.880955
_cell_length_b 22.950313
_cell_length_c 16.864289
_cell_angle_alpha 22.117966
_cell_angle_beta 35.851431
_cell_angle_gamma 22.057329
_cell_volume 714.397963
_symmetry_space_group_name_H-M "P -1"
_symmetry_group_IT_number 2
_symmetry_cell_setting 'triclinic'
loop_
_space_group_symop_operation_xyz
x,y,z
-x,-y,-z
loop_
_atom_site_type_symbol
_atom_site_label
_atom_site_fract_x
_atom_site_fract_y
_atom_site_fract_z
Si Si1 0.546902 0.339528 0.238895
Si Si2 0.411509 0.738158 0.285908
Si Si3 0.899976 0.189624 0.944353
Si Si4 0.005954 0.729393 0.823225
Si Si5 0.189956 0.873972 0.437618
Si Si6 0.993705 0.428340 0.282088
Si Si7 0.316788 0.099126 0.331896
Si Si8 0.809997 0.926141 0.260547
O O1 0.339197 0.538602 0.195766
O O2 0.513268 0.187438 0.426208
O O3 0.500000 0.500000 0.000000
O O4 0.866391 0.113085 0.332296
O O5 0.500000 0.500000 0.500000
O O6 0.345497 0.778002 0.373221
O O7 0.668157 0.658223 0.203150
O O8 0.151368 0.983701 0.098137
O O9 0.001034 0.194914 0.789715
O O10 0.813418 0.082424 0.110504
O O11 0.861738 0.757774 0.808766
O O12 0.227661 0.680587 0.699678
O O13 0.790886 0.998522 0.675089
O O14 0.094179 0.528468 0.076847
O O15 0.126572 0.233510 0.366584
O O16 0.085646 0.283732 0.484795
O O17 0.513859 0.096657 0.213317
#
# Coordination Sequence:
#
# PCOD9047559 Si02
#       8
#     2   2   2   2   2   2   2   2
#     4  11  22  42  73  99 138 186 235 285 349 423
#     4  12  23  45  72 101 145 180 238 290 353 426
#     4  11  25  46  71 107 139 190 230 293 359 412
#     4  10  24  44  68 103 139 185 231 293 355 414
#     4  10  24  44  71 105 139 186 238 286 352 431
#     4  12  25  43  73 105 141 188 234 297 353 416
#     4  11  25  46  68 106 143 182 240 290 355 416
#     4  11  26  44  69 108 141 180 243 287 354 423
#
# _framework density 22.396481000000001
#
# number of rings (size 3 to 8) (size 9 to 14) (size 15 to 20)
#    0.000    1.000    2.500    3.750    3.500    5.000 
#    2.250    0.000    0.000    0.000    0.000    0.000 
#    0.000    0.000    0.000    0.000    0.000    0.000 
#
# Total GULP energy -89587.193791 kJ/mol
# GULP energy per Si atom -5599.199612 kJ/mol
# Density = 2.234551 g / cm^3
# Si number density = 22.396481 Si / 1000 Ang^3
#
#
#
# Elastic Constant Matrix: (Units=GPa)
#
#
# Indices 1 2 3 4 5 6 
#
# 1 100.1181 47.7822 29.7768 12.3745 -1.5918 12.2254
# 2 47.7822 139.1842 43.2791 5.3012 -11.7383 30.7607
# 3 29.7768 43.2791 133.5698 17.5935 12.3470 24.2627
# 4 12.3745 5.3012 17.5935 33.6252 3.9875 6.0951
# 5 -1.5918 -11.7383 12.3470 3.9875 30.8531 -1.5045
# 6 12.2254 30.7607 24.2627 6.0951 -1.5045 47.3148
#
#
#
# Elastic Compliance Matrix: (Units=1/GPa)
#
#
# Indices 1 2 3 4 5 6 
#
# 1 0.012581 -0.003891 -0.001152 -0.003483 0.000096 0.000322
# 2 -0.003891 0.010593 -0.002275 0.001298 0.004341 -0.004744
# 3 -0.001152 -0.002275 0.009889 -0.003299 -0.004603 -0.003015
# 4 -0.003483 0.001298 -0.003299 0.033354 -0.002805 -0.002638
# 5 0.000096 0.004341 -0.004603 -0.002805 0.036323 0.001030
# 6 0.000322 -0.004744 -0.003015 -0.002638 0.001030 0.026055
#
#
# Mechanical properties :
#
#
# Convention : Reuss Voigt Hill
#
# Bulk Modulus (GPa) = 54.27447 68.28316 61.27881
# Shear Modulus (GPa) = 33.42845 39.16089 36.29467
#
# Velocity S-wave (km/s) = 3.86758 4.18608 4.02998
# Velocity P-wave (km/s) = 6.65059 7.34295 7.00533
#
# Compressibility (1/GPa) = 0.01842487
#
# Stress axis : x y z
#
# Youngs Moduli (GPa) = 79.48676 94.40033 101.12648
#
# Poissons Ratio (x) = 0.36731 0.11653
# Poissons Ratio (y) = 0.30928 0.23011
# Poissons Ratio (z) = 0.09160 0.21480
#
# Static dielectric constant tensor:
#      x y z
#    x 1.839240 -0.016620 0.006470 
#    y -0.016620 1.803970 -0.019160 
#    z 0.006470 -0.019160 1.858640 
# 
# From -- ./inp_files/574400.got.cif
#   From: 2010.05.17/outbox.cif.g08.bks.cpg/sg2_288_cif.got.tgz:574400.got - 2010.06.03 11:33:40.
