data_PCOD9047059
_publ_section_title
;
Structure prediction by ZEFSAII (Michael W. Deem and Ramdas Pophale) SiO2 
 PCOD9047059
Probable space group: P -1
;
_chemical_formula_sum "Si O2"
_cell_formula_units_Z 15
_cell_length_a 22.986415
_cell_length_b 11.964880
_cell_length_c 16.396956
_cell_angle_alpha 140.685822
_cell_angle_beta 159.949490
_cell_angle_gamma 28.236800
_cell_volume 689.901157
_symmetry_space_group_name_H-M "P -1"
_symmetry_group_IT_number 2
_symmetry_cell_setting 'triclinic'
loop_
_space_group_symop_operation_xyz
x,y,z
-x,-y,-z
loop_
_atom_site_type_symbol
_atom_site_label
_atom_site_fract_x
_atom_site_fract_y
_atom_site_fract_z
Si Si1 0.355534 0.954013 0.236596
Si Si2 0.874527 0.621408 0.490295
Si Si3 0.575198 0.240338 0.962052
Si Si4 0.404326 0.827010 0.567284
Si Si5 0.434411 0.558076 0.706049
Si Si6 0.000000 0.000000 0.500000
Si Si7 0.207439 0.625012 0.274532
Si Si8 0.654349 0.731001 0.012022
O O1 0.428923 0.860513 0.186579
O O2 0.413409 0.724685 0.227016
O O3 0.500000 0.000000 0.500000
O O4 0.072306 0.209902 0.009620
O O5 0.630568 0.693046 0.215630
O O6 0.000000 0.500000 0.500000
O O7 0.066576 0.423216 0.699993
O O8 0.796713 0.879291 0.546441
O O9 0.500000 0.500000 0.000000
O O10 0.838185 0.038468 0.233414
O O11 0.272639 0.740959 0.366251
O O12 0.599650 0.664504 0.661571
O O13 0.557193 0.768803 0.815497
O O14 0.254051 0.753571 0.649474
O O15 0.275996 0.630645 0.458760
O O16 0.606659 0.590729 0.922736
O O17 0.500000 0.000000 0.000000
#
# Coordination Sequence:
#
# PCOD9047059 Si02
#       8
#     2   2   2   2   2   1   2   2
#     4  12  28  46  70 106 148 192 237 296 363 438
#     4  12  26  43  71 106 141 176 241 303 357 429
#     4  12  29  45  73 107 143 192 240 298 362 428
#     4  10  24  43  71 102 134 187 236 291 361 422
#     4  11  25  45  72 103 142 192 239 299 364 426
#     4  12  24  46  72 100 138 192 238 296 362 426
#     4  10  24  47  70  97 144 187 237 293 353 436
#     4  11  24  41  72 105 136 183 237 302 363 421
#
# _framework density 21.742242999999998
#
# number of rings (size 3 to 8) (size 9 to 14) (size 15 to 20)
#    0.000    0.800    4.000    1.600    7.467    1.600 
#    0.000    4.000    0.000    0.000    0.000    0.000 
#    0.000    0.000    0.000    0.000    0.000    0.000 
#
# Total GULP energy -83679.376142 kJ/mol
# GULP energy per Si atom -5578.625076 kJ/mol
# Density = 2.169276 g / cm^3
# Si number density = 21.742243 Si / 1000 Ang^3
#
#
#
# Elastic Constant Matrix: (Units=GPa)
#
#
# Indices 1 2 3 4 5 6 
#
# 1 66.4314 27.4274 20.6594 5.6137 1.9196 -25.2693
# 2 27.4274 111.4393 18.9014 -4.5641 8.2619 -24.4739
# 3 20.6594 18.9014 133.1406 -14.2064 -16.2237 -12.8226
# 4 5.6137 -4.5641 -14.2064 40.7432 -7.8498 -2.0285
# 5 1.9196 8.2619 -16.2237 -7.8498 22.1609 -0.2236
# 6 -25.2693 -24.4739 -12.8226 -2.0285 -0.2236 44.4682
#
#
#
# Elastic Compliance Matrix: (Units=1/GPa)
#
#
# Indices 1 2 3 4 5 6 
#
# 1 0.021202 -0.002426 -0.003110 -0.004723 -0.004785 0.009577
# 2 -0.002426 0.011115 -0.001307 0.000437 -0.004692 0.004358
# 3 -0.003110 -0.001307 0.010119 0.005819 0.010233 0.000748
# 4 -0.004723 0.000437 0.005819 0.030240 0.015225 0.000691
# 5 -0.004785 -0.004692 0.010233 0.015225 0.060159 -0.001354
# 6 0.009577 0.004358 0.000748 0.000691 -0.001354 0.030569
#
#
# Mechanical properties :
#
#
# Convention : Reuss Voigt Hill
#
# Bulk Modulus (GPa) = 34.78297 49.44309 42.11303
# Shear Modulus (GPa) = 26.78455 37.74267 32.26361
#
# Velocity S-wave (km/s) = 3.51367 4.17095 3.85634
# Velocity P-wave (km/s) = 5.70033 6.78128 6.26416
#
# Compressibility (1/GPa) = 0.02874970
#
# Stress axis : x y z
#
# Youngs Moduli (GPa) = 47.16498 89.96719 98.82442
#
# Poissons Ratio (x) = 0.21828 0.30736
# Poissons Ratio (y) = 0.11443 0.12915
# Poissons Ratio (z) = 0.14669 0.11758
#
# Static dielectric constant tensor:
#      x y z
#    x 1.768440 -0.135810 -0.115830 
#    y -0.135810 0.774190 -0.636650 
#    z -0.115830 -0.636650 1.315530 
# 
# From -- ./inp_files/396851.got.cif
#   From: 2010.05.17/outbox.cif.g08.bks.cpg/sg2_199_cif.got.tgz:396851.got - 2010.06.03 11:33:40.
