data_PCOD9047807
_publ_section_title
;
Structure prediction by ZEFSAII (Michael W. Deem and Ramdas Pophale) SiO2 
 PCOD9047807
Probable space group: P -1
;
_chemical_formula_sum "Si O2"
_cell_formula_units_Z 14
_cell_length_a 11.250955
_cell_length_b 15.309177
_cell_length_c 5.421195
_cell_angle_alpha 119.485513
_cell_angle_beta 85.873612
_cell_angle_gamma 131.529239
_cell_volume 560.218141
_symmetry_space_group_name_H-M "P -1"
_symmetry_group_IT_number 2
_symmetry_cell_setting 'triclinic'
loop_
_space_group_symop_operation_xyz
x,y,z
-x,-y,-z
loop_
_atom_site_type_symbol
_atom_site_label
_atom_site_fract_x
_atom_site_fract_y
_atom_site_fract_z
Si Si1 0.964331 0.092269 0.192621
Si Si2 0.506786 0.382470 0.817035
Si Si3 0.665624 0.237516 0.240142
Si Si4 0.028143 0.808401 0.175893
Si Si5 0.116473 0.491998 0.124395
Si Si6 0.599303 0.994937 0.678289
Si Si7 0.400706 0.212390 0.081685
O O1 0.044962 0.178901 0.557041
O O2 0.029786 0.195216 0.092286
O O3 0.757364 0.957099 0.059314
O O4 0.000000 0.000000 0.000000
O O5 0.703636 0.455655 0.912685
O O6 0.440409 0.305959 0.447832
O O7 0.500000 0.500000 0.000000
O O8 0.394907 0.272316 0.913208
O O9 0.824942 0.402433 0.511511
O O10 0.560218 0.233450 0.047195
O O11 0.538366 0.158534 0.384406
O O12 0.679310 0.128652 0.035033
O O13 0.230917 0.957587 0.363840
O O14 0.003051 0.675442 0.033234
O O15 0.000000 0.500000 0.000000
O O16 0.500000 0.000000 0.500000
#
# Coordination Sequence:
#
# PCOD9047807 Si02
#       7
#     2   2   2   2   2   2   2
#     4  12  28  49  78 106 148 198 260 331 384 448
#     4  11  27  48  76 106 146 202 257 310 375 462
#     4  10  24  44  70 107 145 201 246 312 370 460
#     4  12  28  47  74 112 151 197 253 316 392 459
#     4  11  28  48  74 113 162 203 247 318 392 460
#     4  11  23  42  74 103 145 195 255 301 376 454
#     4  11  24  46  76 103 140 193 258 309 377 443
#
# _framework density 24.990266999999999
#
# number of rings (size 3 to 8) (size 9 to 14) (size 15 to 20)
#    0.000    0.857    1.429    3.429   16.000    2.857 
#    0.000    0.000    0.000    0.000    0.000    0.000 
#    0.000    0.000    0.000    0.000    0.000    0.000 
#
# Total GULP energy -78221.918702 kJ/mol
# GULP energy per Si atom -5587.279907 kJ/mol
# Density = 2.493339 g / cm^3
# Si number density = 24.990267 Si / 1000 Ang^3
#
#
#
# Elastic Constant Matrix: (Units=GPa)
#
#
# Indices 1 2 3 4 5 6 
#
# 1 87.3943 28.1547 30.2205 -6.5662 -15.3226 -14.3604
# 2 28.1547 153.9053 54.7712 -14.4808 -15.3142 -31.5168
# 3 30.2205 54.7712 116.9216 -11.8156 -34.6202 -1.8793
# 4 -6.5662 -14.4808 -11.8156 43.7479 -6.2840 -1.5960
# 5 -15.3226 -15.3142 -34.6202 -6.2840 42.0469 12.2531
# 6 -14.3604 -31.5168 -1.8793 -1.5960 12.2531 46.0472
#
#
#
# Elastic Compliance Matrix: (Units=1/GPa)
#
#
# Indices 1 2 3 4 5 6 
#
# 1 0.013463 -0.000609 -0.002383 0.001583 0.002026 0.003200
# 2 -0.000609 0.009655 -0.004796 0.001715 -0.002416 0.006925
# 3 -0.002383 -0.004796 0.015412 0.003781 0.012566 -0.006610
# 4 0.001583 0.001715 0.003781 0.025856 0.008008 0.000587
# 5 0.002026 -0.002416 0.012566 0.008008 0.038215 -0.010401
# 6 0.003200 0.006925 -0.006610 0.000587 -0.010401 0.029973
#
#
# Mechanical properties :
#
#
# Convention : Reuss Voigt Hill
#
# Bulk Modulus (GPa) = 43.56705 64.94598 54.25651
# Shear Modulus (GPa) = 32.09222 42.70672 37.39947
#
# Velocity S-wave (km/s) = 3.58745 4.13841 3.87274
# Velocity P-wave (km/s) = 5.88482 6.99144 6.46186
#
# Compressibility (1/GPa) = 0.02295313
#
# Stress axis : x y z
#
# Youngs Moduli (GPa) = 74.27965 103.57623 64.88437
#
# Poissons Ratio (x) = 0.06305 0.15463
# Poissons Ratio (y) = 0.04522 0.31120
# Poissons Ratio (z) = 0.17702 0.49678
#
# Static dielectric constant tensor:
#      x y z
#    x 2.066250 0.077290 -0.042260 
#    y 0.077290 1.984960 -0.082510 
#    z -0.042260 -0.082510 2.050560 
# 
# From -- ./inp_files/78638.got.cif
#   From: 2010.05.17/outbox.cif.g08.bks.cpg/sg2_40_cif.got.tgz:78638.got - 2010.06.03 11:33:40.
