data_PCOD9047700
_publ_section_title
;
Structure prediction by ZEFSAII (Michael W. Deem and Ramdas Pophale) SiO2 
 PCOD9047700
Probable space group: P -1
;
_chemical_formula_sum "Si O2"
_cell_formula_units_Z 14
_cell_length_a 20.467446
_cell_length_b 10.340745
_cell_length_c 9.185511
_cell_angle_alpha 44.625335
_cell_angle_beta 35.019729
_cell_angle_gamma 39.782582
_cell_volume 695.679333
_symmetry_space_group_name_H-M "P -1"
_symmetry_group_IT_number 2
_symmetry_cell_setting 'triclinic'
loop_
_space_group_symop_operation_xyz
x,y,z
-x,-y,-z
loop_
_atom_site_type_symbol
_atom_site_label
_atom_site_fract_x
_atom_site_fract_y
_atom_site_fract_z
Si Si1 0.637240 0.902267 0.751134
Si Si2 0.373990 0.677987 0.662563
Si Si3 0.385570 0.311419 0.334305
Si Si4 0.817616 0.787983 0.091046
Si Si5 0.837764 0.474980 0.825681
Si Si6 0.350262 0.745126 0.986805
Si Si7 0.988322 0.505559 0.264439
O O1 0.627550 0.786806 0.715017
O O2 0.747550 0.724390 0.787573
O O3 0.662520 0.095179 0.513468
O O4 0.500000 0.000000 0.000000
O O5 0.500000 0.500000 0.500000
O O6 0.401105 0.680936 0.781662
O O7 0.256467 0.625418 0.905180
O O8 0.309951 0.244703 0.642717
O O9 0.534457 0.241183 0.149049
O O10 0.324119 0.560768 0.241650
O O11 0.893784 0.681994 0.185445
O O12 0.770917 0.031606 0.975129
O O13 0.908085 0.670274 0.885988
O O14 0.938519 0.415836 0.819535
O O15 0.910428 0.427068 0.576197
#
# Coordination Sequence:
#
# PCOD9047700 Si02
#       7
#     2   2   2   2   2   2   2
#     4  12  23  40  67  95 132 168 209 270 338 381
#     4  12  23  39  66  98 128 166 210 270 329 392
#     4  11  23  40  65  97 133 162 213 277 325 390
#     4  11  22  44  67  93 127 174 223 261 324 380
#     4  11  23  46  64  95 137 164 222 266 320 393
#     4  11  23  39  65  99 129 165 212 274 332 379
#     4  10  24  44  69  90 133 182 212 270 313 386
#
# _framework density 20.124213999999998
#
# number of rings (size 3 to 8) (size 9 to 14) (size 15 to 20)
#    0.000    0.857    5.714    0.429    4.000    0.000 
#    0.000   15.714    0.000    0.000    0.000    0.000 
#    0.000    0.000    0.000    0.000    0.000    0.000 
#
# Total GULP energy -78274.418025 kJ/mol
# GULP energy per Si atom -5591.029859 kJ/mol
# Density = 2.007841 g / cm^3
# Si number density = 20.124214 Si / 1000 Ang^3
#
#
#
# Elastic Constant Matrix: (Units=GPa)
#
#
# Indices 1 2 3 4 5 6 
#
# 1 78.8243 20.8486 27.9636 -5.0541 -9.9643 14.1467
# 2 20.8486 119.8192 47.7871 -12.6665 -2.2768 8.3048
# 3 27.9636 47.7871 118.9523 -7.3853 -13.6403 12.7571
# 4 -5.0541 -12.6665 -7.3853 48.6257 5.6218 3.4136
# 5 -9.9643 -2.2768 -13.6403 5.6218 27.6411 -2.6176
# 6 14.1467 8.3048 12.7571 3.4136 -2.6176 7.7108
#
#
#
# Elastic Compliance Matrix: (Units=1/GPa)
#
#
# Indices 1 2 3 4 5 6 
#
# 1 0.020151 -0.000414 0.000047 0.004303 0.002822 -0.037549
# 2 -0.000414 0.010549 -0.003476 0.002921 -0.002244 -0.006907
# 3 0.000047 -0.003476 0.012004 0.001571 0.003859 -0.015587
# 4 0.004303 0.002921 0.001571 0.024407 -0.004868 -0.026098
# 5 0.002822 -0.002244 0.003859 -0.004868 0.040546 0.006775
# 6 -0.037549 -0.006907 -0.015587 -0.026098 0.006775 0.245658
#
#
# Mechanical properties :
#
#
# Convention : Reuss Voigt Hill
#
# Bulk Modulus (GPa) = 28.55664 56.75493 42.65579
# Shear Modulus (GPa) = 13.41657 31.52861 22.47259
#
# Velocity S-wave (km/s) = 2.58483 3.96245 3.34532
# Velocity P-wave (km/s) = 4.80931 7.01414 6.01364
#
# Compressibility (1/GPa) = 0.03501812
#
# Stress axis : x y z
#
# Youngs Moduli (GPa) = 49.62554 94.79507 83.30759
#
# Poissons Ratio (x) = 0.03923 -0.00391
# Poissons Ratio (y) = 0.02054 0.28956
# Poissons Ratio (z) = -0.00233 0.32949
#
# Static dielectric constant tensor:
#      x y z
#    x 1.720440 -0.021000 0.003640 
#    y -0.021000 1.700710 -0.007560 
#    z 0.003640 -0.007560 1.717870 
# 
# From -- ./inp_files/293914.got.cif
#   From: 2010.05.17/outbox.cif.g08.bks.cpg/sg2_147_cif.got.tgz:293914.got - 2010.06.03 11:33:40.
