data_PCOD9047782
_publ_section_title
;
Structure prediction by ZEFSAII (Michael W. Deem and Ramdas Pophale) SiO2 
 PCOD9047782
Probable space group: P -1
;
_chemical_formula_sum "Si O2"
_cell_formula_units_Z 12
_cell_length_a 11.775073
_cell_length_b 14.471401
_cell_length_c 9.829227
_cell_angle_alpha 130.748171
_cell_angle_beta 39.492737
_cell_angle_gamma 150.652026
_cell_volume 521.007063
_symmetry_space_group_name_H-M "P -1"
_symmetry_group_IT_number 2
_symmetry_cell_setting 'triclinic'
loop_
_space_group_symop_operation_xyz
x,y,z
-x,-y,-z
loop_
_atom_site_type_symbol
_atom_site_label
_atom_site_fract_x
_atom_site_fract_y
_atom_site_fract_z
Si Si1 0.756584 0.961829 0.236876
Si Si2 0.029383 0.843766 0.237087
Si Si3 0.021609 0.568215 0.897473
Si Si4 0.540242 0.825969 0.028575
Si Si5 0.129474 0.255233 0.395594
Si Si6 0.505136 0.690720 0.441324
O O1 0.634375 0.944723 0.192049
O O2 0.554254 0.766505 0.318121
O O3 0.887446 0.122498 0.379218
O O4 0.000000 0.000000 0.000000
O O5 0.987555 0.809816 0.404665
O O6 0.798595 0.816613 0.364138
O O7 0.961917 0.679264 0.072266
O O8 0.332568 0.039459 0.090875
O O9 0.324626 0.699211 0.689182
O O10 0.782588 0.370288 0.850287
O O11 0.000000 0.500000 0.000000
O O12 0.684428 0.767941 0.825266
O O13 0.323729 0.473837 0.409368
#
# Coordination Sequence:
#
# PCOD9047782 Si02
#       6
#     2   2   2   2   2   2
#     4  10  24  44  70 104 136 188 233 274 345 418
#     4  12  24  45  75 101 139 184 228 291 343 405
#     4  12  27  44  69 110 140 173 236 288 346 405
#     4  11  25  45  70 103 141 183 232 281 347 413
#     4  11  22  40  74 101 134 183 234 279 343 405
#     4  12  24  44  75 102 138 185 230 284 345 408
#
# _framework density 23.032318
#
# number of rings (size 3 to 8) (size 9 to 14) (size 15 to 20)
#    0.000    0.667    6.667    2.000    2.333    6.667 
#    0.000    1.667    0.000    0.000    0.000    0.000 
#    0.000    0.000    0.000    0.000    0.000    0.000 
#
# Total GULP energy -67136.073071 kJ/mol
# GULP energy per Si atom -5594.672756 kJ/mol
# Density = 2.297990 g / cm^3
# Si number density = 23.032318 Si / 1000 Ang^3
#
#
#
# Elastic Constant Matrix: (Units=GPa)
#
#
# Indices 1 2 3 4 5 6 
#
# 1 37.7661 16.3484 43.3312 -3.8849 12.8681 8.0496
# 2 16.3484 102.9858 23.6814 3.5409 8.7121 -4.5183
# 3 43.3312 23.6814 101.2801 -24.8205 13.8125 -4.6580
# 4 -3.8849 3.5409 -24.8205 32.7754 2.7712 15.6009
# 5 12.8681 8.7121 13.8125 2.7712 43.6926 -6.7749
# 6 8.0496 -4.5183 -4.6580 15.6009 -6.7749 29.9329
#
#
#
# Elastic Compliance Matrix: (Units=1/GPa)
#
#
# Indices 1 2 3 4 5 6 
#
# 1 0.074818 -0.005284 -0.028977 0.003789 -0.016903 -0.031228
# 2 -0.005284 0.011377 -0.001865 -0.006481 0.001300 0.006520
# 3 -0.028977 -0.001865 0.026544 0.015024 0.000158 0.003847
# 4 0.003789 -0.006481 0.015024 0.060534 -0.013734 -0.034318
# 5 -0.016903 0.001300 0.000158 -0.013734 0.031378 0.019026
# 6 -0.031228 0.006520 0.003847 -0.034318 0.019026 0.065582
#
#
# Mechanical properties :
#
#
# Convention : Reuss Voigt Hill
#
# Bulk Modulus (GPa) = 24.69915 45.41710 35.05813
# Shear Modulus (GPa) = 14.04574 31.85824 22.95199
#
# Velocity S-wave (km/s) = 2.47215 3.72317 3.16018
# Velocity P-wave (km/s) = 4.34691 6.18420 5.34509
#
# Compressibility (1/GPa) = 0.04048723
#
# Stress axis : x y z
#
# Youngs Moduli (GPa) = 13.36576 87.89853 37.67307
#
# Poissons Ratio (x) = 0.46447 1.09164
# Poissons Ratio (y) = 0.07063 0.07026
# Poissons Ratio (z) = 0.38729 0.16394
#
# Static dielectric constant tensor:
#      x y z
#    x 1.893460 0.059890 -0.037720 
#    y 0.059890 1.909580 0.015670 
#    z -0.037720 0.015670 1.811900 
# 
# From -- ./inp_files/243820.got.cif
#   From: 2010.05.17/outbox.cif.g08.bks.cpg/sg2_122_cif.got.tgz:243820.got - 2010.06.03 11:33:40.
