data_PCOD9047547
_publ_section_title
;
Structure prediction by ZEFSAII (Michael W. Deem and Ramdas Pophale) SiO2 
 PCOD9047547
Probable space group: P -1
;
_chemical_formula_sum "Si O2"
_cell_formula_units_Z 15
_cell_length_a 8.597263
_cell_length_b 9.793047
_cell_length_c 12.286956
_cell_angle_alpha 113.022571
_cell_angle_beta 87.983726
_cell_angle_gamma 45.505167
_cell_volume 599.049995
_symmetry_space_group_name_H-M "P -1"
_symmetry_group_IT_number 2
_symmetry_cell_setting 'triclinic'
loop_
_space_group_symop_operation_xyz
x,y,z
-x,-y,-z
loop_
_atom_site_type_symbol
_atom_site_label
_atom_site_fract_x
_atom_site_fract_y
_atom_site_fract_z
Si Si1 0.371192 0.964854 0.578197
Si Si2 0.140034 0.834391 0.622332
Si Si3 0.841108 0.388446 0.654075
Si Si4 0.774998 0.474235 0.321972
Si Si5 0.257649 0.679110 0.136512
Si Si6 0.500000 0.000000 0.000000
Si Si7 0.698190 0.810427 0.708394
Si Si8 0.969175 0.849690 0.988723
O O1 0.260760 0.904862 0.626122
O O2 0.550348 0.753042 0.421531
O O3 0.545439 0.932567 0.640575
O O4 0.123464 0.225172 0.624085
O O5 0.286583 0.631240 0.644591
O O6 0.138455 0.753937 0.481449
O O7 0.862655 0.074063 0.748020
O O8 0.721209 0.424407 0.782349
O O9 0.711795 0.626559 0.682223
O O10 0.015648 0.350941 0.346320
O O11 0.861306 0.370470 0.167197
O O12 0.500000 0.500000 0.000000
O O13 0.059380 0.760592 0.081738
O O14 0.561447 0.989797 0.866916
O O15 0.698735 0.983063 0.025035
O O16 0.000000 0.000000 0.000000
#
# Coordination Sequence:
#
# PCOD9047547 Si02
#       8
#     2   2   2   2   2   1   2   2
#     4  11  23  42  69  95 136 180 223 286 347 408
#     4  11  23  43  68 103 135 179 235 286 343 417
#     4  11  26  43  68 102 138 179 232 283 354 413
#     4  11  24  42  68 105 127 180 240 280 343 426
#     4  11  25  41  68 104 141 183 236 292 351 427
#     4  10  24  44  68 102 138 180 236 290 346 428
#     4  11  25  44  68  98 139 180 226 287 352 416
#     4  11  24  43  72 101 137 186 239 286 359 419
#
# _framework density 25.039646000000001
#
# number of rings (size 3 to 8) (size 9 to 14) (size 15 to 20)
#    0.000    1.067    2.667    4.000    5.600    0.533 
#    0.000    6.000    0.000    0.000    0.000    0.000 
#    0.000    0.000    0.000    0.000    0.000    0.000 
#
# Total GULP energy -83761.222346 kJ/mol
# GULP energy per Si atom -5584.081490 kJ/mol
# Density = 2.498265 g / cm^3
# Si number density = 25.039646 Si / 1000 Ang^3
#
#
#
# Elastic Constant Matrix: (Units=GPa)
#
#
# Indices 1 2 3 4 5 6 
#
# 1 98.5452 22.8274 30.4847 -9.0335 -12.9667 -21.1308
# 2 22.8274 92.5211 44.0544 -6.5113 1.9376 -5.8071
# 3 30.4847 44.0544 186.7660 3.9215 -2.4547 -16.3295
# 4 -9.0335 -6.5113 3.9215 33.2659 -10.1428 -8.5412
# 5 -12.9667 1.9376 -2.4547 -10.1428 39.8609 -15.0609
# 6 -21.1308 -5.8071 -16.3295 -8.5412 -15.0609 30.5095
#
#
#
# Elastic Compliance Matrix: (Units=1/GPa)
#
#
# Indices 1 2 3 4 5 6 
#
# 1 0.025068 -0.002498 -0.000324 0.024939 0.028956 0.037989
# 2 -0.002498 0.012791 -0.002773 0.001281 -0.001767 -0.001293
# 3 -0.000324 -0.002773 0.006396 0.000083 0.001798 0.003582
# 4 0.024939 0.001281 0.000083 0.067001 0.047729 0.059879
# 5 0.028956 -0.001767 0.001798 0.047729 0.073400 0.070276
# 6 0.037989 -0.001293 0.003582 0.059879 0.070276 0.112213
#
#
# Mechanical properties :
#
#
# Convention : Reuss Voigt Hill
#
# Bulk Modulus (GPa) = 30.24189 63.61838 46.93013
# Shear Modulus (GPa) = 15.67002 39.42498 27.54750
#
# Velocity S-wave (km/s) = 2.50433 3.97230 3.32046
# Velocity P-wave (km/s) = 4.52394 6.81918 5.78650
#
# Compressibility (1/GPa) = 0.03306672
#
# Stress axis : x y z
#
# Youngs Moduli (GPa) = 39.89078 78.18123 156.34109
#
# Poissons Ratio (x) = 0.19526 0.05069
# Poissons Ratio (y) = 0.09963 0.43347
# Poissons Ratio (z) = 0.01293 0.21677
#
# Static dielectric constant tensor:
#      x y z
#    x 2.024340 -0.009910 -0.035520 
#    y -0.009910 1.998350 0.049870 
#    z -0.035520 0.049870 1.982760 
# 
# From -- ./inp_files/390040.got.cif
#   From: 2010.05.17/outbox.cif.g08.bks.cpg/sg2_196_cif.got.tgz:390040.got - 2010.06.03 11:33:40.
