data_PCOD9047276
_publ_section_title
;
Structure prediction by ZEFSAII (Michael W. Deem and Ramdas Pophale) SiO2 
 PCOD9047276
Probable space group: P -1
;
_chemical_formula_sum "Si O2"
_cell_formula_units_Z 16
_cell_length_a 9.315981
_cell_length_b 16.214844
_cell_length_c 5.157373
_cell_angle_alpha 58.061144
_cell_angle_beta 88.018155
_cell_angle_gamma 98.519322
_cell_volume 647.875531
_symmetry_space_group_name_H-M "P -1"
_symmetry_group_IT_number 2
_symmetry_cell_setting 'triclinic'
loop_
_space_group_symop_operation_xyz
x,y,z
-x,-y,-z
loop_
_atom_site_type_symbol
_atom_site_label
_atom_site_fract_x
_atom_site_fract_y
_atom_site_fract_z
Si Si1 0.138028 0.478029 0.196290
Si Si2 0.988355 0.893541 0.312548
Si Si3 0.131785 0.352632 0.932914
Si Si4 0.740450 0.136177 0.932163
Si Si5 0.507936 0.180650 0.556139
Si Si6 0.265407 0.214063 0.811729
Si Si7 0.793386 0.299473 0.047790
Si Si8 0.253540 0.053699 0.435481
O O1 0.108924 0.416515 0.568726
O O2 0.217979 0.586372 0.104250
O O3 0.201845 0.415779 0.072507
O O4 0.000000 0.500000 0.000000
O O5 0.879446 0.805244 0.320441
O O6 0.899057 0.911208 0.543129
O O7 0.149540 0.875870 0.285334
O O8 0.000000 0.000000 0.000000
O O9 0.235648 0.280615 0.941829
O O10 0.964966 0.298098 0.107033
O O11 0.578205 0.117130 0.865798
O O12 0.777743 0.247745 0.853229
O O13 0.759313 0.058988 0.287341
O O14 0.415322 0.251867 0.589210
O O15 0.390375 0.114308 0.487683
O O16 0.651417 0.238643 0.304826
O O17 0.278551 0.100905 0.073306
#
# Coordination Sequence:
#
# PCOD9047276 Si02
#       8
#     2   2   2   2   2   2   2   2
#     4  10  24  45  74 111 143 176 237 307 364 423
#     4   9  21  38  64  97 132 173 235 292 346 413
#     4  11  25  45  78 105 143 189 234 298 370 422
#     4  11  23  40  69 100 136 183 243 292 358 411
#     4  11  26  41  65  97 146 183 237 289 357 424
#     4  11  24  44  67  96 144 189 235 285 360 437
#     4  11  24  40  70 104 133 175 236 295 353 425
#     4  10  24  44  62  98 144 190 230 289 354 431
#
# _framework density 24.696103000000001
#
# number of rings (size 3 to 8) (size 9 to 14) (size 15 to 20)
#    0.000    1.500    1.250    2.625   10.500    7.000 
#    0.000    1.250    0.000    0.000    0.000    0.000 
#    0.000    0.000    0.000    0.000    0.000    0.000 
#
# Total GULP energy -89348.521900 kJ/mol
# GULP energy per Si atom -5584.282619 kJ/mol
# Density = 2.463989 g / cm^3
# Si number density = 24.696103 Si / 1000 Ang^3
#
#
#
# Elastic Constant Matrix: (Units=GPa)
#
#
# Indices 1 2 3 4 5 6 
#
# 1 154.9191 64.7480 29.3921 9.3740 -16.2107 -17.7516
# 2 64.7480 151.0216 34.3412 -2.1039 -9.8870 5.8251
# 3 29.3921 34.3412 106.5224 1.6274 -3.0751 -1.3105
# 4 9.3740 -2.1039 1.6274 26.5888 -2.0281 -1.6811
# 5 -16.2107 -9.8870 -3.0751 -2.0281 38.5837 11.5774
# 6 -17.7516 5.8251 -1.3105 -1.6811 11.5774 31.1797
#
#
#
# Elastic Compliance Matrix: (Units=1/GPa)
#
#
# Indices 1 2 3 4 5 6 
#
# 1 0.009194 -0.003864 -0.001149 -0.003060 0.001009 0.005368
# 2 -0.003864 0.009046 -0.001879 0.002057 0.002037 -0.004614
# 3 -0.001149 -0.001879 0.010312 -0.000379 -0.000220 0.000191
# 4 -0.003060 0.002057 -0.000379 0.038948 0.001430 -0.000574
# 5 0.001009 0.002037 -0.000220 0.001430 0.030209 -0.010955
# 6 0.005368 -0.004614 0.000191 -0.000574 -0.010955 0.040035
#
#
# Mechanical properties :
#
#
# Convention : Reuss Voigt Hill
#
# Bulk Modulus (GPa) = 67.71939 74.38064 71.05002
# Shear Modulus (GPa) = 31.95891 38.20256 35.08073
#
# Velocity S-wave (km/s) = 3.60125 3.93734 3.77304
# Velocity P-wave (km/s) = 6.69123 7.13120 6.91471
#
# Compressibility (1/GPa) = 0.01476682
#
# Stress axis : x y z
#
# Youngs Moduli (GPa) = 108.76781 110.55116 96.97005
#
# Poissons Ratio (x) = 0.42717 0.11144
# Poissons Ratio (y) = 0.42028 0.18224
# Poissons Ratio (z) = 0.12499 0.20777
#
# Static dielectric constant tensor:
#      x y z
#    x 1.947440 -0.036250 0.014960 
#    y -0.036250 2.001110 0.001860 
#    z 0.014960 0.001860 2.031180 
# 
# From -- ./inp_files/46231.got.cif
#   From: 2010.05.17/outbox.cif.g08.bks.cpg/sg2_24_cif.got.tgz:46231.got - 2010.06.03 11:33:40.
