data_PCOD9047255
_publ_section_title
;
Structure prediction by ZEFSAII (Michael W. Deem and Ramdas Pophale) SiO2 
 PCOD9047255
Probable space group: P -1
;
_chemical_formula_sum "Si O2"
_cell_formula_units_Z 11
_cell_length_a 9.852546
_cell_length_b 17.854167
_cell_length_c 19.745715
_cell_angle_alpha 14.141153
_cell_angle_beta 147.529237
_cell_angle_gamma 140.240634
_cell_volume 422.094420
_symmetry_space_group_name_H-M "P -1"
_symmetry_group_IT_number 2
_symmetry_cell_setting 'triclinic'
loop_
_space_group_symop_operation_xyz
x,y,z
-x,-y,-z
loop_
_atom_site_type_symbol
_atom_site_label
_atom_site_fract_x
_atom_site_fract_y
_atom_site_fract_z
Si Si1 0.064718 0.430530 0.927505
Si Si2 0.445968 0.721309 0.385577
Si Si3 0.852947 0.768728 0.296126
Si Si4 0.000000 0.500000 0.000000
Si Si5 0.549139 0.638380 0.099382
Si Si6 0.803983 0.291964 0.387000
O O1 0.046948 0.510976 0.928236
O O2 0.175469 0.646083 0.737102
O O3 0.238482 0.046940 0.323039
O O4 0.762878 0.498327 0.713742
O O5 0.323411 0.899115 0.107389
O O6 0.434405 0.022616 0.165692
O O7 0.278157 0.504044 0.529770
O O8 0.164881 0.646720 0.507192
O O9 0.910895 0.770948 0.398787
O O10 0.722763 0.407140 0.951795
O O11 0.588444 0.593789 0.073414
#
# Coordination Sequence:
#
# PCOD9047255 Si02
#       6
#     2   2   2   1   2   2
#     4  12  27  47  72 111 142 200 233 310 354 443
#     4  12  23  45  78 109 153 185 247 282 371 433
#     4  10  24  43  77 110 149 190 234 302 354 447
#     4  12  28  52  78  98 150 188 266 296 362 424
#     4  10  26  47  75 112 141 202 240 303 354 436
#     4  10  26  46  72 113 150 181 249 285 391 408
#
# _framework density 26.060521999999999
#
# number of rings (size 3 to 8) (size 9 to 14) (size 15 to 20)
#    1.091    0.000    0.000    5.455    0.000   13.091 
#    0.000    0.000    0.000    0.000    0.000    0.000 
#    0.000    0.000    0.000    0.000    0.000    0.000 
#
# Total GULP energy -61352.545711 kJ/mol
# GULP energy per Si atom -5577.504156 kJ/mol
# Density = 2.600121 g / cm^3
# Si number density = 26.060522 Si / 1000 Ang^3
#
#
#
# Elastic Constant Matrix: (Units=GPa)
#
#
# Indices 1 2 3 4 5 6 
#
# 1 99.7186 31.5463 43.6076 51.1718 -10.3237 -13.7666
# 2 31.5463 148.2311 68.5879 61.1647 -0.4557 14.9010
# 3 43.6076 68.5879 18.0965 -88.7348 -12.9918 -7.2851
# 4 51.1718 61.1647 -88.7348 -114.5358 -11.7988 -9.7546
# 5 -10.3237 -0.4557 -12.9918 -11.7988 32.8513 3.8870
# 6 -13.7666 14.9010 -7.2851 -9.7546 3.8870 60.7409
#
#
#
# Elastic Compliance Matrix: (Units=1/GPa)
#
#
# Indices 1 2 3 4 5 6 
#
# 1 0.010896 -0.003654 0.000554 0.001797 0.003827 0.003476
# 2 -0.003654 0.007009 -0.001544 0.003505 -0.000147 -0.002160
# 3 0.000554 -0.001544 0.011922 -0.009965 0.001258 0.000253
# 4 0.001797 0.003505 -0.009965 0.002017 -0.002465 -0.001166
# 5 0.003827 -0.000147 0.001258 -0.002465 0.031413 -0.001352
# 6 0.003476 -0.002160 0.000253 -0.001166 -0.001352 0.017711
#
#
# Mechanical properties :
#
#
# Convention : Reuss Voigt Hill
#
# Bulk Modulus (GPa) = 48.69265 61.50330 55.09798
# Shear Modulus (GPa) = 51.49194 3.96491 27.72843
#
# Velocity S-wave (km/s) = 4.44989 1.23480 3.26544
# Velocity P-wave (km/s) = 6.71766 5.06798 5.95027
#
# Compressibility (1/GPa) = 0.02053698
#
# Stress axis : x y z
#
# Youngs Moduli (GPa) = 91.77766 142.68112 83.87980
#
# Poissons Ratio (x) = 0.52141 -0.04645
# Poissons Ratio (y) = 0.33539 0.12952
# Poissons Ratio (z) = -0.05082 0.22031
#
# Static dielectric constant tensor:
#      x y z
#    x 1.997310 -0.024560 0.053510 
#    y -0.024560 2.043310 0.034140 
#    z 0.053510 0.034140 2.016990 
# 
# From -- ./inp_files/560691.got.cif
#   From: 2010.05.17/outbox.cif.g08.bks.cpg/sg2_281_cif.got.tgz:560691.got - 2010.06.03 11:33:40.
