data_PCOD9047157
_publ_section_title
;
Structure prediction by ZEFSAII (Michael W. Deem and Ramdas Pophale) SiO2 
 PCOD9047157
Probable space group: P -1
;
_chemical_formula_sum "Si O2"
_cell_formula_units_Z 16
_cell_length_a 19.997879
_cell_length_b 8.410847
_cell_length_c 8.314866
_cell_angle_alpha 51.449940
_cell_angle_beta 139.487109
_cell_angle_gamma 131.166497
_cell_volume 662.040284
_symmetry_space_group_name_H-M "P -1"
_symmetry_group_IT_number 2
_symmetry_cell_setting 'triclinic'
loop_
_space_group_symop_operation_xyz
x,y,z
-x,-y,-z
loop_
_atom_site_type_symbol
_atom_site_label
_atom_site_fract_x
_atom_site_fract_y
_atom_site_fract_z
Si Si1 0.832081 0.373888 0.437017
Si Si2 0.617824 0.491488 0.730296
Si Si3 0.451361 0.154597 0.211082
Si Si4 0.739637 0.252781 0.982495
Si Si5 0.825691 0.904386 0.798945
Si Si6 0.631198 0.459279 0.109779
Si Si7 0.956106 0.296251 0.241200
Si Si8 0.954872 0.920610 0.711368
O O1 0.802662 0.341599 0.212318
O O2 0.760206 0.491436 0.328538
O O3 0.959507 0.512061 0.619757
O O4 0.808100 0.132190 0.610910
O O5 0.500000 0.500000 0.500000
O O6 0.716382 0.722369 0.780117
O O7 0.658085 0.383894 0.725473
O O8 0.605782 0.346994 0.958791
O O9 0.553131 0.300635 0.196128
O O10 0.500000 0.000000 0.500000
O O11 0.402764 0.327043 0.093749
O O12 0.344578 0.995191 0.017517
O O13 0.835800 0.305700 0.994931
O O14 0.862056 0.851356 0.722246
O O15 0.930627 0.932893 0.084958
O O16 0.015518 0.266040 0.207113
O O17 0.928952 0.072771 0.435858
#
# Coordination Sequence:
#
# PCOD9047157 Si02
#       8
#     2   2   2   2   2   2   2   2
#     4  11  25  42  72 103 147 191 242 304 366 440
#     4  11  26  45  71 101 142 192 247 302 361 439
#     4  11  26  49  73 109 148 191 249 306 370 430
#     4  11  25  43  75 102 144 191 242 300 369 440
#     4  11  25  44  69 106 146 191 248 300 363 434
#     4  10  26  46  73 103 147 192 243 306 360 439
#     4  11  24  45  69 103 142 195 243 298 381 427
#     4  10  24  43  72  99 145 193 242 307 357 444
#
# _framework density 24.167714
#
# number of rings (size 3 to 8) (size 9 to 14) (size 15 to 20)
#    0.000    1.250    1.250    2.625   14.000    1.500 
#    4.500    0.000    0.000    0.000    0.000    0.000 
#    0.000    0.000    0.000    0.000    0.000    0.000 
#
# Total GULP energy -89418.907405 kJ/mol
# GULP energy per Si atom -5588.681713 kJ/mol
# Density = 2.411271 g / cm^3
# Si number density = 24.167714 Si / 1000 Ang^3
#
#
#
# Elastic Constant Matrix: (Units=GPa)
#
#
# Indices 1 2 3 4 5 6 
#
# 1 166.2783 51.3138 50.5872 -4.8553 30.4679 2.4644
# 2 51.3138 96.6916 21.1938 -0.2592 8.5560 -1.1874
# 3 50.5872 21.1938 68.4678 -3.0356 23.4565 3.9095
# 4 -4.8553 -0.2592 -3.0356 43.1578 -5.5923 4.9878
# 5 30.4679 8.5560 23.4565 -5.5923 43.2873 -1.2227
# 6 2.4644 -1.1874 3.9095 4.9878 -1.2227 33.5122
#
#
#
# Elastic Compliance Matrix: (Units=1/GPa)
#
#
# Indices 1 2 3 4 5 6 
#
# 1 0.009078 -0.003558 -0.004455 0.000317 -0.003243 -0.000439
# 2 -0.003558 0.012520 -0.001624 -0.000440 0.000881 0.000992
# 3 -0.004455 -0.001624 0.021349 0.000229 -0.008154 -0.002552
# 4 0.000317 -0.000440 0.000229 0.023983 0.002738 -0.003535
# 5 -0.003243 0.000881 -0.008154 0.002738 0.030036 0.001909
# 6 -0.000439 0.000992 -0.002552 -0.003535 0.001909 0.030801
#
#
# Mechanical properties :
#
#
# Convention : Reuss Voigt Hill
#
# Bulk Modulus (GPa) = 42.24644 64.18081 53.21362
# Shear Modulus (GPa) = 32.27183 37.88097 35.07640
#
# Velocity S-wave (km/s) = 3.65818 3.96336 3.81382
# Velocity P-wave (km/s) = 5.94655 6.89626 6.43894
#
# Compressibility (1/GPa) = 0.02367063
#
# Stress axis : x y z
#
# Youngs Moduli (GPa) = 110.16083 79.87422 46.83956
#
# Poissons Ratio (x) = 0.28423 0.20868
# Poissons Ratio (y) = 0.39201 0.07608
# Poissons Ratio (z) = 0.49079 0.12975
#
# Static dielectric constant tensor:
#      x y z
#    x 1.232770 -0.483770 -0.713230 
#    y -0.483770 1.685720 -0.456260 
#    z -0.713230 -0.456260 1.256770 
# 
# From -- ./inp_files/342587.got.cif
#   From: 2010.05.17/outbox.cif.g08.bks.cpg/sg2_172_cif.got.tgz:342587.got - 2010.06.03 11:33:40.
