data_PCOD9047610
_publ_section_title
;
Structure prediction by ZEFSAII (Michael W. Deem and Ramdas Pophale) SiO2 
 PCOD9047610
Probable space group: P -1
;
_chemical_formula_sum "Si O2"
_cell_formula_units_Z 16
_cell_length_a 9.552825
_cell_length_b 30.733424
_cell_length_c 9.825543
_cell_angle_alpha 150.112341
_cell_angle_beta 138.366307
_cell_angle_gamma 38.011422
_cell_volume 865.550231
_symmetry_space_group_name_H-M "P -1"
_symmetry_group_IT_number 2
_symmetry_cell_setting 'triclinic'
loop_
_space_group_symop_operation_xyz
x,y,z
-x,-y,-z
loop_
_atom_site_type_symbol
_atom_site_label
_atom_site_fract_x
_atom_site_fract_y
_atom_site_fract_z
Si Si1 0.222063 0.094767 0.265189
Si Si2 0.478185 0.728499 0.410265
Si Si3 0.683890 0.546252 0.256562
Si Si4 0.989996 0.096996 0.823633
Si Si5 0.364991 0.112211 0.940093
Si Si6 0.820313 0.628097 0.837877
Si Si7 0.051267 0.200013 0.699216
Si Si8 0.537529 0.761730 0.231581
O O1 0.337348 0.165760 0.492327
O O2 0.068723 0.144320 0.419779
O O3 0.428175 0.993090 0.178995
O O4 0.075221 0.080653 0.996575
O O5 0.611109 0.627134 0.307097
O O6 0.202687 0.762101 0.317704
O O7 0.542868 0.726996 0.295263
O O8 0.541385 0.807785 0.745422
O O9 0.689253 0.595502 0.538757
O O10 0.942353 0.463080 0.198782
O O11 0.500000 0.500000 0.000000
O O12 0.729724 0.177990 0.842029
O O13 0.169762 0.123919 0.941973
O O14 0.000000 0.000000 0.500000
O O15 0.241886 0.130664 0.754606
O O16 0.664617 0.675832 0.985167
O O17 0.890260 0.709513 0.045663
#
# Coordination Sequence:
#
# PCOD9047610 Si02
#       8
#     2   2   2   2   2   2   2   2
#     4  11  25  40  64  93 130 176 215 260 316 376
#     4  12  24  41  67  96 128 170 211 267 324 378
#     4  11  23  44  71  93 129 165 208 269 336 382
#     4  12  23  40  64  91 132 181 215 254 314 377
#     4  12  23  41  62  95 134 170 219 264 310 376
#     4  10  24  44  68  96 124 165 213 268 324 388
#     4  11  24  41  64  97 127 166 218 265 320 379
#     4  11  24  42  66  96 131 168 217 261 313 384
#
# _framework density 18.485351999999999
#
# number of rings (size 3 to 8) (size 9 to 14) (size 15 to 20)
#    0.000    0.750    6.250    1.500    1.750    1.000 
#    0.000    0.625    0.000    0.000    0.000    0.000 
#    0.000    0.000    0.000    0.000    0.000    0.000 
#
# Total GULP energy -89486.747592 kJ/mol
# GULP energy per Si atom -5592.921724 kJ/mol
# Density = 1.844328 g / cm^3
# Si number density = 18.485352 Si / 1000 Ang^3
#
#
#
# Elastic Constant Matrix: (Units=GPa)
#
#
# Indices 1 2 3 4 5 6 
#
# 1 92.5977 52.3820 45.9138 12.4492 -15.4011 14.0714
# 2 52.3820 153.5464 64.6632 -0.1859 -21.8256 21.1097
# 3 45.9138 64.6632 125.7139 0.0929 -17.4156 7.5577
# 4 12.4492 -0.1859 0.0929 25.7235 -1.2012 -4.9609
# 5 -15.4011 -21.8256 -17.4156 -1.2012 28.6902 -2.5970
# 6 14.0714 21.1097 7.5577 -4.9609 -2.5970 28.8186
#
#
#
# Elastic Compliance Matrix: (Units=1/GPa)
#
#
# Indices 1 2 3 4 5 6 
#
# 1 0.017227 -0.002789 -0.003933 -0.009446 0.003743 -0.006626
# 2 -0.002789 0.010047 -0.003355 0.000709 0.003717 -0.004661
# 3 -0.003933 -0.003355 0.011339 0.002347 0.002502 0.002034
# 4 -0.009446 0.000709 0.002347 0.045617 -0.000172 0.011314
# 5 0.003743 0.003717 0.002502 -0.000172 0.041065 -0.001536
# 6 -0.006626 -0.004661 0.002034 0.011314 -0.001536 0.042625
#
#
# Mechanical properties :
#
#
# Convention : Reuss Voigt Hill
#
# Bulk Modulus (GPa) = 54.17306 77.53066 65.85186
# Shear Modulus (GPa) = 25.74318 30.57308 28.15813
#
# Velocity S-wave (km/s) = 3.73584 4.07124 3.90714
# Velocity P-wave (km/s) = 6.92663 8.00829 7.48702
#
# Compressibility (1/GPa) = 0.01845936
#
# Stress axis : x y z
#
# Youngs Moduli (GPa) = 58.04941 99.53365 88.18961
#
# Poissons Ratio (x) = 0.27759 0.34687
# Poissons Ratio (y) = 0.16190 0.29584
# Poissons Ratio (z) = 0.22832 0.33389
#
# Static dielectric constant tensor:
#      x y z
#    x 1.617290 0.006140 0.007800 
#    y 0.006140 1.609680 -0.005440 
#    z 0.007800 -0.005440 1.627620 
# 
# From -- ./inp_files/37237.got.cif
#   From: 2010.05.17/outbox.cif.g08.bks.cpg/sg2_19_cif.got.tgz:37237.got - 2010.06.03 11:33:40.
