data_PCOD9047092
_publ_section_title
;
Structure prediction by ZEFSAII (Michael W. Deem and Ramdas Pophale) SiO2 
 PCOD9047092
Probable space group: P -1
;
_chemical_formula_sum "Si O2"
_cell_formula_units_Z 13
_cell_length_a 8.473640
_cell_length_b 9.784296
_cell_length_c 12.557611
_cell_angle_alpha 92.741736
_cell_angle_beta 42.797415
_cell_angle_gamma 67.291996
_cell_volume 554.041543
_symmetry_space_group_name_H-M "P -1"
_symmetry_group_IT_number 2
_symmetry_cell_setting 'triclinic'
loop_
_space_group_symop_operation_xyz
x,y,z
-x,-y,-z
loop_
_atom_site_type_symbol
_atom_site_label
_atom_site_fract_x
_atom_site_fract_y
_atom_site_fract_z
Si Si1 0.717361 0.334293 0.784583
Si Si2 0.986148 0.443430 0.889382
Si Si3 0.041650 0.507481 0.642250
Si Si4 0.995937 0.852666 0.143497
Si Si5 0.391830 0.812528 0.764344
Si Si6 0.343148 0.086361 0.194563
Si Si7 0.000000 0.000000 0.500000
O O1 0.364368 0.453805 0.953829
O O2 0.879986 0.194754 0.605085
O O3 0.830689 0.450360 0.731712
O O4 0.827443 0.224913 0.836892
O O5 0.000000 0.500000 0.000000
O O6 0.111363 0.486932 0.732887
O O7 0.163732 0.235395 0.788363
O O8 0.322149 0.369224 0.426222
O O9 0.887086 0.705488 0.699866
O O10 0.783936 0.060167 0.244418
O O11 0.201359 0.786763 0.934893
O O12 0.450810 0.922054 0.815736
O O13 0.207506 0.998322 0.305581
O O14 0.500000 0.000000 0.000000
#
# Coordination Sequence:
#
# PCOD9047092 Si02
#       7
#     2   2   2   2   2   2   1
#     4  11  24  47  69 105 136 197 236 292 364 439
#     4  11  25  42  70 104 143 182 238 306 361 424
#     4  11  24  46  76  99 143 197 238 291 363 443
#     4  10  24  43  71  97 145 189 241 295 361 437
#     4  11  23  44  70 102 137 193 247 291 359 436
#     4  12  26  45  73 110 149 188 243 305 368 427
#     4  12  26  40  76 108 144 182 246 302 364 426
#
# _framework density 23.463944000000001
#
# number of rings (size 3 to 8) (size 9 to 14) (size 15 to 20)
#    0.000    0.923    1.538    6.000    6.462    3.692 
#    0.000    0.769    0.000    0.000    0.000    0.000 
#    0.000    0.000    0.000    0.000    0.000    0.000 
#
# Total GULP energy -72486.523677 kJ/mol
# GULP energy per Si atom -5575.886437 kJ/mol
# Density = 2.341054 g / cm^3
# Si number density = 23.463944 Si / 1000 Ang^3
#
#
#
# Elastic Constant Matrix: (Units=GPa)
#
#
# Indices 1 2 3 4 5 6 
#
# 1 47.7579 33.1641 23.2796 2.1077 15.3130 -6.2927
# 2 33.1641 125.0039 24.4034 -14.0011 -4.9300 -13.2890
# 3 23.2796 24.4034 124.7977 7.4904 13.2844 -1.2092
# 4 2.1077 -14.0011 7.4904 56.0077 4.2173 6.5421
# 5 15.3130 -4.9300 13.2844 4.2173 24.8829 7.6460
# 6 -6.2927 -13.2890 -1.2092 6.5421 7.6460 34.7170
#
#
#
# Elastic Compliance Matrix: (Units=1/GPa)
#
#
# Indices 1 2 3 4 5 6 
#
# 1 0.039561 -0.010465 -0.002107 -0.002869 -0.027806 0.009756
# 2 -0.010465 0.011743 -0.001480 0.002843 0.009071 0.000013
# 3 -0.002107 -0.001480 0.009184 -0.001284 -0.003822 0.000455
# 4 -0.002869 0.002843 -0.001284 0.019168 0.000767 -0.003257
# 5 -0.027806 0.009071 -0.003822 0.000767 0.066045 -0.016391
# 6 0.009756 0.000013 0.000455 -0.003257 -0.016391 0.034817
#
#
# Mechanical properties :
#
#
# Convention : Reuss Voigt Hill
#
# Bulk Modulus (GPa) = 30.88006 51.02820 40.95413
# Shear Modulus (GPa) = 22.78778 37.56903 30.17840
#
# Velocity S-wave (km/s) = 3.11976 4.00576 3.59020
# Velocity P-wave (km/s) = 5.11531 6.57188 5.88880
#
# Compressibility (1/GPa) = 0.03238336
#
# Stress axis : x y z
#
# Youngs Moduli (GPa) = 25.27740 85.15897 108.88852
#
# Poissons Ratio (x) = 0.89122 0.22938
# Poissons Ratio (y) = 0.26454 0.16117
# Poissons Ratio (z) = 0.05325 0.12605
#
# Static dielectric constant tensor:
#      x y z
#    x 1.996510 -0.037930 -0.000600 
#    y -0.037930 1.911500 -0.000260 
#    z -0.000600 -0.000260 1.896970 
# 
# From -- ./inp_files/382177.got.cif
#   From: 2010.05.17/outbox.cif.g08.bks.cpg/sg2_192_cif.got.tgz:382177.got - 2010.06.03 11:33:40.
