data_PCOD9047058
_publ_section_title
;
Structure prediction by ZEFSAII (Michael W. Deem and Ramdas Pophale) SiO2 
 PCOD9047058
Probable space group: P -1
;
_chemical_formula_sum "Si O2"
_cell_formula_units_Z 16
_cell_length_a 14.737650
_cell_length_b 9.930400
_cell_length_c 8.594487
_cell_angle_alpha 74.515284
_cell_angle_beta 40.377734
_cell_angle_gamma 81.935563
_cell_volume 781.241086
_symmetry_space_group_name_H-M "P -1"
_symmetry_group_IT_number 2
_symmetry_cell_setting 'triclinic'
loop_
_space_group_symop_operation_xyz
x,y,z
-x,-y,-z
loop_
_atom_site_type_symbol
_atom_site_label
_atom_site_fract_x
_atom_site_fract_y
_atom_site_fract_z
Si Si1 0.525216 0.905800 0.346732
Si Si2 0.332862 0.075347 0.375107
Si Si3 0.416808 0.613523 0.488561
Si Si4 0.186069 0.117496 0.880802
Si Si5 0.415364 0.379833 0.047729
Si Si6 0.945650 0.937432 0.426429
Si Si7 0.103033 0.389070 0.341267
Si Si8 0.872836 0.573085 0.072026
O O1 0.434284 0.755598 0.521189
O O2 0.689910 0.883387 0.149897
O O3 0.500000 0.000000 0.500000
O O4 0.462342 0.982598 0.258253
O O5 0.248915 0.072481 0.649385
O O6 0.390391 0.235392 0.218845
O O7 0.213603 0.031433 0.416381
O O8 0.500000 0.500000 0.500000
O O9 0.261855 0.539158 0.693782
O O10 0.495023 0.647281 0.213741
O O11 0.148129 0.277249 0.869220
O O12 0.053517 0.012093 0.137421
O O13 0.262840 0.422880 0.182783
O O14 0.500000 0.500000 0.000000
O O15 0.944693 0.768879 0.488199
O O16 0.000000 0.000000 0.500000
O O17 0.000000 0.500000 0.500000
O O18 0.106308 0.394113 0.148304
O O19 0.000000 0.500000 0.000000
#
# Coordination Sequence:
#
# PCOD9047058 Si02
#       8
#     2   2   2   2   2   2   2   2
#     4  10  24  43  71 102 133 173 229 283 339 409
#     4  10  25  43  68 104 136 175 231 276 344 411
#     4  12  24  46  73  96 139 185 227 285 345 405
#     4  11  22  46  70  95 141 183 223 283 341 406
#     4  11  25  45  72 101 140 181 227 287 345 406
#     4  11  24  44  68  94 138 179 221 279 338 397
#     4  11  26  45  66 103 142 175 229 286 339 405
#     4  12  27  43  72 101 137 182 235 277 345 415
#
# _framework density 20.480233999999999
#
# number of rings (size 3 to 8) (size 9 to 14) (size 15 to 20)
#    0.000    1.000    3.750    1.125   10.500    3.500 
#    0.000    0.000    0.000    0.000    0.000    0.000 
#    0.000    0.000    0.000    0.000    0.000    0.000 
#
# Total GULP energy -89472.960442 kJ/mol
# GULP energy per Si atom -5592.060028 kJ/mol
# Density = 2.043362 g / cm^3
# Si number density = 20.480234 Si / 1000 Ang^3
#
#
#
# Elastic Constant Matrix: (Units=GPa)
#
#
# Indices 1 2 3 4 5 6 
#
# 1 141.5085 58.1757 25.5977 -16.4465 -32.0492 -19.3531
# 2 58.1757 112.4359 29.3043 -11.5627 -22.9214 -6.4719
# 3 25.5977 29.3043 99.6834 -26.0798 -17.0453 4.1657
# 4 -16.4465 -11.5627 -26.0798 34.2923 4.8542 -2.5420
# 5 -32.0492 -22.9214 -17.0453 4.8542 43.6858 6.0584
# 6 -19.3531 -6.4719 4.1657 -2.5420 6.0584 45.0184
#
#
#
# Elastic Compliance Matrix: (Units=1/GPa)
#
#
# Indices 1 2 3 4 5 6 
#
# 1 0.010687 -0.003983 -0.000012 0.003346 0.004881 0.003555
# 2 -0.003983 0.012022 -0.001997 0.000247 0.002598 -0.000135
# 3 -0.000012 -0.001997 0.013661 0.009107 0.003471 -0.001509
# 4 0.003346 0.000247 0.009107 0.037739 0.001591 0.002548
# 5 0.004881 0.002598 0.003471 0.001591 0.029248 -0.001696
# 6 0.003555 -0.000135 -0.001509 0.002548 -0.001696 0.024234
#
#
# Mechanical properties :
#
#
# Convention : Reuss Voigt Hill
#
# Bulk Modulus (GPa) = 41.00516 64.42037 52.71277
# Shear Modulus (GPa) = 33.85181 40.63596 37.24389
#
# Velocity S-wave (km/s) = 4.07000 4.45922 4.26905
# Velocity P-wave (km/s) = 6.49244 7.61814 7.07771
#
# Compressibility (1/GPa) = 0.02438717
#
# Stress axis : x y z
#
# Youngs Moduli (GPa) = 93.57478 83.17801 73.20004
#
# Poissons Ratio (x) = 0.33126 0.00088
# Poissons Ratio (y) = 0.37266 0.14618
# Poissons Ratio (z) = 0.00112 0.16611
#
# Static dielectric constant tensor:
#      x y z
#    x 1.745650 -0.002830 0.018180 
#    y -0.002830 1.708220 0.020540 
#    z 0.018180 0.020540 1.700430 
# 
# From -- ./inp_files/226493.got.cif
#   From: 2010.05.17/outbox.cif.g08.bks.cpg/sg2_114_cif.got.tgz:226493.got - 2010.06.03 11:33:40.
