data_PCOD9047312
_publ_section_title
;
Structure prediction by ZEFSAII (Michael W. Deem and Ramdas Pophale) SiO2 
 PCOD9047312
Probable space group: P -1
;
_chemical_formula_sum "Si O2"
_cell_formula_units_Z 12
_cell_length_a 15.131477
_cell_length_b 18.403241
_cell_length_c 8.616771
_cell_angle_alpha 43.273791
_cell_angle_beta 127.891481
_cell_angle_gamma 157.092229
_cell_volume 625.728068
_symmetry_space_group_name_H-M "P -1"
_symmetry_group_IT_number 2
_symmetry_cell_setting 'triclinic'
loop_
_space_group_symop_operation_xyz
x,y,z
-x,-y,-z
loop_
_atom_site_type_symbol
_atom_site_label
_atom_site_fract_x
_atom_site_fract_y
_atom_site_fract_z
Si Si1 0.957925 0.347138 0.631425
Si Si2 0.019806 0.819849 0.656249
Si Si3 0.080508 0.460366 0.236869
Si Si4 0.287937 0.444306 0.965599
Si Si5 0.830400 0.861894 0.882773
Si Si6 0.579699 0.958363 0.063874
O O1 0.952815 0.343979 0.445287
O O2 0.000000 0.500000 0.500000
O O3 0.173490 0.455029 0.755090
O O4 0.727099 0.111311 0.832282
O O5 0.958859 0.676688 0.692604
O O6 0.823849 0.666867 0.813833
O O7 0.063285 0.965802 0.390393
O O8 0.249976 0.968750 0.758938
O O9 0.352219 0.702748 0.181900
O O10 0.000000 0.500000 0.000000
O O11 0.204518 0.280696 0.015874
O O12 0.565505 0.678389 0.916597
O O13 0.000000 0.000000 0.000000
O O14 0.500000 0.000000 0.000000
#
# Coordination Sequence:
#
# PCOD9047312 Si02
#       6
#     2   2   2   2   2   2
#     4  11  22  40  68  92 129 171 208 262 325 379
#     4  11  24  41  65  92 130 167 213 264 319 381
#     4  12  23  38  60  95 129 168 215 256 315 383
#     4  10  24  44  64  95 128 167 214 266 320 375
#     4  11  24  43  68  93 126 167 220 264 315 379
#     4  11  22  42  62  92 131 169 208 261 318 379
#
# _framework density 19.177662000000002
#
# number of rings (size 3 to 8) (size 9 to 14) (size 15 to 20)
#    0.000    1.000    3.333    3.500    0.000    6.667 
#    0.000    0.000    0.000    0.000    0.000    0.000 
#    0.000    0.000    0.000    0.000    0.000    0.000 
#
# Total GULP energy -67103.378038 kJ/mol
# GULP energy per Si atom -5591.948170 kJ/mol
# Density = 1.913401 g / cm^3
# Si number density = 19.177662 Si / 1000 Ang^3
#
#
#
# Elastic Constant Matrix: (Units=GPa)
#
#
# Indices 1 2 3 4 5 6 
#
# 1 106.5202 51.1661 42.8891 8.8051 -12.3279 5.4328
# 2 51.1661 96.5759 44.7748 -4.5614 -14.3607 -10.2375
# 3 42.8891 44.7748 120.9573 22.9927 -11.3351 2.7539
# 4 8.8051 -4.5614 22.9927 24.9248 -7.4350 5.0403
# 5 -12.3279 -14.3607 -11.3351 -7.4350 42.7619 2.8149
# 6 5.4328 -10.2375 2.7539 5.0403 2.8149 28.8208
#
#
#
# Elastic Compliance Matrix: (Units=1/GPa)
#
#
# Indices 1 2 3 4 5 6 
#
# 1 0.014147 -0.007421 -0.001336 -0.003947 0.000847 -0.004568
# 2 -0.007421 0.019188 -0.006525 0.012154 0.004274 0.006295
# 3 -0.001336 -0.006525 0.013622 -0.013482 -0.001251 -0.000887
# 4 -0.003947 0.012154 -0.013482 0.060264 0.010189 -0.005185
# 5 0.000847 0.004274 -0.001251 0.010189 0.026696 -0.002911
# 6 -0.004568 0.006295 -0.000887 -0.005185 -0.002911 0.039070
#
#
# Mechanical properties :
#
#
# Convention : Reuss Voigt Hill
#
# Bulk Modulus (GPa) = 60.99422 66.85701 63.92562
# Shear Modulus (GPa) = 23.92167 31.64973 27.78570
#
# Velocity S-wave (km/s) = 3.53565 4.06685 3.81052
# Velocity P-wave (km/s) = 6.96718 7.54917 7.26401
#
# Compressibility (1/GPa) = 0.01639500
#
# Stress axis : x y z
#
# Youngs Moduli (GPa) = 70.68391 52.11604 73.41077
#
# Poissons Ratio (x) = 0.38674 0.09806
# Poissons Ratio (y) = 0.52453 0.47898
# Poissons Ratio (z) = 0.09442 0.34004
#
# Static dielectric constant tensor:
#      x y z
#    x 1.654810 0.008780 -0.010530 
#    y 0.008780 1.625720 0.003120 
#    z -0.010530 0.003120 1.649620 
# 
# From -- ./inp_files/77619.got.cif
#   From: 2010.05.17/outbox.cif.g08.bks.cpg/sg2_39_cif.got.tgz:77619.got - 2010.06.03 11:33:40.
