data_PCOD9047390
_publ_section_title
;
Structure prediction by ZEFSAII (Michael W. Deem and Ramdas Pophale) SiO2 
 PCOD9047390
Probable space group: P -1
;
_chemical_formula_sum "Si O2"
_cell_formula_units_Z 14
_cell_length_a 13.895456
_cell_length_b 7.178670
_cell_length_c 15.046353
_cell_angle_alpha 115.590830
_cell_angle_beta 28.486100
_cell_angle_gamma 116.612569
_cell_volume 637.426513
_symmetry_space_group_name_H-M "P -1"
_symmetry_group_IT_number 2
_symmetry_cell_setting 'triclinic'
loop_
_space_group_symop_operation_xyz
x,y,z
-x,-y,-z
loop_
_atom_site_type_symbol
_atom_site_label
_atom_site_fract_x
_atom_site_fract_y
_atom_site_fract_z
Si Si1 0.588186 0.666326 0.037231
Si Si2 0.968145 0.212003 0.019572
Si Si3 0.873780 0.370097 0.781042
Si Si4 0.738233 0.577442 0.310119
Si Si5 0.833034 0.290484 0.599401
Si Si6 0.318465 0.862167 0.937913
Si Si7 0.226682 0.167614 0.497790
O O1 0.382021 0.673815 0.263367
O O2 0.652093 0.900867 0.003433
O O3 0.500000 0.500000 0.000000
O O4 0.791833 0.589916 0.891394
O O5 0.860016 0.385193 0.194774
O O6 0.821513 0.160098 0.041338
O O7 0.180508 0.339470 0.835169
O O8 0.000000 0.000000 0.000000
O O9 0.795663 0.256763 0.728787
O O10 0.108477 0.338971 0.583865
O O11 0.777722 0.270554 0.928861
O O12 0.500000 0.500000 0.500000
O O13 0.782449 0.774382 0.380069
O O14 0.000000 0.500000 0.500000
O O15 0.882791 0.070378 0.478794
O O16 0.541851 0.814309 0.719955
#
# Coordination Sequence:
#
# PCOD9047390 Si02
#       7
#     2   2   2   2   2   2   2
#     4   9  23  40  62  97 131 176 221 274 331 397
#     4  11  26  46  74 102 139 181 234 293 352 415
#     4  11  24  42  71  94 137 182 222 279 340 401
#     4  11  24  48  70 102 141 182 234 291 350 420
#     4  10  24  44  66 105 142 178 233 279 341 416
#     4  11  24  45  67  98 138 175 231 277 346 407
#     4  11  24  44  68 101 135 183 227 283 342 409
#
# _framework density 21.963315999999999
#
# number of rings (size 3 to 8) (size 9 to 14) (size 15 to 20)
#    0.000    1.429    2.857    0.429    8.000    5.714 
#    0.000    0.000    0.000    0.000    0.000    0.000 
#    0.000    0.000    0.000    0.000    0.000    0.000 
#
# Total GULP energy -78075.853851 kJ/mol
# GULP energy per Si atom -5576.846704 kJ/mol
# Density = 2.191333 g / cm^3
# Si number density = 21.963316 Si / 1000 Ang^3
#
#
#
# Elastic Constant Matrix: (Units=GPa)
#
#
# Indices 1 2 3 4 5 6 
#
# 1 62.3752 24.8977 42.7584 4.5480 -0.8929 -10.1030
# 2 24.8977 70.2607 56.9287 10.0614 -1.5808 -25.9134
# 3 42.7584 56.9287 150.4698 14.0493 -21.8804 -23.4094
# 4 4.5480 10.0614 14.0493 33.5702 4.5927 -5.7297
# 5 -0.8929 -1.5808 -21.8804 4.5927 41.5366 11.9619
# 6 -10.1030 -25.9134 -23.4094 -5.7297 11.9619 34.3114
#
#
#
# Elastic Compliance Matrix: (Units=1/GPa)
#
#
# Indices 1 2 3 4 5 6 
#
# 1 0.020816 -0.002815 -0.005091 0.000842 -0.002921 0.001689
# 2 -0.002815 0.028484 -0.008395 -0.000436 -0.008489 0.017843
# 3 -0.005091 -0.008395 0.012216 -0.003311 0.007102 -0.002533
# 4 0.000842 -0.000436 -0.003311 0.033115 -0.007028 0.005640
# 5 -0.002921 -0.008489 0.007102 -0.007028 0.032508 -0.014933
# 6 0.001689 0.017843 -0.002533 0.005640 -0.014933 0.047537
#
#
# Mechanical properties :
#
#
# Convention : Reuss Voigt Hill
#
# Bulk Modulus (GPa) = 34.58341 59.14168 46.86254
# Shear Modulus (GPa) = 23.05054 32.45171 27.75112
#
# Velocity S-wave (km/s) = 3.24312 3.84805 3.55846
# Velocity P-wave (km/s) = 5.45930 6.83588 6.18600
#
# Compressibility (1/GPa) = 0.02891560
#
# Stress axis : x y z
#
# Youngs Moduli (GPa) = 48.04074 35.10742 81.85852
#
# Poissons Ratio (x) = 0.09883 0.41672
# Poissons Ratio (y) = 0.13523 0.68716
# Poissons Ratio (z) = 0.24456 0.29471
#
# Static dielectric constant tensor:
#      x y z
#    x 1.885660 0.000290 -0.056260 
#    y 0.000290 1.793890 0.027440 
#    z -0.056260 0.027440 1.875590 
# 
# From -- ./inp_files/525915.got.cif
#   From: 2010.05.17/outbox.cif.g08.bks.cpg/sg2_263_cif.got.tgz:525915.got - 2010.06.03 11:33:40.
