data_PCOD9047960
_publ_section_title
;
Structure prediction by ZEFSAII (Michael W. Deem and Ramdas Pophale) SiO2 
 PCOD9047960
Probable space group: P -1
;
_chemical_formula_sum "Si O2"
_cell_formula_units_Z 15
_cell_length_a 13.571543
_cell_length_b 9.996530
_cell_length_c 19.467423
_cell_angle_alpha 134.615056
_cell_angle_beta 27.965515
_cell_angle_gamma 147.300437
_cell_volume 660.310335
_symmetry_space_group_name_H-M "P -1"
_symmetry_group_IT_number 2
_symmetry_cell_setting 'triclinic'
loop_
_space_group_symop_operation_xyz
x,y,z
-x,-y,-z
loop_
_atom_site_type_symbol
_atom_site_label
_atom_site_fract_x
_atom_site_fract_y
_atom_site_fract_z
Si Si1 0.838242 0.619681 0.452801
Si Si2 0.709986 0.471259 0.254771
Si Si3 0.115174 0.693848 0.437376
Si Si4 0.764143 0.946273 0.862526
Si Si5 0.586696 0.476569 0.863684
Si Si6 0.690003 0.203714 0.300836
Si Si7 0.591380 0.950224 0.819440
Si Si8 0.000000 0.000000 0.000000
O O1 0.579742 0.591122 0.576237
O O2 0.774116 0.372602 0.376196
O O3 0.876227 0.647398 0.521556
O O4 0.125512 0.865617 0.332019
O O5 0.782371 0.382417 0.242544
O O6 0.953625 0.766224 0.200308
O O7 0.641743 0.301340 0.170101
O O8 0.269195 0.641501 0.270621
O O9 0.000000 0.500000 0.500000
O O10 0.354804 0.975850 0.418022
O O11 0.660895 0.897756 0.830478
O O12 0.786337 0.748948 0.804270
O O13 0.531014 0.916543 0.040584
O O14 0.500000 0.500000 0.000000
O O15 0.301840 0.286395 0.927663
O O16 0.834109 0.087548 0.165291
#
# Coordination Sequence:
#
# PCOD9047960 Si02
#       8
#     2   2   2   2   2   2   2   1
#     4  12  25  46  73 101 147 190 235 290 370 427
#     4  12  26  42  75 107 144 183 233 303 362 429
#     4  11  27  45  70 102 142 191 241 296 346 440
#     4  11  26  43  71 107 143 178 244 303 352 425
#     4  11  25  46  73  99 141 191 237 292 360 424
#     4  11  24  45  73 104 141 185 240 288 369 425
#     4  11  24  44  68 104 140 189 230 297 358 425
#     4  10  24  44  72 102 136 190 234 286 340 438
#
# _framework density 22.716591000000001
#
# number of rings (size 3 to 8) (size 9 to 14) (size 15 to 20)
#    0.000    0.800    2.667    3.600    7.467    1.600 
#    2.400    0.000    0.000    0.000    0.000    0.000 
#    0.000    0.000    0.000    0.000    0.000    0.000 
#
# Total GULP energy -83756.133191 kJ/mol
# GULP energy per Si atom -5583.742213 kJ/mol
# Density = 2.266489 g / cm^3
# Si number density = 22.716591 Si / 1000 Ang^3
#
#
#
# Elastic Constant Matrix: (Units=GPa)
#
#
# Indices 1 2 3 4 5 6 
#
# 1 54.5499 23.7031 1.5456 -9.1037 10.0130 17.1284
# 2 23.7031 126.3799 0.9225 -4.2680 12.9800 17.6217
# 3 1.5456 0.9225 59.1476 0.9232 3.8482 7.2972
# 4 -9.1037 -4.2680 0.9232 27.7444 0.7785 5.2109
# 5 10.0130 12.9800 3.8482 0.7785 20.7035 -2.4712
# 6 17.1284 17.6217 7.2972 5.2109 -2.4712 33.9082
#
#
#
# Elastic Compliance Matrix: (Units=1/GPa)
#
#
# Indices 1 2 3 4 5 6 
#
# 1 0.029810 -0.000824 0.002412 0.013522 -0.017062 -0.018470
# 2 -0.000824 0.009600 0.000955 0.002416 -0.006560 -0.005628
# 3 0.002412 0.000955 0.017961 0.001684 -0.005915 -0.006270
# 4 0.013522 0.002416 0.001684 0.044156 -0.011950 -0.016105
# 5 -0.017062 -0.006560 -0.005915 -0.011950 0.064583 0.019844
# 6 -0.018470 -0.005628 -0.006270 -0.016105 0.019844 0.047017
#
#
# Mechanical properties :
#
#
# Convention : Reuss Voigt Hill
#
# Bulk Modulus (GPa) = 16.01117 32.49109 24.25113
# Shear Modulus (GPa) = 21.84739 30.73163 26.28951
#
# Velocity S-wave (km/s) = 3.10455 3.68207 3.40558
# Velocity P-wave (km/s) = 4.46257 5.69304 5.11494
#
# Compressibility (1/GPa) = 0.06245640
#
# Stress axis : x y z
#
# Youngs Moduli (GPa) = 33.54622 104.16291 55.67607
#
# Poissons Ratio (x) = 0.08585 -0.13427
# Poissons Ratio (y) = 0.02765 -0.05318
# Poissons Ratio (z) = -0.08090 -0.09950
#
# Static dielectric constant tensor:
#      x y z
#    x 1.860910 0.013710 0.012800 
#    y 0.013710 1.802780 0.027790 
#    z 0.012800 0.027790 1.877490 
# 
# From -- ./inp_files/566912.got.cif
#   From: 2010.05.17/outbox.cif.g08.bks.cpg/sg2_284_cif.got.tgz:566912.got - 2010.06.03 11:33:40.
