data_PCOD9047758
_publ_section_title
;
Structure prediction by ZEFSAII (Michael W. Deem and Ramdas Pophale) SiO2 
 PCOD9047758
Probable space group: P -1
;
_chemical_formula_sum "Si O2"
_cell_formula_units_Z 16
_cell_length_a 18.213660
_cell_length_b 12.264636
_cell_length_c 9.504626
_cell_angle_alpha 131.637198
_cell_angle_beta 25.522076
_cell_angle_gamma 136.300137
_cell_volume 631.498535
_symmetry_space_group_name_H-M "P -1"
_symmetry_group_IT_number 2
_symmetry_cell_setting 'triclinic'
loop_
_space_group_symop_operation_xyz
x,y,z
-x,-y,-z
loop_
_atom_site_type_symbol
_atom_site_label
_atom_site_fract_x
_atom_site_fract_y
_atom_site_fract_z
Si Si1 0.155647 0.145805 0.433624
Si Si2 0.695285 0.655351 0.074913
Si Si3 0.669111 0.142074 0.763026
Si Si4 0.985344 0.042619 0.220440
Si Si5 0.469755 0.023879 0.736250
Si Si6 0.175202 0.527389 0.122633
Si Si7 0.705078 0.340442 0.253598
Si Si8 0.283738 0.475453 0.353407
O O1 0.170319 0.312717 0.492200
O O2 0.101459 0.105626 0.654956
O O3 0.000000 0.000000 0.500000
O O4 0.349667 0.129693 0.055740
O O5 0.483222 0.629551 0.420866
O O6 0.759123 0.614271 0.078582
O O7 0.749750 0.550376 0.776125
O O8 0.814133 0.834355 0.975513
O O9 0.849527 0.136314 0.521215
O O10 0.667520 0.310136 0.952117
O O11 0.645424 0.102355 0.603138
O O12 0.500000 0.000000 0.000000
O O13 0.000000 0.000000 0.000000
O O14 0.346524 0.844091 0.840848
O O15 0.500000 0.000000 0.500000
O O16 0.000000 0.500000 0.500000
O O17 0.154320 0.556322 0.018886
O O18 0.748607 0.390582 0.384138
O O19 0.500000 0.500000 0.000000
#
# Coordination Sequence:
#
# PCOD9047758 Si02
#       8
#     2   2   2   2   2   2   2   2
#     4  12  26  47  73 104 145 187 230 299 359 413
#     4  11  24  45  69 102 147 186 233 299 353 423
#     4  12  25  47  70 102 142 190 235 294 357 416
#     4  12  26  43  72 104 145 184 245 295 351 424
#     4  12  27  47  76 102 141 187 242 291 353 430
#     4  12  26  45  71 103 145 183 234 295 360 416
#     4  11  25  46  71 107 140 188 242 287 356 428
#     4  10  24  44  70 102 141 185 235 283 358 422
#
# _framework density 25.336558
#
# number of rings (size 3 to 8) (size 9 to 14) (size 15 to 20)
#    0.000    0.500    5.000    2.625    8.750    0.000 
#    0.000    1.250    0.000    0.000    0.000    0.000 
#    0.000    0.000    0.000    0.000    0.000    0.000 
#
# Total GULP energy -89582.198090 kJ/mol
# GULP energy per Si atom -5598.887381 kJ/mol
# Density = 2.527889 g / cm^3
# Si number density = 25.336558 Si / 1000 Ang^3
#
#
#
# Elastic Constant Matrix: (Units=GPa)
#
#
# Indices 1 2 3 4 5 6 
#
# 1 83.8786 -1.7996 15.7893 -4.8383 29.1102 3.6096
# 2 -1.7996 83.8075 -4.9989 -7.2367 11.1189 1.7795
# 3 15.7893 -4.9989 95.5798 -12.6555 22.1953 1.3783
# 4 -4.8383 -7.2367 -12.6555 39.2923 1.8433 6.9672
# 5 29.1102 11.1189 22.1953 1.8433 51.2112 2.8057
# 6 3.6096 1.7795 1.3783 6.9672 2.8057 44.5260
#
#
#
# Elastic Compliance Matrix: (Units=1/GPa)
#
#
# Indices 1 2 3 4 5 6 
#
# 1 0.015358 0.001834 0.000100 0.002905 -0.009210 -0.001196
# 2 0.001834 0.013071 0.002004 0.003683 -0.004826 -0.001005
# 3 0.000100 0.002004 0.012625 0.004886 -0.006092 -0.000860
# 4 0.002905 0.003683 0.004886 0.029155 -0.005357 -0.004758
# 5 -0.009210 -0.004826 -0.006092 -0.005357 0.028635 0.000162
# 6 -0.001196 -0.001005 -0.000860 -0.004758 0.000162 0.023357
#
#
# Mechanical properties :
#
#
# Convention : Reuss Voigt Hill
#
# Bulk Modulus (GPa) = 20.43836 31.24973 25.84404
# Shear Modulus (GPa) = 38.27451 43.95757 41.11604
#
# Velocity S-wave (km/s) = 3.89092 4.16979 4.03276
# Velocity P-wave (km/s) = 5.31694 5.96183 5.64860
#
# Compressibility (1/GPa) = 0.04892761
#
# Stress axis : x y z
#
# Youngs Moduli (GPa) = 65.11211 76.50723 79.20926
#
# Poissons Ratio (x) = -0.14031 -0.00789
# Poissons Ratio (y) = -0.11941 -0.15870
# Poissons Ratio (z) = -0.00648 -0.15329
#
# Static dielectric constant tensor:
#      x y z
#    x 2.058740 -0.016970 -0.012640 
#    y -0.016970 2.008890 -0.007480 
#    z -0.012640 -0.007480 2.027260 
# 
# From -- ./inp_files/243837.got.cif
#   From: 2010.05.17/outbox.cif.g08.bks.cpg/sg2_122_cif.got.tgz:243837.got - 2010.06.03 11:33:40.
