data_PCOD9047107
_publ_section_title
;
Structure prediction by ZEFSAII (Michael W. Deem and Ramdas Pophale) SiO2 
 PCOD9047107
Probable space group: P -1
;
_chemical_formula_sum "Si O2"
_cell_formula_units_Z 12
_cell_length_a 18.291188
_cell_length_b 14.955760
_cell_length_c 9.329072
_cell_angle_alpha 142.494163
_cell_angle_beta 51.256547
_cell_angle_gamma 158.472804
_cell_volume 493.155281
_symmetry_space_group_name_H-M "P -1"
_symmetry_group_IT_number 2
_symmetry_cell_setting 'triclinic'
loop_
_space_group_symop_operation_xyz
x,y,z
-x,-y,-z
loop_
_atom_site_type_symbol
_atom_site_label
_atom_site_fract_x
_atom_site_fract_y
_atom_site_fract_z
Si Si1 0.856615 0.474924 0.309975
Si Si2 0.935180 0.465132 0.693889
Si Si3 0.320830 0.324165 0.892279
Si Si4 0.853789 0.590580 0.161521
Si Si5 0.432539 0.782542 0.427899
Si Si6 0.363974 0.430829 0.661325
O O1 0.804619 0.408664 0.121132
O O2 0.663818 0.275489 0.389158
O O3 0.898157 0.372713 0.190860
O O4 0.093292 0.901573 0.604612
O O5 0.000000 0.500000 0.500000
O O6 0.670491 0.041917 0.500528
O O7 0.913248 0.602311 0.949457
O O8 0.446201 0.535640 0.856307
O O9 0.500000 0.500000 0.000000
O O10 0.262067 0.406627 0.117641
O O11 0.654261 0.427569 0.189507
O O12 0.094215 0.003736 0.443045
O O13 0.500000 0.000000 0.500000
O O14 0.500000 0.500000 0.500000
#
# Coordination Sequence:
#
# PCOD9047107 Si02
#       6
#     2   2   2   2   2   2
#     4  11  25  45  71 101 142 187 235 297 350 424
#     4  12  25  43  69 104 146 184 234 296 354 421
#     4  11  24  44  70 104 140 183 238 292 351 420
#     4  10  25  45  66 105 141 184 239 287 357 422
#     4  12  25  43  70 105 139 187 237 289 364 413
#     4  10  24  43  71  99 141 188 230 294 355 417
#
# _framework density 24.333106000000001
#
# number of rings (size 3 to 8) (size 9 to 14) (size 15 to 20)
#    0.000    1.000    3.333    2.000    4.667    2.000 
#    0.000    0.000    0.000    0.000    0.000    0.000 
#    0.000    0.000    0.000    0.000    0.000    0.000 
#
# Total GULP energy -67025.820502 kJ/mol
# GULP energy per Si atom -5585.485042 kJ/mol
# Density = 2.427772 g / cm^3
# Si number density = 24.333106 Si / 1000 Ang^3
#
#
#
# Elastic Constant Matrix: (Units=GPa)
#
#
# Indices 1 2 3 4 5 6 
#
# 1 177.5972 57.5048 38.1188 -29.1982 19.5320 18.6418
# 2 57.5048 114.2191 3.0171 -34.8769 12.3741 24.8751
# 3 38.1188 3.0171 86.4097 -15.7594 3.7825 5.9157
# 4 -29.1982 -34.8769 -15.7594 52.8389 -0.5073 -4.5077
# 5 19.5320 12.3741 3.7825 -0.5073 39.5496 -6.4395
# 6 18.6418 24.8751 5.9157 -4.5077 -6.4395 32.5376
#
#
#
# Elastic Compliance Matrix: (Units=1/GPa)
#
#
# Indices 1 2 3 4 5 6 
#
# 1 0.007941 -0.002517 -0.002799 0.001644 -0.003258 -0.002533
# 2 -0.002517 0.015663 0.003187 0.008906 -0.005638 -0.010993
# 3 -0.002799 0.003187 0.013762 0.004393 -0.001362 -0.002996
# 4 0.001644 0.008906 0.004393 0.026484 -0.004622 -0.005795
# 5 -0.003258 -0.005638 -0.001362 -0.004622 0.030658 0.011851
# 6 -0.002533 -0.010993 -0.002996 -0.005795 0.011851 0.042677
#
#
# Mechanical properties :
#
#
# Convention : Reuss Voigt Hill
#
# Bulk Modulus (GPa) = 30.20489 63.94527 47.07508
# Shear Modulus (GPa) = 32.79121 43.62425 38.20773
#
# Velocity S-wave (km/s) = 3.67495 4.23873 3.96687
# Velocity P-wave (km/s) = 5.51788 7.09168 6.35370
#
# Compressibility (1/GPa) = 0.03310722
#
# Stress axis : x y z
#
# Youngs Moduli (GPa) = 125.92529 63.84601 72.66216
#
# Poissons Ratio (x) = 0.16073 0.20341
# Poissons Ratio (y) = 0.31701 -0.23160
# Poissons Ratio (z) = 0.35251 -0.20350
#
# Static dielectric constant tensor:
#      x y z
#    x 1.979680 -0.003100 -0.043320 
#    y -0.003100 1.942340 0.060600 
#    z -0.043320 0.060600 2.119080 
# 
# From -- ./inp_files/156373.got.cif
#   From: 2010.05.17/outbox.cif.g08.bks.cpg/sg2_79_cif.got.tgz:156373.got - 2010.06.03 11:33:40.
