data_PCOD9047775
_publ_section_title
;
Structure prediction by ZEFSAII (Michael W. Deem and Ramdas Pophale) SiO2 
 PCOD9047775
Probable space group: P -1
;
_chemical_formula_sum "Si O2"
_cell_formula_units_Z 14
_cell_length_a 5.346310
_cell_length_b 14.226549
_cell_length_c 11.411495
_cell_angle_alpha 125.008204
_cell_angle_beta 120.851389
_cell_angle_gamma 70.223384
_cell_volume 609.115558
_symmetry_space_group_name_H-M "P -1"
_symmetry_group_IT_number 2
_symmetry_cell_setting 'triclinic'
loop_
_space_group_symop_operation_xyz
x,y,z
-x,-y,-z
loop_
_atom_site_type_symbol
_atom_site_label
_atom_site_fract_x
_atom_site_fract_y
_atom_site_fract_z
Si Si1 0.173483 0.953048 0.893323
Si Si2 0.761530 0.583589 0.629646
Si Si3 0.392797 0.039531 0.373421
Si Si4 0.691407 0.531608 0.320986
Si Si5 0.490264 0.723680 0.846097
Si Si6 0.279099 0.171772 0.786886
Si Si7 0.597984 0.247155 0.679635
O O1 0.231288 0.815438 0.815762
O O2 0.938041 0.983403 0.756052
O O3 0.500000 0.000000 0.000000
O O4 0.000000 0.000000 0.000000
O O5 0.500000 0.500000 0.500000
O O6 0.811947 0.594842 0.510976
O O7 0.693928 0.701450 0.765619
O O8 0.013764 0.508210 0.704767
O O9 0.434969 0.174212 0.489813
O O10 0.500000 0.000000 0.500000
O O11 0.610134 0.962825 0.287619
O O12 0.582490 0.406018 0.233202
O O13 0.463109 0.618711 0.266354
O O14 0.631544 0.775652 0.031155
O O15 0.457057 0.223391 0.756624
O O16 0.934651 0.201969 0.715684
#
# Coordination Sequence:
#
# PCOD9047775 Si02
#       7
#     2   2   2   2   2   2   2
#     4  12  29  47  76 112 149 191 250 303 379 441
#     4   9  22  41  67  97 143 186 237 302 368 429
#     4  10  25  48  77 106 149 195 247 307 368 441
#     4  10  24  44  70 103 144 189 250 301 371 446
#     4  11  26  44  74 101 155 182 245 308 377 427
#     4  11  26  46  72 107 148 193 248 307 367 443
#     4  11  27  45  76 105 146 198 250 295 376 447
#
# _framework density 22.984145000000002
#
# number of rings (size 3 to 8) (size 9 to 14) (size 15 to 20)
#    0.000    1.429    1.429    0.429   18.000    4.571 
#    0.000    0.000    0.000    0.000    0.000    0.000 
#    0.000    0.000    0.000    0.000    0.000    0.000 
#
# Total GULP energy -78094.268386 kJ/mol
# GULP energy per Si atom -5578.162028 kJ/mol
# Density = 2.293183 g / cm^3
# Si number density = 22.984145 Si / 1000 Ang^3
#
#
#
# Elastic Constant Matrix: (Units=GPa)
#
#
# Indices 1 2 3 4 5 6 
#
# 1 134.0269 44.1774 47.8495 -6.6751 -0.8755 -34.6518
# 2 44.1774 136.1782 32.1380 2.7099 -0.2460 -25.7245
# 3 47.8495 32.1380 142.0560 -3.6145 -14.4256 -21.0811
# 4 -6.6751 2.7099 -3.6145 37.2853 -18.4158 2.5995
# 5 -0.8755 -0.2460 -14.4256 -18.4158 44.7380 4.1731
# 6 -34.6518 -25.7245 -21.0811 2.5995 4.1731 38.4438
#
#
#
# Elastic Compliance Matrix: (Units=1/GPa)
#
#
# Indices 1 2 3 4 5 6 
#
# 1 0.010733 -0.001573 -0.002219 0.000886 -0.000843 0.007437
# 2 -0.001573 0.008960 -0.001076 -0.002131 -0.001607 0.004307
# 3 -0.002219 -0.001076 0.008662 0.002135 0.003482 0.001508
# 4 0.000886 -0.002131 0.002135 0.035261 0.015538 -0.003528
# 5 -0.000843 -0.001607 0.003482 0.015538 0.030243 -0.004260
# 6 0.007437 0.004307 0.001508 -0.003528 -0.004260 0.037125
#
#
# Mechanical properties :
#
#
# Convention : Reuss Voigt Hill
#
# Bulk Modulus (GPa) = 53.70279 73.39898 63.55089
# Shear Modulus (GPa) = 34.03060 43.29984 38.66522
#
# Velocity S-wave (km/s) = 3.85205 4.34510 4.10598
# Velocity P-wave (km/s) = 6.57269 7.56156 7.08440
#
# Compressibility (1/GPa) = 0.01862101
#
# Stress axis : x y z
#
# Youngs Moduli (GPa) = 93.16965 111.60107 115.44766
#
# Poissons Ratio (x) = 0.17549 0.25618
# Poissons Ratio (y) = 0.14651 0.12420
# Poissons Ratio (z) = 0.20674 0.12006
#
# Static dielectric constant tensor:
#      x y z
#    x 2.087800 0.062960 -0.013180 
#    y 0.062960 1.940850 0.001870 
#    z -0.013180 0.001870 1.860510 
# 
# From -- ./inp_files/80611.got.cif
#   From: 2010.05.17/outbox.cif.g08.bks.cpg/sg2_41_cif.got.tgz:80611.got - 2010.06.03 11:33:40.
