data_PCOD9047265
_publ_section_title
;
Structure prediction by ZEFSAII (Michael W. Deem and Ramdas Pophale) SiO2 
 PCOD9047265
Probable space group: P -1
;
_chemical_formula_sum "Si O2"
_cell_formula_units_Z 16
_cell_length_a 8.509504
_cell_length_b 15.021210
_cell_length_c 9.521648
_cell_angle_alpha 140.907797
_cell_angle_beta 97.125667
_cell_angle_gamma 106.995471
_cell_volume 596.883724
_symmetry_space_group_name_H-M "P -1"
_symmetry_group_IT_number 2
_symmetry_cell_setting 'triclinic'
loop_
_space_group_symop_operation_xyz
x,y,z
-x,-y,-z
loop_
_atom_site_type_symbol
_atom_site_label
_atom_site_fract_x
_atom_site_fract_y
_atom_site_fract_z
Si Si1 0.645095 0.632210 0.017257
Si Si2 0.771248 0.245825 0.880156
Si Si3 0.861771 0.532576 0.611724
Si Si4 0.768052 0.551394 0.338152
Si Si5 0.981404 0.281718 0.693590
Si Si6 0.467961 0.150180 0.201705
Si Si7 0.845299 0.911805 0.136277
Si Si8 0.692735 0.910014 0.582875
O O1 0.800306 0.608019 0.072379
O O2 0.643698 0.761258 0.284373
O O3 0.726888 0.734552 0.002540
O O4 0.415684 0.458788 0.753122
O O5 0.692098 0.346517 0.062808
O O6 0.989499 0.342572 0.096151
O O7 0.829462 0.293569 0.780926
O O8 0.659946 0.042084 0.663245
O O9 0.806831 0.610128 0.575671
O O10 0.664410 0.345847 0.415852
O O11 0.000000 0.500000 0.500000
O O12 0.963836 0.663183 0.395980
O O13 0.884344 0.072325 0.433891
O O14 0.426863 0.150019 0.360015
O O15 0.500000 0.000000 0.000000
O O16 0.284314 0.105784 0.030873
O O17 0.071781 0.984412 0.220010
#
# Coordination Sequence:
#
# PCOD9047265 Si02
#       8
#     2   2   2   2   2   2   2   2
#     4  11  22  46  66  92 135 171 225 267 318 391
#     4  11  23  42  65  95 135 166 214 274 327 386
#     4  10  24  44  61  93 136 168 210 270 329 383
#     4  11  24  40  65  95 129 174 216 269 328 382
#     4  11  23  42  67  94 129 176 212 271 328 384
#     4  12  26  43  71  99 129 173 224 272 320 390
#     4  11  23  46  69  92 135 175 220 267 324 389
#     4  11  24  44  68  99 132 173 218 270 326 384
#
# _framework density 26.805889000000001
#
# number of rings (size 3 to 8) (size 9 to 14) (size 15 to 20)
#    0.000    1.000    3.750    3.375    7.000    1.500 
#    0.000    1.250    0.000    0.000    0.000    0.000 
#    0.000    0.000    0.000    0.000    0.000    0.000 
#
# Total GULP energy -89738.711753 kJ/mol
# GULP energy per Si atom -5608.669485 kJ/mol
# Density = 2.674488 g / cm^3
# Si number density = 26.805889 Si / 1000 Ang^3
#
#
#
# Elastic Constant Matrix: (Units=GPa)
#
#
# Indices 1 2 3 4 5 6 
#
# 1 100.7460 42.2099 45.3257 -16.7084 4.4074 -4.1308
# 2 42.2099 172.8163 31.5570 -32.5634 5.5251 19.8349
# 3 45.3257 31.5570 63.0897 -19.2327 18.7236 0.2440
# 4 -16.7084 -32.5634 -19.2327 33.2191 -6.0256 -8.7633
# 5 4.4074 5.5251 18.7236 -6.0256 56.3096 -6.1618
# 6 -4.1308 19.8349 0.2440 -8.7633 -6.1618 60.8119
#
#
#
# Elastic Compliance Matrix: (Units=1/GPa)
#
#
# Indices 1 2 3 4 5 6 
#
# 1 0.015816 -0.002074 -0.011003 0.000661 0.002934 0.002188
# 2 -0.002074 0.007681 -0.000631 0.005642 0.000022 -0.001828
# 3 -0.011003 -0.000631 0.029233 0.009327 -0.007811 -0.000106
# 4 0.000661 0.005642 0.009327 0.042793 0.001362 0.004472
# 5 0.002934 0.000022 -0.007811 0.001362 0.020544 0.002501
# 6 0.002188 -0.001828 -0.000106 0.004472 0.002501 0.018087
#
#
# Mechanical properties :
#
#
# Convention : Reuss Voigt Hill
#
# Bulk Modulus (GPa) = 39.50618 63.87079 51.68849
# Shear Modulus (GPa) = 29.41024 44.57208 36.99116
#
# Velocity S-wave (km/s) = 3.31593 4.08213 3.71882
# Velocity P-wave (km/s) = 5.42498 6.78950 6.14523
#
# Compressibility (1/GPa) = 0.02531249
#
# Stress axis : x y z
#
# Youngs Moduli (GPa) = 63.22592 130.19802 34.20785
#
# Poissons Ratio (x) = 0.27006 0.37640
# Poissons Ratio (y) = 0.13114 0.02159
# Poissons Ratio (z) = 0.69570 0.08218
#
# Static dielectric constant tensor:
#      x y z
#    x 2.082080 -0.052410 0.013080 
#    y -0.052410 2.131760 -0.012040 
#    z 0.013080 -0.012040 2.103800 
# 
# From -- ./inp_files/184126.got.cif
#   From: 2010.05.17/outbox.cif.g08.bks.cpg/sg2_93_cif.got.tgz:184126.got - 2010.06.03 11:33:40.
