data_PCOD9047231
_publ_section_title
;
Structure prediction by ZEFSAII (Michael W. Deem and Ramdas Pophale) SiO2 
 PCOD9047231
Probable space group: P -1
;
_chemical_formula_sum "Si O2"
_cell_formula_units_Z 14
_cell_length_a 9.498676
_cell_length_b 9.524024
_cell_length_c 16.279840
_cell_angle_alpha 137.104031
_cell_angle_beta 149.422123
_cell_angle_gamma 55.268827
_cell_volume 501.991021
_symmetry_space_group_name_H-M "P -1"
_symmetry_group_IT_number 2
_symmetry_cell_setting 'triclinic'
loop_
_space_group_symop_operation_xyz
x,y,z
-x,-y,-z
loop_
_atom_site_type_symbol
_atom_site_label
_atom_site_fract_x
_atom_site_fract_y
_atom_site_fract_z
Si Si1 0.939230 0.886433 0.050281
Si Si2 0.500000 0.000000 0.000000
Si Si3 0.933489 0.055122 0.336609
Si Si4 0.790291 0.732947 0.741524
Si Si5 0.641171 0.630461 0.047711
Si Si6 0.310688 0.627634 0.194165
Si Si7 0.500000 0.000000 0.500000
Si Si8 0.190263 0.726209 0.468106
O O1 0.234387 0.863554 0.232821
O O2 0.689968 0.855963 0.974642
O O3 0.891728 0.719442 0.881154
O O4 0.975768 0.105841 0.117471
O O5 0.198363 0.832332 0.755169
O O6 0.634551 0.866538 0.107331
O O7 0.228376 0.012661 0.436296
O O8 0.930072 0.163777 0.468676
O O9 0.506642 0.830011 0.649009
O O10 0.766235 0.508860 0.593063
O O11 0.959954 0.704473 0.271657
O O12 0.500000 0.500000 0.000000
O O13 0.581244 0.474802 0.874595
O O14 0.494779 0.731550 0.404654
O O15 0.000000 0.500000 0.000000
#
# Coordination Sequence:
#
# PCOD9047231 Si02
#       8
#     2   1   2   2   2   2   1   2
#     4  11  23  45  72 100 145 193 239 308 370 445
#     4  12  24  46  72 100 148 196 236 306 372 450
#     4  12  27  47  74 112 151 197 256 308 384 446
#     4  10  24  43  75 105 142 187 251 299 379 440
#     4  12  27  44  73 106 147 193 247 313 370 440
#     4  12  25  48  73 106 149 195 245 302 379 445
#     4  12  26  48  70 110 154 198 244 308 368 456
#     4  11  24  45  72 110 142 189 252 312 364 449
#
# _framework density 27.888943000000001
#
# number of rings (size 3 to 8) (size 9 to 14) (size 15 to 20)
#    0.000    0.571    5.714    1.286    6.000    0.000 
#    2.571    0.714    0.000    0.000    0.000    0.000 
#    0.000    0.000    0.000    0.000    0.000    0.000 
#
# Total GULP energy -77944.703241 kJ/mol
# GULP energy per Si atom -5567.478803 kJ/mol
# Density = 2.782547 g / cm^3
# Si number density = 27.888943 Si / 1000 Ang^3
#
#
#
# Elastic Constant Matrix: (Units=GPa)
#
#
# Indices 1 2 3 4 5 6 
#
# 1 187.4085 66.2387 60.0822 14.8319 15.8338 -29.0806
# 2 66.2387 93.3096 44.9343 -5.0944 -5.3039 -21.5152
# 3 60.0822 44.9343 162.8229 0.5299 9.7765 -17.2940
# 4 14.8319 -5.0944 0.5299 75.9869 -4.6472 -5.6695
# 5 15.8338 -5.3039 9.7765 -4.6472 62.8806 5.4924
# 6 -29.0806 -21.5152 -17.2940 -5.6695 5.4924 53.7607
#
#
#
# Elastic Compliance Matrix: (Units=1/GPa)
#
#
# Indices 1 2 3 4 5 6 
#
# 1 0.008202 -0.004983 -0.001265 -0.001930 -0.002615 0.002099
# 2 -0.004983 0.016503 -0.002579 0.002505 0.002967 0.003040
# 3 -0.001265 -0.002579 0.007473 0.000013 -0.001130 0.000804
# 4 -0.001930 0.002505 0.000013 0.013898 0.001612 0.001264
# 5 -0.002615 0.002967 -0.001130 0.001612 0.017298 -0.002188
# 6 0.002099 0.003040 0.000804 0.001264 -0.002188 0.021569
#
#
# Mechanical properties :
#
#
# Convention : Reuss Voigt Hill
#
# Bulk Modulus (GPa) = 68.85173 87.33905 78.09539
# Shear Modulus (GPa) = 46.53805 56.67803 51.60804
#
# Velocity S-wave (km/s) = 4.08939 4.51297 4.30639
# Velocity P-wave (km/s) = 6.85849 7.65118 7.26566
#
# Compressibility (1/GPa) = 0.01452396
#
# Stress axis : x y z
#
# Youngs Moduli (GPa) = 121.91763 60.59516 133.80702
#
# Poissons Ratio (x) = 0.30197 0.16929
# Poissons Ratio (y) = 0.60756 0.34507
# Poissons Ratio (z) = 0.15424 0.15627
#
# Static dielectric constant tensor:
#      x y z
#    x 2.522250 0.653850 -0.132690 
#    y 0.653850 3.265860 -0.054000 
#    z -0.132690 -0.054000 2.445820 
# 
# From -- ./inp_files/316075.got.cif
#   From: 2010.05.17/outbox.cif.g08.bks.cpg/sg2_159_cif.got.tgz:316075.got - 2010.06.03 11:33:40.
