data_PCOD9047487
_publ_section_title
;
Structure prediction by ZEFSAII (Michael W. Deem and Ramdas Pophale) SiO2 
 PCOD9047487
Probable space group: P -1
;
_chemical_formula_sum "Si O2"
_cell_formula_units_Z 16
_cell_length_a 5.076097
_cell_length_b 27.045022
_cell_length_c 4.944585
_cell_angle_alpha 83.575990
_cell_angle_beta 92.996525
_cell_angle_gamma 114.070993
_cell_volume 615.871579
_symmetry_space_group_name_H-M "P -1"
_symmetry_group_IT_number 2
_symmetry_cell_setting 'triclinic'
loop_
_space_group_symop_operation_xyz
x,y,z
-x,-y,-z
loop_
_atom_site_type_symbol
_atom_site_label
_atom_site_fract_x
_atom_site_fract_y
_atom_site_fract_z
Si Si1 0.235125 0.152364 0.266249
Si Si2 0.686382 0.636780 0.907780
Si Si3 0.254420 0.053604 0.083800
Si Si4 0.796575 0.749913 0.571344
Si Si5 0.781769 0.582542 0.426278
Si Si6 0.617822 0.205291 0.728255
Si Si7 0.194510 0.548046 0.171146
Si Si8 0.617392 0.100094 0.569262
O O1 0.155139 0.205268 0.222578
O O2 0.949420 0.123101 0.503463
O O3 0.126298 0.098147 0.108283
O O4 0.524901 0.183746 0.032891
O O5 0.755074 0.599248 0.716516
O O6 0.749102 0.693702 0.741285
O O7 0.841694 0.634882 0.199341
O O8 0.348948 0.604357 0.979217
O O9 0.509917 0.075171 0.867101
O O10 0.416482 0.056250 0.373235
O O11 0.000000 0.000000 0.000000
O O12 0.055343 0.768121 0.360567
O O13 0.527838 0.755002 0.400528
O O14 0.473843 0.542202 0.310851
O O15 0.015403 0.559105 0.393667
O O16 0.493730 0.151418 0.531182
O O17 0.000000 0.500000 0.000000
#
# Coordination Sequence:
#
# PCOD9047487 Si02
#       8
#     2   2   2   2   2   2   2   2
#     4   6  18  28  51  76 109 146 191 235 294 357
#     4  10  25  41  64  94 131 162 217 261 316 374
#     4   9  14  28  52  80 110 148 190 244 293 353
#     4   9  17  37  56  86 112 164 191 258 294 369
#     4  10  25  40  65  93 127 170 207 261 314 371
#     4   7  17  32  56  78 113 147 202 233 306 349
#     4  10  24  44  67  96 131 170 212 260 315 375
#     4   7  16  28  46  76 107 144 185 238 290 354
#
# _framework density 25.979441999999999
#
# number of rings (size 3 to 8) (size 9 to 14) (size 15 to 20)
#    3.000    0.000    0.000    0.750    3.500    1.000 
#    4.500    2.500    0.000    3.750    0.000    0.000 
#    0.000    0.000    0.000    0.000    0.000    0.000 
#
# Total GULP energy -89275.347762 kJ/mol
# GULP energy per Si atom -5579.709235 kJ/mol
# Density = 2.592031 g / cm^3
# Si number density = 25.979442 Si / 1000 Ang^3
#
#
#
# Elastic Constant Matrix: (Units=GPa)
#
#
# Indices 1 2 3 4 5 6 
#
# 1 128.2937 24.6885 60.0369 3.1142 -34.3676 1.4057
# 2 24.6885 92.6625 13.6603 -4.5652 -24.5203 0.9516
# 3 60.0369 13.6603 140.1122 -5.0595 -36.3199 -7.4260
# 4 3.1142 -4.5652 -5.0595 26.4854 1.3924 -3.9187
# 5 -34.3676 -24.5203 -36.3199 1.3924 55.2259 -4.2253
# 6 1.4057 0.9516 -7.4260 -3.9187 -4.2253 13.8065
#
#
#
# Elastic Compliance Matrix: (Units=1/GPa)
#
#
# Indices 1 2 3 4 5 6 
#
# 1 0.010936 -0.001552 -0.003914 -0.002908 0.003394 -0.002898
# 2 -0.001552 0.012591 0.001058 0.002604 0.005428 0.002259
# 3 -0.003914 0.001058 0.010806 0.003730 0.005732 0.008950
# 4 -0.002908 0.002604 0.003730 0.041294 0.001861 0.014413
# 5 0.003394 0.005428 0.005732 0.001861 0.027211 0.011219
# 6 -0.002898 0.002259 0.008950 0.014413 0.011219 0.084907
#
#
# Mechanical properties :
#
#
# Convention : Reuss Voigt Hill
#
# Bulk Modulus (GPa) = 39.18818 61.98220 50.58519
# Shear Modulus (GPa) = 24.38239 36.61574 30.49907
#
# Velocity S-wave (km/s) = 3.06686 3.75829 3.43004
# Velocity P-wave (km/s) = 5.25908 6.53781 5.93299
#
# Compressibility (1/GPa) = 0.02551790
#
# Stress axis : x y z
#
# Youngs Moduli (GPa) = 91.43803 79.42368 92.54390
#
# Poissons Ratio (x) = 0.12328 0.36217
# Poissons Ratio (y) = 0.14193 -0.09794
# Poissons Ratio (z) = 0.35784 -0.08405
#
# Static dielectric constant tensor:
#      x y z
#    x 2.093690 -0.016930 0.047530 
#    y -0.016930 2.106480 -0.028000 
#    z 0.047530 -0.028000 2.056630 
# 
# From -- ./inp_files/14097.got.cif
#   From: 2010.05.17/outbox.cif.g08.bks.cpg/sg2_8_cif.got.tgz:14097.got - 2010.06.03 11:33:40.
