data_PCOD9047316
_publ_section_title
;
Structure prediction by ZEFSAII (Michael W. Deem and Ramdas Pophale) SiO2 
 PCOD9047316
Probable space group: P -1
;
_chemical_formula_sum "Si O2"
_cell_formula_units_Z 13
_cell_length_a 7.702731
_cell_length_b 19.217525
_cell_length_c 11.508727
_cell_angle_alpha 29.577259
_cell_angle_beta 56.620650
_cell_angle_gamma 41.619651
_cell_volume 531.904644
_symmetry_space_group_name_H-M "P -1"
_symmetry_group_IT_number 2
_symmetry_cell_setting 'triclinic'
loop_
_space_group_symop_operation_xyz
x,y,z
-x,-y,-z
loop_
_atom_site_type_symbol
_atom_site_label
_atom_site_fract_x
_atom_site_fract_y
_atom_site_fract_z
Si Si1 0.500000 0.500000 0.500000
Si Si2 0.048383 0.885777 0.533903
Si Si3 0.241019 0.796079 0.978274
Si Si4 0.165918 0.413246 0.681950
Si Si5 0.596961 0.898497 0.784995
Si Si6 0.120345 0.333756 0.354087
Si Si7 0.656561 0.487926 0.115541
O O1 0.444755 0.379351 0.622032
O O2 0.743923 0.310676 0.762421
O O3 0.802376 0.880493 0.644246
O O4 0.312683 0.670435 0.736224
O O5 0.015435 0.002962 0.265901
O O6 0.000000 0.000000 0.500000
O O7 0.468600 0.816630 0.891946
O O8 0.359633 0.652983 0.035167
O O9 0.000000 0.500000 0.500000
O O10 0.003423 0.563180 0.628282
O O11 0.241328 0.227483 0.977683
O O12 0.359246 0.113300 0.591933
O O13 0.862144 0.388044 0.296656
O O14 0.235667 0.422903 0.121254
#
# Coordination Sequence:
#
# PCOD9047316 Si02
#       7
#     1   2   2   2   2   2   2
#     4  10  24  44  64  96 130 182 218 258 338 398
#     4  12  25  38  62 101 135 163 214 284 335 383
#     4  11  22  42  68  92 130 170 221 270 324 406
#     4  11  25  45  68  93 139 177 221 274 328 401
#     4  11  21  42  66  97 122 171 223 269 333 387
#     4  11  20  38  71  97 121 169 226 267 331 390
#     4  11  20  38  68  97 122 168 217 270 333 387
#
# _framework density 24.440470999999999
#
# number of rings (size 3 to 8) (size 9 to 14) (size 15 to 20)
#    0.000    0.923    7.692    1.385    2.154    1.231 
#    2.769    6.923    0.000    0.000    0.000    0.000 
#    0.000    0.000    0.000    0.000    0.000    0.000 
#
# Total GULP energy -72524.747993 kJ/mol
# GULP energy per Si atom -5578.826769 kJ/mol
# Density = 2.438484 g / cm^3
# Si number density = 24.440471 Si / 1000 Ang^3
#
#
#
# Elastic Constant Matrix: (Units=GPa)
#
#
# Indices 1 2 3 4 5 6 
#
# 1 70.3249 17.5049 25.6185 0.1360 10.3758 16.2434
# 2 17.5049 65.4462 47.5593 -17.4991 -4.3778 23.3702
# 3 25.6185 47.5593 223.1328 -11.5397 10.4103 13.9259
# 4 0.1360 -17.4991 -11.5397 46.3686 18.7164 -8.1163
# 5 10.3758 -4.3778 10.4103 18.7164 24.8917 6.8323
# 6 16.2434 23.3702 13.9259 -8.1163 6.8323 34.2210
#
#
#
# Elastic Compliance Matrix: (Units=1/GPa)
#
#
# Indices 1 2 3 4 5 6 
#
# 1 0.017183 -0.002667 -0.000788 0.000546 -0.006451 -0.004596
# 2 -0.002667 0.026639 -0.004785 0.001246 0.011523 -0.016984
# 3 -0.000788 -0.004785 0.005790 0.002396 -0.005549 0.002962
# 4 0.000546 0.001246 0.002396 0.038782 -0.033986 0.013898
# 5 -0.006451 0.011523 -0.005549 -0.033986 0.080065 -0.026595
# 6 -0.004596 -0.016984 0.002962 0.013898 -0.026595 0.050403
#
#
# Mechanical properties :
#
#
# Convention : Reuss Voigt Hill
#
# Bulk Modulus (GPa) = 30.18279 60.02991 45.10635
# Shear Modulus (GPa) = 20.29323 38.97766 29.63545
#
# Velocity S-wave (km/s) = 2.88464 3.99783 3.48596
# Velocity P-wave (km/s) = 4.84471 6.77681 5.89052
#
# Compressibility (1/GPa) = 0.03313146
#
# Stress axis : x y z
#
# Youngs Moduli (GPa) = 58.19636 37.53855 172.71375
#
# Poissons Ratio (x) = 0.10013 0.13614
# Poissons Ratio (y) = 0.15523 0.82642
# Poissons Ratio (z) = 0.04587 0.17962
#
# Static dielectric constant tensor:
#      x y z
#    x 1.613220 0.676040 0.079740 
#    y 0.676040 0.789910 -0.119760 
#    z 0.079740 -0.119760 1.948220 
# 
# From -- ./inp_files/188817.got.cif
#   From: 2010.05.17/outbox.cif.g08.bks.cpg/sg2_95_cif.got.tgz:188817.got - 2010.06.03 11:33:40.
