data_PCOD9047363
_publ_section_title
;
Structure prediction by ZEFSAII (Michael W. Deem and Ramdas Pophale) SiO2 
 PCOD9047363
Probable space group: P -1
;
_chemical_formula_sum "Si O2"
_cell_formula_units_Z 16
_cell_length_a 18.602385
_cell_length_b 10.118242
_cell_length_c 7.791682
_cell_angle_alpha 44.066475
_cell_angle_beta 139.581572
_cell_angle_gamma 136.381371
_cell_volume 608.310390
_symmetry_space_group_name_H-M "P -1"
_symmetry_group_IT_number 2
_symmetry_cell_setting 'triclinic'
loop_
_space_group_symop_operation_xyz
x,y,z
-x,-y,-z
loop_
_atom_site_type_symbol
_atom_site_label
_atom_site_fract_x
_atom_site_fract_y
_atom_site_fract_z
Si Si1 0.249089 0.837919 0.516411
Si Si2 0.388776 0.250310 0.200332
Si Si3 0.239687 0.593518 0.042870
Si Si4 0.899519 0.864158 0.576968
Si Si5 0.416919 0.396950 0.602739
Si Si6 0.181576 0.425199 0.603217
Si Si7 0.673912 0.992895 0.018548
Si Si8 0.025555 0.260701 0.822738
O O1 0.296723 0.728613 0.850877
O O2 0.219051 0.670180 0.465093
O O3 0.118108 0.821918 0.356465
O O4 0.333785 0.072864 0.410815
O O5 0.515739 0.437813 0.282233
O O6 0.292061 0.353666 0.900885
O O7 0.390431 0.108671 0.176891
O O8 0.097862 0.482136 0.846064
O O9 0.290311 0.768434 0.112945
O O10 0.290453 0.415922 0.321414
O O11 0.860738 0.647826 0.600405
O O12 0.796627 0.953387 0.290620
O O13 0.946398 0.875679 0.847427
O O14 0.000000 0.000000 0.500000
O O15 0.500000 0.500000 0.500000
O O16 0.405841 0.168685 0.833698
O O17 0.090281 0.313586 0.702935
#
# Coordination Sequence:
#
# PCOD9047363 Si02
#       8
#     2   2   2   2   2   2   2   2
#     4  11  25  42  67 103 135 183 234 283 349 415
#     4  11  26  44  69 101 134 183 229 286 356 406
#     4  11  25  43  71 102 136 182 234 287 349 412
#     4  11  25  41  69 103 138 190 229 276 353 416
#     4  12  25  47  73  99 135 184 236 290 343 415
#     4  10  24  44  65  99 143 179 231 289 344 414
#     4  11  26  45  67 103 141 176 234 291 345 418
#     4  11  23  44  68  99 144 185 229 291 347 414
#
# _framework density 26.302361999999999
#
# number of rings (size 3 to 8) (size 9 to 14) (size 15 to 20)
#    0.000    1.000    1.250    5.625    7.000    5.000 
#    0.000    0.000    0.000    0.000    0.000    0.000 
#    0.000    0.000    0.000    0.000    0.000    0.000 
#
# Total GULP energy -89449.018685 kJ/mol
# GULP energy per Si atom -5590.563668 kJ/mol
# Density = 2.624250 g / cm^3
# Si number density = 26.302362 Si / 1000 Ang^3
#
#
#
# Elastic Constant Matrix: (Units=GPa)
#
#
# Indices 1 2 3 4 5 6 
#
# 1 89.7692 0.1069 12.8422 6.0029 -18.2916 -8.4664
# 2 0.1069 88.3671 -16.4183 -30.3567 5.9807 7.5066
# 3 12.8422 -16.4183 57.5214 -4.2675 -6.1867 7.8147
# 4 6.0029 -30.3567 -4.2675 36.8359 -6.1716 -5.4445
# 5 -18.2916 5.9807 -6.1867 -6.1716 36.5142 -4.7136
# 6 -8.4664 7.5066 7.8147 -5.4445 -4.7136 47.1519
#
#
#
# Elastic Compliance Matrix: (Units=1/GPa)
#
#
# Indices 1 2 3 4 5 6 
#
# 1 0.013582 -0.002551 -0.003799 -0.003103 0.006540 0.003770
# 2 -0.002551 0.018438 0.007320 0.015916 -0.000735 -0.002842
# 3 -0.003799 0.007320 0.021719 0.008788 0.001510 -0.004281
# 4 -0.003103 0.015916 0.008788 0.042692 0.004653 0.000847
# 5 0.006540 -0.000735 0.001510 0.004653 0.032448 0.004822
# 6 0.003770 -0.002842 -0.004281 0.000847 0.004822 0.023627
#
#
# Mechanical properties :
#
#
# Convention : Reuss Voigt Hill
#
# Bulk Modulus (GPa) = 17.96032 25.41325 21.68678
# Shear Modulus (GPa) = 29.56368 40.04220 34.80294
#
# Velocity S-wave (km/s) = 3.35624 3.90600 3.64151
# Velocity P-wave (km/s) = 4.67572 5.47954 5.09351
#
# Compressibility (1/GPa) = 0.05567828
#
# Stress axis : x y z
#
# Youngs Moduli (GPa) = 73.62692 54.23477 46.04333
#
# Poissons Ratio (x) = 0.13837 0.17494
# Poissons Ratio (y) = 0.18784 -0.33706
# Poissons Ratio (z) = 0.27975 -0.39702
#
# Static dielectric constant tensor:
#      x y z
#    x 2.118590 0.001230 -0.092490 
#    y 0.001230 2.497510 0.066280 
#    z -0.092490 0.066280 2.162740 
# 
# From -- ./inp_files/345904.got.cif
#   From: 2010.05.17/outbox.cif.g08.bks.cpg/sg2_173_cif.got.tgz:345904.got - 2010.06.03 11:33:40.
