data_PCOD9047280
_publ_section_title
;
Structure prediction by ZEFSAII (Michael W. Deem and Ramdas Pophale) SiO2 
 PCOD9047280
Probable space group: P -1
;
_chemical_formula_sum "Si O2"
_cell_formula_units_Z 16
_cell_length_a 15.103024
_cell_length_b 11.923257
_cell_length_c 8.541975
_cell_angle_alpha 104.866796
_cell_angle_beta 129.529707
_cell_angle_gamma 41.638777
_cell_volume 712.617909
_symmetry_space_group_name_H-M "P -1"
_symmetry_group_IT_number 2
_symmetry_cell_setting 'triclinic'
loop_
_space_group_symop_operation_xyz
x,y,z
-x,-y,-z
loop_
_atom_site_type_symbol
_atom_site_label
_atom_site_fract_x
_atom_site_fract_y
_atom_site_fract_z
Si Si1 0.175976 0.686633 0.301190
Si Si2 0.149312 0.237842 0.317200
Si Si3 0.171010 0.666899 0.936339
Si Si4 0.372204 0.904021 0.222379
Si Si5 0.432815 0.608824 0.797044
Si Si6 0.750664 0.638289 0.740158
Si Si7 0.843103 0.099334 0.185213
Si Si8 0.528483 0.972950 0.838872
O O1 0.355098 0.587035 0.564941
O O2 0.165241 0.555949 0.226537
O O3 0.168762 0.729937 0.127143
O O4 0.005326 0.879153 0.268455
O O5 0.130366 0.366492 0.232698
O O6 0.964455 0.335884 0.222186
O O7 0.219282 0.080755 0.225084
O O8 0.324677 0.118127 0.584946
O O9 0.108887 0.810220 0.788239
O O10 0.386373 0.465729 0.081127
O O11 0.563911 0.765085 0.476186
O O12 0.391178 0.969367 0.114616
O O13 0.313994 0.822634 0.082243
O O14 0.253971 0.822933 0.727937
O O15 0.500000 0.500000 0.000000
O O16 0.669476 0.765173 0.849926
O O17 0.500000 0.000000 0.000000
#
# Coordination Sequence:
#
# PCOD9047280 Si02
#       8
#     2   2   2   2   2   2   2   2
#     4  12  23  41  69  98 122 177 223 266 317 392
#     4   9  19  40  66  95 125 170 213 264 321 380
#     4  11  23  42  66  96 129 169 223 271 316 384
#     4   9  18  39  66  90 125 174 209 259 321 383
#     4  10  24  44  63  91 135 172 214 269 332 376
#     4   9  20  38  66  94 129 167 220 260 322 389
#     4  11  23  43  67  94 133 170 218 270 328 384
#     4   9  19  39  66  99 129 168 213 267 325 382
#
# _framework density 22.452425000000002
#
# number of rings (size 3 to 8) (size 9 to 14) (size 15 to 20)
#    0.000    2.000    1.250    4.125    0.000    1.500 
#    9.000    1.250    0.000    5.250    0.000    0.000 
#    0.000    0.000    0.000    0.000    0.000    0.000 
#
# Total GULP energy -89341.264559 kJ/mol
# GULP energy per Si atom -5583.829035 kJ/mol
# Density = 2.240132 g / cm^3
# Si number density = 22.452425 Si / 1000 Ang^3
#
#
#
# Elastic Constant Matrix: (Units=GPa)
#
#
# Indices 1 2 3 4 5 6 
#
# 1 120.5837 61.1172 44.9123 -1.7528 29.5115 -17.6337
# 2 61.1172 119.5914 18.7918 -14.5676 1.7451 -7.2778
# 3 44.9123 18.7918 94.2147 0.6119 7.6648 -6.9139
# 4 -1.7528 -14.5676 0.6119 27.0001 -5.5546 2.5130
# 5 29.5115 1.7451 7.6648 -5.5546 37.5016 2.1907
# 6 -17.6337 -7.2778 -6.9139 2.5130 2.1907 32.5735
#
#
#
# Elastic Compliance Matrix: (Units=1/GPa)
#
#
# Indices 1 2 3 4 5 6 
#
# 1 0.020772 -0.009866 -0.005844 -0.008114 -0.016452 0.009533
# 2 -0.009866 0.014027 0.000921 0.008947 0.008439 -0.003269
# 3 -0.005844 0.000921 0.013031 0.000255 0.001950 -0.000343
# 4 -0.008114 0.008947 0.000255 0.044607 0.012912 -0.006649
# 5 -0.016452 0.008439 0.001950 0.012912 0.041340 -0.010383
# 6 0.009533 -0.003269 -0.000343 -0.006649 -0.010383 0.036269
#
#
# Mechanical properties :
#
#
# Convention : Reuss Voigt Hill
#
# Bulk Modulus (GPa) = 54.78754 64.89250 59.84002
# Shear Modulus (GPa) = 24.30647 33.38627 28.84637
#
# Velocity S-wave (km/s) = 3.29382 3.86032 3.58827
# Velocity P-wave (km/s) = 6.23861 6.98816 6.62400
#
# Compressibility (1/GPa) = 0.01825232
#
# Stress axis : x y z
#
# Youngs Moduli (GPa) = 48.14077 71.29255 76.74204
#
# Poissons Ratio (x) = 0.70335 0.44846
# Poissons Ratio (y) = 0.47494 -0.07065
# Poissons Ratio (z) = 0.28132 -0.06564
#
# Static dielectric constant tensor:
#      x y z
#    x 1.837430 -0.013210 0.001280 
#    y -0.013210 1.853730 -0.058570 
#    z 0.001280 -0.058570 1.904680 
# 
# From -- ./inp_files/181793.got.cif
#   From: 2010.05.17/outbox.cif.g08.bks.cpg/sg2_91_cif.got.tgz:181793.got - 2010.06.03 11:33:40.
