data_PCOD9047849
_publ_section_title
;
Structure prediction by ZEFSAII (Michael W. Deem and Ramdas Pophale) SiO2 
 PCOD9047849
Probable space group: P -1
;
_chemical_formula_sum "Si O2"
_cell_formula_units_Z 16
_cell_length_a 6.385671
_cell_length_b 18.139697
_cell_length_c 8.099309
_cell_angle_alpha 72.262144
_cell_angle_beta 110.782020
_cell_angle_gamma 124.563135
_cell_volume 715.782766
_symmetry_space_group_name_H-M "P -1"
_symmetry_group_IT_number 2
_symmetry_cell_setting 'triclinic'
loop_
_space_group_symop_operation_xyz
x,y,z
-x,-y,-z
loop_
_atom_site_type_symbol
_atom_site_label
_atom_site_fract_x
_atom_site_fract_y
_atom_site_fract_z
Si Si1 0.623536 0.324699 0.534000
Si Si2 0.865533 0.636529 0.190672
Si Si3 0.748847 0.871413 0.569764
Si Si4 0.590242 0.733198 0.116319
Si Si5 0.659005 0.023787 0.357059
Si Si6 0.557953 0.541913 0.667233
Si Si7 0.939843 0.398425 0.070894
Si Si8 0.721750 0.922059 0.909838
O O1 0.467964 0.230616 0.459512
O O2 0.503760 0.306782 0.699222
O O3 0.571962 0.397969 0.387129
O O4 0.926983 0.360034 0.622886
O O5 0.833750 0.722181 0.148301
O O6 0.586234 0.545296 0.196505
O O7 0.969476 0.631517 0.045703
O O8 0.692871 0.937765 0.396997
O O9 0.744795 0.896837 0.742975
O O10 0.042326 0.894002 0.598801
O O11 0.639594 0.832653 0.052362
O O12 0.366256 0.672177 0.961927
O O13 0.500000 0.000000 0.500000
O O14 0.492125 0.047142 0.171012
O O15 0.500000 0.500000 0.500000
O O16 0.868019 0.598887 0.738403
O O17 0.000000 0.500000 0.000000
O O18 0.000000 0.000000 0.000000
#
# Coordination Sequence:
#
# PCOD9047849 Si02
#       8
#     2   2   2   2   2   2   2   2
#     4  11  26  41  69  98 134 175 229 278 324 407
#     4  11  24  45  66  97 139 181 216 279 335 396
#     4  10  24  44  70  99 129 177 224 273 341 397
#     4  11  26  44  64  99 139 177 228 275 340 398
#     4   9  22  45  67  95 130 165 222 272 340 394
#     4  12  23  44  67  98 136 178 224 269 337 398
#     4  11  24  44  69  99 135 181 223 278 334 403
#     4  11  27  43  69  99 136 178 225 281 337 404
#
# _framework density 22.353152000000001
#
# number of rings (size 3 to 8) (size 9 to 14) (size 15 to 20)
#    0.000    1.250    2.500    1.500   10.500    3.500 
#    0.000    0.000    0.000    0.000    0.000    0.000 
#    0.000    0.000    0.000    0.000    0.000    0.000 
#
# Total GULP energy -89490.074080 kJ/mol
# GULP energy per Si atom -5593.129630 kJ/mol
# Density = 2.230227 g / cm^3
# Si number density = 22.353152 Si / 1000 Ang^3
#
#
#
# Elastic Constant Matrix: (Units=GPa)
#
#
# Indices 1 2 3 4 5 6 
#
# 1 80.0327 4.1830 28.5906 4.8744 24.3607 -8.7348
# 2 4.1830 104.1014 28.9499 11.1509 26.5566 -6.8708
# 3 28.5906 28.9499 77.9717 8.6879 30.5229 -12.8199
# 4 4.8744 11.1509 8.6879 46.3131 -3.2689 2.5913
# 5 24.3607 26.5566 30.5229 -3.2689 50.6661 -4.1107
# 6 -8.7348 -6.8708 -12.8199 2.5913 -4.1107 26.0835
#
#
#
# Elastic Compliance Matrix: (Units=1/GPa)
#
#
# Indices 1 2 3 4 5 6 
#
# 1 0.016210 0.002546 -0.003281 -0.002401 -0.007013 0.003620
# 2 0.002546 0.012257 -0.002254 -0.003372 -0.006320 0.002312
# 3 -0.003281 -0.002254 0.019967 -0.003886 -0.008944 0.007097
# 4 -0.002401 -0.003372 -0.003886 0.024117 0.006414 -0.004987
# 5 -0.007013 -0.006320 -0.008944 0.006414 0.031898 -0.004020
# 6 0.003620 0.002312 0.007097 -0.004987 -0.004020 0.043510
#
#
# Mechanical properties :
#
#
# Convention : Reuss Voigt Hill
#
# Bulk Modulus (GPa) = 23.55463 42.83922 33.19692
# Shear Modulus (GPa) = 29.74625 37.97135 33.85880
#
# Velocity S-wave (km/s) = 3.65189 4.12600 3.89616
# Velocity P-wave (km/s) = 5.32373 6.47340 5.92651
#
# Compressibility (1/GPa) = 0.04245450
#
# Stress axis : x y z
#
# Youngs Moduli (GPa) = 61.69061 81.58765 50.08388
#
# Poissons Ratio (x) = -0.20774 0.16434
# Poissons Ratio (y) = -0.15708 0.11291
# Poissons Ratio (z) = 0.20242 0.18393
#
# Static dielectric constant tensor:
#      x y z
#    x 1.995030 -0.028590 -0.013270 
#    y -0.028590 1.806390 -0.010810 
#    z -0.013270 -0.010810 1.863600 
# 
# From -- ./inp_files/38214.got.cif
#   From: 2010.05.17/outbox.cif.g08.bks.cpg/sg2_20_cif.got.tgz:38214.got - 2010.06.03 11:33:40.
