data_PCOD9047211
_publ_section_title
;
Structure prediction by ZEFSAII (Michael W. Deem and Ramdas Pophale) SiO2 
 PCOD9047211
Probable space group: P -1
;
_chemical_formula_sum "Si O2"
_cell_formula_units_Z 16
_cell_length_a 5.718124
_cell_length_b 17.536835
_cell_length_c 16.925527
_cell_angle_alpha 28.589201
_cell_angle_beta 60.987469
_cell_angle_gamma 58.640090
_cell_volume 691.898809
_symmetry_space_group_name_H-M "P -1"
_symmetry_group_IT_number 2
_symmetry_cell_setting 'triclinic'
loop_
_space_group_symop_operation_xyz
x,y,z
-x,-y,-z
loop_
_atom_site_type_symbol
_atom_site_label
_atom_site_fract_x
_atom_site_fract_y
_atom_site_fract_z
Si Si1 0.782395 0.868057 0.558386
Si Si2 0.699488 0.001731 0.077770
Si Si3 0.091127 0.829776 0.807784
Si Si4 0.049959 0.572529 0.511324
Si Si5 0.863765 0.353638 0.180917
Si Si6 0.517697 0.743266 0.244930
Si Si7 0.607832 0.717750 0.581085
Si Si8 0.523083 0.089708 0.198528
O O1 0.774233 0.723064 0.630611
O O2 0.900331 0.794745 0.688647
O O3 0.500000 0.000000 0.500000
O O4 0.953784 0.982065 0.383600
O O5 0.683122 0.039418 0.137240
O O6 0.615922 0.834771 0.219766
O O7 0.498320 0.141294 0.933054
O O8 0.000000 0.000000 0.000000
O O9 0.777495 0.808583 0.873665
O O10 0.248045 0.711217 0.821860
O O11 0.290215 0.819472 0.860014
O O12 0.220351 0.710699 0.342500
O O13 0.267723 0.425999 0.650935
O O14 0.000000 0.500000 0.500000
O O15 0.789300 0.633269 0.555117
O O16 0.636180 0.367562 0.274405
O O17 0.000000 0.500000 0.000000
O O18 0.515104 0.913728 0.400102
#
# Coordination Sequence:
#
# PCOD9047211 Si02
#       8
#     2   2   2   2   2   2   2   2
#     4  11  22  45  76  98 139 192 255 306 364 444
#     4  11  24  45  70 107 145 186 244 316 368 439
#     4  11  24  46  72 107 140 195 247 307 365 454
#     4  11  24  47  71 104 149 194 244 300 373 454
#     4  12  26  47  69 107 150 188 242 317 376 446
#     4  10  24  43  74 100 147 190 242 303 376 436
#     4  11  24  43  75 102 138 198 249 299 376 445
#     4  11  25  43  78 106 141 191 258 300 368 446
#
# _framework density 23.124770000000002
#
# number of rings (size 3 to 8) (size 9 to 14) (size 15 to 20)
#    0.000    1.000    2.500    4.125    7.000    2.500 
#    6.750    0.000    0.000    0.000    0.000    0.000 
#    0.000    0.000    0.000    0.000    0.000    0.000 
#
# Total GULP energy -89395.550824 kJ/mol
# GULP energy per Si atom -5587.221926 kJ/mol
# Density = 2.307214 g / cm^3
# Si number density = 23.124770 Si / 1000 Ang^3
#
#
#
# Elastic Constant Matrix: (Units=GPa)
#
#
# Indices 1 2 3 4 5 6 
#
# 1 133.1524 68.4679 20.7178 11.5534 -22.5028 16.9733
# 2 68.4679 148.8473 31.8231 23.7590 -18.1504 8.4960
# 3 20.7178 31.8231 73.6555 3.5708 -15.8666 4.7533
# 4 11.5534 23.7590 3.5708 26.3932 -3.3608 2.2518
# 5 -22.5028 -18.1504 -15.8666 -3.3608 37.8028 -1.0337
# 6 16.9733 8.4960 4.7533 2.2518 -1.0337 45.0419
#
#
#
# Elastic Compliance Matrix: (Units=1/GPa)
#
#
# Indices 1 2 3 4 5 6 
#
# 1 0.010847 -0.004254 -0.000081 -0.000091 0.004286 -0.003174
# 2 -0.004254 0.010492 -0.002864 -0.007134 0.000677 0.000298
# 3 -0.000081 -0.002864 0.016003 0.001223 0.005374 -0.001056
# 4 -0.000091 -0.007134 0.001223 0.044387 0.000954 -0.000946
# 5 0.004286 0.000677 0.005374 0.000954 0.031625 -0.001632
# 6 -0.003174 0.000298 -0.001056 -0.000946 -0.001632 0.023462
#
#
# Mechanical properties :
#
#
# Convention : Reuss Voigt Hill
#
# Bulk Modulus (GPa) = 43.58303 66.40808 54.99556
# Shear Modulus (GPa) = 31.47395 37.49069 34.48232
#
# Velocity S-wave (km/s) = 3.69324 4.03082 3.86572
# Velocity P-wave (km/s) = 6.08889 7.10233 6.61504
#
# Compressibility (1/GPa) = 0.02294471
#
# Stress axis : x y z
#
# Youngs Moduli (GPa) = 92.19259 95.31445 62.48734
#
# Poissons Ratio (x) = 0.40545 0.00504
# Poissons Ratio (y) = 0.39217 0.17896
# Poissons Ratio (z) = 0.00744 0.27298
#
# Static dielectric constant tensor:
#      x y z
#    x 1.972440 -0.035420 0.013490 
#    y -0.035420 1.853810 -0.006770 
#    z 0.013490 -0.006770 1.915920 
# 
# From -- ./inp_files/550403.got.cif
#   From: 2010.05.17/outbox.cif.g08.bks.cpg/sg2_276_cif.got.tgz:550403.got - 2010.06.03 11:33:40.
