data_PCOD9047787
_publ_section_title
;
Structure prediction by ZEFSAII (Michael W. Deem and Ramdas Pophale) SiO2 
 PCOD9047787
Probable space group: P -1
;
_chemical_formula_sum "Si O2"
_cell_formula_units_Z 13
_cell_length_a 12.706107
_cell_length_b 8.384482
_cell_length_c 5.015039
_cell_angle_alpha 106.181646
_cell_angle_beta 85.034987
_cell_angle_gamma 80.237246
_cell_volume 500.597267
_symmetry_space_group_name_H-M "P -1"
_symmetry_group_IT_number 2
_symmetry_cell_setting 'triclinic'
loop_
_space_group_symop_operation_xyz
x,y,z
-x,-y,-z
loop_
_atom_site_type_symbol
_atom_site_label
_atom_site_fract_x
_atom_site_fract_y
_atom_site_fract_z
Si Si1 0.500000 0.500000 0.500000
Si Si2 0.175490 0.209245 0.943047
Si Si3 0.367854 0.378111 0.060029
Si Si4 0.697018 0.276159 0.049086
Si Si5 0.956103 0.679998 0.461045
Si Si6 0.899517 0.109703 0.238442
Si Si7 0.460868 0.903630 0.217949
O O1 0.409020 0.397156 0.354459
O O2 0.600463 0.342508 0.310413
O O3 0.096551 0.333668 0.819421
O O4 0.168496 0.029846 0.733203
O O5 0.291887 0.250463 0.953344
O O6 0.131555 0.228830 0.262230
O O7 0.311086 0.562287 0.064146
O O8 0.479315 0.297928 0.845608
O O9 0.814317 0.233881 0.133709
O O10 0.660083 0.119709 0.831716
O O11 0.000000 0.500000 0.500000
O O12 0.049769 0.789948 0.499939
O O13 0.000000 0.000000 0.000000
O O14 0.500000 0.000000 0.500000
O O15 0.500000 0.000000 0.000000
#
# Coordination Sequence:
#
# PCOD9047787 Si02
#       7
#     1   2   2   2   2   2   2
#     4  10  24  44  70 104 140 184 248 298 370 424
#     4  11  25  45  70 106 145 190 238 303 365 436
#     4  11  26  44  74 103 149 192 253 299 370 447
#     4  11  25  47  72 105 144 200 243 308 366 446
#     4  11  24  45  72 106 143 190 246 298 360 435
#     4  10  24  48  71 105 149 191 245 301 371 432
#     4  11  26  44  71 105 145 187 241 304 371 436
#
# _framework density 25.968983000000001
#
# number of rings (size 3 to 8) (size 9 to 14) (size 15 to 20)
#    0.000    1.231    0.000    4.615   12.923    3.692 
#    5.538    0.000    0.000    0.000    0.000    0.000 
#    0.000    0.000    0.000    0.000    0.000    0.000 
#
# Total GULP energy -72511.048575 kJ/mol
# GULP energy per Si atom -5577.772967 kJ/mol
# Density = 2.590988 g / cm^3
# Si number density = 25.968983 Si / 1000 Ang^3
#
#
#
# Elastic Constant Matrix: (Units=GPa)
#
#
# Indices 1 2 3 4 5 6 
#
# 1 147.9289 19.1043 49.6353 7.8190 38.5556 -2.7763
# 2 19.1043 85.3679 10.5688 -2.0654 6.8247 -18.1007
# 3 49.6353 10.5688 123.9190 -3.5083 23.2071 -2.6303
# 4 7.8190 -2.0654 -3.5083 45.0996 3.4075 14.8386
# 5 38.5556 6.8247 23.2071 3.4075 49.1794 7.9269
# 6 -2.7763 -18.1007 -2.6303 14.8386 7.9269 49.4136
#
#
#
# Elastic Compliance Matrix: (Units=1/GPa)
#
#
# Indices 1 2 3 4 5 6 
#
# 1 0.009512 -0.001018 -0.002579 -0.001956 -0.006223 0.001610
# 2 -0.001018 0.013217 -0.000317 -0.000858 -0.001681 0.005295
# 3 -0.002579 -0.000317 0.009665 0.001288 -0.002631 0.000289
# 4 -0.001956 -0.000858 0.001288 0.025163 0.000592 -0.008007
# 5 -0.006223 -0.001681 -0.002631 0.000592 0.027566 -0.005705
# 6 0.001610 0.005295 0.000289 -0.008007 -0.005705 0.025602
#
#
# Mechanical properties :
#
#
# Convention : Reuss Voigt Hill
#
# Bulk Modulus (GPa) = 40.70433 57.31475 49.00954
# Shear Modulus (GPa) = 39.45012 47.26568 43.35790
#
# Velocity S-wave (km/s) = 3.90182 4.27087 4.09051
# Velocity P-wave (km/s) = 6.00060 6.81460 6.42052
#
# Compressibility (1/GPa) = 0.02456741
#
# Stress axis : x y z
#
# Youngs Moduli (GPa) = 105.12561 75.65847 103.46487
#
# Poissons Ratio (x) = 0.07701 0.26685
# Poissons Ratio (y) = 0.10701 0.03277
# Poissons Ratio (z) = 0.27113 0.02396
#
# Static dielectric constant tensor:
#      x y z
#    x 2.087500 -0.051190 -0.039190 
#    y -0.051190 2.149800 -0.033910 
#    z -0.039190 -0.033910 2.052070 
# 
# From -- ./inp_files/59990.got.cif
#   From: 2010.05.17/outbox.cif.g08.bks.cpg/sg2_30_cif.got.tgz:59990.got - 2010.06.03 11:33:40.
