data_PCOD9047907
_publ_section_title
;
Structure prediction by ZEFSAII (Michael W. Deem and Ramdas Pophale) SiO2 
 PCOD9047907
Probable space group: P -1
;
_chemical_formula_sum "Si O2"
_cell_formula_units_Z 16
_cell_length_a 14.030298
_cell_length_b 5.166173
_cell_length_c 13.559380
_cell_angle_alpha 120.941020
_cell_angle_beta 123.913955
_cell_angle_gamma 93.014117
_cell_volume 614.878345
_symmetry_space_group_name_H-M "P -1"
_symmetry_group_IT_number 2
_symmetry_cell_setting 'triclinic'
loop_
_space_group_symop_operation_xyz
x,y,z
-x,-y,-z
loop_
_atom_site_type_symbol
_atom_site_label
_atom_site_fract_x
_atom_site_fract_y
_atom_site_fract_z
Si Si1 0.447400 0.610905 0.589741
Si Si2 0.518253 0.860698 0.123501
Si Si3 0.788627 0.154007 0.873006
Si Si4 0.636399 0.523946 0.809997
Si Si5 0.957909 0.290392 0.806436
Si Si6 0.847088 0.576179 0.642602
Si Si7 0.996395 0.642882 0.421017
Si Si8 0.708761 0.084128 0.111616
O O1 0.500000 0.500000 0.500000
O O2 0.493222 0.438126 0.669735
O O3 0.297405 0.477417 0.450248
O O4 0.477033 0.976933 0.733396
O O5 0.656018 0.102062 0.194046
O O6 0.500000 0.500000 0.000000
O O7 0.391867 0.859881 0.003582
O O8 0.681321 0.234039 0.775763
O O9 0.888061 0.167328 0.849096
O O10 0.725159 0.825895 0.841900
O O11 0.887854 0.481731 0.056612
O O12 0.675032 0.707974 0.975337
O O13 0.901288 0.522767 0.769233
O O14 0.926495 0.909637 0.683541
O O15 0.873229 0.293711 0.548115
O O16 0.859549 0.356449 0.238703
O O17 0.000000 0.500000 0.500000
O O18 0.000000 0.000000 0.500000
#
# Coordination Sequence:
#
# PCOD9047907 Si02
#       8
#     2   2   2   2   2   2   2   2
#     4  11  25  47  74 109 153 201 253 318 386 455
#     4  10  24  46  77 107 145 200 255 320 376 455
#     4  11  22  41  67 103 140 188 255 299 369 451
#     4  11  25  42  72 104 142 194 250 309 372 445
#     4  11  23  41  68  97 144 195 236 309 374 449
#     4  12  26  46  67 105 150 193 249 308 385 454
#     4  12  27  45  73 108 148 201 249 320 388 457
#     4  10  24  44  71 106 147 193 257 311 381 455
#
# _framework density 26.021407
#
# number of rings (size 3 to 8) (size 9 to 14) (size 15 to 20)
#    0.000    1.000    0.000    6.000    7.000    3.000 
#    2.250    2.500    0.000    0.000    0.000    0.000 
#    0.000    0.000    0.000    0.000    0.000    0.000 
#
# Total GULP energy -89239.303363 kJ/mol
# GULP energy per Si atom -5577.456460 kJ/mol
# Density = 2.596218 g / cm^3
# Si number density = 26.021407 Si / 1000 Ang^3
#
#
#
# Elastic Constant Matrix: (Units=GPa)
#
#
# Indices 1 2 3 4 5 6 
#
# 1 138.5960 34.4166 35.4563 -16.3441 -8.5870 -19.1312
# 2 34.4166 138.8478 31.7374 0.2738 -1.1932 -12.5533
# 3 35.4563 31.7374 123.0093 5.8727 2.5255 -10.3509
# 4 -16.3441 0.2738 5.8727 37.9333 -10.0816 -6.4839
# 5 -8.5870 -1.1932 2.5255 -10.0816 44.9117 -10.5748
# 6 -19.1312 -12.5533 -10.3509 -6.4839 -10.5748 42.8338
#
#
#
# Elastic Compliance Matrix: (Units=1/GPa)
#
#
# Indices 1 2 3 4 5 6 
#
# 1 0.010159 -0.001385 -0.002522 0.007109 0.005018 0.005837
# 2 -0.001385 0.008034 -0.001557 -0.000073 0.000358 0.001437
# 3 -0.002522 -0.001557 0.009423 -0.003044 -0.001786 -0.000207
# 4 0.007109 -0.000073 -0.003044 0.034864 0.011856 0.010623
# 5 0.005018 0.000358 -0.001786 0.011856 0.028528 0.010752
# 6 0.005837 0.001437 -0.000207 0.010623 0.010752 0.030587
#
#
# Mechanical properties :
#
#
# Convention : Reuss Voigt Hill
#
# Bulk Modulus (GPa) = 59.92060 67.07485 63.49773
# Shear Modulus (GPa) = 36.20944 45.05860 40.63402
#
# Velocity S-wave (km/s) = 3.73436 4.16576 3.95595
# Velocity P-wave (km/s) = 6.45534 6.99792 6.73209
#
# Compressibility (1/GPa) = 0.01668875
#
# Stress axis : x y z
#
# Youngs Moduli (GPa) = 98.43186 124.46479 106.12696
#
# Poissons Ratio (x) = 0.17237 0.26768
# Poissons Ratio (y) = 0.13631 0.16521
# Poissons Ratio (z) = 0.24827 0.19375
#
# Static dielectric constant tensor:
#      x y z
#    x 2.165360 0.051080 -0.117150 
#    y 0.051080 2.312580 0.250200 
#    z -0.117150 0.250200 2.323520 
# 
# From -- ./inp_files/526067.got.cif
#   From: 2010.05.17/outbox.cif.g08.bks.cpg/sg2_264_cif.got.tgz:526067.got - 2010.06.03 11:33:40.
