data_PCOD9047809
_publ_section_title
;
Structure prediction by ZEFSAII (Michael W. Deem and Ramdas Pophale) SiO2 
 PCOD9047809
Probable space group: P -1
;
_chemical_formula_sum "Si O2"
_cell_formula_units_Z 13
_cell_length_a 11.131200
_cell_length_b 17.372829
_cell_length_c 11.143049
_cell_angle_alpha 148.525735
_cell_angle_beta 130.367313
_cell_angle_gamma 30.070286
_cell_volume 529.007045
_symmetry_space_group_name_H-M "P -1"
_symmetry_group_IT_number 2
_symmetry_cell_setting 'triclinic'
loop_
_space_group_symop_operation_xyz
x,y,z
-x,-y,-z
loop_
_atom_site_type_symbol
_atom_site_label
_atom_site_fract_x
_atom_site_fract_y
_atom_site_fract_z
Si Si1 0.270687 0.509221 0.950964
Si Si2 0.191981 0.006957 0.402968
Si Si3 0.174834 0.293132 0.933853
Si Si4 0.956690 0.357767 0.258671
Si Si5 0.375893 0.834332 0.857332
Si Si6 0.000000 0.000000 0.500000
Si Si7 0.804248 0.318361 0.353618
O O1 0.544811 0.247357 0.819819
O O2 0.267577 0.507669 0.802372
O O3 0.020257 0.595184 0.935384
O O4 0.200815 0.713208 0.239996
O O5 0.265062 0.076944 0.641468
O O6 0.048933 0.995006 0.378963
O O7 0.000685 0.204788 0.439729
O O8 0.412301 0.218496 0.016864
O O9 0.000000 0.500000 0.000000
O O10 0.906749 0.313647 0.292819
O O11 0.000000 0.500000 0.500000
O O12 0.199751 0.082606 0.005038
O O13 0.535476 0.601166 0.571796
O O14 0.244433 0.820813 0.850215
#
# Coordination Sequence:
#
# PCOD9047809 Si02
#       7
#     2   2   2   2   2   1   2
#     4  11  26  46  73 109 147 195 249 309 376 448
#     4  11  24  45  78 111 146 193 252 314 370 452
#     4  11  24  44  71 106 141 193 250 301 371 436
#     4  12  27  46  73 113 154 199 243 308 387 455
#     4  11  25  47  72 105 151 195 249 308 368 454
#     4  10  24  44  70 108 150 188 246 304 380 426
#     4  11  26  46  77 111 146 198 249 310 381 443
#
# _framework density 24.574341
#
# number of rings (size 3 to 8) (size 9 to 14) (size 15 to 20)
#    0.000    0.923    1.538    3.692    2.154    8.000 
#    0.000    0.000    0.000    0.000    0.000    0.000 
#    0.000    0.000    0.000    0.000    0.000    0.000 
#
# Total GULP energy -72473.216005 kJ/mol
# GULP energy per Si atom -5574.862770 kJ/mol
# Density = 2.451841 g / cm^3
# Si number density = 24.574341 Si / 1000 Ang^3
#
#
#
# Elastic Constant Matrix: (Units=GPa)
#
#
# Indices 1 2 3 4 5 6 
#
# 1 103.2372 30.3084 35.9125 -7.9790 6.0876 6.0340
# 2 30.3084 94.7860 24.4214 11.8536 10.2096 -6.1256
# 3 35.9125 24.4214 143.9660 32.3083 11.2611 -17.6949
# 4 -7.9790 11.8536 32.3083 44.9719 4.8394 3.5655
# 5 6.0876 10.2096 11.2611 4.8394 24.3435 -2.4229
# 6 6.0340 -6.1256 -17.6949 3.5655 -2.4229 38.0146
#
#
#
# Elastic Compliance Matrix: (Units=1/GPa)
#
#
# Indices 1 2 3 4 5 6 
#
# 1 0.013785 -0.004316 -0.005115 0.007897 -0.001448 -0.006097
# 2 -0.004316 0.012919 0.000545 -0.004454 -0.003385 0.003223
# 3 -0.005115 0.000545 0.011235 -0.009503 -0.001569 0.006921
# 4 0.007897 -0.004454 -0.009503 0.032747 -0.003183 -0.009669
# 5 -0.001448 -0.003385 -0.001569 -0.003183 0.044427 0.002084
# 6 -0.006097 0.003223 0.006921 -0.009669 0.002084 0.032054
#
#
# Mechanical properties :
#
#
# Convention : Reuss Voigt Hill
#
# Bulk Modulus (GPa) = 49.58008 58.14155 53.86082
# Shear Modulus (GPa) = 29.12716 38.22247 33.67481
#
# Velocity S-wave (km/s) = 3.44651 3.94811 3.70580
# Velocity P-wave (km/s) = 6.00477 6.67040 6.34632
#
# Compressibility (1/GPa) = 0.02016939
#
# Stress axis : x y z
#
# Youngs Moduli (GPa) = 72.54353 77.40298 89.00375
#
# Poissons Ratio (x) = 0.33404 0.45525
# Poissons Ratio (y) = 0.31307 -0.04855
# Poissons Ratio (z) = 0.37106 -0.04222
#
# Static dielectric constant tensor:
#      x y z
#    x 2.259040 -0.155160 -0.049970 
#    y -0.155160 1.961460 0.012790 
#    z -0.049970 0.012790 1.973840 
# 
# From -- ./inp_files/437139.got.cif
#   From: 2010.05.17/outbox.cif.g08.bks.cpg/sg2_219_cif.got.tgz:437139.got - 2010.06.03 11:33:40.
