data_PCOD9047733
_publ_section_title
;
Structure prediction by ZEFSAII (Michael W. Deem and Ramdas Pophale) SiO2 
 PCOD9047733
Probable space group: P -1
;
_chemical_formula_sum "Si O2"
_cell_formula_units_Z 12
_cell_length_a 19.805963
_cell_length_b 5.207787
_cell_length_c 4.998954
_cell_angle_alpha 87.302654
_cell_angle_beta 66.345848
_cell_angle_gamma 69.702291
_cell_volume 440.415699
_symmetry_space_group_name_H-M "P -1"
_symmetry_group_IT_number 2
_symmetry_cell_setting 'triclinic'
loop_
_space_group_symop_operation_xyz
x,y,z
-x,-y,-z
loop_
_atom_site_type_symbol
_atom_site_label
_atom_site_fract_x
_atom_site_fract_y
_atom_site_fract_z
Si Si1 0.428645 0.505245 0.798141
Si Si2 0.163181 0.865266 0.723299
Si Si3 0.299633 0.368992 0.759150
Si Si4 0.624897 0.934861 0.862885
Si Si5 0.966818 0.320004 0.265770
Si Si6 0.871089 0.815562 0.737540
O O1 0.500000 0.500000 0.500000
O O2 0.352493 0.553796 0.730790
O O3 0.434784 0.218032 0.940811
O O4 0.409619 0.746188 0.031856
O O5 0.220002 0.576532 0.756222
O O6 0.077396 0.843214 0.823914
O O7 0.179410 0.954321 0.400530
O O8 0.165800 0.098192 0.916603
O O9 0.301347 0.215805 0.044201
O O10 0.347268 0.147132 0.475592
O O11 0.897700 0.523899 0.558855
O O12 0.041567 0.172924 0.344136
O O13 0.000000 0.500000 0.000000
#
# Coordination Sequence:
#
# PCOD9047733 Si02
#       6
#     2   2   2   2   2   2
#     4  10  24  45  73 105 141 182 229 280 337 406
#     4  12  25  43  66  92 131 173 219 278 335 400
#     4  10  26  43  65 101 134 185 226 284 341 408
#     4  10  24  44  70 100 142 178 232 276 340 404
#     4  11  25  42  64  99 125 175 220 280 334 400
#     4  11  25  41  65  91 127 170 220 273 335 397
#
# _framework density 27.246981000000002
#
# number of rings (size 3 to 8) (size 9 to 14) (size 15 to 20)
#    1.000    0.333    1.667    2.500    7.000    4.000 
#    0.000    0.000    0.000    0.000    0.000    0.000 
#    0.000    0.000    0.000    0.000    0.000    0.000 
#
# Total GULP energy -67240.597428 kJ/mol
# GULP energy per Si atom -5603.383119 kJ/mol
# Density = 2.718497 g / cm^3
# Si number density = 27.246981 Si / 1000 Ang^3
#
#
#
# Elastic Constant Matrix: (Units=GPa)
#
#
# Indices 1 2 3 4 5 6 
#
# 1 102.5711 42.5733 32.3875 -12.6080 6.6899 3.4891
# 2 42.5733 105.8418 30.2104 3.7389 10.6082 16.1374
# 3 32.3875 30.2104 137.7539 14.2626 27.2371 27.6227
# 4 -12.6080 3.7389 14.2626 52.1498 4.6197 8.0660
# 5 6.6899 10.6082 27.2371 4.6197 45.6138 -2.6044
# 6 3.4891 16.1374 27.6227 8.0660 -2.6044 36.7794
#
#
#
# Elastic Compliance Matrix: (Units=1/GPa)
#
#
# Indices 1 2 3 4 5 6 
#
# 1 0.013133 -0.005003 -0.003041 0.003919 0.000795 0.002430
# 2 -0.005003 0.012484 0.000006 -0.001138 -0.002339 -0.004924
# 3 -0.003041 0.000006 0.011057 -0.001946 -0.006420 -0.008047
# 4 0.003919 -0.001138 -0.001946 0.021365 -0.001495 -0.003202
# 5 0.000795 -0.002339 -0.006420 -0.001495 0.026792 0.007998
# 6 0.002430 -0.004924 -0.008047 -0.003202 0.007998 0.036431
#
#
# Mechanical properties :
#
#
# Convention : Reuss Voigt Hill
#
# Bulk Modulus (GPa) = 48.54636 61.83436 55.19036
# Shear Modulus (GPa) = 34.67281 42.97499 38.82390
#
# Velocity S-wave (km/s) = 3.57113 3.97575 3.77886
# Velocity P-wave (km/s) = 5.90422 6.61958 6.27211
#
# Compressibility (1/GPa) = 0.02059886
#
# Stress axis : x y z
#
# Youngs Moduli (GPa) = 76.14152 80.10131 90.43719
#
# Poissons Ratio (x) = 0.40078 0.27500
# Poissons Ratio (y) = 0.38097 -0.00055
# Poissons Ratio (z) = 0.23153 -0.00049
#
# Static dielectric constant tensor:
#      x y z
#    x 2.182460 -0.021880 -0.046380 
#    y -0.021880 2.099840 -0.002360 
#    z -0.046380 -0.002360 2.063350 
# 
# From -- ./inp_files/8873.got.cif
#   From: 2010.05.17/outbox.cif.g08.bks.cpg/sg2_5_cif.got.tgz:8873.got - 2010.06.03 11:33:40.
