data_PCOD9047684
_publ_section_title
;
Structure prediction by ZEFSAII (Michael W. Deem and Ramdas Pophale) SiO2 
 PCOD9047684
Probable space group: P -1
;
_chemical_formula_sum "Si O2"
_cell_formula_units_Z 14
_cell_length_a 5.292975
_cell_length_b 11.934130
_cell_length_c 12.153794
_cell_angle_alpha 80.109609
_cell_angle_beta 131.690440
_cell_angle_gamma 94.109458
_cell_volume 563.826769
_symmetry_space_group_name_H-M "P -1"
_symmetry_group_IT_number 2
_symmetry_cell_setting 'triclinic'
loop_
_space_group_symop_operation_xyz
x,y,z
-x,-y,-z
loop_
_atom_site_type_symbol
_atom_site_label
_atom_site_fract_x
_atom_site_fract_y
_atom_site_fract_z
Si Si1 0.432246 0.309630 0.380298
Si Si2 0.988708 0.440362 0.622860
Si Si3 0.247451 0.188196 0.763057
Si Si4 0.506710 0.110953 0.294535
Si Si5 0.711361 0.153141 0.108743
Si Si6 0.218701 0.590134 0.859212
Si Si7 0.526302 0.869307 0.408278
O O1 0.624767 0.385241 0.510698
O O2 0.637719 0.225077 0.369929
O O3 0.282967 0.214208 0.434171
O O4 0.171205 0.384806 0.215483
O O5 0.000000 0.500000 0.500000
O O6 0.219705 0.326694 0.736090
O O7 0.105445 0.537330 0.720655
O O8 0.398254 0.164021 0.690227
O O9 0.870550 0.145463 0.678650
O O10 0.473494 0.138792 0.937161
O O11 0.615620 0.089958 0.203711
O O12 0.096648 0.127511 0.183470
O O13 0.614057 0.000366 0.415966
O O14 0.649550 0.285358 0.106959
O O15 0.500000 0.500000 0.000000
#
# Coordination Sequence:
#
# PCOD9047684 Si02
#       7
#     2   2   2   2   2   2   2
#     4  10  24  44  69 105 139 181 239 287 343 427
#     4  11  22  42  68 100 139 186 232 286 349 412
#     4  11  24  42  66 102 141 180 233 284 344 421
#     4  11  24  43  70  98 139 183 231 289 347 407
#     4  11  24  44  65 105 140 179 233 285 344 425
#     4  11  22  43  69 100 138 184 227 285 353 407
#     4  11  24  43  70  99 137 185 231 288 347 408
#
# _framework density 24.830321999999999
#
# number of rings (size 3 to 8) (size 9 to 14) (size 15 to 20)
#    0.000    1.143    1.429    4.286    0.000    8.000 
#    2.571    9.286    0.000    0.000    0.000    0.000 
#    0.000    0.000    0.000    0.000    0.000    0.000 
#
# Total GULP energy -78160.076821 kJ/mol
# GULP energy per Si atom -5582.862630 kJ/mol
# Density = 2.477381 g / cm^3
# Si number density = 24.830322 Si / 1000 Ang^3
#
#
#
# Elastic Constant Matrix: (Units=GPa)
#
#
# Indices 1 2 3 4 5 6 
#
# 1 134.2318 5.7954 57.4642 7.9509 -8.4155 -3.8653
# 2 5.7954 96.8319 7.0959 -7.0571 10.0576 -2.3868
# 3 57.4642 7.0959 150.3866 5.2394 7.6253 2.2198
# 4 7.9509 -7.0571 5.2394 46.7219 -6.3575 -11.9904
# 5 -8.4155 10.0576 7.6253 -6.3575 36.5176 2.9394
# 6 -3.8653 -2.3868 2.2198 -11.9904 2.9394 19.6566
#
#
#
# Elastic Compliance Matrix: (Units=1/GPa)
#
#
# Indices 1 2 3 4 5 6 
#
# 1 0.009299 -0.000586 -0.003675 -0.000499 0.002869 0.001439
# 2 -0.000586 0.010918 -0.000260 0.002143 -0.002955 0.002989
# 3 -0.003675 -0.000260 0.008268 -0.001213 -0.002548 -0.002047
# 4 -0.000499 0.002143 -0.001213 0.026444 0.002864 0.016002
# 5 0.002869 -0.002955 -0.002548 0.002864 0.030071 -0.002257
# 6 0.001439 0.002989 -0.002047 0.016002 -0.002257 0.061849
#
#
# Mechanical properties :
#
#
# Convention : Reuss Voigt Hill
#
# Bulk Modulus (GPa) = 51.43359 58.01789 54.72574
# Shear Modulus (GPa) = 30.79333 41.31888 36.05610
#
# Velocity S-wave (km/s) = 3.52540 4.08370 3.81478
# Velocity P-wave (km/s) = 6.10985 6.75662 6.44136
#
# Compressibility (1/GPa) = 0.01944255
#
# Stress axis : x y z
#
# Youngs Moduli (GPa) = 107.53565 91.59072 120.95221
#
# Poissons Ratio (x) = 0.05369 0.44450
# Poissons Ratio (y) = 0.06303 0.03146
# Poissons Ratio (z) = 0.39519 0.02382
#
# Static dielectric constant tensor:
#      x y z
#    x 2.069130 0.053130 0.082140 
#    y 0.053130 2.318060 0.044840 
#    z 0.082140 0.044840 1.962700 
# 
# From -- ./inp_files/78524.got.cif
#   From: 2010.05.17/outbox.cif.g08.bks.cpg/sg2_40_cif.got.tgz:78524.got - 2010.06.03 11:33:40.
