data_PCOD9047457
_publ_section_title
;
Structure prediction by ZEFSAII (Michael W. Deem and Ramdas Pophale) SiO2 
 PCOD9047457
Probable space group: P -1
;
_chemical_formula_sum "Si O2"
_cell_formula_units_Z 14
_cell_length_a 19.443175
_cell_length_b 6.218840
_cell_length_c 9.401482
_cell_angle_alpha 128.112133
_cell_angle_beta 138.674574
_cell_angle_gamma 69.406638
_cell_volume 576.786212
_symmetry_space_group_name_H-M "P -1"
_symmetry_group_IT_number 2
_symmetry_cell_setting 'triclinic'
loop_
_space_group_symop_operation_xyz
x,y,z
-x,-y,-z
loop_
_atom_site_type_symbol
_atom_site_label
_atom_site_fract_x
_atom_site_fract_y
_atom_site_fract_z
Si Si1 0.085106 0.745512 0.654628
Si Si2 0.463619 0.892999 0.144301
Si Si3 0.230180 0.079816 0.513153
Si Si4 0.359623 0.631257 0.434986
Si Si5 0.687683 0.382546 0.972647
Si Si6 0.341654 0.386758 0.583023
Si Si7 0.971007 0.218403 0.747522
O O1 0.069575 0.726344 0.451538
O O2 0.000000 0.500000 0.500000
O O3 0.200482 0.701955 0.859145
O O4 0.062483 0.044213 0.790268
O O5 0.401864 0.839095 0.174443
O O6 0.568733 0.767154 0.280586
O O7 0.516794 0.202188 0.301310
O O8 0.384716 0.705935 0.832731
O O9 0.232636 0.241138 0.431726
O O10 0.279330 0.813767 0.448178
O O11 0.121176 0.985092 0.388789
O O12 0.305609 0.316358 0.821062
O O13 0.331431 0.586732 0.209659
O O14 0.342011 0.375183 0.410511
O O15 0.000000 0.500000 0.000000
#
# Coordination Sequence:
#
# PCOD9047457 Si02
#       7
#     2   2   2   2   2   2   2
#     4  11  26  50  71 106 142 179 237 299 348 427
#     4   9  20  41  63 103 141 178 231 289 338 405
#     4  10  24  44  67 103 136 179 232 284 349 415
#     4  11  23  40  70 104 137 187 233 276 346 422
#     4  11  24  45  69  99 147 182 229 287 350 414
#     4   9  20  42  67  99 142 180 232 282 337 421
#     4  11  27  49  77 103 136 185 239 292 364 414
#
# _framework density 24.272425999999999
#
# number of rings (size 3 to 8) (size 9 to 14) (size 15 to 20)
#    0.000    1.714    1.429    1.714    6.000    2.286 
#    7.714    0.000    0.000    0.000    0.000    0.000 
#    0.000    0.000    0.000    0.000    0.000    0.000 
#
# Total GULP energy -78385.860712 kJ/mol
# GULP energy per Si atom -5598.990051 kJ/mol
# Density = 2.421718 g / cm^3
# Si number density = 24.272426 Si / 1000 Ang^3
#
#
#
# Elastic Constant Matrix: (Units=GPa)
#
#
# Indices 1 2 3 4 5 6 
#
# 1 168.9776 54.8730 59.3794 -8.0048 -11.2319 32.7483
# 2 54.8730 67.1834 40.5879 -2.5158 -17.8212 19.0738
# 3 59.3794 40.5879 75.6100 0.8171 -20.1517 10.8602
# 4 -8.0048 -2.5158 0.8171 33.2203 -0.8409 -10.8733
# 5 -11.2319 -17.8212 -20.1517 -0.8409 46.3049 7.5942
# 6 32.7483 19.0738 10.8602 -10.8733 7.5942 64.4535
#
#
#
# Elastic Compliance Matrix: (Units=1/GPa)
#
#
# Indices 1 2 3 4 5 6 
#
# 1 0.009580 -0.004259 -0.005225 0.001310 -0.001177 -0.002367
# 2 -0.004259 0.026623 -0.008528 -0.000301 0.006329 -0.005074
# 3 -0.005225 -0.008528 0.023383 -0.002274 0.005552 0.000201
# 4 0.001310 -0.000301 -0.002274 0.032179 -0.001083 0.005363
# 5 -0.001177 0.006329 0.005552 -0.001083 0.027058 -0.005581
# 6 -0.002367 -0.005074 0.000201 0.005363 -0.005581 0.019748
#
#
# Mechanical properties :
#
#
# Convention : Reuss Voigt Hill
#
# Bulk Modulus (GPa) = 42.44199 69.05018 55.74608
# Shear Modulus (GPa) = 27.40513 39.25778 33.33146
#
# Velocity S-wave (km/s) = 3.36380 4.02603 3.70972
# Velocity P-wave (km/s) = 5.71056 7.07967 6.43165
#
# Compressibility (1/GPa) = 0.02356157
#
# Stress axis : x y z
#
# Youngs Moduli (GPa) = 104.38931 37.56096 42.76697
#
# Poissons Ratio (x) = 0.15997 0.22345
# Poissons Ratio (y) = 0.44459 0.36472
# Poissons Ratio (z) = 0.54543 0.32032
#
# Static dielectric constant tensor:
#      x y z
#    x 1.924870 -0.000700 -0.017350 
#    y -0.000700 1.977810 0.042550 
#    z -0.017350 0.042550 1.939930 
# 
# From -- ./inp_files/324196.got.cif
#   From: 2010.05.17/outbox.cif.g08.bks.cpg/sg2_163_cif.got.tgz:324196.got - 2010.06.03 11:33:40.
