data_PCOD9047969
_publ_section_title
;
Structure prediction by ZEFSAII (Michael W. Deem and Ramdas Pophale) SiO2 
 PCOD9047969
Probable space group: P -1
;
_chemical_formula_sum "Si O2"
_cell_formula_units_Z 16
_cell_length_a 7.546368
_cell_length_b 6.976248
_cell_length_c 20.635346
_cell_angle_alpha 66.085539
_cell_angle_beta 40.963304
_cell_angle_gamma 61.645822
_cell_volume 624.684737
_symmetry_space_group_name_H-M "P -1"
_symmetry_group_IT_number 2
_symmetry_cell_setting 'triclinic'
loop_
_space_group_symop_operation_xyz
x,y,z
-x,-y,-z
loop_
_atom_site_type_symbol
_atom_site_label
_atom_site_fract_x
_atom_site_fract_y
_atom_site_fract_z
Si Si1 0.455392 0.965694 0.907909
Si Si2 0.839664 0.237369 0.082653
Si Si3 0.790818 0.605031 0.488240
Si Si4 0.711242 0.670143 0.266626
Si Si5 0.761984 0.217084 0.372152
Si Si6 0.686450 0.151209 0.548689
Si Si7 0.102537 0.434747 0.087439
Si Si8 0.225055 0.785559 0.279972
O O1 0.383187 0.884441 0.866909
O O2 0.656731 0.762439 0.919545
O O3 0.591576 0.170068 0.836688
O O4 0.150040 0.068924 0.009826
O O5 0.863910 0.331487 0.135293
O O6 0.800507 0.439492 0.015673
O O7 0.539825 0.766638 0.578410
O O8 0.684030 0.403531 0.523782
O O9 0.000000 0.500000 0.500000
O O10 0.975459 0.670861 0.371557
O O11 0.817565 0.444050 0.308024
O O12 0.573477 0.859978 0.331245
O O13 0.442576 0.693748 0.290277
O O14 0.966067 0.626702 0.150759
O O15 0.662188 0.160741 0.477564
O O16 0.040893 0.033751 0.306967
O O17 0.000000 0.000000 0.500000
#
# Coordination Sequence:
#
# PCOD9047969 Si02
#       8
#     2   2   2   2   2   2   2   2
#     4  11  23  44  72 100 139 175 222 282 347 407
#     4  10  24  44  72 103 130 181 222 275 351 424
#     4  11  21  38  64  88 128 177 219 269 336 390
#     4  11  21  39  65  93 133 173 218 285 327 395
#     4  11  22  42  64  90 132 176 223 272 339 396
#     4  11  22  41  64  92 131 178 228 277 331 398
#     4  11  22  44  72 100 139 173 226 282 345 411
#     4  12  22  40  64  96 129 178 220 278 330 402
#
# _framework density 25.612916999999999
#
# number of rings (size 3 to 8) (size 9 to 14) (size 15 to 20)
#    0.000    1.000    6.250    2.625    0.000    0.000 
#    2.250    2.500    2.750    0.000    0.000    0.000 
#    0.000    0.000    0.000    0.000    0.000    0.000 
#
# Total GULP energy -89083.062783 kJ/mol
# GULP energy per Si atom -5567.691424 kJ/mol
# Density = 2.555462 g / cm^3
# Si number density = 25.612917 Si / 1000 Ang^3
#
#
#
# Elastic Constant Matrix: (Units=GPa)
#
#
# Indices 1 2 3 4 5 6 
#
# 1 55.2957 13.6280 17.6781 8.7288 6.7096 -23.0251
# 2 13.6280 114.4817 40.6751 9.8098 6.6191 -28.0811
# 3 17.6781 40.6751 98.3881 8.1494 -2.2971 -5.1654
# 4 8.7288 9.8098 8.1494 42.3903 5.0809 -8.3995
# 5 6.7096 6.6191 -2.2971 5.0809 25.9532 -5.9237
# 6 -23.0251 -28.0811 -5.1654 -8.3995 -5.9237 37.2106
#
#
#
# Elastic Compliance Matrix: (Units=1/GPa)
#
#
# Indices 1 2 3 4 5 6 
#
# 1 0.026936 0.003302 -0.005269 -0.001352 -0.004017 0.017483
# 2 0.003302 0.013064 -0.005459 -0.000266 -0.002165 0.010739
# 3 -0.005269 -0.005459 0.013289 -0.001643 0.003014 -0.005426
# 4 -0.001352 -0.000266 -0.001643 0.025473 -0.003830 0.003875
# 5 -0.004017 -0.002165 0.003014 -0.003830 0.041608 0.002058
# 6 0.017483 0.010739 -0.005426 0.003875 0.002058 0.046246
#
#
# Mechanical properties :
#
#
# Convention : Reuss Voigt Hill
#
# Bulk Modulus (GPa) = 26.01617 45.79200 35.90408
# Shear Modulus (GPa) = 25.73622 34.18979 29.96300
#
# Velocity S-wave (km/s) = 3.17332 3.65754 3.42400
# Velocity P-wave (km/s) = 4.85861 5.97948 5.44795
#
# Compressibility (1/GPa) = 0.03843764
#
# Stress axis : x y z
#
# Youngs Moduli (GPa) = 37.12481 76.54854 75.25127
#
# Poissons Ratio (x) = -0.25277 0.39649
# Poissons Ratio (y) = -0.12259 0.41077
# Poissons Ratio (z) = 0.19561 0.41786
#
# Static dielectric constant tensor:
#      x y z
#    x 1.876760 0.259190 0.109800 
#    y 0.259190 1.915580 -0.078070 
#    z 0.109800 -0.078070 2.123710 
# 
# From -- ./inp_files/606169.got.cif
#   From: 2010.05.17/outbox.cif.g08.bks.cpg/sg2_304_cif.got.tgz:606169.got - 2010.06.03 11:33:40.
