data_PCOD9047019
_publ_section_title
;
Structure prediction by ZEFSAII (Michael W. Deem and Ramdas Pophale) SiO2 
 PCOD9047019
Probable space group: P -1
;
_chemical_formula_sum "Si O2"
_cell_formula_units_Z 16
_cell_length_a 11.638850
_cell_length_b 5.144121
_cell_length_c 14.273659
_cell_angle_alpha 115.252505
_cell_angle_beta 114.233401
_cell_angle_gamma 90.310954
_cell_volume 687.718545
_symmetry_space_group_name_H-M "P -1"
_symmetry_group_IT_number 2
_symmetry_cell_setting 'triclinic'
loop_
_space_group_symop_operation_xyz
x,y,z
-x,-y,-z
loop_
_atom_site_type_symbol
_atom_site_label
_atom_site_fract_x
_atom_site_fract_y
_atom_site_fract_z
Si Si1 0.081606 0.251565 0.001012
Si Si2 0.246123 0.162180 0.339549
Si Si3 0.052033 0.857339 0.748792
Si Si4 0.599744 0.322167 0.960410
Si Si5 0.797575 0.621005 0.220274
Si Si6 0.434170 0.316243 0.721437
Si Si7 0.660625 0.770754 0.823842
Si Si8 0.367369 0.833676 0.478277
O O1 0.223114 0.353784 0.109689
O O2 0.000000 0.500000 0.000000
O O3 0.089254 0.080745 0.881806
O O4 0.000000 0.000000 0.000000
O O5 0.275753 0.087390 0.230299
O O6 0.267641 0.914482 0.381400
O O7 0.101630 0.200149 0.314726
O O8 0.338182 0.486679 0.434268
O O9 0.101113 0.565611 0.742485
O O10 0.130256 0.040494 0.717617
O O11 0.540919 0.292225 0.831604
O O12 0.618211 0.985051 0.921214
O O13 0.500000 0.500000 0.000000
O O14 0.730978 0.490543 0.079835
O O15 0.680854 0.574850 0.248622
O O16 0.526579 0.545949 0.719603
O O17 0.370848 0.014935 0.603131
O O18 0.500000 0.000000 0.500000
#
# Coordination Sequence:
#
# PCOD9047019 Si02
#       8
#     2   2   2   2   2   2   2   2
#     4  12  26  41  69 107 148 189 236 284 363 443
#     4  12  28  45  75 105 143 186 244 299 361 420
#     4  12  25  48  69 102 151 189 237 290 356 429
#     4  10  24  43  70 108 146 189 232 293 360 440
#     4  11  26  46  72 106 143 195 232 291 356 443
#     4  11  27  44  76 101 146 185 248 299 365 421
#     4  12  25  43  73 110 146 188 236 304 368 433
#     4  12  26  49  72 109 138 185 241 307 364 418
#
# _framework density 23.265331
#
# number of rings (size 3 to 8) (size 9 to 14) (size 15 to 20)
#    0.000    0.500    3.750    3.375    8.750    1.000 
#    0.000    3.750    0.000    0.000    0.000    0.000 
#    0.000    0.000    0.000    0.000    0.000    0.000 
#
# Total GULP energy -89326.998712 kJ/mol
# GULP energy per Si atom -5582.937420 kJ/mol
# Density = 2.321238 g / cm^3
# Si number density = 23.265331 Si / 1000 Ang^3
#
#
#
# Elastic Constant Matrix: (Units=GPa)
#
#
# Indices 1 2 3 4 5 6 
#
# 1 107.4352 22.0824 13.9022 -8.9142 23.7251 -8.1813
# 2 22.0824 88.2193 3.1711 -3.0722 8.9081 -13.0839
# 3 13.9022 3.1711 64.5648 5.4008 -5.0567 -5.4141
# 4 -8.9142 -3.0722 5.4008 37.8472 -4.5409 8.6130
# 5 23.7251 8.9081 -5.0567 -4.5409 32.3215 4.2671
# 6 -8.1813 -13.0839 -5.4141 8.6130 4.2671 37.4426
#
#
#
# Elastic Compliance Matrix: (Units=1/GPa)
#
#
# Indices 1 2 3 4 5 6 
#
# 1 0.012427 -0.001654 -0.003257 0.001612 -0.009260 0.002351
# 2 -0.001654 0.012709 -0.000056 -0.000755 -0.003010 0.004588
# 3 -0.003257 -0.000056 0.016957 -0.003109 0.004367 0.001938
# 4 0.001612 -0.000755 -0.003109 0.029335 0.003654 -0.007526
# 5 -0.009260 -0.003010 0.004367 0.003654 0.040810 -0.007935
# 6 0.002351 0.004588 0.001938 -0.007526 -0.007935 0.031740
#
#
# Mechanical properties :
#
#
# Convention : Reuss Voigt Hill
#
# Bulk Modulus (GPa) = 31.09526 37.61453 34.35490
# Shear Modulus (GPa) = 30.37077 36.25983 33.31530
#
# Velocity S-wave (km/s) = 3.61696 3.95211 3.78825
# Velocity P-wave (km/s) = 5.55317 6.08509 5.82521
#
# Compressibility (1/GPa) = 0.03215924
#
# Stress axis : x y z
#
# Youngs Moduli (GPa) = 80.47052 78.68156 58.97267
#
# Poissons Ratio (x) = 0.13012 0.19210
# Poissons Ratio (y) = 0.13308 0.00330
# Poissons Ratio (z) = 0.26213 0.00440
#
# Static dielectric constant tensor:
#      x y z
#    x 2.123460 0.238030 0.014380 
#    y 0.238030 2.157310 0.000860 
#    z 0.014380 0.000860 1.912730 
# 
# From -- ./inp_files/511272.got.cif
#   From: 2010.05.17/outbox.cif.g08.bks.cpg/sg2_256_cif.got.tgz:511272.got - 2010.06.03 11:33:40.
