data_PCOD9047447
_publ_section_title
;
Structure prediction by ZEFSAII (Michael W. Deem and Ramdas Pophale) SiO2 
 PCOD9047447
Probable space group: P -1
;
_chemical_formula_sum "Si O2"
_cell_formula_units_Z 14
_cell_length_a 20.899863
_cell_length_b 12.610063
_cell_length_c 15.656795
_cell_angle_alpha 151.889686
_cell_angle_beta 20.306848
_cell_angle_gamma 156.793089
_cell_volume 558.181420
_symmetry_space_group_name_H-M "P -1"
_symmetry_group_IT_number 2
_symmetry_cell_setting 'triclinic'
loop_
_space_group_symop_operation_xyz
x,y,z
-x,-y,-z
loop_
_atom_site_type_symbol
_atom_site_label
_atom_site_fract_x
_atom_site_fract_y
_atom_site_fract_z
Si Si1 0.425084 0.756624 0.854384
Si Si2 0.344931 0.180010 0.561286
Si Si3 0.041411 0.481141 0.582883
Si Si4 0.998826 0.243391 0.635889
Si Si5 0.155564 0.363113 0.184781
Si Si6 0.728053 0.029505 0.227036
Si Si7 0.216036 0.692766 0.806019
O O1 0.362991 0.462137 0.756370
O O2 0.604536 0.823566 0.604620
O O3 0.210079 0.735063 0.067941
O O4 0.500000 0.000000 0.000000
O O5 0.546504 0.184627 0.359042
O O6 0.097727 0.915166 0.700572
O O7 0.833680 0.442118 0.763079
O O8 0.119963 0.735672 0.727712
O O9 0.012644 0.259949 0.528279
O O10 0.190413 0.498711 0.329932
O O11 0.201906 0.498222 0.610796
O O12 0.000000 0.000000 0.500000
O O13 0.303259 0.249013 0.906615
O O14 0.804308 0.099878 0.081863
O O15 0.500000 0.000000 0.500000
O O16 0.000000 0.500000 0.000000
#
# Coordination Sequence:
#
# PCOD9047447 Si02
#       7
#     2   2   2   2   2   2   2
#     4  11  23  39  63  99 133 176 230 274 338 409
#     4  11  23  40  68  97 133 182 228 277 347 408
#     4  10  24  44  67 102 132 181 233 280 346 406
#     4  11  23  41  66  95 138 173 223 286 342 404
#     4  11  24  44  72  95 139 181 232 286 339 418
#     4  11  25  44  71 101 136 180 230 287 349 414
#     4  11  23  41  65 100 137 174 224 282 351 412
#
# _framework density 25.08145
#
# number of rings (size 3 to 8) (size 9 to 14) (size 15 to 20)
#    0.000    1.143    1.429    4.714    4.000    1.714 
#    0.000    5.714    0.000    0.000    0.000    0.000 
#    0.000    0.000    0.000    0.000    0.000    0.000 
#
# Total GULP energy -78228.165513 kJ/mol
# GULP energy per Si atom -5587.726108 kJ/mol
# Density = 2.502436 g / cm^3
# Si number density = 25.081450 Si / 1000 Ang^3
#
#
#
# Elastic Constant Matrix: (Units=GPa)
#
#
# Indices 1 2 3 4 5 6 
#
# 1 146.8047 31.0619 47.4827 11.1471 18.1265 -24.2275
# 2 31.0619 88.2180 35.9078 17.7891 6.5909 -17.7478
# 3 47.4827 35.9078 124.0568 12.4324 0.1206 -2.6776
# 4 11.1471 17.7891 12.4324 55.6426 -6.0503 -5.5766
# 5 18.1265 6.5909 0.1206 -6.0503 36.1910 7.2844
# 6 -24.2275 -17.7478 -2.6776 -5.5766 7.2844 44.5976
#
#
#
# Elastic Compliance Matrix: (Units=1/GPa)
#
#
# Indices 1 2 3 4 5 6 
#
# 1 0.009807 -0.000133 -0.003457 -0.001237 -0.006278 0.005938
# 2 -0.000133 0.015292 -0.003850 -0.003894 -0.004573 0.006042
# 3 -0.003457 -0.003850 0.010466 -0.000422 0.002996 -0.003324
# 4 -0.001237 -0.003894 -0.000422 0.020027 0.004784 -0.000524
# 5 -0.006278 -0.004573 0.002996 0.004784 0.034426 -0.010075
# 6 0.005938 0.006042 -0.003324 -0.000524 -0.010075 0.029434
#
#
# Mechanical properties :
#
#
# Convention : Reuss Voigt Hill
#
# Bulk Modulus (GPa) = 48.34438 65.33161 56.83800
# Shear Modulus (GPa) = 35.40418 43.59471 39.49944
#
# Velocity S-wave (km/s) = 3.76116 4.17361 3.97274
# Velocity P-wave (km/s) = 6.17888 7.02351 6.61469
#
# Compressibility (1/GPa) = 0.02068493
#
# Stress axis : x y z
#
# Youngs Moduli (GPa) = 101.96670 65.39432 95.54669
#
# Poissons Ratio (x) = 0.00869 0.33030
# Poissons Ratio (y) = 0.01354 0.36788
# Poissons Ratio (z) = 0.35249 0.25179
#
# Static dielectric constant tensor:
#      x y z
#    x 2.106370 -0.100810 -0.020450 
#    y -0.100810 2.222930 -0.011200 
#    z -0.020450 -0.011200 1.982010 
# 
# From -- ./inp_files/541151.got.cif
#   From: 2010.05.17/outbox.cif.g08.bks.cpg/sg2_271_cif.got.tgz:541151.got - 2010.06.03 11:33:40.
