data_PCOD9047411
_publ_section_title
;
Structure prediction by ZEFSAII (Michael W. Deem and Ramdas Pophale) SiO2 
 PCOD9047411
Probable space group: P -1
;
_chemical_formula_sum "Si O2"
_cell_formula_units_Z 14
_cell_length_a 18.850015
_cell_length_b 6.855425
_cell_length_c 8.746838
_cell_angle_alpha 126.075227
_cell_angle_beta 135.478639
_cell_angle_gamma 64.236475
_cell_volume 640.350844
_symmetry_space_group_name_H-M "P -1"
_symmetry_group_IT_number 2
_symmetry_cell_setting 'triclinic'
loop_
_space_group_symop_operation_xyz
x,y,z
-x,-y,-z
loop_
_atom_site_type_symbol
_atom_site_label
_atom_site_fract_x
_atom_site_fract_y
_atom_site_fract_z
Si Si1 0.426958 0.078541 0.287545
Si Si2 0.525236 0.256624 0.226608
Si Si3 0.299836 0.443152 0.451684
Si Si4 0.905508 0.780315 0.953225
Si Si5 0.992074 0.552513 0.269783
Si Si6 0.846526 0.327170 0.167827
Si Si7 0.639186 0.437251 0.069377
O O1 0.487134 0.233920 0.330417
O O2 0.338101 0.231702 0.300814
O O3 0.500000 0.000000 0.500000
O O4 0.386437 0.832619 0.041609
O O5 0.641608 0.327689 0.418711
O O6 0.455889 0.448678 0.114445
O O7 0.500000 0.000000 0.000000
O O8 0.180187 0.423637 0.262412
O O9 0.336029 0.415321 0.671011
O O10 0.969769 0.698054 0.866715
O O11 0.971204 0.741116 0.188884
O O12 0.856479 0.048379 0.000019
O O13 0.077091 0.640686 0.557292
O O14 0.890833 0.497912 0.183485
O O15 0.735497 0.408139 0.092203
#
# Coordination Sequence:
#
# PCOD9047411 Si02
#       7
#     2   2   2   2   2   2   2
#     4  12  25  44  70  93 135 177 217 276 327 392
#     4  12  26  45  68  99 138 177 220 269 329 395
#     4  12  24  44  66  98 136 172 223 267 330 391
#     4  11  23  43  69  96 131 172 219 271 330 386
#     4  10  24  44  66  97 131 169 218 275 327 395
#     4  11  23  43  69  96 131 171 219 270 332 386
#     4  12  25  44  67  99 137 175 218 274 330 391
#
# _framework density 21.863012999999999
#
# number of rings (size 3 to 8) (size 9 to 14) (size 15 to 20)
#    0.000    0.571    5.714    2.571    2.000    0.000 
#    2.571    1.429    0.000    0.000    0.000    0.000 
#    0.000    0.000    0.000    0.000    0.000    0.000 
#
# Total GULP energy -78288.550191 kJ/mol
# GULP energy per Si atom -5592.039299 kJ/mol
# Density = 2.181325 g / cm^3
# Si number density = 21.863013 Si / 1000 Ang^3
#
#
#
# Elastic Constant Matrix: (Units=GPa)
#
#
# Indices 1 2 3 4 5 6 
#
# 1 119.2881 7.1672 9.7103 3.5804 2.2154 5.1846
# 2 7.1672 43.0682 8.3031 22.2822 -7.5241 -3.9672
# 3 9.7103 8.3031 61.0836 7.1068 -4.2234 8.9943
# 4 3.5804 22.2822 7.1068 29.2484 4.6673 -4.3453
# 5 2.2154 -7.5241 -4.2234 4.6673 41.4894 0.3222
# 6 5.1846 -3.9672 8.9943 -4.3453 0.3222 20.7288
#
#
#
# Elastic Compliance Matrix: (Units=1/GPa)
#
#
# Indices 1 2 3 4 5 6 
#
# 1 0.008661 -0.001808 -0.000945 0.000395 -0.000915 -0.002005
# 2 -0.001808 0.043812 -0.001123 -0.034480 0.011792 0.001913
# 3 -0.000945 -0.001123 0.018841 -0.005381 0.002443 -0.009320
# 4 0.000395 -0.034480 -0.005381 0.065414 -0.014255 0.009571
# 5 -0.000915 0.011792 0.002443 -0.014255 0.028158 -0.002000
# 6 -0.002005 0.001913 -0.009320 0.009571 -0.002000 0.055191
#
#
# Mechanical properties :
#
#
# Convention : Reuss Voigt Hill
#
# Bulk Modulus (GPa) = 15.73267 30.42235 23.07751
# Shear Modulus (GPa) = 20.07907 31.51058 25.79483
#
# Velocity S-wave (km/s) = 3.03381 3.80053 3.43860
# Velocity P-wave (km/s) = 4.41402 5.76228 5.13262
#
# Compressibility (1/GPa) = 0.06356200
#
# Stress axis : x y z
#
# Youngs Moduli (GPa) = 115.46106 22.82496 53.07538
#
# Poissons Ratio (x) = 0.04127 0.05016
# Poissons Ratio (y) = 0.20878 0.05958
# Poissons Ratio (z) = 0.10911 0.02562
#
# Static dielectric constant tensor:
#      x y z
#    x 1.823530 -0.004720 -0.022200 
#    y -0.004720 1.802460 0.031210 
#    z -0.022200 0.031210 1.798880 
# 
# From -- ./inp_files/37723.got.cif
#   From: 2010.05.17/outbox.cif.g08.bks.cpg/sg2_19_cif.got.tgz:37723.got - 2010.06.03 11:33:40.
