data_PCOD9047730
_publ_section_title
;
Structure prediction by ZEFSAII (Michael W. Deem and Ramdas Pophale) SiO2 
 PCOD9047730
Probable space group: P -1
;
_chemical_formula_sum "Si O2"
_cell_formula_units_Z 16
_cell_length_a 17.629586
_cell_length_b 5.391955
_cell_length_c 8.973622
_cell_angle_alpha 54.063773
_cell_angle_beta 100.136507
_cell_angle_gamma 114.046096
_cell_volume 628.419350
_symmetry_space_group_name_H-M "P -1"
_symmetry_group_IT_number 2
_symmetry_cell_setting 'triclinic'
loop_
_space_group_symop_operation_xyz
x,y,z
-x,-y,-z
loop_
_atom_site_type_symbol
_atom_site_label
_atom_site_fract_x
_atom_site_fract_y
_atom_site_fract_z
Si Si1 0.549898 0.241652 0.236018
Si Si2 0.680454 0.590543 0.936423
Si Si3 0.059703 0.656130 0.828568
Si Si4 0.781713 0.167328 0.994754
Si Si5 0.314777 0.042704 0.501056
Si Si6 0.132585 0.602347 0.597733
Si Si7 0.903791 0.733142 0.618138
Si Si8 0.426735 0.584752 0.516544
O O1 0.563370 0.507545 0.276512
O O2 0.614127 0.091950 0.384886
O O3 0.458423 0.962846 0.331223
O O4 0.587048 0.389219 0.039262
O O5 0.723386 0.332547 0.996883
O O6 0.682940 0.810083 0.714331
O O7 0.730347 0.840603 0.997598
O O8 0.079760 0.431329 0.787124
O O9 0.997609 0.795641 0.677127
O O10 0.151046 0.871553 0.850814
O O11 0.000000 0.500000 0.000000
O O12 0.840054 0.441014 0.802243
O O13 0.336215 0.360233 0.504917
O O14 0.230417 0.737175 0.608793
O O15 0.111098 0.416360 0.500777
O O16 0.118054 0.948501 0.465319
O O17 0.500000 0.500000 0.500000
#
# Coordination Sequence:
#
# PCOD9047730 Si02
#       8
#     2   2   2   2   2   2   2   2
#     4  10  24  44  70 100 139 184 224 283 339 413
#     4  12  26  43  72 104 143 175 237 286 337 408
#     4  10  25  43  69  93 138 183 226 283 350 400
#     4  11  24  46  61 104 135 177 232 286 336 411
#     4  11  24  42  72  99 137 184 224 287 344 407
#     4  12  24  42  68 101 131 178 230 283 341 409
#     4  11  23  45  66  95 137 175 227 284 340 409
#     4   9  22  45  67 102 139 177 231 274 340 414
#
# _framework density 25.460704
#
# number of rings (size 3 to 8) (size 9 to 14) (size 15 to 20)
#    0.000    1.250    2.500    1.500    8.750    2.500 
#    0.000   11.250    0.000    0.000    0.000    0.000 
#    0.000    0.000    0.000    0.000    0.000    0.000 
#
# Total GULP energy -89356.815924 kJ/mol
# GULP energy per Si atom -5584.800995 kJ/mol
# Density = 2.540275 g / cm^3
# Si number density = 25.460704 Si / 1000 Ang^3
#
#
#
# Elastic Constant Matrix: (Units=GPa)
#
#
# Indices 1 2 3 4 5 6 
#
# 1 68.1145 32.5065 16.7289 1.0075 -12.0720 -7.7739
# 2 32.5065 138.5892 21.9492 14.2710 -10.6875 2.5039
# 3 16.7289 21.9492 127.5458 11.8833 -21.0819 -12.1377
# 4 1.0075 14.2710 11.8833 34.3426 -0.3633 -7.6148
# 5 -12.0720 -10.6875 -21.0819 -0.3633 50.8577 2.5225
# 6 -7.7739 2.5039 -12.1377 -7.6148 2.5225 34.9773
#
#
#
# Elastic Compliance Matrix: (Units=1/GPa)
#
#
# Indices 1 2 3 4 5 6 
#
# 1 0.017846 -0.004152 -0.001000 0.002523 0.002756 0.004267
# 2 -0.004152 0.008808 -0.000760 -0.003869 0.000657 -0.002707
# 3 -0.001000 -0.000760 0.009061 -0.002257 0.003231 0.002252
# 4 0.002523 -0.003869 -0.002257 0.033047 -0.001278 0.007341
# 5 0.002756 0.000657 0.003231 -0.001278 0.021793 -0.000163
# 6 0.004267 -0.002707 0.002252 0.007341 -0.000163 0.032124
#
#
# Mechanical properties :
#
#
# Convention : Reuss Voigt Hill
#
# Bulk Modulus (GPa) = 41.85494 52.95764 47.40629
# Shear Modulus (GPa) = 35.09626 41.57319 38.33472
#
# Velocity S-wave (km/s) = 3.71677 4.04522 3.88447
# Velocity P-wave (km/s) = 5.90711 6.53172 6.22725
#
# Compressibility (1/GPa) = 0.02389204
#
# Stress axis : x y z
#
# Youngs Moduli (GPa) = 56.03428 113.53759 110.36522
#
# Poissons Ratio (x) = 0.47140 0.11033
# Poissons Ratio (y) = 0.23265 0.08384
# Poissons Ratio (z) = 0.05602 0.08625
#
# Static dielectric constant tensor:
#      x y z
#    x 2.134550 -0.208200 -0.074600 
#    y -0.208200 2.502120 -0.002750 
#    z -0.074600 -0.002750 2.190840 
# 
# From -- ./inp_files/143066.got.cif
#   From: 2010.05.17/outbox.cif.g08.bks.cpg/sg2_72_cif.got.tgz:143066.got - 2010.06.03 11:33:40.
