data_PCOD9047069
_publ_section_title
;
Structure prediction by ZEFSAII (Michael W. Deem and Ramdas Pophale) SiO2 
 PCOD9047069
Probable space group: P -1
;
_chemical_formula_sum "Si O2"
_cell_formula_units_Z 16
_cell_length_a 16.663601
_cell_length_b 10.967100
_cell_length_c 19.249575
_cell_angle_alpha 146.662758
_cell_angle_beta 157.754030
_cell_angle_gamma 33.220182
_cell_volume 697.215470
_symmetry_space_group_name_H-M "P -1"
_symmetry_group_IT_number 2
_symmetry_cell_setting 'triclinic'
loop_
_space_group_symop_operation_xyz
x,y,z
-x,-y,-z
loop_
_atom_site_type_symbol
_atom_site_label
_atom_site_fract_x
_atom_site_fract_y
_atom_site_fract_z
Si Si1 0.321212 0.067928 0.951156
Si Si2 0.121645 0.997519 0.500687
Si Si3 0.726703 0.021233 0.535877
Si Si4 0.456771 0.709030 0.157423
Si Si5 0.078659 0.733991 0.961051
Si Si6 0.170947 0.598826 0.457144
Si Si7 0.340408 0.571677 0.225814
Si Si8 0.237227 0.775737 0.866858
O O1 0.092672 0.060664 0.729817
O O2 0.355684 0.899473 0.964759
O O3 0.299561 0.324645 0.082332
O O4 0.500000 0.000000 0.000000
O O5 0.276415 0.987942 0.554507
O O6 0.214213 0.799788 0.538238
O O7 0.023597 0.252823 0.577305
O O8 0.675344 0.280617 0.646857
O O9 0.544338 0.901798 0.356724
O O10 0.973692 0.876977 0.690917
O O11 0.302114 0.617241 0.040555
O O12 0.669809 0.498919 0.204968
O O13 0.311190 0.806871 0.018988
O O14 0.154998 0.716404 0.093044
O O15 0.910540 0.588977 0.739797
O O16 0.000000 0.000000 0.000000
O O17 0.407814 0.477036 0.624330
#
# Coordination Sequence:
#
# PCOD9047069 Si02
#       8
#     2   2   2   2   2   2   2   2
#     4  11  21  44  71 102 136 180 237 279 346 407
#     4  10  24  43  71 104 140 173 230 297 335 410
#     4  11  26  45  66 106 140 180 228 286 351 405
#     4  11  25  44  70  98 138 190 226 278 348 410
#     4  12  27  47  69 100 142 183 235 282 342 418
#     4  11  25  44  73 104 134 182 236 284 342 407
#     4  12  26  45  73 101 140 187 224 290 348 412
#     4  10  25  42  68 102 138 181 229 290 335 412
#
# _framework density 22.948429999999998
#
# number of rings (size 3 to 8) (size 9 to 14) (size 15 to 20)
#    0.000    1.000    2.500    2.625    7.000    5.500 
#    2.250    0.000    0.000    0.000    0.000    0.000 
#    0.000    0.000    0.000    0.000    0.000    0.000 
#
# Total GULP energy -89559.276322 kJ/mol
# GULP energy per Si atom -5597.454770 kJ/mol
# Density = 2.289620 g / cm^3
# Si number density = 22.948430 Si / 1000 Ang^3
#
#
#
# Elastic Constant Matrix: (Units=GPa)
#
#
# Indices 1 2 3 4 5 6 
#
# 1 53.9796 3.8808 -4.2160 1.5580 -13.4293 7.5544
# 2 3.8808 95.1175 15.0392 10.9960 -18.8976 -6.1039
# 3 -4.2160 15.0392 59.4507 5.7991 -4.3786 -5.4067
# 4 1.5580 10.9960 5.7991 22.8480 -4.3640 -3.0611
# 5 -13.4293 -18.8976 -4.3786 -4.3640 31.4872 0.7009
# 6 7.5544 -6.1039 -5.4067 -3.0611 0.7009 26.0834
#
#
#
# Elastic Compliance Matrix: (Units=1/GPa)
#
#
# Indices 1 2 3 4 5 6 
#
# 1 0.022002 0.000533 0.001694 -0.001135 0.009922 -0.006296
# 2 0.000533 0.012805 -0.002129 -0.004087 0.007011 0.001733
# 3 0.001694 -0.002129 0.018104 -0.003087 0.001482 0.002362
# 4 -0.001135 -0.004087 -0.003087 0.047769 0.003159 0.004254
# 5 0.009922 0.007011 0.001482 0.003159 0.040880 -0.001653
# 6 -0.006296 0.001733 0.002362 0.004254 -0.001653 0.041601
#
#
# Mechanical properties :
#
#
# Convention : Reuss Voigt Hill
#
# Bulk Modulus (GPa) = 18.82950 26.43952 22.63451
# Shear Modulus (GPa) = 24.91705 29.00664 26.96184
#
# Velocity S-wave (km/s) = 3.29870 3.55912 3.43138
# Velocity P-wave (km/s) = 4.76776 5.33255 5.05804
#
# Compressibility (1/GPa) = 0.05310817
#
# Stress axis : x y z
#
# Youngs Moduli (GPa) = 45.45054 78.09555 55.23530
#
# Poissons Ratio (x) = -0.04162 -0.09359
# Poissons Ratio (y) = -0.02422 0.11758
# Poissons Ratio (z) = -0.07701 0.16625
#
# Static dielectric constant tensor:
#      x y z
#    x 1.884660 -0.001250 0.003730 
#    y -0.001250 1.852800 -0.031290 
#    z 0.003730 -0.031290 1.814430 
# 
# From -- ./inp_files/402914.got.cif
#   From: 2010.05.17/outbox.cif.g08.bks.cpg/sg2_202_cif.got.tgz:402914.got - 2010.06.03 11:33:40.
