data_PCOD9047500
_publ_section_title
;
Structure prediction by ZEFSAII (Michael W. Deem and Ramdas Pophale) SiO2 
 PCOD9047500
Probable space group: P -1
;
_chemical_formula_sum "Si O2"
_cell_formula_units_Z 16
_cell_length_a 8.166808
_cell_length_b 15.878465
_cell_length_c 12.237228
_cell_angle_alpha 47.227954
_cell_angle_beta 83.279721
_cell_angle_gamma 47.341125
_cell_volume 661.305257
_symmetry_space_group_name_H-M "P -1"
_symmetry_group_IT_number 2
_symmetry_cell_setting 'triclinic'
loop_
_space_group_symop_operation_xyz
x,y,z
-x,-y,-z
loop_
_atom_site_type_symbol
_atom_site_label
_atom_site_fract_x
_atom_site_fract_y
_atom_site_fract_z
Si Si1 0.883182 0.721621 0.373400
Si Si2 0.651356 0.124125 0.695422
Si Si3 0.074997 0.705910 0.154962
Si Si4 0.385270 0.815717 0.735130
Si Si5 0.452059 0.674822 0.277162
Si Si6 0.925351 0.425241 0.934376
Si Si7 0.443893 0.857566 0.929664
Si Si8 0.042747 0.129528 0.315835
O O1 0.676565 0.733546 0.404800
O O2 0.912547 0.718864 0.242945
O O3 0.203098 0.532532 0.563044
O O4 0.719906 0.928522 0.244313
O O5 0.659570 0.232718 0.673559
O O6 0.772384 0.049033 0.630339
O O7 0.844625 0.920187 0.925047
O O8 0.295592 0.656341 0.251442
O O9 0.215498 0.554327 0.179355
O O10 0.710978 0.633644 0.827452
O O11 0.355153 0.836790 0.848454
O O12 0.256494 0.768051 0.747133
O O13 0.205301 0.020325 0.513143
O O14 0.381704 0.822721 0.074379
O O15 0.217821 0.312455 0.965000
O O16 0.006102 0.277625 0.143005
#
# Coordination Sequence:
#
# PCOD9047500 Si02
#       8
#     2   2   2   2   2   2   2   2
#     4  12  25  43  67 103 137 177 216 277 337 396
#     4  11  22  45  70  96 142 174 218 274 339 396
#     4  11  23  44  68 101 139 175 216 279 336 393
#     4  11  26  43  70  95 132 178 228 270 329 397
#     4  12  27  40  71 105 134 176 223 271 334 412
#     4  11  24  44  70  94 135 178 221 274 333 394
#     4  12  25  44  67 101 137 175 221 278 333 392
#     4  10  24  44  67  98 128 179 220 282 325 388
#
# _framework density 24.194576000000001
#
# number of rings (size 3 to 8) (size 9 to 14) (size 15 to 20)
#    0.000    0.750    3.750    4.500    5.250    3.500 
#    0.000    0.000    0.000    0.000    0.000    0.000 
#    0.000    0.000    0.000    0.000    0.000    0.000 
#
# Total GULP energy -89709.754136 kJ/mol
# GULP energy per Si atom -5606.859634 kJ/mol
# Density = 2.413951 g / cm^3
# Si number density = 24.194576 Si / 1000 Ang^3
#
#
#
# Elastic Constant Matrix: (Units=GPa)
#
#
# Indices 1 2 3 4 5 6 
#
# 1 54.8455 -3.5804 11.5258 0.2878 5.4796 -4.2692
# 2 -3.5804 77.9518 10.5812 -3.1518 5.5074 -1.0531
# 3 11.5258 10.5812 56.5255 -5.0198 13.9055 11.5620
# 4 0.2878 -3.1518 -5.0198 30.1951 -3.9574 -2.3810
# 5 5.4796 5.5074 13.9055 -3.9574 27.8505 -4.8179
# 6 -4.2692 -1.0531 11.5620 -2.3810 -4.8179 29.3900
#
#
#
# Elastic Compliance Matrix: (Units=1/GPa)
#
#
# Indices 1 2 3 4 5 6 
#
# 1 0.019905 0.001724 -0.005189 -0.000616 -0.000925 0.004793
# 2 0.001724 0.013437 -0.002864 0.000899 -0.001137 0.001745
# 3 -0.005189 -0.002864 0.025228 0.001223 -0.013053 -0.012822
# 4 -0.000616 0.000899 0.001223 0.034278 0.004725 0.003013
# 5 -0.000925 -0.001137 -0.013053 0.004725 0.045722 0.012838
# 6 0.004793 0.001745 -0.012822 0.003013 0.012838 0.042177
#
#
# Mechanical properties :
#
#
# Convention : Reuss Voigt Hill
#
# Bulk Modulus (GPa) = 21.78173 25.15289 23.46731
# Shear Modulus (GPa) = 23.95698 28.87355 26.41526
#
# Velocity S-wave (km/s) = 3.15013 3.45829 3.30780
# Velocity P-wave (km/s) = 4.71734 5.13469 4.93044
#
# Compressibility (1/GPa) = 0.04591003
#
# Stress axis : x y z
#
# Youngs Moduli (GPa) = 50.23933 74.42340 39.63918
#
# Poissons Ratio (x) = -0.12829 0.20568
# Poissons Ratio (y) = -0.08660 0.11354
# Poissons Ratio (z) = 0.26069 0.21317
#
# Static dielectric constant tensor:
#      x y z
#    x 1.922350 0.007750 0.029290 
#    y 0.007750 1.890010 -0.010200 
#    z 0.029290 -0.010200 1.924880 
# 
# From -- ./inp_files/242151.got.cif
#   From: 2010.05.17/outbox.cif.g08.bks.cpg/sg2_122_cif.got.tgz:242151.got - 2010.06.03 11:33:40.
