data_PCOD9047760
_publ_section_title
;
Structure prediction by ZEFSAII (Michael W. Deem and Ramdas Pophale) SiO2 
 PCOD9047760
Probable space group: P -1
;
_chemical_formula_sum "Si O2"
_cell_formula_units_Z 13
_cell_length_a 15.296753
_cell_length_b 15.278660
_cell_length_c 8.222494
_cell_angle_alpha 65.489271
_cell_angle_beta 106.480230
_cell_angle_gamma 161.370397
_cell_volume 517.459846
_symmetry_space_group_name_H-M "P -1"
_symmetry_group_IT_number 2
_symmetry_cell_setting 'triclinic'
loop_
_space_group_symop_operation_xyz
x,y,z
-x,-y,-z
loop_
_atom_site_type_symbol
_atom_site_label
_atom_site_fract_x
_atom_site_fract_y
_atom_site_fract_z
Si Si1 0.672028 0.637651 0.137961
Si Si2 0.686301 0.908929 0.157279
Si Si3 0.713120 0.146171 0.100517
Si Si4 0.500000 0.500000 0.500000
Si Si5 0.037621 0.199906 0.431520
Si Si6 0.715702 0.282998 0.497649
Si Si7 0.961328 0.737472 0.253844
O O1 0.520668 0.532844 0.292491
O O2 0.696262 0.547524 0.240491
O O3 0.500000 0.500000 0.000000
O O4 0.000000 0.000000 0.000000
O O5 0.792654 0.123728 0.083724
O O6 0.805217 0.964118 0.335872
O O7 0.330998 0.550169 0.253320
O O8 0.807218 0.006559 0.966201
O O9 0.503498 0.910186 0.322487
O O10 0.000000 0.500000 0.000000
O O11 0.500000 0.000000 0.000000
O O12 0.176859 0.238818 0.532327
O O13 0.940905 0.153487 0.587804
O O14 0.842648 0.511900 0.331071
O O15 0.000000 0.500000 0.500000
O O16 0.500000 0.000000 0.500000
#
# Coordination Sequence:
#
# PCOD9047760 Si02
#       7
#     2   2   2   1   2   2   2
#     4  11  25  45  71 107 144 186 243 291 364 436
#     4  12  25  45  70 100 142 182 239 289 361 417
#     4  12  25  46  69 101 141 184 237 301 360 426
#     4  10  24  44  70 102 144 186 232 294 358 420
#     4  11  26  44  70 105 141 185 238 292 354 437
#     4  12  27  46  71 105 144 188 247 299 362 437
#     4  11  26  46  74 104 145 193 235 304 360 428
#
# _framework density 25.122722
#
# number of rings (size 3 to 8) (size 9 to 14) (size 15 to 20)
#    0.000    0.615    1.538    5.538    2.154    9.846 
#    0.000    0.000    0.000    0.000    0.000    0.000 
#    0.000    0.000    0.000    0.000    0.000    0.000 
#
# Total GULP energy -72557.847951 kJ/mol
# GULP energy per Si atom -5581.372919 kJ/mol
# Density = 2.506554 g / cm^3
# Si number density = 25.122722 Si / 1000 Ang^3
#
#
#
# Elastic Constant Matrix: (Units=GPa)
#
#
# Indices 1 2 3 4 5 6 
#
# 1 122.3107 13.1137 37.4605 3.7578 -3.5028 -7.3536
# 2 13.1137 157.4850 42.2536 -2.0706 -14.9350 19.4037
# 3 37.4605 42.2536 199.2997 7.1621 -45.9568 -7.9592
# 4 3.7578 -2.0706 7.1621 51.6192 -7.6847 0.7227
# 5 -3.5028 -14.9350 -45.9568 -7.6847 66.7724 7.8856
# 6 -7.3536 19.4037 -7.9592 0.7227 7.8856 22.7019
#
#
#
# Elastic Compliance Matrix: (Units=1/GPa)
#
#
# Indices 1 2 3 4 5 6 
#
# 1 0.008973 -0.000886 -0.001645 -0.000714 -0.001365 0.003584
# 2 -0.000886 0.008036 -0.001484 0.000982 0.001828 -0.008342
# 3 -0.001645 -0.001484 0.006620 -0.000301 0.003901 0.001711
# 4 -0.000714 0.000982 -0.000301 0.019929 0.002588 -0.002709
# 5 -0.001365 0.001828 0.003901 0.002588 0.019168 -0.007377
# 6 0.003584 -0.008342 0.001711 -0.002709 -0.007377 0.055589
#
#
# Mechanical properties :
#
#
# Convention : Reuss Voigt Hill
#
# Bulk Modulus (GPa) = 64.10733 73.86124 68.98428
# Shear Modulus (GPa) = 38.01006 53.96987 45.98996
#
# Velocity S-wave (km/s) = 3.89392 4.63995 4.28321
# Velocity P-wave (km/s) = 6.76682 7.62689 7.20969
#
# Compressibility (1/GPa) = 0.01559884
#
# Stress axis : x y z
#
# Youngs Moduli (GPa) = 111.44571 124.44274 151.05478
#
# Poissons Ratio (x) = 0.11031 0.24842
# Poissons Ratio (y) = 0.09879 0.22417
# Poissons Ratio (z) = 0.18328 0.18468
#
# Static dielectric constant tensor:
#      x y z
#    x 7.796320 -2.171170 0.967030 
#    y -2.171170 2.735250 -0.303160 
#    z 0.967030 -0.303160 2.113250 
# 
# From -- ./inp_files/313008.got.cif
#   From: 2010.05.17/outbox.cif.g08.bks.cpg/sg2_157_cif.got.tgz:313008.got - 2010.06.03 11:33:40.
