data_PCOD9047768
_publ_section_title
;
Structure prediction by ZEFSAII (Michael W. Deem and Ramdas Pophale) SiO2 
 PCOD9047768
Probable space group: P -1
;
_chemical_formula_sum "Si O2"
_cell_formula_units_Z 14
_cell_length_a 14.607981
_cell_length_b 12.238965
_cell_length_c 9.498765
_cell_angle_alpha 43.578695
_cell_angle_beta 56.287369
_cell_angle_gamma 28.719217
_cell_volume 545.764149
_symmetry_space_group_name_H-M "P -1"
_symmetry_group_IT_number 2
_symmetry_cell_setting 'triclinic'
loop_
_space_group_symop_operation_xyz
x,y,z
-x,-y,-z
loop_
_atom_site_type_symbol
_atom_site_label
_atom_site_fract_x
_atom_site_fract_y
_atom_site_fract_z
Si Si1 0.328433 0.267900 0.498181
Si Si2 0.251697 0.376125 0.992911
Si Si3 0.915646 0.886901 0.211866
Si Si4 0.719322 0.853399 0.074781
Si Si5 0.314294 0.988069 0.471291
Si Si6 0.025616 0.037617 0.183796
Si Si7 0.278792 0.823612 0.390815
O O1 0.245350 0.242038 0.707234
O O2 0.450980 0.259258 0.485225
O O3 0.137966 0.559340 0.310833
O O4 0.500000 0.000000 0.500000
O O5 0.482490 0.134486 0.007253
O O6 0.230881 0.248394 0.230908
O O7 0.191511 0.387273 0.879360
O O8 0.145541 0.650230 0.896176
O O9 0.775773 0.936121 0.369980
O O10 0.847584 0.022484 0.989847
O O11 0.937330 0.006060 0.191446
O O12 0.769939 0.961203 0.862253
O O13 0.257903 0.913765 0.482521
O O14 0.152214 0.844637 0.394236
O O15 0.500000 0.500000 0.500000
#
# Coordination Sequence:
#
# PCOD9047768 Si02
#       7
#     2   2   2   2   2   2   2
#     4  11  24  44  73 104 139 183 229 284 350 414
#     4   9  20  41  66  98 135 175 228 278 343 398
#     4  11  26  46  66 105 144 178 234 286 341 420
#     4   9  21  40  67 100 135 172 229 289 328 413
#     4  10  24  44  70 103 136 181 232 286 335 420
#     4  11  26  44  67 101 141 182 228 286 348 410
#     4  11  25  44  68 102 135 184 235 282 353 407
#
# _framework density 25.652107000000001
#
# number of rings (size 3 to 8) (size 9 to 14) (size 15 to 20)
#    0.000    1.714    0.000    3.429    8.000    2.857 
#    0.000    2.143    0.000    0.000    0.000    0.000 
#    0.000    0.000    0.000    0.000    0.000    0.000 
#
# Total GULP energy -78326.892997 kJ/mol
# GULP energy per Si atom -5594.778071 kJ/mol
# Density = 2.559372 g / cm^3
# Si number density = 25.652107 Si / 1000 Ang^3
#
#
#
# Elastic Constant Matrix: (Units=GPa)
#
#
# Indices 1 2 3 4 5 6 
#
# 1 93.6457 30.1814 9.4542 12.4800 22.1862 23.4792
# 2 30.1814 112.4534 13.2832 13.0269 -2.6669 27.4025
# 3 9.4542 13.2832 64.0930 37.8286 8.7248 5.8585
# 4 12.4800 13.0269 37.8286 52.7940 1.7881 2.5834
# 5 22.1862 -2.6669 8.7248 1.7881 39.3522 5.6306
# 6 23.4792 27.4025 5.8585 2.5834 5.6306 49.2185
#
#
#
# Elastic Compliance Matrix: (Units=1/GPa)
#
#
# Indices 1 2 3 4 5 6 
#
# 1 0.015065 -0.002913 0.002289 -0.003971 -0.008349 -0.004674
# 2 -0.002913 0.011265 -0.001311 -0.001021 0.003468 -0.005069
# 3 0.002289 -0.001311 0.028670 -0.020444 -0.006527 -0.001955
# 4 -0.003971 -0.001021 -0.020444 0.034495 0.004772 0.002540
# 5 -0.008349 0.003468 -0.006527 0.004772 0.031735 -0.001052
# 6 -0.004674 -0.005069 -0.001955 0.002540 -0.001052 0.025589
#
#
# Mechanical properties :
#
#
# Convention : Reuss Voigt Hill
#
# Bulk Modulus (GPa) = 19.55769 41.78107 30.66938
# Shear Modulus (GPa) = 29.80942 42.75783 36.28362
#
# Velocity S-wave (km/s) = 3.41261 4.08712 3.76500
# Velocity P-wave (km/s) = 4.81338 6.21254 5.55717
#
# Compressibility (1/GPa) = 0.05113078
#
# Stress axis : x y z
#
# Youngs Moduli (GPa) = 66.37688 88.77013 34.87999
#
# Poissons Ratio (x) = 0.25857 -0.07985
# Poissons Ratio (y) = 0.19335 0.04573
# Poissons Ratio (z) = -0.15195 0.11638
#
# Static dielectric constant tensor:
#      x y z
#    x 2.122080 -0.013240 -0.054040 
#    y -0.013240 1.949200 0.018090 
#    z -0.054040 0.018090 2.023710 
# 
# From -- ./inp_files/306467.got.cif
#   From: 2010.05.17/outbox.cif.g08.bks.cpg/sg2_154_cif.got.tgz:306467.got - 2010.06.03 11:33:40.
