data_PCOD9047352
_publ_section_title
;
Structure prediction by ZEFSAII (Michael W. Deem and Ramdas Pophale) SiO2 
 PCOD9047352
Probable space group: P -1
;
_chemical_formula_sum "Si O2"
_cell_formula_units_Z 12
_cell_length_a 6.886205
_cell_length_b 11.219706
_cell_length_c 8.454181
_cell_angle_alpha 57.747940
_cell_angle_beta 83.869296
_cell_angle_gamma 100.534936
_cell_volume 526.427826
_symmetry_space_group_name_H-M "P -1"
_symmetry_group_IT_number 2
_symmetry_cell_setting 'triclinic'
loop_
_space_group_symop_operation_xyz
x,y,z
-x,-y,-z
loop_
_atom_site_type_symbol
_atom_site_label
_atom_site_fract_x
_atom_site_fract_y
_atom_site_fract_z
Si Si1 0.044135 0.231515 0.908991
Si Si2 0.153139 0.524452 0.322715
Si Si3 0.736976 0.036348 0.479367
Si Si4 0.573342 0.525003 0.161140
Si Si5 0.971327 0.920462 0.302311
Si Si6 0.885090 0.362622 0.216419
O O1 0.242336 0.329367 0.916873
O O2 0.085296 0.203397 0.739731
O O3 0.879800 0.325347 0.854546
O O4 0.977287 0.070494 0.102976
O O5 0.388714 0.531799 0.287034
O O6 0.000000 0.500000 0.500000
O O7 0.047142 0.383356 0.326038
O O8 0.833551 0.197892 0.281396
O O9 0.813191 0.053727 0.642511
O O10 0.500000 0.000000 0.500000
O O11 0.818527 0.916592 0.464536
O O12 0.680140 0.396046 0.272242
O O13 0.500000 0.500000 0.000000
O O14 0.000000 0.500000 0.000000
#
# Coordination Sequence:
#
# PCOD9047352 Si02
#       6
#     2   2   2   2   2   2
#     4  10  24  44  67  96 138 178 230 278 349 408
#     4  11  24  41  66  99 137 174 225 294 346 402
#     4  11  25  41  69 100 136 178 233 280 341 412
#     4  11  24  40  73  99 129 183 234 284 343 414
#     4  10  24  44  65  96 138 184 218 282 342 415
#     4  11  23  42  67 100 133 177 232 287 343 409
#
# _framework density 22.795148999999999
#
# number of rings (size 3 to 8) (size 9 to 14) (size 15 to 20)
#    0.000    1.333    1.667    3.000    2.333    8.000 
#    0.000    3.333    0.000    0.000    0.000    0.000 
#    0.000    0.000    0.000    0.000    0.000    0.000 
#
# Total GULP energy -66921.892185 kJ/mol
# GULP energy per Si atom -5576.824349 kJ/mol
# Density = 2.274327 g / cm^3
# Si number density = 22.795149 Si / 1000 Ang^3
#
#
#
# Elastic Constant Matrix: (Units=GPa)
#
#
# Indices 1 2 3 4 5 6 
#
# 1 135.6152 27.0771 2.6381 -5.7676 -9.9381 -12.1059
# 2 27.0771 150.2147 6.8784 14.3289 -3.7857 -10.8440
# 3 2.6381 6.8784 69.1288 3.3059 6.7883 -9.1259
# 4 -5.7676 14.3289 3.3059 33.5663 -6.1884 9.5185
# 5 -9.9381 -3.7857 6.7883 -6.1884 30.3090 4.6691
# 6 -12.1059 -10.8440 -9.1259 9.5185 4.6691 35.3950
#
#
#
# Elastic Compliance Matrix: (Units=1/GPa)
#
#
# Indices 1 2 3 4 5 6 
#
# 1 0.008091 -0.001494 -0.000380 0.002233 0.002817 0.001240
# 2 -0.001494 0.007565 0.000038 -0.004570 -0.000975 0.003174
# 3 -0.000380 0.000038 0.016004 -0.004345 -0.005501 0.005902
# 4 0.002233 -0.004570 -0.004345 0.038439 0.011071 -0.013554
# 5 0.002817 -0.000975 -0.005501 0.011071 0.038648 -0.008829
# 6 0.001240 0.003174 0.005902 -0.013554 -0.008829 0.035980
#
#
# Mechanical properties :
#
#
# Convention : Reuss Voigt Hill
#
# Bulk Modulus (GPa) = 35.72929 47.57176 41.65052
# Shear Modulus (GPa) = 31.70010 41.07841 36.38925
#
# Velocity S-wave (km/s) = 3.73319 4.24968 3.99978
# Velocity P-wave (km/s) = 5.85580 6.70778 6.29622
#
# Compressibility (1/GPa) = 0.02798824
#
# Stress axis : x y z
#
# Youngs Moduli (GPa) = 123.58687 132.18578 62.48612
#
# Poissons Ratio (x) = 0.19744 0.02374
# Poissons Ratio (y) = 0.18460 -0.00235
# Poissons Ratio (z) = 0.04695 -0.00497
#
# Static dielectric constant tensor:
#      x y z
#    x 1.834670 -0.016540 0.013240 
#    y -0.016540 1.845860 0.125170 
#    z 0.013240 0.125170 1.924500 
# 
# From -- ./inp_files/61119.got.cif
#   From: 2010.05.17/outbox.cif.g08.bks.cpg/sg2_31_cif.got.tgz:61119.got - 2010.06.03 11:33:40.
