data_PCOD9047836
_publ_section_title
;
Structure prediction by ZEFSAII (Michael W. Deem and Ramdas Pophale) SiO2 
 PCOD9047836
Probable space group: P -1
;
_chemical_formula_sum "Si O2"
_cell_formula_units_Z 13
_cell_length_a 11.382998
_cell_length_b 12.449051
_cell_length_c 12.545664
_cell_angle_alpha 156.705928
_cell_angle_beta 102.358282
_cell_angle_gamma 89.696880
_cell_volume 596.633012
_symmetry_space_group_name_H-M "P -1"
_symmetry_group_IT_number 2
_symmetry_cell_setting 'triclinic'
loop_
_space_group_symop_operation_xyz
x,y,z
-x,-y,-z
loop_
_atom_site_type_symbol
_atom_site_label
_atom_site_fract_x
_atom_site_fract_y
_atom_site_fract_z
Si Si1 0.854428 0.310432 0.860239
Si Si2 0.234495 0.494557 0.371665
Si Si3 0.174735 0.305880 0.602496
Si Si4 0.646388 0.249365 0.582780
Si Si5 0.500000 0.500000 0.500000
Si Si6 0.482075 0.582447 0.828817
Si Si7 0.062609 0.784005 0.687974
O O1 0.730381 0.225483 0.675924
O O2 0.849114 0.012754 0.641763
O O3 0.837011 0.500407 0.125993
O O4 0.000000 0.500000 0.000000
O O5 0.246501 0.491190 0.243025
O O6 0.382632 0.604666 0.552224
O O7 0.176084 0.724182 0.596787
O O8 0.138192 0.138251 0.068737
O O9 0.324159 0.470729 0.725985
O O10 0.058151 0.252883 0.446396
O O11 0.535026 0.358330 0.686966
O O12 0.573334 0.927111 0.209177
O O13 0.498019 0.561102 0.685804
O O14 0.000000 0.500000 0.500000
#
# Coordination Sequence:
#
# PCOD9047836 Si02
#       7
#     2   2   2   2   1   2   2
#     4  12  26  45  71  99 136 182 230 281 338 400
#     4  11  24  42  66  95 130 173 224 271 332 401
#     4  12  26  44  70 102 137 178 229 281 335 407
#     4  11  24  44  68  97 134 178 226 282 334 399
#     4  10  24  44  70  98 134 178 222 276 334 406
#     4  11  25  43  68 101 137 178 227 279 342 401
#     4  12  25  42  65  95 134 173 216 277 339 398
#
# _framework density 21.78894
#
# number of rings (size 3 to 8) (size 9 to 14) (size 15 to 20)
#    0.000    0.615    0.000    8.308    0.000   12.923 
#    0.000    0.000    0.000    0.000    0.000    0.000 
#    0.000    0.000    0.000    0.000    0.000    0.000 
#
# Total GULP energy -72529.156677 kJ/mol
# GULP energy per Si atom -5579.165898 kJ/mol
# Density = 2.173935 g / cm^3
# Si number density = 21.788940 Si / 1000 Ang^3
#
#
#
# Elastic Constant Matrix: (Units=GPa)
#
#
# Indices 1 2 3 4 5 6 
#
# 1 160.4916 41.9820 49.9378 -8.6099 -21.4733 -26.5798
# 2 41.9820 119.0076 46.6031 4.5923 -3.4494 -44.6952
# 3 49.9378 46.6031 120.0170 10.6853 -24.9121 -8.3592
# 4 -8.6099 4.5923 10.6853 29.7647 -3.8124 -1.7971
# 5 -21.4733 -3.4494 -24.9121 -3.8124 30.0110 1.5329
# 6 -26.5798 -44.6952 -8.3592 -1.7971 1.5329 55.9785
#
#
#
# Elastic Compliance Matrix: (Units=1/GPa)
#
#
# Indices 1 2 3 4 5 6 
#
# 1 0.008544 -0.001007 -0.002432 0.004235 0.004368 0.002906
# 2 -0.001007 0.014736 -0.005368 -0.000523 -0.004090 0.010581
# 3 -0.002432 -0.005368 0.013231 -0.003787 0.008340 -0.003815
# 4 0.004235 -0.000523 -0.003787 0.036954 0.004414 0.002093
# 5 0.004368 -0.004090 0.008340 0.004414 0.043511 -0.000996
# 6 0.002906 0.010581 -0.003815 0.002093 -0.000996 0.027217
#
#
# Mechanical properties :
#
#
# Convention : Reuss Voigt Hill
#
# Bulk Modulus (GPa) = 52.92093 75.17357 64.04725
# Shear Modulus (GPa) = 29.74311 40.55038 35.14675
#
# Velocity S-wave (km/s) = 3.69867 4.31867 4.02064
# Velocity P-wave (km/s) = 6.52541 7.70997 7.14229
#
# Compressibility (1/GPa) = 0.01889611
#
# Stress axis : x y z
#
# Youngs Moduli (GPa) = 117.04241 67.86169 75.57915
#
# Poissons Ratio (x) = 0.06835 0.18380
# Poissons Ratio (y) = 0.11788 0.40574
# Poissons Ratio (z) = 0.28463 0.36431
#
# Static dielectric constant tensor:
#      x y z
#    x 1.809730 0.059340 0.035990 
#    y 0.059340 1.782290 0.031040 
#    z 0.035990 0.031040 1.787710 
# 
# From -- ./inp_files/297213.got.cif
#   From: 2010.05.17/outbox.cif.g08.bks.cpg/sg2_149_cif.got.tgz:297213.got - 2010.06.03 11:33:40.
