data_PCOD9047921
_publ_section_title
;
Structure prediction by ZEFSAII (Michael W. Deem and Ramdas Pophale) SiO2 
 PCOD9047921
Probable space group: P -1
;
_chemical_formula_sum "Si O2"
_cell_formula_units_Z 12
_cell_length_a 22.397707
_cell_length_b 5.294026
_cell_length_c 11.099507
_cell_angle_alpha 62.904469
_cell_angle_beta 156.021240
_cell_angle_gamma 117.650310
_cell_volume 471.970345
_symmetry_space_group_name_H-M "P -1"
_symmetry_group_IT_number 2
_symmetry_cell_setting 'triclinic'
loop_
_space_group_symop_operation_xyz
x,y,z
-x,-y,-z
loop_
_atom_site_type_symbol
_atom_site_label
_atom_site_fract_x
_atom_site_fract_y
_atom_site_fract_z
Si Si1 0.359146 0.051880 0.654673
Si Si2 0.861371 0.495655 0.337660
Si Si3 0.326548 0.995374 0.048844
Si Si4 0.613120 0.380525 0.534208
Si Si5 0.079296 0.930528 0.286228
Si Si6 0.869115 0.288418 0.864035
O O1 0.407138 0.291462 0.590854
O O2 0.239404 0.115291 0.522750
O O3 0.258377 0.803577 0.450461
O O4 0.500000 0.000000 0.000000
O O5 0.782029 0.783712 0.143738
O O6 0.904083 0.388279 0.572403
O O7 0.000000 0.500000 0.500000
O O8 0.751614 0.216043 0.149821
O O9 0.477496 0.201590 0.250863
O O10 0.378504 0.770826 0.290181
O O11 0.776477 0.385465 0.780815
O O12 0.000000 0.000000 0.000000
O O13 0.957662 0.033513 0.128501
O O14 0.000000 0.500000 0.000000
#
# Coordination Sequence:
#
# PCOD9047921 Si02
#       6
#     2   2   2   2   2   2
#     4  11  25  43  72 107 151 194 256 325 388 460
#     4  12  27  50  77 110 155 201 267 313 382 465
#     4  11  29  47  77 112 151 208 257 317 382 467
#     4  11  26  46  74 104 151 201 254 319 389 462
#     4  10  24  44  71 111 147 195 253 320 387 457
#     4  11  24  44  72 108 147 199 255 315 394 458
#
# _framework density 25.425324
#
# number of rings (size 3 to 8) (size 9 to 14) (size 15 to 20)
#    0.000    1.000    1.667    2.500   11.667    6.000 
#    0.000    0.000    0.000    0.000    0.000    0.000 
#    0.000    0.000    0.000    0.000    0.000    0.000 
#
# Total GULP energy -66978.936684 kJ/mol
# GULP energy per Si atom -5581.578057 kJ/mol
# Density = 2.536745 g / cm^3
# Si number density = 25.425324 Si / 1000 Ang^3
#
#
#
# Elastic Constant Matrix: (Units=GPa)
#
#
# Indices 1 2 3 4 5 6 
#
# 1 59.6330 34.9329 32.9051 3.1987 9.9896 17.9801
# 2 34.9329 133.4800 60.7326 7.7921 -13.3978 7.9946
# 3 32.9051 60.7326 173.2912 8.6172 15.8335 8.7742
# 4 3.1987 7.7921 8.6172 57.5068 3.7154 0.9941
# 5 9.9896 -13.3978 15.8335 3.7154 42.8037 -2.9781
# 6 17.9801 7.9946 8.7742 0.9941 -2.9781 49.1146
#
#
#
# Elastic Compliance Matrix: (Units=1/GPa)
#
#
# Indices 1 2 3 4 5 6 
#
# 1 0.025022 -0.006191 -0.001456 0.000317 -0.007849 -0.008375
# 2 -0.006191 0.011273 -0.003380 -0.001117 0.006421 0.001447
# 3 -0.001456 -0.003380 0.007596 -0.000363 -0.003530 -0.000481
# 4 0.000317 -0.001117 -0.000363 0.017703 -0.001849 -0.000340
# 5 -0.007849 0.006421 -0.003530 -0.001849 0.028966 0.004253
# 6 -0.008375 0.001447 -0.000481 -0.000340 0.004253 0.023541
#
#
# Mechanical properties :
#
#
# Convention : Reuss Voigt Hill
#
# Bulk Modulus (GPa) = 45.79117 69.28281 57.53699
# Shear Modulus (GPa) = 34.85922 45.74059 40.29990
#
# Velocity S-wave (km/s) = 3.70678 4.24608 3.98556
# Velocity P-wave (km/s) = 6.03071 7.16573 6.62258
#
# Compressibility (1/GPa) = 0.02183827
#
# Stress axis : x y z
#
# Youngs Moduli (GPa) = 39.96451 88.71069 131.63976
#
# Poissons Ratio (x) = 0.54918 0.19170
# Poissons Ratio (y) = 0.24741 0.44489
# Poissons Ratio (z) = 0.05820 0.29980
#
# Static dielectric constant tensor:
#      x y z
#    x 2.275080 -0.244700 -0.001620 
#    y -0.244700 2.249170 -0.056760 
#    z -0.001620 -0.056760 2.101330 
# 
# From -- ./inp_files/473165.got.cif
#   From: 2010.05.17/outbox.cif.g08.bks.cpg/sg2_237_cif.got.tgz:473165.got - 2010.06.03 11:33:40.
