data_PCOD9047889
_publ_section_title
;
Structure prediction by ZEFSAII (Michael W. Deem and Ramdas Pophale) SiO2 
 PCOD9047889
Probable space group: P -1
;
_chemical_formula_sum "Si O2"
_cell_formula_units_Z 12
_cell_length_a 5.095061
_cell_length_b 9.669232
_cell_length_c 12.895802
_cell_angle_alpha 50.896563
_cell_angle_beta 91.571101
_cell_angle_gamma 72.620909
_cell_volume 450.084390
_symmetry_space_group_name_H-M "P -1"
_symmetry_group_IT_number 2
_symmetry_cell_setting 'triclinic'
loop_
_space_group_symop_operation_xyz
x,y,z
-x,-y,-z
loop_
_atom_site_type_symbol
_atom_site_label
_atom_site_fract_x
_atom_site_fract_y
_atom_site_fract_z
Si Si1 0.585603 0.662920 0.473705
Si Si2 0.650108 0.825427 0.192480
Si Si3 0.755427 0.389003 0.782422
Si Si4 0.262364 0.051733 0.382102
Si Si5 0.273706 0.623240 0.821479
Si Si6 0.411464 0.235845 0.092461
O O1 0.500000 0.500000 0.500000
O O2 0.737187 0.741123 0.351356
O O3 0.765538 0.555330 0.625850
O O4 0.311174 0.846817 0.426577
O O5 0.920464 0.766226 0.148073
O O6 0.508511 0.055998 0.100434
O O7 0.564075 0.273282 0.796976
O O8 0.576590 0.512645 0.818313
O O9 0.309872 0.169010 0.228241
O O10 0.942819 0.204999 0.334669
O O11 0.500000 0.000000 0.500000
O O12 0.320430 0.723950 0.878740
O O13 0.206608 0.438782 0.941178
#
# Coordination Sequence:
#
# PCOD9047889 Si02
#       6
#     2   2   2   2   2   2
#     4   9  21  41  68  99 141 185 235 292 355 423
#     4  10  24  44  71 104 142 192 239 297 359 429
#     4  11  24  43  70 107 144 186 241 299 359 431
#     4  11  24  44  72 105 141 185 241 299 358 429
#     4  11  26  45  71 103 147 188 241 297 362 432
#     4  10  25  47  71 102 142 196 238 295 361 431
#
# _framework density 26.661669
#
# number of rings (size 3 to 8) (size 9 to 14) (size 15 to 20)
#    0.000    1.667    0.000    2.000   11.667    4.000 
#    0.000    0.000    0.000    0.000    0.000    0.000 
#    0.000    0.000    0.000    0.000    0.000    0.000 
#
# Total GULP energy -67135.847479 kJ/mol
# GULP energy per Si atom -5594.653957 kJ/mol
# Density = 2.660099 g / cm^3
# Si number density = 26.661669 Si / 1000 Ang^3
#
#
#
# Elastic Constant Matrix: (Units=GPa)
#
#
# Indices 1 2 3 4 5 6 
#
# 1 119.1982 82.0518 29.8943 -3.4700 11.0640 -17.0731
# 2 82.0518 196.1328 60.8557 -40.5034 12.2510 -3.9421
# 3 29.8943 60.8557 126.9078 -12.9669 21.1749 -23.2654
# 4 -3.4700 -40.5034 -12.9669 51.5779 -0.6023 -12.0606
# 5 11.0640 12.2510 21.1749 -0.6023 32.9995 2.0906
# 6 -17.0731 -3.9421 -23.2654 -12.0606 2.0906 45.8345
#
#
#
# Elastic Compliance Matrix: (Units=1/GPa)
#
#
# Indices 1 2 3 4 5 6 
#
# 1 0.013144 -0.006031 0.000788 -0.002706 -0.002989 0.004202
# 2 -0.006031 0.009765 -0.002940 0.006229 0.000478 -0.001282
# 3 0.000788 -0.002940 0.011800 0.002252 -0.007144 0.006949
# 4 -0.002706 0.006229 0.002252 0.026445 -0.002859 0.007760
# 5 -0.002989 0.000478 -0.007144 -0.002859 0.036109 -0.007098
# 6 0.004202 -0.001282 0.006949 0.007760 -0.007098 0.029165
#
#
# Mechanical properties :
#
#
# Convention : Reuss Voigt Hill
#
# Bulk Modulus (GPa) = 54.51685 87.53803 71.02744
# Shear Modulus (GPa) = 33.57802 44.04487 38.81144
#
# Velocity S-wave (km/s) = 3.55267 4.06888 3.81951
# Velocity P-wave (km/s) = 6.10906 7.41475 6.79335
#
# Compressibility (1/GPa) = 0.01834295
#
# Stress axis : x y z
#
# Youngs Moduli (GPa) = 76.08264 102.41174 84.74715
#
# Poissons Ratio (x) = 0.61763 -0.06682
# Poissons Ratio (y) = 0.45884 0.24917
# Poissons Ratio (z) = -0.05999 0.30110
#
# Static dielectric constant tensor:
#      x y z
#    x 2.240910 -0.056690 -0.001500 
#    y -0.056690 2.079660 0.047350 
#    z -0.001500 0.047350 2.157830 
# 
# From -- ./inp_files/482536.got.cif
#   From: 2010.05.17/outbox.cif.g08.bks.cpg/sg2_242_cif.got.tgz:482536.got - 2010.06.03 11:33:40.
