data_PCOD9047037
_publ_section_title
;
Structure prediction by ZEFSAII (Michael W. Deem and Ramdas Pophale) SiO2 
 PCOD9047037
Probable space group: P -1
;
_chemical_formula_sum "Si O2"
_cell_formula_units_Z 16
_cell_length_a 9.242788
_cell_length_b 10.272695
_cell_length_c 10.090595
_cell_angle_alpha 130.488965
_cell_angle_beta 108.942960
_cell_angle_gamma 59.996163
_cell_volume 631.008106
_symmetry_space_group_name_H-M "P -1"
_symmetry_group_IT_number 2
_symmetry_cell_setting 'triclinic'
loop_
_space_group_symop_operation_xyz
x,y,z
-x,-y,-z
loop_
_atom_site_type_symbol
_atom_site_label
_atom_site_fract_x
_atom_site_fract_y
_atom_site_fract_z
Si Si1 0.647566 0.573756 0.499113
Si Si2 0.861517 0.770880 0.635307
Si Si3 0.849201 0.160473 0.311818
Si Si4 0.687576 0.089945 0.467793
Si Si5 0.969203 0.776099 0.962544
Si Si6 0.517084 0.131889 0.809971
Si Si7 0.700196 0.325125 0.849705
Si Si8 0.678228 0.663060 0.876824
O O1 0.789747 0.615294 0.492054
O O2 0.306074 0.645953 0.641148
O O3 0.475586 0.718160 0.483260
O O4 0.650456 0.629461 0.692000
O O5 0.996460 0.779957 0.578970
O O6 0.694503 0.958273 0.733410
O O7 0.955876 0.736756 0.780209
O O8 0.807229 0.068866 0.367146
O O9 0.896799 0.999751 0.110637
O O10 0.762467 0.139875 0.653167
O O11 0.619121 0.927138 0.343221
O O12 0.157065 0.692515 0.015303
O O13 0.848413 0.697288 0.951005
O O14 0.543242 0.304630 0.863281
O O15 0.461978 0.168109 0.971161
O O16 0.686882 0.488880 0.853158
#
# Coordination Sequence:
#
# PCOD9047037 Si02
#       8
#     2   2   2   2   2   2   2   2
#     4  10  24  43  70  98 128 166 219 272 321 381
#     4  10  24  43  70  98 128 166 219 272 321 381
#     4  12  21  43  69  96 132 166 216 272 320 383
#     4  11  25  43  67  99 130 171 216 265 325 387
#     4  11  25  43  67  99 130 171 216 265 325 387
#     4  11  24  45  68  96 130 170 221 267 320 380
#     4  12  25  45  64  94 138 173 215 262 324 390
#     4  11  24  45  68  96 130 170 221 267 320 380
#
# _framework density 25.356248999999998
#
# number of rings (size 3 to 8) (size 9 to 14) (size 15 to 20)
#    0.000    1.000    3.750    2.250    1.750    2.000 
#    2.250    0.000    0.000    0.000    0.000    0.000 
#    0.000    0.000    0.000    0.000    0.000    0.000 
#
# Total GULP energy -89612.440513 kJ/mol
# GULP energy per Si atom -5600.777532 kJ/mol
# Density = 2.529854 g / cm^3
# Si number density = 25.356249 Si / 1000 Ang^3
#
#
#
# Elastic Constant Matrix: (Units=GPa)
#
#
# Indices 1 2 3 4 5 6 
#
# 1 190.0163 14.2882 7.1026 7.1176 23.2866 37.0870
# 2 14.2882 52.6082 -5.4387 9.4142 10.0093 27.2844
# 3 7.1026 -5.4387 31.2635 12.8415 0.8428 6.1898
# 4 7.1176 9.4142 12.8415 34.0175 -0.3050 6.2782
# 5 23.2866 10.0093 0.8428 -0.3050 44.1468 5.5640
# 6 37.0870 27.2844 6.1898 6.2782 5.5640 34.6470
#
#
#
# Elastic Compliance Matrix: (Units=1/GPa)
#
#
# Indices 1 2 3 4 5 6 
#
# 1 0.007626 0.005414 0.002429 -0.001846 -0.003808 -0.011915
# 2 0.005414 0.045102 0.020702 -0.013912 -0.008388 -0.041144
# 3 0.002429 0.020702 0.047997 -0.020116 -0.004110 -0.023173
# 4 -0.001846 -0.013912 -0.020116 0.039645 0.003683 0.008750
# 5 -0.003808 -0.008388 -0.004110 0.003683 0.025834 0.006599
# 6 -0.011915 -0.041144 -0.023173 0.008750 0.006599 0.075512
#
#
# Mechanical properties :
#
#
# Convention : Reuss Voigt Hill
#
# Bulk Modulus (GPa) = 6.33643 33.97690 20.15666
# Shear Modulus (GPa) = 21.07653 39.75798 30.41725
#
# Velocity S-wave (km/s) = 2.88621 3.96406 3.46728
# Velocity P-wave (km/s) = 3.68935 5.86350 4.89857
#
# Compressibility (1/GPa) = 0.15781765
#
# Stress axis : x y z
#
# Youngs Moduli (GPa) = 131.12914 22.17182 20.83447
#
# Poissons Ratio (x) = -0.12004 -0.05061
# Poissons Ratio (y) = -0.70995 -0.43133
# Poissons Ratio (z) = -0.31855 -0.45901
#
# Static dielectric constant tensor:
#      x y z
#    x 2.038950 0.013000 -0.010390 
#    y 0.013000 2.019540 0.035790 
#    z -0.010390 0.035790 2.004270 
# 
# From -- ./inp_files/391431.got.cif
#   From: 2010.05.17/outbox.cif.g08.bks.cpg/sg2_196_cif.got.tgz:391431.got - 2010.06.03 11:33:40.
