data_PCOD9047693
_publ_section_title
;
Structure prediction by ZEFSAII (Michael W. Deem and Ramdas Pophale) SiO2 
 PCOD9047693
Probable space group: P -1
;
_chemical_formula_sum "Si O2"
_cell_formula_units_Z 15
_cell_length_a 10.127524
_cell_length_b 11.491166
_cell_length_c 6.422194
_cell_angle_alpha 115.476714
_cell_angle_beta 82.767395
_cell_angle_gamma 110.033058
_cell_volume 633.692761
_symmetry_space_group_name_H-M "P -1"
_symmetry_group_IT_number 2
_symmetry_cell_setting 'triclinic'
loop_
_space_group_symop_operation_xyz
x,y,z
-x,-y,-z
loop_
_atom_site_type_symbol
_atom_site_label
_atom_site_fract_x
_atom_site_fract_y
_atom_site_fract_z
Si Si1 0.271937 0.888639 0.821287
Si Si2 0.557783 0.656204 0.679607
Si Si3 0.787477 0.719519 0.356125
Si Si4 0.801998 0.844106 0.048408
Si Si5 0.500000 0.000000 0.500000
Si Si6 0.142743 0.504768 0.093645
Si Si7 0.365725 0.763730 0.075221
Si Si8 0.022203 0.299780 0.314614
O O1 0.145014 0.752271 0.682040
O O2 0.221808 0.020577 0.921262
O O3 0.397714 0.917700 0.653260
O O4 0.309220 0.868683 0.038022
O O5 0.500000 0.500000 0.500000
O O6 0.650151 0.719982 0.509443
O O7 0.673719 0.714893 0.884680
O O8 0.427735 0.695011 0.825480
O O9 0.818668 0.846327 0.294386
O O10 0.904165 0.709150 0.489252
O O11 0.781344 0.592802 0.109862
O O12 0.938919 0.814337 0.915655
O O13 0.517191 0.144252 0.725770
O O14 0.249500 0.654252 0.148100
O O15 0.093271 0.440175 0.281845
O O16 0.000000 0.500000 0.000000
#
# Coordination Sequence:
#
# PCOD9047693 Si02
#       8
#     2   2   2   2   1   2   2   2
#     4  12  26  47  73 107 152 194 247 299 366 457
#     4  11  23  46  73 106 144 194 248 305 366 435
#     4  10  24  44  69 107 146 189 247 310 363 433
#     4  10  24  45  69 106 146 191 252 295 369 442
#     4  12  30  44  68 110 152 200 234 288 378 442
#     4  11  23  46  73 111 148 184 251 310 372 437
#     4  12  27  49  74 110 153 194 244 307 370 446
#     4  10  24  45  75 109 141 191 248 312 372 425
#
# _framework density 23.670777000000001
#
# number of rings (size 3 to 8) (size 9 to 14) (size 15 to 20)
#    0.000    1.067    4.000    0.800    3.733    3.733 
#    4.800    0.000    0.000    0.000    0.000    0.000 
#    0.000    0.000    0.000    0.000    0.000    0.000 
#
# Total GULP energy -83505.839694 kJ/mol
# GULP energy per Si atom -5567.055980 kJ/mol
# Density = 2.361690 g / cm^3
# Si number density = 23.670777 Si / 1000 Ang^3
#
#
#
# Elastic Constant Matrix: (Units=GPa)
#
#
# Indices 1 2 3 4 5 6 
#
# 1 62.2113 49.5905 18.5850 -11.6590 -1.9776 3.6381
# 2 49.5905 92.8502 47.6632 -2.4884 8.3239 6.2679
# 3 18.5850 47.6632 94.6713 -5.4427 -16.2352 1.5280
# 4 -11.6590 -2.4884 -5.4427 31.6715 -10.2347 4.5614
# 5 -1.9776 8.3239 -16.2352 -10.2347 34.2510 -3.6953
# 6 3.6381 6.2679 1.5280 4.5614 -3.6953 47.8204
#
#
#
# Elastic Compliance Matrix: (Units=1/GPa)
#
#
# Indices 1 2 3 4 5 6 
#
# 1 0.040061 -0.028493 0.011290 0.021222 0.020922 -0.000081
# 2 -0.028493 0.037527 -0.018698 -0.018641 -0.025451 -0.002342
# 3 0.011290 -0.018698 0.021787 0.012526 0.019396 0.001200
# 4 0.021222 -0.018641 0.012526 0.048808 0.026039 -0.002215
# 5 0.020922 -0.025451 0.019396 0.026039 0.053866 0.002803
# 6 -0.000081 -0.002342 0.001200 -0.002215 0.002803 0.021614
#
#
# Mechanical properties :
#
#
# Convention : Reuss Voigt Hill
#
# Bulk Modulus (GPa) = 36.26820 53.48998 44.87909
# Shear Modulus (GPa) = 16.41189 31.67485 24.04337
#
# Velocity S-wave (km/s) = 2.63599 3.66203 3.19053
# Velocity P-wave (km/s) = 4.96183 6.36609 5.70732
#
# Compressibility (1/GPa) = 0.02757236
#
# Stress axis : x y z
#
# Youngs Moduli (GPa) = 24.96173 26.64776 45.89849
#
# Poissons Ratio (x) = 0.75928 -0.51820
# Poissons Ratio (y) = 0.71124 0.85821
# Poissons Ratio (z) = -0.28182 0.49826
#
# Static dielectric constant tensor:
#      x y z
#    x 2.541980 0.084310 -0.722090 
#    y 0.084310 1.926770 -0.107500 
#    z -0.722090 -0.107500 2.841380 
# 
# From -- ./inp_files/67584.got.cif
#   From: 2010.05.17/outbox.cif.g08.bks.cpg/sg2_34_cif.got.tgz:67584.got - 2010.06.03 11:33:40.
