data_PCOD9047637
_publ_section_title
;
Structure prediction by ZEFSAII (Michael W. Deem and Ramdas Pophale) SiO2 
 PCOD9047637
Probable space group: P -1
;
_chemical_formula_sum "Si O2"
_cell_formula_units_Z 14
_cell_length_a 20.519962
_cell_length_b 11.780783
_cell_length_c 15.344594
_cell_angle_alpha 26.750605
_cell_angle_beta 159.259288
_cell_angle_gamma 152.175171
_cell_volume 562.323591
_symmetry_space_group_name_H-M "P -1"
_symmetry_group_IT_number 2
_symmetry_cell_setting 'triclinic'
loop_
_space_group_symop_operation_xyz
x,y,z
-x,-y,-z
loop_
_atom_site_type_symbol
_atom_site_label
_atom_site_fract_x
_atom_site_fract_y
_atom_site_fract_z
Si Si1 0.226217 0.844898 0.907557
Si Si2 0.981725 0.053982 0.248976
Si Si3 0.353303 0.347674 0.594632
Si Si4 0.606757 0.085925 0.666411
Si Si5 0.118046 0.578368 0.681213
Si Si6 0.605838 0.025937 0.349854
Si Si7 0.790903 0.610156 0.909254
O O1 0.112208 0.930428 0.784594
O O2 0.291349 0.080184 0.757368
O O3 0.418437 0.825998 0.208721
O O4 0.119545 0.567555 0.917690
O O5 0.184584 0.290631 0.349627
O O6 0.816673 0.052318 0.972495
O O7 0.040094 0.790817 0.487508
O O8 0.361822 0.604809 0.486205
O O9 0.569513 0.418004 0.779192
O O10 0.461484 0.925486 0.671301
O O11 0.500000 0.000000 0.500000
O O12 0.000000 0.500000 0.500000
O O13 0.328259 0.727730 0.801527
O O14 0.118008 0.358337 0.902299
O O15 0.770548 0.882889 0.661468
#
# Coordination Sequence:
#
# PCOD9047637 Si02
#       7
#     2   2   2   2   2   2   2
#     4  11  21  42  69 101 135 174 230 283 343 392
#     4  11  25  42  66 103 137 175 232 287 332 399
#     4  11  21  40  71  98 134 179 229 278 335 402
#     4  10  25  45  68  97 143 183 224 279 348 406
#     4  12  27  45  68 100 141 180 230 280 338 410
#     4  10  24  44  68  98 134 182 226 277 342 409
#     4  11  23  43  71  98 137 181 227 279 342 403
#
# _framework density 24.896698000000001
#
# number of rings (size 3 to 8) (size 9 to 14) (size 15 to 20)
#    0.000    1.143    2.857    2.571    4.000    5.143 
#    0.000    2.857    0.000    0.000    0.000    0.000 
#    0.000    0.000    0.000    0.000    0.000    0.000 
#
# Total GULP energy -78348.742477 kJ/mol
# GULP energy per Si atom -5596.338748 kJ/mol
# Density = 2.484003 g / cm^3
# Si number density = 24.896698 Si / 1000 Ang^3
#
#
#
# Elastic Constant Matrix: (Units=GPa)
#
#
# Indices 1 2 3 4 5 6 
#
# 1 95.8875 9.8443 39.1597 13.2311 -24.7183 -18.0116
# 2 9.8443 49.8637 21.9781 11.0524 -7.2917 -12.8421
# 3 39.1597 21.9781 102.9516 13.8623 -22.5987 -10.6460
# 4 13.2311 11.0524 13.8623 36.9396 -0.0744 -18.1806
# 5 -24.7183 -7.2917 -22.5987 -0.0744 45.7329 6.3352
# 6 -18.0116 -12.8421 -10.6460 -18.1806 6.3352 40.0089
#
#
#
# Elastic Compliance Matrix: (Units=1/GPa)
#
#
# Indices 1 2 3 4 5 6 
#
# 1 0.014309 0.001133 -0.003789 -0.002068 0.005486 0.003989
# 2 0.001133 0.024041 -0.004198 -0.003411 0.001631 0.005302
# 3 -0.003789 -0.004198 0.013186 -0.003112 0.004014 -0.001594
# 4 -0.002068 -0.003411 -0.003112 0.037343 -0.005208 0.014940
# 5 0.005486 0.001631 0.004014 -0.005208 0.027434 -0.002649
# 6 0.003989 0.005302 -0.001594 0.014940 -0.002649 0.035276
#
#
# Mechanical properties :
#
#
# Convention : Reuss Voigt Hill
#
# Bulk Modulus (GPa) = 26.43519 43.40743 34.92131
# Shear Modulus (GPa) = 28.10476 36.38432 32.24454
#
# Velocity S-wave (km/s) = 3.36349 3.82699 3.60270
# Velocity P-wave (km/s) = 5.07199 6.08282 5.60026
#
# Compressibility (1/GPa) = 0.03782837
#
# Stress axis : x y z
#
# Youngs Moduli (GPa) = 69.88630 41.59530 75.83757
#
# Poissons Ratio (x) = -0.04714 0.28738
# Poissons Ratio (y) = -0.07920 0.31834
# Poissons Ratio (z) = 0.26483 0.17460
#
# Static dielectric constant tensor:
#      x y z
#    x 2.025590 0.038000 0.006420 
#    y 0.038000 1.986910 0.047470 
#    z 0.006420 0.047470 2.043160 
# 
# From -- ./inp_files/207292.got.cif
#   From: 2010.05.17/outbox.cif.g08.bks.cpg/sg2_104_cif.got.tgz:207292.got - 2010.06.03 11:33:40.
