data_PCOD9047876
_publ_section_title
;
Structure prediction by ZEFSAII (Michael W. Deem and Ramdas Pophale) SiO2 
 PCOD9047876
Probable space group: P -1
;
_chemical_formula_sum "Si O2"
_cell_formula_units_Z 14
_cell_length_a 10.397238
_cell_length_b 8.412891
_cell_length_c 7.887826
_cell_angle_alpha 69.055754
_cell_angle_beta 79.464489
_cell_angle_gamma 65.228481
_cell_volume 584.632434
_symmetry_space_group_name_H-M "P -1"
_symmetry_group_IT_number 2
_symmetry_cell_setting 'triclinic'
loop_
_space_group_symop_operation_xyz
x,y,z
-x,-y,-z
loop_
_atom_site_type_symbol
_atom_site_label
_atom_site_fract_x
_atom_site_fract_y
_atom_site_fract_z
Si Si1 0.162259 0.218091 0.971801
Si Si2 0.362721 0.669093 0.020332
Si Si3 0.586008 0.000170 0.222834
Si Si4 0.313845 0.995323 0.434436
Si Si5 0.823672 0.162510 0.709664
Si Si6 0.024260 0.319141 0.449692
Si Si7 0.135847 0.595760 0.909260
O O1 0.993568 0.328336 0.954455
O O2 0.162388 0.029957 0.129559
O O3 0.270933 0.164466 0.809913
O O4 0.203057 0.373873 0.997626
O O5 0.244626 0.687411 0.899369
O O6 0.416700 0.834326 0.956510
O O7 0.500000 0.500000 0.000000
O O8 0.281412 0.672477 0.213781
O O9 0.611672 0.054378 0.384783
O O10 0.436451 0.981330 0.275168
O O11 0.186627 0.195589 0.408960
O O12 0.246390 0.853863 0.443993
O O13 0.967494 0.188369 0.625377
O O14 0.932480 0.362501 0.279324
O O15 0.000000 0.500000 0.500000
#
# Coordination Sequence:
#
# PCOD9047876 Si02
#       7
#     2   2   2   2   2   2   2
#     4  10  24  44  71 103 132 186 227 288 344 413
#     4  11  28  44  70 103 140 183 231 288 342 414
#     4  10  25  44  71  99 141 184 231 279 354 413
#     4  11  24  46  69 102 139 184 228 288 346 414
#     4  11  26  44  74  98 139 184 233 284 346 409
#     4  12  27  46  73 105 138 183 235 290 343 414
#     4  11  25  46  70 105 142 178 232 290 346 407
#
# _framework density 23.946667999999999
#
# number of rings (size 3 to 8) (size 9 to 14) (size 15 to 20)
#    0.000    1.143    1.429    2.143   14.000    2.286 
#    0.000    1.429    0.000    0.000    0.000    0.000 
#    0.000    0.000    0.000    0.000    0.000    0.000 
#
# Total GULP energy -78179.171067 kJ/mol
# GULP energy per Si atom -5584.226505 kJ/mol
# Density = 2.389216 g / cm^3
# Si number density = 23.946668 Si / 1000 Ang^3
#
#
#
# Elastic Constant Matrix: (Units=GPa)
#
#
# Indices 1 2 3 4 5 6 
#
# 1 96.8180 25.6436 33.8946 19.2863 -19.6468 6.9880
# 2 25.6436 88.4638 34.8949 34.1468 -18.2434 -3.9033
# 3 33.8946 34.8949 102.1008 19.9807 -22.0356 -2.7383
# 4 19.2863 34.1468 19.9807 40.7597 2.1882 -9.7258
# 5 -19.6468 -18.2434 -22.0356 2.1882 52.7480 4.9862
# 6 6.9880 -3.9033 -2.7383 -9.7258 4.9862 29.3336
#
#
#
# Elastic Compliance Matrix: (Units=1/GPa)
#
#
# Indices 1 2 3 4 5 6 
#
# 1 0.014258 0.000867 -0.002373 -0.008338 0.005648 -0.007227
# 2 0.000867 0.020119 -0.002184 -0.017774 0.007571 -0.004913
# 3 -0.002373 -0.002184 0.012885 -0.003673 0.003935 -0.000409
# 4 -0.008338 -0.017774 -0.003673 0.050360 -0.014621 0.018461
# 5 0.005648 0.007571 0.003935 -0.014621 0.026817 -0.009377
# 6 -0.007227 -0.004913 -0.000409 0.018461 -0.009377 0.042835
#
#
# Mechanical properties :
#
#
# Convention : Reuss Voigt Hill
#
# Bulk Modulus (GPa) = 25.07254 52.91653 38.99454
# Shear Modulus (GPa) = 26.60304 37.43156 32.01730
#
# Velocity S-wave (km/s) = 3.33668 3.95792 3.66050
# Velocity P-wave (km/s) = 5.03363 6.55992 5.84679
#
# Compressibility (1/GPa) = 0.03988427
#
# Stress axis : x y z
#
# Youngs Moduli (GPa) = 70.13395 49.70396 77.60746
#
# Poissons Ratio (x) = -0.04310 0.18415
# Poissons Ratio (y) = -0.06081 0.16946
# Poissons Ratio (z) = 0.16642 0.10853
#
# Static dielectric constant tensor:
#      x y z
#    x 1.900850 -0.009770 0.029440 
#    y -0.009770 1.948340 -0.019930 
#    z 0.029440 -0.019930 2.003490 
# 
# From -- ./inp_files/242857.got.cif
#   From: 2010.05.17/outbox.cif.g08.bks.cpg/sg2_122_cif.got.tgz:242857.got - 2010.06.03 11:33:40.
