data_PCOD9047414
_publ_section_title
;
Structure prediction by ZEFSAII (Michael W. Deem and Ramdas Pophale) SiO2 
 PCOD9047414
Probable space group: P -1
;
_chemical_formula_sum "Si O2"
_cell_formula_units_Z 16
_cell_length_a 11.542182
_cell_length_b 9.308102
_cell_length_c 9.754341
_cell_angle_alpha 61.089703
_cell_angle_beta 131.822080
_cell_angle_gamma 109.239307
_cell_volume 683.597308
_symmetry_space_group_name_H-M "P -1"
_symmetry_group_IT_number 2
_symmetry_cell_setting 'triclinic'
loop_
_space_group_symop_operation_xyz
x,y,z
-x,-y,-z
loop_
_atom_site_type_symbol
_atom_site_label
_atom_site_fract_x
_atom_site_fract_y
_atom_site_fract_z
Si Si1 0.993141 0.582480 0.311009
Si Si2 0.198573 0.835559 0.954523
Si Si3 0.504292 0.323985 0.661875
Si Si4 0.919214 0.626055 0.775658
Si Si5 0.380142 0.363594 0.028722
Si Si6 0.154419 0.904200 0.204714
Si Si7 0.355827 0.192825 0.365264
Si Si8 0.370352 0.134665 0.872026
O O1 0.082566 0.472809 0.320777
O O2 0.000000 0.500000 0.500000
O O3 0.090112 0.752472 0.312085
O O4 0.806782 0.599328 0.124260
O O5 0.340151 0.706009 0.111655
O O6 0.195857 0.842965 0.113675
O O7 0.043471 0.770856 0.794428
O O8 0.224309 0.015557 0.830080
O O9 0.500000 0.500000 0.500000
O O10 0.482764 0.186283 0.588855
O O11 0.373381 0.273921 0.693768
O O12 0.773886 0.700260 0.706873
O O13 0.000000 0.500000 0.000000
O O14 0.423322 0.296837 0.243594
O O15 0.500000 0.500000 0.000000
O O16 0.395324 0.217760 0.998929
O O17 0.276573 0.026514 0.320336
O O18 0.000000 0.000000 0.000000
O O19 0.500000 0.000000 0.000000
#
# Coordination Sequence:
#
# PCOD9047414 Si02
#       8
#     2   2   2   2   2   2   2   2
#     4  12  29  46  71 110 144 180 237 299 350 413
#     4  11  22  43  75  95 140 186 233 289 347 423
#     4  11  26  42  68 104 143 178 236 293 348 415
#     4  12  22  44  76  99 136 192 238 275 359 429
#     4  12  25  45  71 101 144 184 231 289 357 418
#     4  12  21  46  72  99 137 189 233 286 347 420
#     4  12  25  44  73 105 136 192 238 285 356 421
#     4  10  24  44  66  97 139 183 228 283 354 409
#
# _framework density 23.405594000000001
#
# number of rings (size 3 to 8) (size 9 to 14) (size 15 to 20)
#    0.000    0.500    6.250    1.500    5.250    2.500 
#    2.250    1.250    0.000    0.000    0.000    0.000 
#    0.000    0.000    0.000    0.000    0.000    0.000 
#
# Total GULP energy -89360.145371 kJ/mol
# GULP energy per Si atom -5585.009086 kJ/mol
# Density = 2.335232 g / cm^3
# Si number density = 23.405594 Si / 1000 Ang^3
#
#
#
# Elastic Constant Matrix: (Units=GPa)
#
#
# Indices 1 2 3 4 5 6 
#
# 1 84.4436 46.4353 26.4183 -21.8223 -18.2570 1.2590
# 2 46.4353 141.2429 9.3650 -7.6240 -16.0969 21.7919
# 3 26.4183 9.3650 69.7031 -7.3582 -31.8374 2.4023
# 4 -21.8223 -7.6240 -7.3582 35.1016 7.3961 -11.9075
# 5 -18.2570 -16.0969 -31.8374 7.3961 51.6942 -5.7314
# 6 1.2590 21.7919 2.4023 -11.9075 -5.7314 57.9820
#
#
#
# Elastic Compliance Matrix: (Units=1/GPa)
#
#
# Indices 1 2 3 4 5 6 
#
# 1 0.019939 -0.006207 -0.005373 0.011308 0.000682 0.004512
# 2 -0.006207 0.009673 0.001718 -0.003163 0.001883 -0.004035
# 3 -0.005373 0.001718 0.021534 -0.001143 0.012011 -0.000469
# 4 0.011308 -0.003163 -0.001143 0.037958 -0.002176 0.008571
# 5 0.000682 0.001883 0.012011 -0.002176 0.028003 0.001101
# 6 0.004512 -0.004035 -0.000469 0.008571 0.001101 0.020554
#
#
# Mechanical properties :
#
#
# Convention : Reuss Voigt Hill
#
# Bulk Modulus (GPa) = 31.82472 51.09187 41.45829
# Shear Modulus (GPa) = 29.78681 43.16694 36.47688
#
# Velocity S-wave (km/s) = 3.57127 4.29919 3.95203
# Velocity P-wave (km/s) = 5.53461 6.82058 6.21097
#
# Compressibility (1/GPa) = 0.03142211
#
# Stress axis : x y z
#
# Youngs Moduli (GPa) = 50.15275 103.37835 46.43819
#
# Poissons Ratio (x) = 0.64167 0.24953
# Poissons Ratio (y) = 0.31130 -0.07979
# Poissons Ratio (z) = 0.26949 -0.17763
#
# Static dielectric constant tensor:
#      x y z
#    x 1.913980 0.070370 0.104760 
#    y 0.070370 2.022940 -0.005240 
#    z 0.104760 -0.005240 1.893320 
# 
# From -- ./inp_files/242706.got.cif
#   From: 2010.05.17/outbox.cif.g08.bks.cpg/sg2_122_cif.got.tgz:242706.got - 2010.06.03 11:33:40.
