data_PCOD9047111
_publ_section_title
;
Structure prediction by ZEFSAII (Michael W. Deem and Ramdas Pophale) SiO2 
 PCOD9047111
Probable space group: P -1
;
_chemical_formula_sum "Si O2"
_cell_formula_units_Z 16
_cell_length_a 13.832564
_cell_length_b 11.584682
_cell_length_c 8.660041
_cell_angle_alpha 95.722205
_cell_angle_beta 149.280839
_cell_angle_gamma 77.830077
_cell_volume 683.668520
_symmetry_space_group_name_H-M "P -1"
_symmetry_group_IT_number 2
_symmetry_cell_setting 'triclinic'
loop_
_space_group_symop_operation_xyz
x,y,z
-x,-y,-z
loop_
_atom_site_type_symbol
_atom_site_label
_atom_site_fract_x
_atom_site_fract_y
_atom_site_fract_z
Si Si1 0.367776 0.210423 0.565460
Si Si2 0.872442 0.363432 0.376358
Si Si3 0.542389 0.528811 0.738063
Si Si4 0.547712 0.877673 0.645146
Si Si5 0.679860 0.163732 0.203101
Si Si6 0.836503 0.516075 0.643650
Si Si7 0.807076 0.012548 0.640522
Si Si8 0.298095 0.252819 0.899728
O O1 0.372497 0.219509 0.387825
O O2 0.266590 0.343587 0.499097
O O3 0.253526 0.112434 0.446642
O O4 0.593797 0.152101 0.914340
O O5 0.799626 0.262744 0.358785
O O6 0.906821 0.456638 0.567102
O O7 0.074113 0.307087 0.558323
O O8 0.702223 0.425623 0.032666
O O9 0.500000 0.500000 0.500000
O O10 0.337694 0.541991 0.546826
O O11 0.624852 0.645419 0.889420
O O12 0.349377 0.885080 0.467152
O O13 0.500000 0.000000 0.500000
O O14 0.699701 0.854720 0.991089
O O15 0.796841 0.056421 0.455586
O O16 0.465858 0.207690 0.997827
O O17 0.000000 0.500000 0.000000
O O18 0.000000 0.000000 0.000000
#
# Coordination Sequence:
#
# PCOD9047111 Si02
#       8
#     2   2   2   2   2   2   2   2
#     4  11  22  44  67  95 141 178 224 288 345 406
#     4  12  25  46  70 102 146 189 229 288 352 407
#     4  12  24  42  63 100 139 181 234 283 338 416
#     4   9  21  41  67  95 132 173 224 283 346 399
#     4  11  24  45  71 100 141 182 227 285 350 412
#     4  12  25  41  70 104 142 188 233 283 351 418
#     4  10  24  43  72 100 133 176 231 287 347 415
#     4  11  24  43  69  97 141 183 231 285 346 410
#
# _framework density 23.403155000000002
#
# number of rings (size 3 to 8) (size 9 to 14) (size 15 to 20)
#    0.000    1.000    2.500    4.125    5.250    1.000 
#    2.250    1.875    0.000    0.000    0.000    0.000 
#    0.000    0.000    0.000    0.000    0.000    0.000 
#
# Total GULP energy -89379.476933 kJ/mol
# GULP energy per Si atom -5586.217308 kJ/mol
# Density = 2.334989 g / cm^3
# Si number density = 23.403155 Si / 1000 Ang^3
#
#
#
# Elastic Constant Matrix: (Units=GPa)
#
#
# Indices 1 2 3 4 5 6 
#
# 1 63.1830 5.4511 6.0469 -8.4864 -0.8379 8.0954
# 2 5.4511 75.6720 12.2758 6.4967 0.0201 23.8343
# 3 6.0469 12.2758 143.7802 -8.6511 -0.0860 18.1267
# 4 -8.4864 6.4967 -8.6511 33.4787 6.9391 -7.2750
# 5 -0.8379 0.0201 -0.0860 6.9391 37.9327 -7.0961
# 6 8.0954 23.8343 18.1267 -7.2750 -7.0961 36.1133
#
#
#
# Elastic Compliance Matrix: (Units=1/GPa)
#
#
# Indices 1 2 3 4 5 6 
#
# 1 0.016753 -0.000712 -0.000076 0.003973 -0.000845 -0.002613
# 2 -0.000712 0.017978 -0.000231 -0.006305 -0.001327 -0.013120
# 3 -0.000076 -0.000231 0.007501 0.001390 -0.000892 -0.003491
# 4 0.003973 -0.006305 0.001390 0.035345 -0.004732 0.008763
# 5 -0.000845 -0.001327 -0.000892 -0.004732 0.028355 0.006131
# 6 -0.002613 -0.013120 -0.003491 0.008763 0.006131 0.041658
#
#
# Mechanical properties :
#
#
# Convention : Reuss Voigt Hill
#
# Bulk Modulus (GPa) = 24.87949 36.68698 30.78324
# Shear Modulus (GPa) = 30.66998 38.76238 34.71618
#
# Velocity S-wave (km/s) = 3.62402 4.07417 3.85567
# Velocity P-wave (km/s) = 5.30709 6.15158 5.74487
#
# Compressibility (1/GPa) = 0.04019375
#
# Stress axis : x y z
#
# Youngs Moduli (GPa) = 59.69105 55.62385 133.31218
#
# Poissons Ratio (x) = 0.03962 0.01010
# Poissons Ratio (y) = 0.04252 0.03080
# Poissons Ratio (z) = 0.00452 0.01285
#
# Static dielectric constant tensor:
#      x y z
#    x 1.963240 -0.026420 -0.058050 
#    y -0.026420 1.992420 -0.013190 
#    z -0.058050 -0.013190 1.915150 
# 
# From -- ./inp_files/226287.got.cif
#   From: 2010.05.17/outbox.cif.g08.bks.cpg/sg2_114_cif.got.tgz:226287.got - 2010.06.03 11:33:40.
