data_PCOD9047123
_publ_section_title
;
Structure prediction by ZEFSAII (Michael W. Deem and Ramdas Pophale) SiO2 
 PCOD9047123
Probable space group: P -1
;
_chemical_formula_sum "Si O2"
_cell_formula_units_Z 16
_cell_length_a 12.067979
_cell_length_b 14.837218
_cell_length_c 9.528333
_cell_angle_alpha 74.267064
_cell_angle_beta 64.119869
_cell_angle_gamma 29.511635
_cell_volume 733.040697
_symmetry_space_group_name_H-M "P -1"
_symmetry_group_IT_number 2
_symmetry_cell_setting 'triclinic'
loop_
_space_group_symop_operation_xyz
x,y,z
-x,-y,-z
loop_
_atom_site_type_symbol
_atom_site_label
_atom_site_fract_x
_atom_site_fract_y
_atom_site_fract_z
Si Si1 0.057443 0.013847 0.646078
Si Si2 0.148615 0.114184 0.762722
Si Si3 0.953865 0.381774 0.534888
Si Si4 0.693221 0.706628 0.739744
Si Si5 0.140568 0.670738 0.881952
Si Si6 0.260318 0.379598 0.931092
Si Si7 0.508405 0.425513 0.394132
Si Si8 0.791772 0.011871 0.717354
O O1 0.298231 0.787225 0.603758
O O2 0.084655 0.059525 0.473274
O O3 0.057355 0.078719 0.754203
O O4 0.830309 0.091199 0.727334
O O5 0.124919 0.210557 0.619091
O O6 0.427578 0.914576 0.743760
O O7 0.984052 0.248239 0.931286
O O8 0.802505 0.556861 0.637518
O O9 0.753710 0.445730 0.550227
O O10 0.118107 0.330474 0.355244
O O11 0.674309 0.677566 0.917420
O O12 0.222642 0.513154 0.861316
O O13 0.373362 0.587722 0.786497
O O14 0.942683 0.842908 0.806400
O O15 0.500132 0.182731 0.798505
O O16 0.000000 0.500000 0.000000
O O17 0.500000 0.500000 0.500000
#
# Coordination Sequence:
#
# PCOD9047123 Si02
#       8
#     2   2   2   2   2   2   2   2
#     4  10  24  43  72 103 139 190 221 294 354 408
#     4  12  24  46  71 105 140 181 234 288 356 414
#     4  11  26  44  72 102 142 191 233 286 348 417
#     4  11  25  49  67 102 145 186 239 281 347 429
#     4  11  26  45  70 105 138 181 231 289 353 412
#     4  12  27  45  72  99 140 187 231 290 350 418
#     4  11  25  45  73 107 143 181 241 289 347 418
#     4  10  24  46  66 102 145 174 236 282 344 426
#
# _framework density 21.826891
#
# number of rings (size 3 to 8) (size 9 to 14) (size 15 to 20)
#    0.000    1.000    3.750    1.125   10.500    4.000 
#    2.250    0.000    0.000    0.000    0.000    0.000 
#    0.000    0.000    0.000    0.000    0.000    0.000 
#
# Total GULP energy -89584.631225 kJ/mol
# GULP energy per Si atom -5599.039452 kJ/mol
# Density = 2.177721 g / cm^3
# Si number density = 21.826891 Si / 1000 Ang^3
#
#
#
# Elastic Constant Matrix: (Units=GPa)
#
#
# Indices 1 2 3 4 5 6 
#
# 1 90.1388 41.9968 3.5497 -1.7490 -18.5071 -15.9345
# 2 41.9968 96.5988 20.2027 -8.8296 -10.5896 1.4665
# 3 3.5497 20.2027 37.4358 -21.8278 -10.9651 5.6909
# 4 -1.7490 -8.8296 -21.8278 28.8503 3.9314 -5.4444
# 5 -18.5071 -10.5896 -10.9651 3.9314 30.6582 3.3944
# 6 -15.9345 1.4665 5.6909 -5.4444 3.3944 35.3522
#
#
#
# Elastic Compliance Matrix: (Units=1/GPa)
#
#
# Indices 1 2 3 4 5 6 
#
# 1 0.017569 -0.007718 0.005992 0.003334 0.008888 0.006935
# 2 -0.007718 0.015226 -0.009601 -0.003331 -0.002088 -0.002877
# 3 0.005992 -0.009601 0.059938 0.040107 0.016815 -0.001987
# 4 0.003334 -0.003331 0.040107 0.064143 0.006490 0.004440
# 5 0.008888 -0.002088 0.016815 0.006490 0.042633 -0.001708
# 6 0.006935 -0.002877 -0.001987 0.004440 -0.001708 0.032700
#
#
# Mechanical properties :
#
#
# Convention : Reuss Voigt Hill
#
# Bulk Modulus (GPa) = 14.26934 39.51907 26.89421
# Shear Modulus (GPa) = 17.97129 29.53376 23.75253
#
# Velocity S-wave (km/s) = 2.87253 3.68243 3.30240
# Velocity P-wave (km/s) = 4.18970 6.01875 5.18551
#
# Compressibility (1/GPa) = 0.07008032
#
# Stress axis : x y z
#
# Youngs Moduli (GPa) = 56.91760 65.67819 16.68379
#
# Poissons Ratio (x) = 0.50689 -0.09998
# Poissons Ratio (y) = 0.43927 0.16018
# Poissons Ratio (z) = -0.34107 0.63059
#
# Static dielectric constant tensor:
#      x y z
#    x 1.784930 -0.009300 -0.005080 
#    y -0.009300 1.790730 -0.001910 
#    z -0.005080 -0.001910 1.781740 
# 
# From -- ./inp_files/272872.got.cif
#   From: 2010.05.17/outbox.cif.g08.bks.cpg/sg2_137_cif.got.tgz:272872.got - 2010.06.03 11:33:40.
