data_PCOD9047050
_publ_section_title
;
Structure prediction by ZEFSAII (Michael W. Deem and Ramdas Pophale) SiO2 
 PCOD9047050
Probable space group: P -1
;
_chemical_formula_sum "Si O2"
_cell_formula_units_Z 14
_cell_length_a 12.740369
_cell_length_b 21.537307
_cell_length_c 14.594546
_cell_angle_alpha 152.267466
_cell_angle_beta 37.577775
_cell_angle_gamma 159.228543
_cell_volume 645.791537
_symmetry_space_group_name_H-M "P -1"
_symmetry_group_IT_number 2
_symmetry_cell_setting 'triclinic'
loop_
_space_group_symop_operation_xyz
x,y,z
-x,-y,-z
loop_
_atom_site_type_symbol
_atom_site_label
_atom_site_fract_x
_atom_site_fract_y
_atom_site_fract_z
Si Si1 0.778531 0.206121 0.677785
Si Si2 0.838266 0.724099 0.014595
Si Si3 0.166568 0.442148 0.899354
Si Si4 0.740016 0.245873 0.209271
Si Si5 0.176053 0.227017 0.120932
Si Si6 0.145054 0.971473 0.307374
Si Si7 0.086636 0.707367 0.495984
O O1 0.954699 0.266849 0.545614
O O2 0.945290 0.292716 0.770772
O O3 0.448401 0.930096 0.547996
O O4 0.754060 0.351598 0.870252
O O5 0.049978 0.930092 0.213194
O O6 0.500000 0.500000 0.000000
O O7 0.836765 0.791243 0.004142
O O8 0.006371 0.688276 0.837198
O O9 0.473469 0.561271 0.819977
O O10 0.013385 0.266326 0.859427
O O11 0.914496 0.459676 0.303646
O O12 0.504069 0.181647 0.349345
O O13 0.500000 0.000000 0.000000
O O14 0.035993 0.272962 0.316144
O O15 0.000000 0.000000 0.000000
O O16 0.000000 0.000000 0.500000
#
# Coordination Sequence:
#
# PCOD9047050 Si02
#       7
#     2   2   2   2   2   2   2
#     4  10  24  43  73  97 139 184 228 294 354 423
#     4  11  25  45  70  98 145 190 228 296 361 412
#     4  11  23  45  68  99 142 185 229 291 360 416
#     4  10  24  43  71 100 138 183 237 293 348 427
#     4  12  26  43  70 105 143 181 239 295 352 426
#     4  11  24  44  69 103 139 186 242 290 353 424
#     4  11  24  45  70 106 134 182 243 284 356 429
#
# _framework density 21.678822
#
# number of rings (size 3 to 8) (size 9 to 14) (size 15 to 20)
#    0.000    1.143    2.857    2.571    2.000    5.714 
#    0.000    0.000    0.000    0.000    0.000    0.000 
#    0.000    0.000    0.000    0.000    0.000    0.000 
#
# Total GULP energy -78230.277012 kJ/mol
# GULP energy per Si atom -5587.876929 kJ/mol
# Density = 2.162948 g / cm^3
# Si number density = 21.678822 Si / 1000 Ang^3
#
#
#
# Elastic Constant Matrix: (Units=GPa)
#
#
# Indices 1 2 3 4 5 6 
#
# 1 88.1703 43.7786 41.8264 0.7011 -3.1548 -11.5452
# 2 43.7786 152.8536 38.6969 3.4169 -13.8519 -5.2103
# 3 41.8264 38.6969 82.6647 7.4488 4.5807 -14.3217
# 4 0.7011 3.4169 7.4488 46.2811 -8.9982 -5.5339
# 5 -3.1548 -13.8519 4.5807 -8.9982 25.0863 -0.4015
# 6 -11.5452 -5.2103 -14.3217 -5.5339 -0.4015 37.2514
#
#
#
# Elastic Compliance Matrix: (Units=1/GPa)
#
#
# Indices 1 2 3 4 5 6 
#
# 1 0.016324 -0.002654 -0.006920 0.001836 0.002547 0.002328
# 2 -0.002654 0.008529 -0.003130 0.000856 0.005244 -0.000649
# 3 -0.006920 -0.003130 0.018460 -0.003565 -0.007185 0.003908
# 4 0.001836 0.000856 -0.003565 0.024432 0.010167 0.003057
# 5 0.002547 0.005244 -0.007185 0.010167 0.048049 0.000788
# 6 0.002328 -0.000649 0.003908 0.003057 0.000788 0.029440
#
#
# Mechanical properties :
#
#
# Convention : Reuss Voigt Hill
#
# Bulk Modulus (GPa) = 55.85302 63.58805 59.72054
# Shear Modulus (GPa) = 28.31094 35.01620 31.66357
#
# Velocity S-wave (km/s) = 3.61768 4.02335 3.82589
# Velocity P-wave (km/s) = 6.57799 7.13993 6.86471
#
# Compressibility (1/GPa) = 0.01790414
#
# Stress axis : x y z
#
# Youngs Moduli (GPa) = 61.26071 117.25229 54.17128
#
# Poissons Ratio (x) = 0.31121 0.37488
# Poissons Ratio (y) = 0.16260 0.16954
# Poissons Ratio (z) = 0.42394 0.36696
#
# Static dielectric constant tensor:
#      x y z
#    x 1.788370 0.000890 -0.007610 
#    y 0.000890 1.775950 -0.052720 
#    z -0.007610 -0.052720 1.832230 
# 
# From -- ./inp_files/190868.got.cif
#   From: 2010.05.17/outbox.cif.g08.bks.cpg/sg2_96_cif.got.tgz:190868.got - 2010.06.03 11:33:40.
