data_PCOD9047318
_publ_section_title
;
Structure prediction by ZEFSAII (Michael W. Deem and Ramdas Pophale) SiO2 
 PCOD9047318
Probable space group: P -1
;
_chemical_formula_sum "Si O2"
_cell_formula_units_Z 15
_cell_length_a 12.976289
_cell_length_b 6.724885
_cell_length_c 11.187614
_cell_angle_alpha 83.368288
_cell_angle_beta 92.901081
_cell_angle_gamma 41.358007
_cell_volume 626.593913
_symmetry_space_group_name_H-M "P -1"
_symmetry_group_IT_number 2
_symmetry_cell_setting 'triclinic'
loop_
_space_group_symop_operation_xyz
x,y,z
-x,-y,-z
loop_
_atom_site_type_symbol
_atom_site_label
_atom_site_fract_x
_atom_site_fract_y
_atom_site_fract_z
Si Si1 0.178473 0.053777 0.350471
Si Si2 0.425632 0.013973 0.375049
Si Si3 0.445693 0.828491 0.781667
Si Si4 0.318691 0.194903 0.970736
Si Si5 0.915453 0.205068 0.206093
Si Si6 0.283916 0.841161 0.115162
Si Si7 0.000000 0.000000 0.000000
Si Si8 0.697689 0.295923 0.375455
O O1 0.003549 0.252718 0.278385
O O2 0.251876 0.167383 0.366548
O O3 0.276211 0.826325 0.258311
O O4 0.208202 0.889165 0.484942
O O5 0.547564 0.655838 0.373189
O O6 0.500000 0.000000 0.500000
O O7 0.447491 0.151482 0.266583
O O8 0.559246 0.513406 0.885947
O O9 0.362685 0.822678 0.674810
O O10 0.313942 0.110119 0.843517
O O11 0.180476 0.567593 0.934969
O O12 0.500000 0.000000 0.000000
O O13 0.295596 0.058429 0.074689
O O14 0.801241 0.257277 0.284534
O O15 0.029406 0.895991 0.156270
O O16 0.130279 0.990303 0.027940
#
# Coordination Sequence:
#
# PCOD9047318 Si02
#       8
#     2   2   2   2   2   2   1   2
#     4  11  24  43  69 103 144 184 225 293 354 416
#     4  12  23  42  70 103 140 187 233 284 344 422
#     4  12  23  41  72 102 138 181 238 289 349 407
#     4  12  24  43  69 103 138 182 243 288 341 420
#     4  11  25  45  72 102 144 186 231 294 356 414
#     4  11  23  41  66  98 138 185 226 290 345 410
#     4  10  24  44  64  96 142 184 228 280 366 406
#     4  12  23  47  70 104 143 179 242 286 351 423
#
# _framework density 23.938952
#
# number of rings (size 3 to 8) (size 9 to 14) (size 15 to 20)
#    0.000    0.533    4.000    5.200    0.000    3.200 
#    0.000    4.000    0.000    0.000    0.000    0.000 
#    0.000    0.000    0.000    0.000    0.000    0.000 
#
# Total GULP energy -83649.956375 kJ/mol
# GULP energy per Si atom -5576.663758 kJ/mol
# Density = 2.388447 g / cm^3
# Si number density = 23.938952 Si / 1000 Ang^3
#
#
#
# Elastic Constant Matrix: (Units=GPa)
#
#
# Indices 1 2 3 4 5 6 
#
# 1 124.3173 8.9447 40.6179 7.1757 36.4066 -7.6516
# 2 8.9447 28.4677 13.8678 -2.7843 6.8638 6.5577
# 3 40.6179 13.8678 116.9373 3.0587 10.9480 -0.6547
# 4 7.1757 -2.7843 3.0587 30.8522 5.2164 11.2337
# 5 36.4066 6.8638 10.9480 5.2164 48.9956 7.2676
# 6 -7.6516 6.5577 -0.6547 11.2337 7.2676 26.5427
#
#
#
# Elastic Compliance Matrix: (Units=1/GPa)
#
#
# Indices 1 2 3 4 5 6 
#
# 1 0.012736 -0.002733 -0.003071 -0.004517 -0.009204 0.008703
# 2 -0.002733 0.043281 -0.004383 0.011026 -0.001893 -0.015738
# 3 -0.003071 -0.004383 0.010109 -0.001053 0.000643 0.000717
# 4 -0.004517 0.011026 -0.001053 0.042536 0.000823 -0.022280
# 5 -0.009204 -0.001893 0.000643 0.000823 0.028828 -0.010411
# 6 0.008703 -0.015738 0.000717 -0.022280 -0.010411 0.056370
#
#
# Mechanical properties :
#
#
# Convention : Reuss Voigt Hill
#
# Bulk Modulus (GPa) = 21.85645 44.06479 32.96062
# Shear Modulus (GPa) = 21.78789 35.03090 28.40940
#
# Velocity S-wave (km/s) = 3.02013 3.82952 3.44865
# Velocity P-wave (km/s) = 4.61644 6.16447 5.44574
#
# Compressibility (1/GPa) = 0.04575309
#
# Stress axis : x y z
#
# Youngs Moduli (GPa) = 78.51843 23.10460 98.91723
#
# Poissons Ratio (x) = 0.06314 0.30378
# Poissons Ratio (y) = 0.21458 0.43354
# Poissons Ratio (z) = 0.24113 0.10126
#
# Static dielectric constant tensor:
#      x y z
#    x 1.956150 -0.016400 0.007060 
#    y -0.016400 1.647570 -0.062760 
#    z 0.007060 -0.062760 1.907510 
# 
# From -- ./inp_files/96811.got.cif
#   From: 2010.05.17/outbox.cif.g08.bks.cpg/sg2_49_cif.got.tgz:96811.got - 2010.06.03 11:33:40.
