data_PCOD9047134
_publ_section_title
;
Structure prediction by ZEFSAII (Michael W. Deem and Ramdas Pophale) SiO2 
 PCOD9047134
Probable space group: P -1
;
_chemical_formula_sum "Si O2"
_cell_formula_units_Z 14
_cell_length_a 15.140450
_cell_length_b 14.302560
_cell_length_c 5.286902
_cell_angle_alpha 105.067552
_cell_angle_beta 49.415607
_cell_angle_gamma 135.941480
_cell_volume 555.966065
_symmetry_space_group_name_H-M "P -1"
_symmetry_group_IT_number 2
_symmetry_cell_setting 'triclinic'
loop_
_space_group_symop_operation_xyz
x,y,z
-x,-y,-z
loop_
_atom_site_type_symbol
_atom_site_label
_atom_site_fract_x
_atom_site_fract_y
_atom_site_fract_z
Si Si1 0.742759 0.688575 0.282478
Si Si2 0.486841 0.058339 0.318438
Si Si3 0.519120 0.607516 0.209848
Si Si4 0.290028 0.645498 0.635231
Si Si5 0.863820 0.124968 0.378610
Si Si6 0.932505 0.377760 0.351046
Si Si7 0.884119 0.944689 0.433244
O O1 0.695088 0.710678 0.122285
O O2 0.626513 0.519705 0.395270
O O3 0.730588 0.768702 0.567250
O O4 0.941031 0.776812 0.008506
O O5 0.623601 0.232054 0.223491
O O6 0.500000 0.000000 0.500000
O O7 0.290510 0.979414 0.610044
O O8 0.500000 0.000000 0.000000
O O9 0.437056 0.657211 0.306432
O O10 0.500000 0.500000 0.000000
O O11 0.226468 0.679542 0.559591
O O12 0.107304 0.475875 0.920504
O O13 0.879961 0.247576 0.502751
O O14 0.822768 0.017410 0.585922
O O15 0.000000 0.500000 0.500000
O O16 0.000000 0.000000 0.500000
O O17 0.000000 0.000000 0.000000
#
# Coordination Sequence:
#
# PCOD9047134 Si02
#       7
#     2   2   2   2   2   2   2
#     4  10  24  45  67 107 142 197 257 308 390 448
#     4  12  27  50  75 116 156 204 257 321 393 461
#     4  11  25  44  73 106 152 201 255 322 387 460
#     4  11  25  46  72 111 155 198 262 319 389 463
#     4  11  23  48  75 104 154 194 259 313 385 464
#     4  11  24  43  76 108 145 205 255 315 388 462
#     4  10  24  43  72 105 144 191 246 306 371 447
#
# _framework density 25.181391999999999
#
# number of rings (size 3 to 8) (size 9 to 14) (size 15 to 20)
#    0.000    1.143    2.857    1.714    6.000    2.286 
#    5.143    0.000    0.000    0.000    0.000    0.000 
#    0.000    0.000    0.000    0.000    0.000    0.000 
#
# Total GULP energy -78178.010747 kJ/mol
# GULP energy per Si atom -5584.143625 kJ/mol
# Density = 2.512408 g / cm^3
# Si number density = 25.181392 Si / 1000 Ang^3
#
#
#
# Elastic Constant Matrix: (Units=GPa)
#
#
# Indices 1 2 3 4 5 6 
#
# 1 196.8942 72.5636 32.6275 18.8748 -31.8924 12.7535
# 2 72.5636 181.5973 12.7926 6.5544 -8.5561 -6.1751
# 3 32.6275 12.7926 62.9325 14.5174 -27.3320 12.3570
# 4 18.8748 6.5544 14.5174 48.1633 2.6728 1.1464
# 5 -31.8924 -8.5561 -27.3320 2.6728 44.3402 1.2635
# 6 12.7535 -6.1751 12.3570 1.1464 1.2635 62.3611
#
#
#
# Elastic Compliance Matrix: (Units=1/GPa)
#
#
# Indices 1 2 3 4 5 6 
#
# 1 0.007210 -0.002607 -0.000180 -0.002640 0.004781 -0.001745
# 2 -0.002607 0.006585 -0.000883 0.000426 -0.001214 0.001377
# 3 -0.000180 -0.000883 0.026465 -0.008582 0.016687 -0.005475
# 4 -0.002640 0.000426 -0.008582 0.024759 -0.008656 0.002003
# 5 0.004781 -0.001214 0.016687 -0.008656 0.036707 -0.004989
# 6 -0.001745 0.001377 -0.005475 0.002003 -0.004989 0.017678
#
#
# Mechanical properties :
#
#
# Convention : Reuss Voigt Hill
#
# Bulk Modulus (GPa) = 30.37654 75.26574 52.82114
# Shear Modulus (GPa) = 36.30636 52.53559 44.42097
#
# Velocity S-wave (km/s) = 3.80121 4.57254 4.20460
# Velocity P-wave (km/s) = 5.59955 7.60473 6.67783
#
# Compressibility (1/GPa) = 0.03292015
#
# Stress axis : x y z
#
# Youngs Moduli (GPa) = 138.69455 151.86233 37.78621
#
# Poissons Ratio (x) = 0.39593 0.00680
# Poissons Ratio (y) = 0.36160 0.03335
# Poissons Ratio (z) = 0.02497 0.13403
#
# Static dielectric constant tensor:
#      x y z
#    x 1.935310 -0.102580 0.104440 
#    y -0.102580 2.038480 -0.098200 
#    z 0.104440 -0.098200 2.404890 
# 
# From -- ./inp_files/98380.got.cif
#   From: 2010.05.17/outbox.cif.g08.bks.cpg/sg2_50_cif.got.tgz:98380.got - 2010.06.03 11:33:40.
