data_PCOD9047195
_publ_section_title
;
Structure prediction by ZEFSAII (Michael W. Deem and Ramdas Pophale) SiO2 
 PCOD9047195
Probable space group: P -1
;
_chemical_formula_sum "Si O2"
_cell_formula_units_Z 14
_cell_length_a 5.545452
_cell_length_b 13.959799
_cell_length_c 14.731175
_cell_angle_alpha 136.631446
_cell_angle_beta 47.011336
_cell_angle_gamma 112.130574
_cell_volume 556.528800
_symmetry_space_group_name_H-M "P -1"
_symmetry_group_IT_number 2
_symmetry_cell_setting 'triclinic'
loop_
_space_group_symop_operation_xyz
x,y,z
-x,-y,-z
loop_
_atom_site_type_symbol
_atom_site_label
_atom_site_fract_x
_atom_site_fract_y
_atom_site_fract_z
Si Si1 0.243944 0.899416 0.487812
Si Si2 0.780910 0.091653 0.199603
Si Si3 0.636038 0.397330 0.978279
Si Si4 0.631160 0.836126 0.812047
Si Si5 0.552858 0.116512 0.774396
Si Si6 0.592471 0.529755 0.601455
Si Si7 0.620940 0.627268 0.291497
O O1 0.338311 0.838243 0.320568
O O2 0.330468 0.768733 0.444231
O O3 0.500000 0.000000 0.500000
O O4 0.882207 0.007839 0.654478
O O5 0.443028 0.158192 0.273722
O O6 0.991612 0.193578 0.261994
O O7 0.720498 0.978112 0.212546
O O8 0.000000 0.000000 0.000000
O O9 0.460388 0.267087 0.952259
O O10 0.032308 0.336674 0.808917
O O11 0.500000 0.500000 0.000000
O O12 0.588838 0.497162 0.146009
O O13 0.473591 0.699265 0.779269
O O14 0.500000 0.000000 0.000000
O O15 0.500000 0.500000 0.500000
O O16 0.400109 0.432886 0.644626
O O17 0.000000 0.500000 0.500000
#
# Coordination Sequence:
#
# PCOD9047195 Si02
#       7
#     2   2   2   2   2   2   2
#     4  11  24  45  70 107 147 196 249 312 387 459
#     4  10  24  43  73 108 147 191 254 311 377 442
#     4  11  24  46  75 110 145 198 256 324 387 453
#     4  10  24  48  71 108 144 202 258 306 376 449
#     4  11  25  42  75 107 148 196 255 315 385 460
#     4  12  30  51  79 113 159 209 254 319 401 467
#     4  11  27  47  76 108 152 199 262 318 391 469
#
# _framework density 25.155930000000001
#
# number of rings (size 3 to 8) (size 9 to 14) (size 15 to 20)
#    0.000    1.143    2.857    0.857   10.000    3.429 
#    0.000    0.000    0.000    0.000    0.000    0.000 
#    0.000    0.000    0.000    0.000    0.000    0.000 
#
# Total GULP energy -78169.189964 kJ/mol
# GULP energy per Si atom -5583.513569 kJ/mol
# Density = 2.509867 g / cm^3
# Si number density = 25.155930 Si / 1000 Ang^3
#
#
#
# Elastic Constant Matrix: (Units=GPa)
#
#
# Indices 1 2 3 4 5 6 
#
# 1 160.3901 23.0236 13.9160 89.2132 -8.8884 -13.8580
# 2 23.0236 142.0906 31.4184 17.2595 26.4863 -11.7245
# 3 13.9160 31.4184 89.9746 -42.7147 40.3857 5.9310
# 4 89.2132 17.2595 -42.7147 308.7634 -132.6710 -15.4516
# 5 -8.8884 26.4863 40.3857 -132.6710 107.4704 20.8442
# 6 -13.8580 -11.7245 5.9310 -15.4516 20.8442 52.0175
#
#
#
# Elastic Compliance Matrix: (Units=1/GPa)
#
#
# Indices 1 2 3 4 5 6 
#
# 1 0.009324 0.001099 -0.001834 -0.005595 -0.006468 0.003871
# 2 0.001099 0.009636 -0.002514 -0.004105 -0.007268 0.004445
# 3 -0.001834 -0.002514 0.014371 0.001222 -0.003222 -0.001040
# 4 -0.005595 -0.004105 0.001222 0.011647 0.015497 -0.005305
# 5 -0.006468 -0.007268 -0.003222 0.015497 0.033169 -0.011682
# 6 0.003871 0.004445 -0.001040 -0.005305 -0.011682 0.024481
#
#
# Mechanical properties :
#
#
# Convention : Reuss Voigt Hill
#
# Bulk Modulus (GPa) = 37.26705 58.79680 48.03192
# Shear Modulus (GPa) = 42.34820 115.25675 78.80247
#
# Velocity S-wave (km/s) = 4.10741 6.77616 5.60300
# Velocity P-wave (km/s) = 6.11073 9.20030 7.80982
#
# Compressibility (1/GPa) = 0.02683336
#
# Stress axis : x y z
#
# Youngs Moduli (GPa) = 107.24948 103.78047 69.58571
#
# Poissons Ratio (x) = -0.11409 0.12762
# Poissons Ratio (y) = -0.11790 0.17493
# Poissons Ratio (z) = 0.19670 0.26090
#
# Static dielectric constant tensor:
#      x y z
#    x 2.183280 -0.049300 -0.000520 
#    y -0.049300 1.937400 0.045710 
#    z -0.000520 0.045710 2.049270 
# 
# From -- ./inp_files/482983.got.cif
#   From: 2010.05.17/outbox.cif.g08.bks.cpg/sg2_242_cif.got.tgz:482983.got - 2010.06.03 11:33:40.
