data_PCOD9047606
_publ_section_title
;
Structure prediction by ZEFSAII (Michael W. Deem and Ramdas Pophale) SiO2 
 PCOD9047606
Probable space group: P -1
;
_chemical_formula_sum "Si O2"
_cell_formula_units_Z 16
_cell_length_a 12.861698
_cell_length_b 14.602561
_cell_length_c 12.317118
_cell_angle_alpha 71.372382
_cell_angle_beta 30.592718
_cell_angle_gamma 49.589976
_cell_volume 706.358222
_symmetry_space_group_name_H-M "P -1"
_symmetry_group_IT_number 2
_symmetry_cell_setting 'triclinic'
loop_
_space_group_symop_operation_xyz
x,y,z
-x,-y,-z
loop_
_atom_site_type_symbol
_atom_site_label
_atom_site_fract_x
_atom_site_fract_y
_atom_site_fract_z
Si Si1 0.854756 0.993954 0.732902
Si Si2 0.482631 0.386850 0.963873
Si Si3 0.449187 0.426199 0.223017
Si Si4 0.882336 0.800757 0.907388
Si Si5 0.712889 0.015475 0.319223
Si Si6 0.134974 0.064172 0.558945
Si Si7 0.828753 0.678160 0.825627
Si Si8 0.773852 0.200906 0.220765
O O1 0.020254 0.995078 0.677830
O O2 0.923341 0.858886 0.746997
O O3 0.475073 0.147427 0.006755
O O4 0.000000 0.000000 0.500000
O O5 0.387670 0.531213 0.970191
O O6 0.868394 0.224249 0.674434
O O7 0.398423 0.394270 0.163272
O O8 0.309623 0.379695 0.037296
O O9 0.615115 0.310660 0.217993
O O10 0.110149 0.579392 0.523521
O O11 0.928061 0.679623 0.855503
O O12 0.128949 0.755007 0.792538
O O13 0.507972 0.941476 0.233883
O O14 0.582725 0.168270 0.418542
O O15 0.500000 0.000000 0.500000
O O16 0.915608 0.901245 0.282018
O O17 0.883677 0.964617 0.068985
#
# Coordination Sequence:
#
# PCOD9047606 Si02
#       8
#     2   2   2   2   2   2   2   2
#     4  11  23  40  65  97 133 164 218 279 333 381
#     4  10  24  44  68  95 130 177 220 275 326 384
#     4  11  24  46  64  93 136 176 223 268 323 396
#     4  12  24  40  67 101 134 169 220 274 332 393
#     4  11  22  42  68  97 131 172 219 276 326 383
#     4  11  21  40  67 101 128 165 217 281 331 377
#     4  11  25  39  67  97 127 179 215 269 327 392
#     4  11  25  42  65 100 134 177 219 265 329 396
#
# _framework density 22.651395999999998
#
# number of rings (size 3 to 8) (size 9 to 14) (size 15 to 20)
#    0.000    1.000    5.000    1.500    3.500    1.500 
#    2.250    0.625    0.000    0.000    0.000    0.000 
#    0.000    0.000    0.000    0.000    0.000    0.000 
#
# Total GULP energy -89092.248853 kJ/mol
# GULP energy per Si atom -5568.265553 kJ/mol
# Density = 2.259984 g / cm^3
# Si number density = 22.651396 Si / 1000 Ang^3
#
#
#
# Elastic Constant Matrix: (Units=GPa)
#
#
# Indices 1 2 3 4 5 6 
#
# 1 157.2080 48.0414 33.8065 -13.8671 -14.0148 30.5119
# 2 48.0414 87.6061 6.2897 -19.5300 -13.4349 7.6127
# 3 33.8065 6.2897 76.3207 -1.2475 6.5419 -2.5963
# 4 -13.8671 -19.5300 -1.2475 23.2809 10.9107 -1.1948
# 5 -14.0148 -13.4349 6.5419 10.9107 29.2532 -9.9338
# 6 30.5119 7.6127 -2.5963 -1.1948 -9.9338 33.5616
#
#
#
# Elastic Compliance Matrix: (Units=1/GPa)
#
#
# Indices 1 2 3 4 5 6 
#
# 1 0.010556 -0.004209 -0.004641 0.001824 0.000497 -0.008789
# 2 -0.004209 0.016155 0.000583 0.010283 0.001814 0.001110
# 3 -0.004641 0.000583 0.015637 0.000829 -0.004395 0.004025
# 4 0.001824 0.010283 0.000829 0.061813 -0.020267 -0.007725
# 5 0.000497 0.001814 -0.004395 -0.020267 0.047965 0.012272
# 6 -0.008789 0.001110 0.004025 -0.007725 0.012272 0.041203
#
#
# Mechanical properties :
#
#
# Convention : Reuss Voigt Hill
#
# Bulk Modulus (GPa) = 38.73579 55.26778 47.00178
# Shear Modulus (GPa) = 22.88660 32.75230 27.81945
#
# Velocity S-wave (km/s) = 3.18210 3.80666 3.50831
# Velocity P-wave (km/s) = 5.53525 6.61613 6.09968
#
# Compressibility (1/GPa) = 0.02581592
#
# Stress axis : x y z
#
# Youngs Moduli (GPa) = 94.72984 61.89961 63.94919
#
# Poissons Ratio (x) = 0.26054 0.29678
# Poissons Ratio (y) = 0.39872 -0.03731
# Poissons Ratio (z) = 0.43963 -0.03611
#
# Static dielectric constant tensor:
#      x y z
#    x 1.508880 0.089950 0.101770 
#    y 0.089950 1.947230 -0.043850 
#    z 0.101770 -0.043850 1.902760 
# 
# From -- ./inp_files/433928.got.cif
#   From: 2010.05.17/outbox.cif.g08.bks.cpg/sg2_217_cif.got.tgz:433928.got - 2010.06.03 11:33:40.
