data_PCOD9047557
_publ_section_title
;
Structure prediction by ZEFSAII (Michael W. Deem and Ramdas Pophale) SiO2 
 PCOD9047557
Probable space group: P -1
;
_chemical_formula_sum "Si O2"
_cell_formula_units_Z 16
_cell_length_a 7.873577
_cell_length_b 14.235384
_cell_length_c 12.318906
_cell_angle_alpha 124.791090
_cell_angle_beta 62.363456
_cell_angle_gamma 75.344817
_cell_volume 705.842780
_symmetry_space_group_name_H-M "P -1"
_symmetry_group_IT_number 2
_symmetry_cell_setting 'triclinic'
loop_
_space_group_symop_operation_xyz
x,y,z
-x,-y,-z
loop_
_atom_site_type_symbol
_atom_site_label
_atom_site_fract_x
_atom_site_fract_y
_atom_site_fract_z
Si Si1 0.863253 0.938094 0.032108
Si Si2 0.191433 0.586385 0.650396
Si Si3 0.768784 0.653953 0.941728
Si Si4 0.851793 0.240879 0.945154
Si Si5 0.198515 0.958635 0.321644
Si Si6 0.748813 0.531047 0.669849
Si Si7 0.994752 0.391646 0.848990
Si Si8 0.232235 0.204825 0.441303
O O1 0.960077 0.861817 0.074179
O O2 0.536545 0.085173 0.224297
O O3 0.992295 0.779817 0.818465
O O4 0.000000 0.000000 0.000000
O O5 0.500000 0.500000 0.500000
O O6 0.200269 0.492394 0.487648
O O7 0.070865 0.578982 0.791409
O O8 0.708992 0.663582 0.837884
O O9 0.763580 0.535975 0.928723
O O10 0.517272 0.829674 0.179009
O O11 0.835112 0.126366 0.813187
O O12 0.948200 0.299712 0.874262
O O13 0.545222 0.403089 0.180747
O O14 0.139127 0.112715 0.409101
O O15 0.000000 0.000000 0.500000
O O16 0.001535 0.362969 0.542226
O O17 0.223332 0.260975 0.604354
O O18 0.000000 0.500000 0.000000
#
# Coordination Sequence:
#
# PCOD9047557 Si02
#       8
#     2   2   2   2   2   2   2   2
#     4  12  29  46  68 104 142 183 236 291 356 415
#     4  12  24  45  72  98 142 186 236 286 348 418
#     4  10  24  44  68 103 138 181 239 285 351 423
#     4  11  25  47  69 104 139 185 235 285 350 425
#     4  11  23  43  70 101 145 182 227 295 356 416
#     4  10  25  42  74  97 137 182 234 280 348 411
#     4  11  25  42  73 101 140 185 235 287 351 423
#     4  11  26  47  69 106 142 183 236 293 354 416
#
# _framework density 22.667936999999998
#
# number of rings (size 3 to 8) (size 9 to 14) (size 15 to 20)
#    0.000    1.000    3.750    1.125    7.000    5.500 
#    0.000    0.000    0.000    0.000    0.000    0.000 
#    0.000    0.000    0.000    0.000    0.000    0.000 
#
# Total GULP energy -89193.930166 kJ/mol
# GULP energy per Si atom -5574.620635 kJ/mol
# Density = 2.261634 g / cm^3
# Si number density = 22.667937 Si / 1000 Ang^3
#
#
#
# Elastic Constant Matrix: (Units=GPa)
#
#
# Indices 1 2 3 4 5 6 
#
# 1 89.2869 28.0093 34.5675 0.9740 6.3127 15.5734
# 2 28.0093 103.3874 27.5842 4.7022 -4.3736 25.2103
# 3 34.5675 27.5842 137.8615 3.5741 -13.6655 1.5343
# 4 0.9740 4.7022 3.5741 34.1124 3.6936 3.1663
# 5 6.3127 -4.3736 -13.6655 3.6936 52.6672 7.5194
# 6 15.5734 25.2103 1.5343 3.1663 7.5194 44.5966
#
#
#
# Elastic Compliance Matrix: (Units=1/GPa)
#
#
# Indices 1 2 3 4 5 6 
#
# 1 0.013861 -0.002265 -0.003236 0.000794 -0.002300 -0.003117
# 2 -0.002265 0.012412 -0.001631 -0.001083 0.001870 -0.006408
# 3 -0.003236 -0.001631 0.008634 -0.000975 0.002358 0.001427
# 4 0.000794 -0.001083 -0.000975 0.029924 -0.002342 -0.001361
# 5 -0.002300 0.001870 0.002358 -0.002342 0.020717 -0.003662
# 6 -0.003117 -0.006408 0.001427 -0.001361 -0.003662 0.027799
#
#
# Mechanical properties :
#
#
# Convention : Reuss Voigt Hill
#
# Bulk Modulus (GPa) = 48.44156 56.76195 52.60176
# Shear Modulus (GPa) = 37.17700 42.30024 39.73862
#
# Velocity S-wave (km/s) = 4.05417 4.32450 4.19152
# Velocity P-wave (km/s) = 6.58267 7.07320 6.83234
#
# Compressibility (1/GPa) = 0.02064343
#
# Stress axis : x y z
#
# Youngs Moduli (GPa) = 72.14541 80.56772 115.81468
#
# Poissons Ratio (x) = 0.18249 0.37479
# Poissons Ratio (y) = 0.16341 0.18887
# Poissons Ratio (z) = 0.23347 0.13139
#
# Static dielectric constant tensor:
#      x y z
#    x 2.023310 -0.005100 0.022710 
#    y -0.005100 1.844560 -0.022410 
#    z 0.022710 -0.022410 1.901360 
# 
# From -- ./inp_files/399398.got.cif
#   From: 2010.05.17/outbox.cif.g08.bks.cpg/sg2_200_cif.got.tgz:399398.got - 2010.06.03 11:33:40.
