data_PCOD9047986
_publ_section_title
;
Structure prediction by ZEFSAII (Michael W. Deem and Ramdas Pophale) SiO2 
 PCOD9047986
Probable space group: P -1
;
_chemical_formula_sum "Si O2"
_cell_formula_units_Z 12
_cell_length_a 11.660583
_cell_length_b 9.651761
_cell_length_c 5.621563
_cell_angle_alpha 105.706777
_cell_angle_beta 121.727084
_cell_angle_gamma 92.428406
_cell_volume 504.683029
_symmetry_space_group_name_H-M "P -1"
_symmetry_group_IT_number 2
_symmetry_cell_setting 'triclinic'
loop_
_space_group_symop_operation_xyz
x,y,z
-x,-y,-z
loop_
_atom_site_type_symbol
_atom_site_label
_atom_site_fract_x
_atom_site_fract_y
_atom_site_fract_z
Si Si1 0.572282 0.361861 0.010605
Si Si2 0.148732 0.923702 0.526060
Si Si3 0.000186 0.869421 0.750239
Si Si4 0.938718 0.642439 0.952422
Si Si5 0.650141 0.458712 0.642198
Si Si6 0.435163 0.035063 0.694253
O O1 0.652972 0.370661 0.355067
O O2 0.500000 0.500000 0.000000
O O3 0.657983 0.376826 0.864039
O O4 0.456197 0.211662 0.802222
O O5 0.149121 0.896940 0.797067
O O6 0.037966 0.778158 0.256937
O O7 0.105290 0.081044 0.525756
O O8 0.280214 0.943217 0.513763
O O9 0.949782 0.708173 0.727615
O O10 0.000000 0.000000 0.000000
O O11 0.778868 0.598465 0.833477
O O12 0.000000 0.500000 0.000000
O O13 0.500000 0.500000 0.500000
O O14 0.500000 0.000000 0.500000
O O15 0.500000 0.000000 0.000000
#
# Coordination Sequence:
#
# PCOD9047986 Si02
#       6
#     2   2   2   2   2   2
#     4  10  24  45  72 104 140 192 252 298 365 442
#     4  10  25  46  72 104 142 196 248 300 375 443
#     4   9  22  44  70  99 137 187 248 299 361 440
#     4  11  26  42  71 105 146 186 241 309 376 433
#     4  10  24  44  72 104 143 187 245 299 366 439
#     4  12  29  47  75 109 156 197 244 313 382 446
#
# _framework density 23.777301999999999
#
# number of rings (size 3 to 8) (size 9 to 14) (size 15 to 20)
#    0.000    1.667    0.000    1.000   16.333    7.333 
#    0.000    0.000    0.000    0.000    0.000    0.000 
#    0.000    0.000    0.000    0.000    0.000    0.000 
#
# Total GULP energy -66925.481588 kJ/mol
# GULP energy per Si atom -5577.123466 kJ/mol
# Density = 2.372318 g / cm^3
# Si number density = 23.777302 Si / 1000 Ang^3
#
#
#
# Elastic Constant Matrix: (Units=GPa)
#
#
# Indices 1 2 3 4 5 6 
#
# 1 171.2719 72.9924 69.3293 4.3943 -9.4507 52.8194
# 2 72.9924 187.8194 41.1923 4.7598 -0.3694 21.7510
# 3 69.3293 41.1923 112.5416 11.5421 -17.6119 22.9497
# 4 4.3943 4.7598 11.5421 47.5402 15.8703 -4.8874
# 5 -9.4507 -0.3694 -17.6119 15.8703 42.2899 -3.3331
# 6 52.8194 21.7510 22.9497 -4.8874 -3.3331 50.8037
#
#
#
# Elastic Compliance Matrix: (Units=1/GPa)
#
#
# Indices 1 2 3 4 5 6 
#
# 1 0.011357 -0.002451 -0.004119 -0.000865 0.000420 -0.008953
# 2 -0.002451 0.006482 -0.001083 0.000196 -0.000999 0.000215
# 3 -0.004119 -0.001083 0.013693 -0.005194 0.006603 -0.001506
# 4 -0.000865 0.000196 -0.005194 0.026890 -0.012055 0.004958
# 5 0.000420 -0.000999 0.006603 -0.012055 0.030838 -0.002129
# 6 -0.008953 0.000215 -0.001506 0.004958 -0.002129 0.029918
#
#
# Mechanical properties :
#
#
# Convention : Reuss Voigt Hill
#
# Bulk Modulus (GPa) = 61.62922 93.18451 77.40687
# Shear Modulus (GPa) = 35.74184 47.33469 41.53827
#
# Velocity S-wave (km/s) = 3.88131 4.46662 4.18421
# Velocity P-wave (km/s) = 6.78688 8.11644 7.48125
#
# Compressibility (1/GPa) = 0.01622607
#
# Stress axis : x y z
#
# Youngs Moduli (GPa) = 88.05163 154.26398 73.03200
#
# Poissons Ratio (x) = 0.37805 0.30082
# Poissons Ratio (y) = 0.21579 0.07911
# Poissons Ratio (z) = 0.36269 0.16711
#
# Static dielectric constant tensor:
#      x y z
#    x 1.999280 -0.002450 -0.015170 
#    y -0.002450 1.917070 -0.169690 
#    z -0.015170 -0.169690 2.087800 
# 
# From -- ./inp_files/61135.got.cif
#   From: 2010.05.17/outbox.cif.g08.bks.cpg/sg2_31_cif.got.tgz:61135.got - 2010.06.03 11:33:40.
