data_PCOD9047410
_publ_section_title
;
Structure prediction by ZEFSAII (Michael W. Deem and Ramdas Pophale) SiO2 
 PCOD9047410
Probable space group: P -1
;
_chemical_formula_sum "Si O2"
_cell_formula_units_Z 13
_cell_length_a 10.517429
_cell_length_b 13.655669
_cell_length_c 17.525322
_cell_angle_alpha 21.192488
_cell_angle_beta 33.088856
_cell_angle_gamma 32.853781
_cell_volume 474.123240
_symmetry_space_group_name_H-M "P -1"
_symmetry_group_IT_number 2
_symmetry_cell_setting 'triclinic'
loop_
_space_group_symop_operation_xyz
x,y,z
-x,-y,-z
loop_
_atom_site_type_symbol
_atom_site_label
_atom_site_fract_x
_atom_site_fract_y
_atom_site_fract_z
Si Si1 0.524366 0.016701 0.066325
Si Si2 0.500000 0.500000 0.500000
Si Si3 0.066253 0.219615 0.721355
Si Si4 0.237366 0.406230 0.273947
Si Si5 0.206192 0.694633 0.926959
Si Si6 0.525007 0.382555 0.393502
Si Si7 0.981855 0.084415 0.287548
O O1 0.257126 0.991936 0.246027
O O2 0.675441 0.726401 0.240453
O O3 0.548340 0.332389 0.831346
O O4 0.500000 0.000000 0.000000
O O5 0.511991 0.469411 0.424250
O O6 0.350278 0.184205 0.619620
O O7 0.000000 0.500000 0.500000
O O8 0.898171 0.312850 0.813029
O O9 0.062591 0.968451 0.849332
O O10 0.519467 0.299437 0.236327
O O11 0.088549 0.179541 0.522419
O O12 0.245696 0.449574 0.147316
O O13 0.061935 0.693440 0.922067
O O14 0.793059 0.213499 0.354286
#
# Coordination Sequence:
#
# PCOD9047410 Si02
#       7
#     2   1   2   2   2   2   2
#     4  10  24  44  66  97 128 179 228 275 340 397
#     4  10  24  46  64  94 136 170 230 280 322 412
#     4  12  23  44  72 101 141 182 220 282 342 405
#     4  11  23  42  66 103 141 180 223 274 343 404
#     4  11  25  43  67 105 140 177 228 279 340 410
#     4  11  25  45  69 100 134 178 231 277 343 403
#     4  12  23  44  70  97 138 176 228 286 336 404
#
# _framework density 27.419028999999998
#
# number of rings (size 3 to 8) (size 9 to 14) (size 15 to 20)
#    0.000    0.923    3.077    4.154    0.000    6.769 
#    2.769    0.000    0.000    0.000    0.000    0.000 
#    0.000    0.000    0.000    0.000    0.000    0.000 
#
# Total GULP energy -72569.536333 kJ/mol
# GULP energy per Si atom -5582.272026 kJ/mol
# Density = 2.735662 g / cm^3
# Si number density = 27.419029 Si / 1000 Ang^3
#
#
#
# Elastic Constant Matrix: (Units=GPa)
#
#
# Indices 1 2 3 4 5 6 
#
# 1 67.2973 9.9457 11.8448 17.3872 4.1590 6.1895
# 2 9.9457 128.0189 14.1970 17.2101 -16.7442 12.1725
# 3 11.8448 14.1970 111.2961 10.2081 -5.4527 20.8628
# 4 17.3872 17.2101 10.2081 41.4390 2.9405 -3.4028
# 5 4.1590 -16.7442 -5.4527 2.9405 45.8693 15.2368
# 6 6.1895 12.1725 20.8628 -3.4028 15.2368 43.8087
#
#
#
# Elastic Compliance Matrix: (Units=1/GPa)
#
#
# Indices 1 2 3 4 5 6 
#
# 1 0.017092 -0.000110 -0.000710 -0.007125 -0.000400 -0.002461
# 2 -0.000110 0.009667 0.000493 -0.004923 0.005659 -0.005256
# 3 -0.000710 0.000493 0.010789 -0.003411 0.004016 -0.006836
# 4 -0.007125 -0.004923 -0.003411 0.031173 -0.006431 0.008657
# 5 -0.000400 0.005659 0.004016 -0.006431 0.029506 -0.014190
# 6 -0.002461 -0.005256 -0.006836 0.008657 -0.014190 0.033498
#
#
# Mechanical properties :
#
#
# Convention : Reuss Voigt Hill
#
# Bulk Modulus (GPa) = 27.10468 42.06527 34.58497
# Shear Modulus (GPa) = 34.55945 44.26506 39.41226
#
# Velocity S-wave (km/s) = 3.55409 4.02231 3.79543
# Velocity P-wave (km/s) = 5.17193 6.07840 5.64339
#
# Compressibility (1/GPa) = 0.03689400
#
# Stress axis : x y z
#
# Youngs Moduli (GPa) = 58.50531 103.44527 92.68840
#
# Poissons Ratio (x) = 0.01135 0.06580
# Poissons Ratio (y) = 0.00642 -0.04565
# Poissons Ratio (z) = 0.04154 -0.05095
#
# Static dielectric constant tensor:
#      x y z
#    x 2.041800 0.243470 -0.262460 
#    y 0.243470 1.571900 0.264990 
#    z -0.262460 0.264990 2.118760 
# 
# From -- ./inp_files/569901.got.cif
#   From: 2010.05.17/outbox.cif.g08.bks.cpg/sg2_285_cif.got.tgz:569901.got - 2010.06.03 11:33:40.
