data_PCOD9047210
_publ_section_title
;
Structure prediction by ZEFSAII (Michael W. Deem and Ramdas Pophale) SiO2 
 PCOD9047210
Probable space group: P -1
;
_chemical_formula_sum "Si O2"
_cell_formula_units_Z 14
_cell_length_a 11.977355
_cell_length_b 7.606468
_cell_length_c 9.138834
_cell_angle_alpha 49.715325
_cell_angle_beta 118.497763
_cell_angle_gamma 92.605736
_cell_volume 513.424780
_symmetry_space_group_name_H-M "P -1"
_symmetry_group_IT_number 2
_symmetry_cell_setting 'triclinic'
loop_
_space_group_symop_operation_xyz
x,y,z
-x,-y,-z
loop_
_atom_site_type_symbol
_atom_site_label
_atom_site_fract_x
_atom_site_fract_y
_atom_site_fract_z
Si Si1 0.312683 0.761116 0.484919
Si Si2 0.017169 0.492048 0.187153
Si Si3 0.293129 0.071620 0.555346
Si Si4 0.840974 0.197310 0.172390
Si Si5 0.429084 0.249449 0.941059
Si Si6 0.984443 0.251853 0.688462
Si Si7 0.373649 0.815203 0.162935
O O1 0.292226 0.022793 0.408503
O O2 0.386508 0.544619 0.770176
O O3 0.170036 0.727730 0.401328
O O4 0.378807 0.746333 0.372997
O O5 0.966510 0.741448 0.117015
O O6 0.184140 0.346783 0.386356
O O7 0.918350 0.342442 0.230832
O O8 0.000000 0.500000 0.000000
O O9 0.216878 0.922089 0.673768
O O10 0.450970 0.928202 0.781539
O O11 0.941168 0.984568 0.241045
O O12 0.711085 0.312684 0.916545
O O13 0.490006 0.236958 0.821222
O O14 0.316296 0.122983 0.947251
O O15 0.000000 0.500000 0.500000
#
# Coordination Sequence:
#
# PCOD9047210 Si02
#       7
#     2   2   2   2   2   2   2
#     4  12  24  43  72 106 137 187 240 287 350 417
#     4  12  26  42  66 106 141 179 230 290 350 415
#     4  11  24  46  68  99 143 180 233 293 342 421
#     4  11  23  48  66 103 141 183 230 289 350 425
#     4  10  24  47  69  99 140 189 234 286 361 412
#     4  12  24  41  75 100 142 191 231 282 362 417
#     4  10  24  43  74 100 141 182 238 296 343 421
#
# _framework density 27.267869000000001
#
# number of rings (size 3 to 8) (size 9 to 14) (size 15 to 20)
#    0.000    0.857    2.857    3.857    6.000    1.714 
#    5.143    0.000    0.000    0.000    0.000    0.000 
#    0.000    0.000    0.000    0.000    0.000    0.000 
#
# Total GULP energy -78130.078892 kJ/mol
# GULP energy per Si atom -5580.719921 kJ/mol
# Density = 2.720581 g / cm^3
# Si number density = 27.267869 Si / 1000 Ang^3
#
#
#
# Elastic Constant Matrix: (Units=GPa)
#
#
# Indices 1 2 3 4 5 6 
#
# 1 90.6805 16.3514 27.6595 6.4325 -7.7062 9.3262
# 2 16.3514 148.1003 9.8791 30.4276 13.5352 -3.8724
# 3 27.6595 9.8791 92.9082 17.2285 -1.0123 0.6762
# 4 6.4325 30.4276 17.2285 42.5184 2.6517 -9.2303
# 5 -7.7062 13.5352 -1.0123 2.6517 39.4578 8.7472
# 6 9.3262 -3.8724 0.6762 -9.2303 8.7472 40.9287
#
#
#
# Elastic Compliance Matrix: (Units=1/GPa)
#
#
# Indices 1 2 3 4 5 6 
#
# 1 0.013200 -0.001574 -0.003588 -0.000547 0.003965 -0.004068
# 2 -0.001574 0.008329 0.000603 -0.005686 -0.002871 0.000468
# 3 -0.003588 0.000603 0.012722 -0.005136 -0.000133 -0.000465
# 4 -0.000547 -0.005686 -0.005136 0.031437 -0.001994 0.007187
# 5 0.003965 -0.002871 -0.000133 -0.001994 0.028965 -0.007813
# 6 -0.004068 0.000468 -0.000465 0.007187 -0.007813 0.028702
#
#
# Mechanical properties :
#
#
# Convention : Reuss Voigt Hill
#
# Bulk Modulus (GPa) = 39.79181 48.82992 44.31086
# Shear Modulus (GPa) = 35.49846 43.10093 39.29969
#
# Velocity S-wave (km/s) = 3.61202 3.98005 3.80049
# Velocity P-wave (km/s) = 5.65864 6.25040 5.96186
#
# Compressibility (1/GPa) = 0.02513080
#
# Stress axis : x y z
#
# Youngs Moduli (GPa) = 75.75634 120.06960 78.60513
#
# Poissons Ratio (x) = 0.18904 0.28205
# Poissons Ratio (y) = 0.11927 -0.04738
# Poissons Ratio (z) = 0.27183 -0.07237
#
# Static dielectric constant tensor:
#      x y z
#    x 2.607620 0.182820 -0.117540 
#    y 0.182820 2.383070 -0.152500 
#    z -0.117540 -0.152500 2.403810 
# 
# From -- ./inp_files/237259.got.cif
#   From: 2010.05.17/outbox.cif.g08.bks.cpg/sg2_119_cif.got.tgz:237259.got - 2010.06.03 11:33:40.
