data_PCOD9047795
_publ_section_title
;
Structure prediction by ZEFSAII (Michael W. Deem and Ramdas Pophale) SiO2 
 PCOD9047795
Probable space group: P -1
;
_chemical_formula_sum "Si O2"
_cell_formula_units_Z 16
_cell_length_a 5.114606
_cell_length_b 8.915742
_cell_length_c 15.215408
_cell_angle_alpha 114.534006
_cell_angle_beta 81.002560
_cell_angle_gamma 93.611714
_cell_volume 623.419827
_symmetry_space_group_name_H-M "P -1"
_symmetry_group_IT_number 2
_symmetry_cell_setting 'triclinic'
loop_
_space_group_symop_operation_xyz
x,y,z
-x,-y,-z
loop_
_atom_site_type_symbol
_atom_site_label
_atom_site_fract_x
_atom_site_fract_y
_atom_site_fract_z
Si Si1 0.941755 0.583341 0.931300
Si Si2 0.244435 0.141434 0.759903
Si Si3 0.182938 0.339636 0.460753
Si Si4 0.001554 0.174135 0.591403
Si Si5 0.276605 0.784011 0.658884
Si Si6 0.781916 0.921007 0.056840
Si Si7 0.618907 0.260040 0.166945
Si Si8 0.651590 0.408590 0.755859
O O1 0.142526 0.551271 0.167882
O O2 0.728131 0.734129 0.983149
O O3 0.000000 0.500000 0.000000
O O4 0.201455 0.672876 0.904089
O O5 0.422003 0.304175 0.789590
O O6 0.075440 0.151654 0.683087
O O7 0.399858 0.968252 0.694414
O O8 0.120544 0.111752 0.855563
O O9 0.483090 0.334373 0.410764
O O10 0.000000 0.500000 0.500000
O O11 0.192444 0.283876 0.547961
O O12 0.989137 0.219212 0.385268
O O13 0.743258 0.289711 0.643067
O O14 0.000000 0.000000 0.500000
O O15 0.209574 0.743961 0.753310
O O16 0.557900 0.065531 0.108487
O O17 0.000000 0.000000 0.000000
O O18 0.413700 0.407396 0.229200
#
# Coordination Sequence:
#
# PCOD9047795 Si02
#       8
#     2   2   2   2   2   2   2   2
#     4  11  24  46  73 108 146 188 249 319 387 463
#     4  11  25  46  72 107 146 195 253 309 386 451
#     4  12  27  45  74 106 151 198 259 312 385 449
#     4  12  26  46  71 103 147 199 247 315 374 456
#     4  11  26  48  71 108 150 200 253 315 377 463
#     4   9  21  46  73 101 145 191 237 316 381 465
#     4  10  24  44  70 105 146 190 248 306 386 452
#     4  12  26  42  74 104 146 191 250 316 380 458
#
# _framework density 25.664888000000001
#
# number of rings (size 3 to 8) (size 9 to 14) (size 15 to 20)
#    0.000    1.000    1.250    4.125    7.000    3.500 
#    0.000    2.500    0.000    0.000    0.000    0.000 
#    0.000    0.000    0.000    0.000    0.000    0.000 
#
# Total GULP energy -89374.055816 kJ/mol
# GULP energy per Si atom -5585.878489 kJ/mol
# Density = 2.560647 g / cm^3
# Si number density = 25.664888 Si / 1000 Ang^3
#
#
#
# Elastic Constant Matrix: (Units=GPa)
#
#
# Indices 1 2 3 4 5 6 
#
# 1 81.1317 20.1310 25.8140 2.6411 10.6345 -2.4150
# 2 20.1310 164.0508 71.6343 25.2015 7.1575 -7.6310
# 3 25.8140 71.6343 132.3858 3.4628 3.5998 -5.9571
# 4 2.6411 25.2015 3.4628 70.0682 0.2217 -3.3129
# 5 10.6345 7.1575 3.5998 0.2217 30.0657 2.6585
# 6 -2.4150 -7.6310 -5.9571 -3.3129 2.6585 27.3488
#
#
#
# Elastic Compliance Matrix: (Units=1/GPa)
#
#
# Indices 1 2 3 4 5 6 
#
# 1 0.013796 -0.000415 -0.002289 -0.000194 -0.004596 0.001027
# 2 -0.000415 0.008628 -0.004420 -0.002807 -0.001464 0.001210
# 3 -0.002289 -0.004420 0.010387 0.001205 0.000528 0.000922
# 4 -0.000194 -0.002807 0.001205 0.015289 0.000367 0.001278
# 5 -0.004596 -0.001464 0.000528 0.000367 0.035532 -0.004109
# 6 0.001027 0.001210 0.000922 0.001278 -0.004109 0.037748
#
#
# Mechanical properties :
#
#
# Convention : Reuss Voigt Hill
#
# Bulk Modulus (GPa) = 53.87059 68.08074 60.97566
# Shear Modulus (GPa) = 35.25657 42.82913 39.04285
#
# Velocity S-wave (km/s) = 3.71040 4.08951 3.90456
# Velocity P-wave (km/s) = 6.27628 6.99165 6.64360
#
# Compressibility (1/GPa) = 0.01856301
#
# Stress axis : x y z
#
# Youngs Moduli (GPa) = 72.48259 115.90016 96.27080
#
# Poissons Ratio (x) = 0.04812 0.22039
# Poissons Ratio (y) = 0.03009 0.42552
# Poissons Ratio (z) = 0.16593 0.51228
#
# Static dielectric constant tensor:
#      x y z
#    x 2.129610 -0.015770 -0.102220 
#    y -0.015770 2.129040 0.016420 
#    z -0.102220 0.016420 2.297670 
# 
# From -- ./inp_files/480613.got.cif
#   From: 2010.05.17/outbox.cif.g08.bks.cpg/sg2_241_cif.got.tgz:480613.got - 2010.06.03 11:33:40.
