data_PCOD9047236
_publ_section_title
;
Structure prediction by ZEFSAII (Michael W. Deem and Ramdas Pophale) SiO2 
 PCOD9047236
Probable space group: P -1
;
_chemical_formula_sum "Si O2"
_cell_formula_units_Z 16
_cell_length_a 12.495606
_cell_length_b 11.485025
_cell_length_c 8.482863
_cell_angle_alpha 114.196838
_cell_angle_beta 57.163012
_cell_angle_gamma 140.985736
_cell_volume 643.763782
_symmetry_space_group_name_H-M "P -1"
_symmetry_group_IT_number 2
_symmetry_cell_setting 'triclinic'
loop_
_space_group_symop_operation_xyz
x,y,z
-x,-y,-z
loop_
_atom_site_type_symbol
_atom_site_label
_atom_site_fract_x
_atom_site_fract_y
_atom_site_fract_z
Si Si1 0.347910 0.261394 0.150754
Si Si2 0.594249 0.260886 0.364150
Si Si3 0.907920 0.798601 0.445808
Si Si4 0.872322 0.272779 0.320354
Si Si5 0.647558 0.540108 0.285605
Si Si6 0.273815 0.939328 0.216003
Si Si7 0.249820 0.679679 0.235778
Si Si8 0.614460 0.847627 0.221779
O O1 0.236164 0.292167 0.345957
O O2 0.555283 0.445007 0.141676
O O3 0.303149 0.084697 0.158355
O O4 0.316060 0.222864 0.970796
O O5 0.744419 0.273053 0.316634
O O6 0.684844 0.431057 0.276283
O O7 0.489952 0.254067 0.588915
O O8 0.426302 0.075614 0.302337
O O9 0.831633 0.745672 0.298064
O O10 0.058691 0.801429 0.351810
O O11 0.000000 0.000000 0.500000
O O12 0.831604 0.289630 0.540885
O O13 0.088632 0.457363 0.216198
O O14 0.778922 0.067487 0.246531
O O15 0.500000 0.500000 0.500000
O O16 0.286821 0.794201 0.113846
O O17 0.445912 0.778675 0.207674
#
# Coordination Sequence:
#
# PCOD9047236 Si02
#       8
#     2   2   2   2   2   2   2   2
#     4   9  21  35  55  79 113 144 178 234 282 315
#     4  10  18  34  60  79 106 152 183 222 272 325
#     4   9  18  35  57  78 104 142 187 227 265 329
#     4  10  19  34  56  82 113 148 190 219 264 336
#     4   9  18  36  57  77 100 142 192 221 263 331
#     4  10  17  34  57  80 104 147 194 222 266 328
#     4  10  19  33  57  83 106 152 189 220 268 331
#     4  11  20  38  53  83 123 141 175 233 281 320
#
# _framework density 24.853836000000001
#
# number of rings (size 3 to 8) (size 9 to 14) (size 15 to 20)
#    0.000    2.250    2.500    2.250    0.000    0.500 
#    4.500    3.750    0.000    0.000    0.000    0.000 
#    0.000    0.000    0.000    0.000    0.000    0.000 
#
# Total GULP energy -89187.950568 kJ/mol
# GULP energy per Si atom -5574.246910 kJ/mol
# Density = 2.479727 g / cm^3
# Si number density = 24.853836 Si / 1000 Ang^3
#
#
#
# Elastic Constant Matrix: (Units=GPa)
#
#
# Indices 1 2 3 4 5 6 
#
# 1 46.4365 12.4766 -4.3630 -9.8780 6.1688 3.7752
# 2 12.4766 154.1555 34.9379 25.1595 9.0023 14.0221
# 3 -4.3630 34.9379 89.4894 14.5495 -5.3277 11.7786
# 4 -9.8780 25.1595 14.5495 33.0703 1.6154 3.6904
# 5 6.1688 9.0023 -5.3277 1.6154 6.3134 -3.3909
# 6 3.7752 14.0221 11.7786 3.6904 -3.3909 40.1459
#
#
#
# Elastic Compliance Matrix: (Units=1/GPa)
#
#
# Indices 1 2 3 4 5 6 
#
# 1 0.029663 -0.001716 -0.001258 0.013044 -0.034104 -0.005900
# 2 -0.001716 0.009355 -0.003410 -0.005085 -0.014789 -0.002887
# 3 -0.001258 -0.003410 0.014513 -0.005005 0.019151 -0.000871
# 4 0.013044 -0.005085 -0.005005 0.041712 -0.022382 -0.003707
# 5 -0.034104 -0.014789 0.019151 -0.022382 0.248551 0.025805
# 6 -0.005900 -0.002887 -0.000871 -0.003707 0.025805 0.029248
#
#
# Mechanical properties :
#
#
# Convention : Reuss Voigt Hill
#
# Bulk Modulus (GPa) = 24.53252 41.79828 33.16540
# Shear Modulus (GPa) = 12.51887 32.37458 22.44673
#
# Velocity S-wave (km/s) = 2.24676 3.61307 3.00850
# Velocity P-wave (km/s) = 4.07710 5.85319 5.04394
#
# Compressibility (1/GPa) = 0.04076222
#
# Stress axis : x y z
#
# Youngs Moduli (GPa) = 33.71254 106.89697 68.90432
#
# Poissons Ratio (x) = 0.18345 0.08670
# Poissons Ratio (y) = 0.05785 0.23494
# Poissons Ratio (z) = 0.04242 0.36448
#
# Static dielectric constant tensor:
#      x y z
#    x 1.935120 0.065610 -0.109440 
#    y 0.065610 2.003610 0.031390 
#    z -0.109440 0.031390 1.992100 
# 
# From -- ./inp_files/213553.got.cif
#   From: 2010.05.17/outbox.cif.g08.bks.cpg/sg2_107_cif.got.tgz:213553.got - 2010.06.03 11:33:40.
