data_PCOD9047536
_publ_section_title
;
Structure prediction by ZEFSAII (Michael W. Deem and Ramdas Pophale) SiO2 
 PCOD9047536
Probable space group: P -1
;
_chemical_formula_sum "Si O2"
_cell_formula_units_Z 12
_cell_length_a 6.351265
_cell_length_b 11.999904
_cell_length_c 12.673739
_cell_angle_alpha 30.530476
_cell_angle_beta 101.559525
_cell_angle_gamma 91.332912
_cell_volume 458.579824
_symmetry_space_group_name_H-M "P -1"
_symmetry_group_IT_number 2
_symmetry_cell_setting 'triclinic'
loop_
_space_group_symop_operation_xyz
x,y,z
-x,-y,-z
loop_
_atom_site_type_symbol
_atom_site_label
_atom_site_fract_x
_atom_site_fract_y
_atom_site_fract_z
Si Si1 0.501538 0.700011 0.588076
Si Si2 0.195801 0.351765 0.718198
Si Si3 0.769180 0.202412 0.313070
Si Si4 0.006829 0.481186 0.824156
Si Si5 0.295155 0.802118 0.926410
Si Si6 0.547994 0.123342 0.783675
O O1 0.373511 0.818275 0.582029
O O2 0.765795 0.680255 0.635792
O O3 0.533441 0.428710 0.821318
O O4 0.388132 0.792370 0.390755
O O5 0.000000 0.500000 0.500000
O O6 0.103672 0.464351 0.730356
O O7 0.422028 0.315003 0.698569
O O8 0.250588 0.078308 0.979741
O O9 0.836409 0.437947 0.144582
O O10 0.656971 0.202100 0.189428
O O11 0.000000 0.000000 0.500000
O O12 0.942337 0.250877 0.037018
O O13 0.354750 0.006986 0.822543
#
# Coordination Sequence:
#
# PCOD9047536 Si02
#       6
#     2   2   2   2   2   2
#     4  10  24  44  68 101 145 185 232 296 344 419
#     4  11  23  46  75 102 145 182 238 300 347 429
#     4  12  25  42  72 104 141 193 235 286 357 424
#     4  10  24  45  68 103 144 183 236 289 353 413
#     4  10  24  46  68 103 143 186 230 294 346 422
#     4  11  24  46  74 107 140 189 238 287 363 420
#
# _framework density 26.167743999999999
#
# number of rings (size 3 to 8) (size 9 to 14) (size 15 to 20)
#    1.000    0.333    1.667    3.000    2.333    3.333 
#    0.000   15.000    0.000    0.000    0.000    0.000 
#    0.000    0.000    0.000    0.000    0.000    0.000 
#
# Total GULP energy -67008.634943 kJ/mol
# GULP energy per Si atom -5584.052912 kJ/mol
# Density = 2.610818 g / cm^3
# Si number density = 26.167744 Si / 1000 Ang^3
#
#
#
# Elastic Constant Matrix: (Units=GPa)
#
#
# Indices 1 2 3 4 5 6 
#
# 1 86.7823 64.7815 24.6260 -11.1873 3.2809 -20.9931
# 2 64.7815 219.6652 47.8798 27.4619 -6.4868 -20.7583
# 3 24.6260 47.8798 138.5402 28.5928 8.5873 -16.6159
# 4 -11.1873 27.4619 28.5928 47.7016 -7.6556 -8.1669
# 5 3.2809 -6.4868 8.5873 -7.6556 40.8047 -4.9736
# 6 -20.9931 -20.7583 -16.6159 -8.1669 -4.9736 52.2443
#
#
#
# Elastic Compliance Matrix: (Units=1/GPa)
#
#
# Indices 1 2 3 4 5 6 
#
# 1 0.019766 -0.005917 -0.003054 0.011137 0.000989 0.006455
# 2 -0.005917 0.007004 -0.000401 -0.005155 0.000650 -0.000466
# 3 -0.003054 -0.000401 0.009487 -0.006602 -0.003015 0.000311
# 4 0.011137 -0.005155 -0.006602 0.032582 0.006524 0.006041
# 5 0.000989 0.000650 -0.003015 0.006524 0.026787 0.003267
# 6 0.006455 -0.000466 0.000311 0.006041 0.003267 0.022904
#
#
# Mechanical properties :
#
#
# Convention : Reuss Voigt Hill
#
# Bulk Modulus (GPa) = 57.10053 79.95135 68.52594
# Shear Modulus (GPa) = 34.93760 48.66347 41.80054
#
# Velocity S-wave (km/s) = 3.65792 4.31707 4.00109
# Velocity P-wave (km/s) = 6.30150 7.44777 6.89848
#
# Compressibility (1/GPa) = 0.01751297
#
# Stress axis : x y z
#
# Youngs Moduli (GPa) = 50.59127 142.76930 105.41237
#
# Poissons Ratio (x) = 0.84470 0.32196
# Poissons Ratio (y) = 0.29933 0.04230
# Poissons Ratio (z) = 0.15452 0.05729
#
# Static dielectric constant tensor:
#      x y z
#    x 2.199280 0.111060 -0.067210 
#    y 0.111060 2.072990 -0.006740 
#    z -0.067210 -0.006740 2.073110 
# 
# From -- ./inp_files/388809.got.cif
#   From: 2010.05.17/outbox.cif.g08.bks.cpg/sg2_195_cif.got.tgz:388809.got - 2010.06.03 11:33:40.
