data_PCOD9047589
_publ_section_title
;
Structure prediction by ZEFSAII (Michael W. Deem and Ramdas Pophale) SiO2 
 PCOD9047589
Probable space group: P -1
;
_chemical_formula_sum "Si O2"
_cell_formula_units_Z 14
_cell_length_a 8.157783
_cell_length_b 8.904636
_cell_length_c 11.975308
_cell_angle_alpha 64.735743
_cell_angle_beta 66.473147
_cell_angle_gamma 52.012782
_cell_volume 608.563585
_symmetry_space_group_name_H-M "P -1"
_symmetry_group_IT_number 2
_symmetry_cell_setting 'triclinic'
loop_
_space_group_symop_operation_xyz
x,y,z
-x,-y,-z
loop_
_atom_site_type_symbol
_atom_site_label
_atom_site_fract_x
_atom_site_fract_y
_atom_site_fract_z
Si Si1 0.937865 0.811326 0.969883
Si Si2 0.034928 0.420231 0.160074
Si Si3 0.193886 0.325350 0.569474
Si Si4 0.748505 0.154379 0.544337
Si Si5 0.341414 0.182811 0.338635
Si Si6 0.219084 0.996311 0.818640
Si Si7 0.384441 0.463421 0.664711
O O1 0.858621 0.770082 0.889048
O O2 0.072579 0.908261 0.878267
O O3 0.069129 0.589045 0.054071
O O4 0.784483 0.936562 0.073924
O O5 0.134895 0.350920 0.276509
O O6 0.779781 0.513435 0.202830
O O7 0.341250 0.212375 0.460033
O O8 0.145615 0.182073 0.697670
O O9 0.295624 0.403598 0.602210
O O10 0.000000 0.500000 0.500000
O O11 0.636595 0.297021 0.640112
O O12 0.672277 0.317964 0.415876
O O13 0.659306 0.013835 0.616871
O O14 0.000000 0.000000 0.500000
O O15 0.544428 0.161589 0.233091
#
# Coordination Sequence:
#
# PCOD9047589 Si02
#       7
#     2   2   2   2   2   2   2
#     4  10  24  44  68  89 131 179 229 271 330 386
#     4  11  22  44  66  97 128 180 220 282 323 399
#     4  12  22  40  65  97 136 175 212 278 342 405
#     4  11  22  39  62  98 135 175 214 271 336 411
#     4  12  24  40  69  98 136 171 224 276 347 396
#     4  11  24  43  64  99 130 179 221 279 330 403
#     4  11  23  38  63  95 141 170 218 269 337 398
#
# _framework density 23.004992999999999
#
# number of rings (size 3 to 8) (size 9 to 14) (size 15 to 20)
#    0.000    0.857    5.714    0.429    2.000    3.429 
#    0.000    0.000    0.000    0.000    0.000    0.000 
#    0.000    0.000    0.000    0.000    0.000    0.000 
#
# Total GULP energy -78132.007391 kJ/mol
# GULP energy per Si atom -5580.857671 kJ/mol
# Density = 2.295263 g / cm^3
# Si number density = 23.004993 Si / 1000 Ang^3
#
#
#
# Elastic Constant Matrix: (Units=GPa)
#
#
# Indices 1 2 3 4 5 6 
#
# 1 30.4070 27.9112 39.0123 -8.3882 -7.5863 -3.8800
# 2 27.9112 91.0485 35.0652 5.3841 -13.4663 -8.9221
# 3 39.0123 35.0652 143.4721 15.6505 -18.4670 6.3493
# 4 -8.3882 5.3841 15.6505 47.3233 6.7285 -12.3061
# 5 -7.5863 -13.4663 -18.4670 6.7285 36.9372 6.1817
# 6 -3.8800 -8.9221 6.3493 -12.3061 6.1817 43.9512
#
#
#
# Elastic Compliance Matrix: (Units=1/GPa)
#
#
# Indices 1 2 3 4 5 6 
#
# 1 0.096461 -0.020871 -0.027266 0.035176 -0.011122 0.019631
# 2 -0.020871 0.017276 0.003066 -0.007877 0.005268 -0.001725
# 3 -0.027266 0.003066 0.016625 -0.014231 0.007977 -0.009293
# 4 0.035176 -0.007877 -0.014231 0.038982 -0.012582 0.016247
# 5 -0.011122 0.005268 0.007977 -0.012582 0.034571 -0.009450
# 6 0.019631 -0.001725 -0.009293 0.016247 -0.009450 0.031356
#
#
# Mechanical properties :
#
#
# Convention : Reuss Voigt Hill
#
# Bulk Modulus (GPa) = 24.86237 52.10056 38.48147
# Shear Modulus (GPa) = 14.75712 36.50493 25.63103
#
# Velocity S-wave (km/s) = 2.53548 3.98782 3.34151
# Velocity P-wave (km/s) = 4.40482 6.62573 5.62595
#
# Compressibility (1/GPa) = 0.04022142
#
# Stress axis : x y z
#
# Youngs Moduli (GPa) = 10.36688 57.88293 60.15087
#
# Poissons Ratio (x) = 1.20808 1.64006
# Poissons Ratio (y) = 0.21637 -0.18445
# Poissons Ratio (z) = 0.28266 -0.17750
#
# Static dielectric constant tensor:
#      x y z
#    x 1.909140 -0.089240 -0.031230 
#    y -0.089240 1.984210 0.077990 
#    z -0.031230 0.077990 1.894010 
# 
# From -- ./inp_files/381589.got.cif
#   From: 2010.05.17/outbox.cif.g08.bks.cpg/sg2_191_cif.got.tgz:381589.got - 2010.06.03 11:33:40.
