data_PCOD9047480
_publ_section_title
;
Structure prediction by ZEFSAII (Michael W. Deem and Ramdas Pophale) SiO2 
 PCOD9047480
Probable space group: P -1
;
_chemical_formula_sum "Si O2"
_cell_formula_units_Z 14
_cell_length_a 11.944850
_cell_length_b 9.195171
_cell_length_c 9.991414
_cell_angle_alpha 134.395432
_cell_angle_beta 126.964022
_cell_angle_gamma 76.802760
_cell_volume 589.887763
_symmetry_space_group_name_H-M "P -1"
_symmetry_group_IT_number 2
_symmetry_cell_setting 'triclinic'
loop_
_space_group_symop_operation_xyz
x,y,z
-x,-y,-z
loop_
_atom_site_type_symbol
_atom_site_label
_atom_site_fract_x
_atom_site_fract_y
_atom_site_fract_z
Si Si1 0.793618 0.209625 0.887292
Si Si2 0.995486 0.669206 0.336594
Si Si3 0.092935 0.998179 0.378395
Si Si4 0.189893 0.093588 0.074458
Si Si5 0.439831 0.691554 0.044243
Si Si6 0.514674 0.110518 0.225357
Si Si7 0.745653 0.454884 0.456939
O O1 0.789043 0.032935 0.659934
O O2 0.850805 0.122951 0.005715
O O3 0.908111 0.435343 0.064599
O O4 0.648021 0.256922 0.859690
O O5 0.073039 0.840785 0.389095
O O6 0.119204 0.637781 0.502730
O O7 0.884314 0.764007 0.396875
O O8 0.933655 0.927489 0.140421
O O9 0.356488 0.131155 0.164447
O O10 0.200071 0.293287 0.307314
O O11 0.336985 0.605396 0.782665
O O12 0.500000 0.500000 0.000000
O O13 0.544031 0.932005 0.227485
O O14 0.641212 0.338129 0.433632
O O15 0.500000 0.000000 0.000000
#
# Coordination Sequence:
#
# PCOD9047480 Si02
#       7
#     2   2   2   2   2   2   2
#     4  11  24  43  66  96 135 166 213 272 318 386
#     4  11  25  42  68  96 131 175 210 263 324 382
#     4  11  24  43  64  99 131 170 217 259 321 389
#     4  11  23  40  67  96 129 169 215 267 322 379
#     4  10  24  44  67  94 128 172 213 271 323 374
#     4   9  20  42  63  90 127 170 216 259 317 381
#     4  11  23  42  66  94 128 172 218 260 325 382
#
# _framework density 23.733326999999999
#
# number of rings (size 3 to 8) (size 9 to 14) (size 15 to 20)
#    0.000    1.429    1.429    3.857    2.000    5.714 
#    2.571    1.429    0.000    0.000    0.000    0.000 
#    0.000    0.000    0.000    0.000    0.000    0.000 
#
# Total GULP energy -78321.827388 kJ/mol
# GULP energy per Si atom -5594.416242 kJ/mol
# Density = 2.367931 g / cm^3
# Si number density = 23.733327 Si / 1000 Ang^3
#
#
#
# Elastic Constant Matrix: (Units=GPa)
#
#
# Indices 1 2 3 4 5 6 
#
# 1 125.9752 55.4304 9.9917 4.5345 -30.0188 -14.7488
# 2 55.4304 138.6991 14.1912 2.3995 -5.8148 -29.0776
# 3 9.9917 14.1912 41.7322 -4.5002 -14.5608 -16.9780
# 4 4.5345 2.3995 -4.5002 35.2430 -0.3189 0.9553
# 5 -30.0188 -5.8148 -14.5608 -0.3189 35.9358 13.3768
# 6 -14.7488 -29.0776 -16.9780 0.9553 13.3768 32.0151
#
#
#
# Elastic Compliance Matrix: (Units=1/GPa)
#
#
# Indices 1 2 3 4 5 6 
#
# 1 0.012522 -0.005282 0.001437 -0.000886 0.011279 -0.002954
# 2 -0.005282 0.011269 -0.000824 -0.000530 -0.006720 0.010188
# 3 0.001437 -0.000824 0.033068 0.003818 0.009528 0.013354
# 4 -0.000886 -0.000530 0.003818 0.029026 0.001040 -0.000165
# 5 0.011279 -0.006720 0.009528 0.001040 0.045592 -0.014935
# 6 -0.002954 0.010188 0.013354 -0.000165 -0.014935 0.052455
#
#
# Mechanical properties :
#
#
# Convention : Reuss Voigt Hill
#
# Bulk Modulus (GPa) = 21.04464 51.73700 36.39082
# Shear Modulus (GPa) = 23.91072 35.75831 29.83452
#
# Velocity S-wave (km/s) = 3.17752 3.88580 3.54937
# Velocity P-wave (km/s) = 4.72742 6.47913 5.67132
#
# Compressibility (1/GPa) = 0.04751804
#
# Stress axis : x y z
#
# Youngs Moduli (GPa) = 79.85718 88.74269 30.24081
#
# Poissons Ratio (x) = 0.46878 -0.04344
# Poissons Ratio (y) = 0.42184 0.02493
# Poissons Ratio (z) = -0.11472 0.07316
#
# Static dielectric constant tensor:
#      x y z
#    x 1.983570 0.026130 0.066680 
#    y 0.026130 1.879660 0.020050 
#    z 0.066680 0.020050 1.883120 
# 
# From -- ./inp_files/246197.got.cif
#   From: 2010.05.17/outbox.cif.g08.bks.cpg/sg2_124_cif.got.tgz:246197.got - 2010.06.03 11:33:40.
