data_PCOD9047101
_publ_section_title
;
Structure prediction by ZEFSAII (Michael W. Deem and Ramdas Pophale) SiO2 
 PCOD9047101
Probable space group: P -1
;
_chemical_formula_sum "Si O2"
_cell_formula_units_Z 16
_cell_length_a 8.629468
_cell_length_b 17.479059
_cell_length_c 10.986138
_cell_angle_alpha 117.698484
_cell_angle_beta 125.546575
_cell_angle_gamma 106.839589
_cell_volume 751.140257
_symmetry_space_group_name_H-M "P -1"
_symmetry_group_IT_number 2
_symmetry_cell_setting 'triclinic'
loop_
_space_group_symop_operation_xyz
x,y,z
-x,-y,-z
loop_
_atom_site_type_symbol
_atom_site_label
_atom_site_fract_x
_atom_site_fract_y
_atom_site_fract_z
Si Si1 0.467323 0.238374 0.771897
Si Si2 0.936326 0.490830 0.823862
Si Si3 0.747289 0.007917 0.861158
Si Si4 0.051142 0.874649 0.685913
Si Si5 0.855857 0.289167 0.336098
Si Si6 0.575077 0.775951 0.716344
Si Si7 0.352687 0.527826 0.882881
Si Si8 0.456119 0.078904 0.797756
O O1 0.334161 0.104154 0.664481
O O2 0.288286 0.212279 0.555120
O O3 0.450009 0.315105 0.912423
O O4 0.824432 0.351884 0.991598
O O5 0.594592 0.365803 0.527512
O O6 0.079317 0.458661 0.796332
O O7 0.000000 0.500000 0.000000
O O8 0.555946 0.023086 0.745426
O O9 0.575355 0.856272 0.679441
O O10 0.830225 0.055770 0.076864
O O11 0.068638 0.114465 0.019088
O O12 0.096865 0.787897 0.636340
O O13 0.238560 0.981249 0.739404
O O14 0.601706 0.254654 0.266350
O O15 0.184377 0.448477 0.621203
O O16 0.739527 0.226960 0.102726
O O17 0.500000 0.500000 0.000000
#
# Coordination Sequence:
#
# PCOD9047101 Si02
#       8
#     2   2   2   2   2   2   2   2
#     4  10  22  32  55  79 109 139 170 220 272 305
#     4   9  19  35  55  75 102 137 176 214 258 314
#     4  10  20  33  58  79 102 140 183 211 257 312
#     4  11  18  34  55  79 104 144 176 212 257 323
#     4  10  17  34  57  77 103 137 182 215 253 309
#     4  10  18  33  56  80  98 134 185 224 243 302
#     4   9  18  33  56  79 101 131 183 218 253 308
#     4  11  21  34  51  80 113 139 169 218 269 313
#
# _framework density 21.300948000000002
#
# number of rings (size 3 to 8) (size 9 to 14) (size 15 to 20)
#    0.750    1.250    3.750    1.875    0.000    0.500 
#    0.000    0.625    2.750    6.750    0.000    0.000 
#    0.000    0.000    0.000    0.000    0.000    0.000 
#
# Total GULP energy -89104.570011 kJ/mol
# GULP energy per Si atom -5569.035626 kJ/mol
# Density = 2.125247 g / cm^3
# Si number density = 21.300948 Si / 1000 Ang^3
#
#
#
# Elastic Constant Matrix: (Units=GPa)
#
#
# Indices 1 2 3 4 5 6 
#
# 1 40.6764 14.6551 -6.8134 0.1532 5.6042 -8.0306
# 2 14.6551 64.7047 -7.0860 0.3858 10.7050 -6.1255
# 3 -6.8134 -7.0860 44.0202 7.5167 3.5730 0.0786
# 4 0.1532 0.3858 7.5167 18.0212 -2.5725 2.3516
# 5 5.6042 10.7050 3.5730 -2.5725 23.2808 -0.7639
# 6 -8.0306 -6.1255 0.0786 2.3516 -0.7639 19.3782
#
#
#
# Elastic Compliance Matrix: (Units=1/GPa)
#
#
# Indices 1 2 3 4 5 6 
#
# 1 0.030103 -0.004069 0.005317 -0.004793 -0.006344 0.011499
# 2 -0.004069 0.018594 0.003660 -0.003648 -0.008394 0.004288
# 3 0.005317 0.003660 0.027059 -0.013203 -0.008426 0.004521
# 4 -0.004793 -0.003648 -0.013203 0.064131 0.011602 -0.010411
# 5 -0.006344 -0.008394 -0.008426 0.011602 0.050763 -0.004655
# 6 0.011499 0.004288 0.004521 -0.010411 -0.004655 0.058787
#
#
# Mechanical properties :
#
#
# Convention : Reuss Voigt Hill
#
# Bulk Modulus (GPa) = 11.68614 16.76810 14.22712
# Shear Modulus (GPa) = 18.64661 22.04574 20.34617
#
# Velocity S-wave (km/s) = 2.96191 3.22058 3.09395
# Velocity P-wave (km/s) = 4.14672 4.66032 4.41100
#
# Compressibility (1/GPa) = 0.08557148
#
# Stress axis : x y z
#
# Youngs Moduli (GPa) = 33.21915 53.78155 36.95598
#
# Poissons Ratio (x) = 0.21884 -0.19650
# Poissons Ratio (y) = 0.13517 -0.13525
# Poissons Ratio (z) = -0.17663 -0.19683
#
# Static dielectric constant tensor:
#      x y z
#    x 1.797230 -0.007480 0.008390 
#    y -0.007480 1.766630 0.058740 
#    z 0.008390 0.058740 1.925740 
# 
# From -- ./inp_files/338786.got.cif
#   From: 2010.05.17/outbox.cif.g08.bks.cpg/sg2_170_cif.got.tgz:338786.got - 2010.06.03 11:33:40.
