data_PCOD9047943
_publ_section_title
;
Structure prediction by ZEFSAII (Michael W. Deem and Ramdas Pophale) SiO2 
 PCOD9047943
Probable space group: P -1
;
_chemical_formula_sum "Si O2"
_cell_formula_units_Z 16
_cell_length_a 16.253191
_cell_length_b 15.795235
_cell_length_c 8.320719
_cell_angle_alpha 68.627997
_cell_angle_beta 92.760376
_cell_angle_gamma 151.953959
_cell_volume 730.434621
_symmetry_space_group_name_H-M "P -1"
_symmetry_group_IT_number 2
_symmetry_cell_setting 'triclinic'
loop_
_space_group_symop_operation_xyz
x,y,z
-x,-y,-z
loop_
_atom_site_type_symbol
_atom_site_label
_atom_site_fract_x
_atom_site_fract_y
_atom_site_fract_z
Si Si1 0.843704 0.296820 0.767160
Si Si2 0.010602 0.915936 0.653837
Si Si3 0.503141 0.409661 0.963716
Si Si4 0.380522 0.848953 0.858424
Si Si5 0.521774 0.159656 0.427975
Si Si6 0.072571 0.342198 0.727651
Si Si7 0.836573 0.079975 0.571740
Si Si8 0.160685 0.083658 0.895534
O O1 0.000000 0.500000 0.500000
O O2 0.942669 0.298615 0.807362
O O3 0.593692 0.032541 0.853604
O O4 0.811014 0.320819 0.912861
O O5 0.094172 0.915638 0.565440
O O6 0.751778 0.629584 0.859614
O O7 0.162969 0.090250 0.700836
O O8 0.000000 0.000000 0.500000
O O9 0.400530 0.329395 0.835586
O O10 0.500000 0.500000 0.000000
O O11 0.340237 0.163640 0.179803
O O12 0.342865 0.740404 0.783254
O O13 0.465515 0.024833 0.646644
O O14 0.674721 0.389840 0.373397
O O15 0.292016 0.964681 0.473985
O O16 0.037433 0.307994 0.555257
O O17 0.962750 0.137413 0.921122
O O18 0.000000 0.000000 0.000000
#
# Coordination Sequence:
#
# PCOD9047943 Si02
#       8
#     2   2   2   2   2   2   2   2
#     4  11  22  47  70  99 141 183 230 287 350 418
#     4  12  24  43  69  98 131 184 229 285 352 404
#     4  11  22  45  67  92 136 180 221 285 343 399
#     4  10  24  44  71  99 140 180 225 292 353 418
#     4  11  23  45  70 104 136 180 234 286 356 416
#     4  11  24  44  70  99 137 185 227 284 349 411
#     4  11  25  44  64  98 140 167 236 285 330 423
#     4  11  24  43  70 100 140 182 232 283 345 417
#
# _framework density 21.904767
#
# number of rings (size 3 to 8) (size 9 to 14) (size 15 to 20)
#    0.000    1.000    5.000    1.500    1.750    2.000 
#    6.750    0.000    0.000    0.000    0.000    0.000 
#    0.000    0.000    0.000    0.000    0.000    0.000 
#
# Total GULP energy -89421.047951 kJ/mol
# GULP energy per Si atom -5588.815497 kJ/mol
# Density = 2.185491 g / cm^3
# Si number density = 21.904767 Si / 1000 Ang^3
#
#
#
# Elastic Constant Matrix: (Units=GPa)
#
#
# Indices 1 2 3 4 5 6 
#
# 1 86.8451 1.2606 15.1737 14.7461 -5.0666 -3.2303
# 2 1.2606 136.8243 18.4914 25.7299 2.4541 -6.7934
# 3 15.1737 18.4914 57.3888 12.4451 -17.0111 -7.6275
# 4 14.7461 25.7299 12.4451 33.2226 -9.1529 2.9151
# 5 -5.0666 2.4541 -17.0111 -9.1529 35.4802 9.2208
# 6 -3.2303 -6.7934 -7.6275 2.9151 9.2208 33.1769
#
#
#
# Elastic Compliance Matrix: (Units=1/GPa)
#
#
# Indices 1 2 3 4 5 6 
#
# 1 0.013096 0.001666 -0.002816 -0.006749 -0.001878 0.002084
# 2 0.001666 0.009578 -0.002567 -0.008867 -0.004898 0.003674
# 3 -0.002816 -0.002567 0.022667 -0.002851 0.009373 0.002057
# 4 -0.006749 -0.008867 -0.002851 0.045493 0.012795 -0.010681
# 5 -0.001878 -0.004898 0.009373 0.012795 0.038900 -0.010966
# 6 0.002084 0.003674 0.002057 -0.010681 -0.010966 0.035556
#
#
# Mechanical properties :
#
#
# Convention : Reuss Voigt Hill
#
# Bulk Modulus (GPa) = 26.38007 38.98998 32.68503
# Shear Modulus (GPa) = 26.97464 36.78477 31.87970
#
# Velocity S-wave (km/s) = 3.51301 4.10238 3.81908
# Velocity P-wave (km/s) = 5.34081 6.34647 5.86523
#
# Compressibility (1/GPa) = 0.03790741
#
# Stress axis : x y z
#
# Youngs Moduli (GPa) = 76.35687 104.40610 44.11761
#
# Poissons Ratio (x) = -0.17395 0.12422
# Poissons Ratio (y) = -0.12722 0.11326
# Poissons Ratio (z) = 0.21499 0.26804
#
# Static dielectric constant tensor:
#      x y z
#    x 1.794470 0.005880 0.020650 
#    y 0.005880 1.826870 0.045290 
#    z 0.020650 0.045290 1.820150 
# 
# From -- ./inp_files/314953.got.cif
#   From: 2010.05.17/outbox.cif.g08.bks.cpg/sg2_158_cif.got.tgz:314953.got - 2010.06.03 11:33:40.
