data_PCOD9047554
_publ_section_title
;
Structure prediction by ZEFSAII (Michael W. Deem and Ramdas Pophale) SiO2 
 PCOD9047554
Probable space group: P -1
;
_chemical_formula_sum "Si O2"
_cell_formula_units_Z 14
_cell_length_a 15.192331
_cell_length_b 23.233338
_cell_length_c 11.473677
_cell_angle_alpha 30.869970
_cell_angle_beta 152.090122
_cell_angle_gamma 160.370905
_cell_volume 628.041915
_symmetry_space_group_name_H-M "P -1"
_symmetry_group_IT_number 2
_symmetry_cell_setting 'triclinic'
loop_
_space_group_symop_operation_xyz
x,y,z
-x,-y,-z
loop_
_atom_site_type_symbol
_atom_site_label
_atom_site_fract_x
_atom_site_fract_y
_atom_site_fract_z
Si Si1 0.210255 0.489712 0.280593
Si Si2 0.690943 0.698434 0.902897
Si Si3 0.269594 0.584960 0.437652
Si Si4 0.800999 0.200143 0.979665
Si Si5 0.823364 0.239783 0.660175
Si Si6 0.239517 0.085391 0.229190
Si Si7 0.857221 0.765133 0.497397
O O1 0.253630 0.501891 0.449106
O O2 0.525194 0.654055 0.305176
O O3 0.109884 0.326245 0.392506
O O4 0.000000 0.500000 0.000000
O O5 0.585397 0.724550 0.625291
O O6 0.618616 0.734256 0.872148
O O7 0.500000 0.500000 0.000000
O O8 0.021824 0.807088 0.109298
O O9 0.199009 0.681050 0.161094
O O10 0.031909 0.430195 0.519675
O O11 0.823857 0.238484 0.803351
O O12 0.050672 0.237495 0.263208
O O13 0.500000 0.000000 0.000000
O O14 0.500592 0.119281 0.446460
O O15 0.068966 0.956215 0.364416
O O16 0.000000 0.000000 0.000000
#
# Coordination Sequence:
#
# PCOD9047554 Si02
#       7
#     2   2   2   2   2   2   2
#     4  11  25  45  70 101 136 189 232 286 354 426
#     4  10  24  44  68 103 132 184 233 285 347 408
#     4  11  23  44  74 102 139 182 243 290 345 422
#     4  12  22  43  70 103 141 183 230 291 352 415
#     4  11  25  44  73 103 140 185 234 291 352 412
#     4  12  28  45  68 105 147 183 235 291 355 420
#     4  11  26  46  70 101 144 185 231 294 357 414
#
# _framework density 22.291506999999999
#
# number of rings (size 3 to 8) (size 9 to 14) (size 15 to 20)
#    0.000    0.857    4.286    1.286    8.000    2.857 
#    0.000    2.857    0.000    0.000    0.000    0.000 
#    0.000    0.000    0.000    0.000    0.000    0.000 
#
# Total GULP energy -78226.107989 kJ/mol
# GULP energy per Si atom -5587.579142 kJ/mol
# Density = 2.224077 g / cm^3
# Si number density = 22.291507 Si / 1000 Ang^3
#
#
#
# Elastic Constant Matrix: (Units=GPa)
#
#
# Indices 1 2 3 4 5 6 
#
# 1 89.2530 25.8065 29.6158 4.8130 -8.2780 0.6511
# 2 25.8065 78.5010 41.1116 4.8156 -1.7003 8.6715
# 3 29.6158 41.1116 124.5740 36.8725 3.3038 10.0155
# 4 4.8130 4.8156 36.8725 53.0673 6.7621 -3.8667
# 5 -8.2780 -1.7003 3.3038 6.7621 33.2575 14.2095
# 6 0.6511 8.6715 10.0155 -3.8667 14.2095 26.2935
#
#
#
# Elastic Compliance Matrix: (Units=1/GPa)
#
#
# Indices 1 2 3 4 5 6 
#
# 1 0.013139 -0.003052 -0.002238 0.000183 0.003423 -0.000289
# 2 -0.003052 0.016804 -0.004992 0.001612 0.002196 -0.004515
# 3 -0.002238 -0.004992 0.013418 -0.009410 0.002361 -0.006069
# 4 0.000183 0.001612 -0.009410 0.027366 -0.009782 0.012359
# 5 0.003423 0.002196 0.002361 -0.009782 0.044379 -0.027130
# 6 -0.000289 -0.004515 -0.006069 0.012359 -0.027130 0.058319
#
#
# Mechanical properties :
#
#
# Convention : Reuss Voigt Hill
#
# Bulk Modulus (GPa) = 43.86935 53.93287 48.90111
# Shear Modulus (GPa) = 24.80300 35.57660 30.18980
#
# Velocity S-wave (km/s) = 3.33928 3.99929 3.68410
# Velocity P-wave (km/s) = 5.88135 6.75075 6.33100
#
# Compressibility (1/GPa) = 0.02279496
#
# Stress axis : x y z
#
# Youngs Moduli (GPa) = 76.10932 59.50938 74.52952
#
# Poissons Ratio (x) = 0.18165 0.16680
# Poissons Ratio (y) = 0.23232 0.37208
# Poissons Ratio (z) = 0.17033 0.29709
#
# Static dielectric constant tensor:
#      x y z
#    x 1.826580 -0.010570 -0.005980 
#    y -0.010570 1.823630 0.033490 
#    z -0.005980 0.033490 1.883760 
# 
# From -- ./inp_files/458064.got.cif
#   From: 2010.05.17/outbox.cif.g08.bks.cpg/sg2_230_cif.got.tgz:458064.got - 2010.06.03 11:33:40.
