data_PCOD9047984
_publ_section_title
;
Structure prediction by ZEFSAII (Michael W. Deem and Ramdas Pophale) SiO2 
 PCOD9047984
Probable space group: P -1
;
_chemical_formula_sum "Si O2"
_cell_formula_units_Z 13
_cell_length_a 9.230652
_cell_length_b 9.171983
_cell_length_c 11.588070
_cell_angle_alpha 139.532084
_cell_angle_beta 81.846892
_cell_angle_gamma 114.865841
_cell_volume 550.664836
_symmetry_space_group_name_H-M "P -1"
_symmetry_group_IT_number 2
_symmetry_cell_setting 'triclinic'
loop_
_space_group_symop_operation_xyz
x,y,z
-x,-y,-z
loop_
_atom_site_type_symbol
_atom_site_label
_atom_site_fract_x
_atom_site_fract_y
_atom_site_fract_z
Si Si1 0.000000 0.500000 0.000000
Si Si2 0.255856 0.057663 0.207532
Si Si3 0.140502 0.150454 0.672916
Si Si4 0.997911 0.763832 0.667458
Si Si5 0.704026 0.946675 0.056464
Si Si6 0.527122 0.087627 0.355186
Si Si7 0.532603 0.348617 0.734110
O O1 0.883202 0.610945 0.141379
O O2 0.106214 0.778084 0.089219
O O3 0.181034 0.250684 0.323100
O O4 0.387451 0.137021 0.342755
O O5 0.332538 0.046617 0.069420
O O6 0.333857 0.245145 0.675976
O O7 0.000000 0.000000 0.500000
O O8 0.097964 0.947807 0.659653
O O9 0.000000 0.500000 0.500000
O O10 0.097818 0.906260 0.856625
O O11 0.638241 0.084216 0.235284
O O12 0.625617 0.650741 0.923928
O O13 0.602785 0.273218 0.567957
O O14 0.446343 0.805165 0.253771
#
# Coordination Sequence:
#
# PCOD9047984 Si02
#       7
#     1   2   2   2   2   2   2
#     4  10  24  44  72 104 140 178 256 288 356 432
#     4  11  26  47  74 108 144 198 239 309 364 438
#     4  11  24  47  76 106 143 197 240 304 361 437
#     4  11  27  48  70 107 150 193 247 302 369 431
#     4  12  26  47  74 108 149 193 245 305 367 434
#     4  11  25  47  73 106 149 192 241 303 365 437
#     4  11  25  45  77 108 148 194 246 299 368 435
#
# _framework density 23.607827
#
# number of rings (size 3 to 8) (size 9 to 14) (size 15 to 20)
#    0.000    0.923    1.538    4.154    8.615    0.615 
#    2.769    0.000    0.000    0.000    0.000    0.000 
#    0.000    0.000    0.000    0.000    0.000    0.000 
#
# Total GULP energy -72542.611889 kJ/mol
# GULP energy per Si atom -5580.200915 kJ/mol
# Density = 2.355409 g / cm^3
# Si number density = 23.607827 Si / 1000 Ang^3
#
#
#
# Elastic Constant Matrix: (Units=GPa)
#
#
# Indices 1 2 3 4 5 6 
#
# 1 109.0830 14.4781 45.6885 -5.1585 -26.0688 -15.7060
# 2 14.4781 56.5438 17.4868 -2.9761 -14.6198 -6.1620
# 3 45.6885 17.4868 91.8285 1.1201 -23.5270 -4.2612
# 4 -5.1585 -2.9761 1.1201 49.3054 -4.0650 -4.7680
# 5 -26.0688 -14.6198 -23.5270 -4.0650 48.5533 -12.0015
# 6 -15.7060 -6.1620 -4.2612 -4.7680 -12.0015 33.4708
#
#
#
# Elastic Compliance Matrix: (Units=1/GPa)
#
#
# Indices 1 2 3 4 5 6 
#
# 1 0.014773 0.001287 -0.004929 0.003438 0.008731 0.010162
# 2 0.001287 0.021104 -0.002292 0.002845 0.008022 0.007479
# 3 -0.004929 -0.002292 0.014807 -0.000624 0.003900 0.000460
# 4 0.003438 0.002845 -0.000624 0.022041 0.006068 0.007373
# 5 0.008731 0.008022 0.003900 0.006068 0.034905 0.019450
# 6 0.010162 0.007479 0.000460 0.007373 0.019450 0.044105
#
#
# Mechanical properties :
#
#
# Convention : Reuss Voigt Hill
#
# Bulk Modulus (GPa) = 25.76169 45.86245 35.81207
# Shear Modulus (GPa) = 28.32234 38.25268 33.28751
#
# Velocity S-wave (km/s) = 3.46743 4.02971 3.75910
# Velocity P-wave (km/s) = 5.19296 6.41252 5.83469
#
# Compressibility (1/GPa) = 0.03881732
#
# Stress axis : x y z
#
# Youngs Moduli (GPa) = 67.69042 47.38549 67.53730
#
# Poissons Ratio (x) = -0.06101 0.33288
# Poissons Ratio (y) = -0.08715 0.15477
# Poissons Ratio (z) = 0.33364 0.10859
#
# Static dielectric constant tensor:
#      x y z
#    x 1.987850 0.040780 0.036400 
#    y 0.040780 1.860580 -0.014530 
#    z 0.036400 -0.014530 1.873530 
# 
# From -- ./inp_files/383710.got.cif
#   From: 2010.05.17/outbox.cif.g08.bks.cpg/sg2_192_cif.got.tgz:383710.got - 2010.06.03 11:33:40.
