data_PCOD9047527
_publ_section_title
;
Structure prediction by ZEFSAII (Michael W. Deem and Ramdas Pophale) SiO2 
 PCOD9047527
Probable space group: P -1
;
_chemical_formula_sum "Si O2"
_cell_formula_units_Z 16
_cell_length_a 21.651066
_cell_length_b 7.697354
_cell_length_c 11.246388
_cell_angle_alpha 37.862859
_cell_angle_beta 139.861702
_cell_angle_gamma 121.514180
_cell_volume 725.931538
_symmetry_space_group_name_H-M "P -1"
_symmetry_group_IT_number 2
_symmetry_cell_setting 'triclinic'
loop_
_space_group_symop_operation_xyz
x,y,z
-x,-y,-z
loop_
_atom_site_type_symbol
_atom_site_label
_atom_site_fract_x
_atom_site_fract_y
_atom_site_fract_z
Si Si1 0.587492 0.335209 0.297607
Si Si2 0.167169 0.244820 0.099693
Si Si3 0.523418 0.670163 0.260563
Si Si4 0.145508 0.273033 0.315563
Si Si5 0.955308 0.539369 0.542368
Si Si6 0.370126 0.346111 0.321746
Si Si7 0.028234 0.894684 0.730955
Si Si8 0.796823 0.386349 0.561051
O O1 0.572619 0.457404 0.343293
O O2 0.684604 0.424848 0.340718
O O3 0.597488 0.989024 0.491733
O O4 0.500000 0.500000 0.000000
O O5 0.193915 0.151989 0.327801
O O6 0.252053 0.416364 0.098344
O O7 0.175587 0.958309 0.186470
O O8 0.055751 0.419150 0.829844
O O9 0.425662 0.559511 0.216745
O O10 0.593427 0.646336 0.492061
O O11 0.500000 0.000000 0.000000
O O12 0.194887 0.386280 0.443437
O O13 0.072466 0.071931 0.361392
O O14 0.082618 0.578349 0.012309
O O15 0.873343 0.412112 0.556313
O O16 0.000000 0.500000 0.500000
O O17 0.905186 0.877053 0.272205
O O18 0.000000 0.000000 0.500000
#
# Coordination Sequence:
#
# PCOD9047527 Si02
#       8
#     2   2   2   2   2   2   2   2
#     4  11  23  44  69  99 133 175 216 282 337 391
#     4  11  23  42  64  95 134 176 211 272 324 380
#     4  11  22  45  73  99 129 173 221 277 334 400
#     4  11  21  41  64  86 131 169 215 274 317 369
#     4  12  23  40  61  97 132 174 222 263 316 391
#     4  10  24  44  68 101 136 169 224 271 338 398
#     4  11  20  38  60  88 124 169 217 263 314 373
#     4  11  24  41  65  95 131 172 223 263 326 389
#
# _framework density 22.040645999999999
#
# number of rings (size 3 to 8) (size 9 to 14) (size 15 to 20)
#    0.000    1.000    3.750    3.750    0.000    1.000 
#    6.750    1.250    0.000    0.000    0.000    0.000 
#    0.000    0.000    0.000    0.000    0.000    0.000 
#
# Total GULP energy -89098.034469 kJ/mol
# GULP energy per Si atom -5568.627154 kJ/mol
# Density = 2.199048 g / cm^3
# Si number density = 22.040646 Si / 1000 Ang^3
#
#
#
# Elastic Constant Matrix: (Units=GPa)
#
#
# Indices 1 2 3 4 5 6 
#
# 1 113.0591 58.4787 34.5292 21.0430 -6.2305 22.2955
# 2 58.4787 126.1853 36.0157 -0.0003 -1.9905 24.0461
# 3 34.5292 36.0157 65.5758 3.9059 -3.1615 22.4208
# 4 21.0430 -0.0003 3.9059 18.9879 1.0148 4.7926
# 5 -6.2305 -1.9905 -3.1615 1.0148 26.4611 -0.7976
# 6 22.2955 24.0461 22.4208 4.7926 -0.7976 61.4010
#
#
#
# Elastic Compliance Matrix: (Units=1/GPa)
#
#
# Indices 1 2 3 4 5 6 
#
# 1 0.017261 -0.006688 -0.003885 -0.018343 0.003778 -0.000749
# 2 -0.006688 0.012264 -0.003139 0.008618 -0.001416 -0.001919
# 3 -0.003885 -0.003139 0.020710 0.001248 0.001125 -0.005005
# 4 -0.018343 0.008618 0.001248 0.073843 -0.006445 -0.003018
# 5 0.003778 -0.001416 0.001125 -0.006445 0.038949 -0.000219
# 6 -0.000749 -0.001919 -0.005005 -0.003018 -0.000219 0.019370
#
#
# Mechanical properties :
#
#
# Convention : Reuss Voigt Hill
#
# Bulk Modulus (GPa) = 43.83912 62.54083 53.18997
# Shear Modulus (GPa) = 22.99645 33.08977 28.04311
#
# Velocity S-wave (km/s) = 3.23362 3.87887 3.57085
# Velocity P-wave (km/s) = 5.82023 6.96403 6.41766
#
# Compressibility (1/GPa) = 0.02281068
#
# Stress axis : x y z
#
# Youngs Moduli (GPa) = 57.93544 81.54108 48.28489
#
# Poissons Ratio (x) = 0.54536 0.18757
# Poissons Ratio (y) = 0.38748 0.15158
# Poissons Ratio (z) = 0.22505 0.25599
#
# Static dielectric constant tensor:
#      x y z
#    x 1.923220 -0.107980 -0.005520 
#    y -0.107980 1.919330 0.013390 
#    z -0.005520 0.013390 1.813900 
# 
# From -- ./inp_files/469738.got.cif
#   From: 2010.05.17/outbox.cif.g08.bks.cpg/sg2_235_cif.got.tgz:469738.got - 2010.06.03 11:33:40.
