data_PCOD9047582
_publ_section_title
;
Structure prediction by ZEFSAII (Michael W. Deem and Ramdas Pophale) SiO2 
 PCOD9047582
Probable space group: P -1
;
_chemical_formula_sum "Si O2"
_cell_formula_units_Z 14
_cell_length_a 4.924355
_cell_length_b 13.710664
_cell_length_c 16.299848
_cell_angle_alpha 144.828138
_cell_angle_beta 68.537012
_cell_angle_gamma 117.924287
_cell_volume 559.805431
_symmetry_space_group_name_H-M "P -1"
_symmetry_group_IT_number 2
_symmetry_cell_setting 'triclinic'
loop_
_space_group_symop_operation_xyz
x,y,z
-x,-y,-z
loop_
_atom_site_type_symbol
_atom_site_label
_atom_site_fract_x
_atom_site_fract_y
_atom_site_fract_z
Si Si1 0.263577 0.835197 0.507689
Si Si2 0.500000 0.500000 0.000000
Si Si3 0.376323 0.953301 0.757590
Si Si4 0.473130 0.337786 0.029974
Si Si5 0.998077 0.154988 0.744492
Si Si6 0.037254 0.532391 0.796681
Si Si7 0.211171 0.874394 0.897046
Si Si8 0.000000 0.000000 0.500000
O O1 0.233791 0.856007 0.623413
O O2 0.054950 0.646480 0.367370
O O3 0.132587 0.985678 0.584028
O O4 0.620163 0.868517 0.474020
O O5 0.319555 0.618458 0.042894
O O6 0.264089 0.308054 0.859365
O O7 0.308103 0.841069 0.770849
O O8 0.735830 0.050803 0.765168
O O9 0.283473 0.131035 0.908006
O O10 0.255722 0.456926 0.108449
O O11 0.662543 0.408306 0.138858
O O12 0.914604 0.175534 0.674272
O O13 0.071840 0.692397 0.837337
O O14 0.500000 0.000000 0.000000
O O15 0.000000 0.000000 0.000000
#
# Coordination Sequence:
#
# PCOD9047582 Si02
#       8
#     2   1   2   2   2   2   2   1
#     4  10  25  45  70 105 153 193 245 310 369 455
#     4  12  24  44  70 106 146 194 248 308 364 442
#     4  12  25  45  76 104 152 190 256 317 374 437
#     4  12  26  45  72 109 146 194 253 304 368 456
#     4  10  24  44  68 106 148 197 242 307 363 454
#     4  12  26  48  75 108 147 199 250 307 379 453
#     4  12  26  48  80 110 145 200 251 322 385 441
#     4   8  20  46  66 102 152 200 232 294 386 436
#
# _framework density 25.008687999999999
#
# number of rings (size 3 to 8) (size 9 to 14) (size 15 to 20)
#    0.857    0.000    4.286    1.714    4.000    4.571 
#    0.000    0.714    0.000    0.000    0.000    0.000 
#    0.000    0.000    0.000    0.000    0.000    0.000 
#
# Total GULP energy -78031.437201 kJ/mol
# GULP energy per Si atom -5573.674086 kJ/mol
# Density = 2.495177 g / cm^3
# Si number density = 25.008688 Si / 1000 Ang^3
#
#
#
# Elastic Constant Matrix: (Units=GPa)
#
#
# Indices 1 2 3 4 5 6 
#
# 1 106.7826 23.7224 31.8606 0.4864 26.9987 -14.4775
# 2 23.7224 132.5316 39.8780 -20.1962 18.9552 -21.6397
# 3 31.8606 39.8780 185.5896 -7.0216 54.9203 -16.8261
# 4 0.4864 -20.1962 -7.0216 48.5184 -3.6142 1.9053
# 5 26.9987 18.9552 54.9203 -3.6142 47.1617 -11.4801
# 6 -14.4775 -21.6397 -16.8261 1.9053 -11.4801 35.1381
#
#
#
# Elastic Compliance Matrix: (Units=1/GPa)
#
#
# Indices 1 2 3 4 5 6 
#
# 1 0.011321 -0.001035 0.000153 -0.001041 -0.005770 0.002272
# 2 -0.001035 0.009420 -0.001166 0.003552 -0.000476 0.004469
# 3 0.000153 -0.001166 0.008401 0.000022 -0.009322 0.000321
# 4 -0.001041 0.003552 0.000022 0.022146 0.001063 0.000915
# 5 -0.005770 -0.000476 -0.009322 0.001063 0.036812 0.004835
# 6 0.002272 0.004469 0.000321 0.000915 0.004835 0.033831
#
#
# Mechanical properties :
#
#
# Convention : Reuss Voigt Hill
#
# Bulk Modulus (GPa) = 39.92680 68.42511 54.17595
# Shear Modulus (GPa) = 37.20893 48.12650 42.66772
#
# Velocity S-wave (km/s) = 3.86144 4.39155 4.13500
# Velocity P-wave (km/s) = 5.99006 7.28932 6.67139
#
# Compressibility (1/GPa) = 0.02504583
#
# Stress axis : x y z
#
# Youngs Moduli (GPa) = 88.33440 106.15152 119.03108
#
# Poissons Ratio (x) = 0.10985 -0.01819
# Poissons Ratio (y) = 0.09142 0.13881
# Poissons Ratio (z) = -0.01350 0.12379
#
# Static dielectric constant tensor:
#      x y z
#    x 2.003100 -0.439560 -0.025260 
#    y -0.439560 1.323840 0.392370 
#    z -0.025260 0.392370 1.994540 
# 
# From -- ./inp_files/549884.got.cif
#   From: 2010.05.17/outbox.cif.g08.bks.cpg/sg2_275_cif.got.tgz:549884.got - 2010.06.03 11:33:40.
