data_PCOD9047444
_publ_section_title
;
Structure prediction by ZEFSAII (Michael W. Deem and Ramdas Pophale) SiO2 
 PCOD9047444
Probable space group: P -1
;
_chemical_formula_sum "Si O2"
_cell_formula_units_Z 16
_cell_length_a 5.097516
_cell_length_b 18.797148
_cell_length_c 7.311723
_cell_angle_alpha 116.961881
_cell_angle_beta 107.982879
_cell_angle_gamma 76.652251
_cell_volume 590.522972
_symmetry_space_group_name_H-M "P -1"
_symmetry_group_IT_number 2
_symmetry_cell_setting 'triclinic'
loop_
_space_group_symop_operation_xyz
x,y,z
-x,-y,-z
loop_
_atom_site_type_symbol
_atom_site_label
_atom_site_fract_x
_atom_site_fract_y
_atom_site_fract_z
Si Si1 0.852762 0.217291 0.452717
Si Si2 0.618705 0.355300 0.831200
Si Si3 0.678001 0.830408 0.244144
Si Si4 0.889220 0.650421 0.499938
Si Si5 0.920146 0.078794 0.808632
Si Si6 0.702231 0.488345 0.701255
Si Si7 0.189385 0.340018 0.101505
Si Si8 0.736475 0.059603 0.155746
O O1 0.756355 0.276294 0.663414
O O2 0.645582 0.150246 0.303438
O O3 0.144362 0.173716 0.537093
O O4 0.912158 0.278348 0.376180
O O5 0.302519 0.339455 0.707921
O O6 0.639120 0.433712 0.797162
O O7 0.849580 0.354653 0.039292
O O8 0.385037 0.883543 0.271885
O O9 0.857821 0.870431 0.175570
O O10 0.666523 0.741024 0.053533
O O11 0.036625 0.561811 0.396949
O O12 0.731381 0.658245 0.666097
O O13 0.893396 0.078804 0.023980
O O14 0.051771 0.986496 0.706729
O O15 0.500000 0.500000 0.500000
O O16 0.726858 0.578498 0.876857
O O17 0.500000 0.000000 0.000000
#
# Coordination Sequence:
#
# PCOD9047444 Si02
#       8
#     2   2   2   2   2   2   2   2
#     4  10  26  45  70 100 142 180 236 303 350 438
#     4  10  24  44  67 101 140 184 244 291 365 426
#     4  11  26  47  70 108 140 190 243 293 363 424
#     4  11  24  46  68 100 141 188 236 298 362 426
#     4  11  25  47  70 105 143 183 240 289 360 432
#     4  11  23  44  64 102 142 186 240 298 360 426
#     4  11  24  43  72 101 140 189 240 300 357 428
#     4  11  24  47  73 106 143 187 238 290 364 431
#
# _framework density 27.094628
#
# number of rings (size 3 to 8) (size 9 to 14) (size 15 to 20)
#    0.000    1.250    2.500    1.500    5.250    4.500 
#    4.500    0.000    0.000    0.000    0.000    0.000 
#    0.000    0.000    0.000    0.000    0.000    0.000 
#
# Total GULP energy -89465.125456 kJ/mol
# GULP energy per Si atom -5591.570341 kJ/mol
# Density = 2.703296 g / cm^3
# Si number density = 27.094628 Si / 1000 Ang^3
#
#
#
# Elastic Constant Matrix: (Units=GPa)
#
#
# Indices 1 2 3 4 5 6 
#
# 1 75.6443 15.0161 10.7323 3.5007 29.6030 -16.9359
# 2 15.0161 107.5749 34.3897 16.0143 27.0607 2.1772
# 3 10.7323 34.3897 82.2077 2.9844 14.8924 18.3961
# 4 3.5007 16.0143 2.9844 60.8904 7.1303 15.1457
# 5 29.6030 27.0607 14.8924 7.1303 32.4387 -11.3318
# 6 -16.9359 2.1772 18.3961 15.1457 -11.3318 55.2245
#
#
#
# Elastic Compliance Matrix: (Units=1/GPa)
#
#
# Indices 1 2 3 4 5 6 
#
# 1 0.021316 0.002253 -0.000647 -0.000064 -0.020130 0.002551
# 2 0.002253 0.013261 -0.003690 -0.002062 -0.011080 -0.000311
# 3 -0.000647 -0.003690 0.016854 0.003072 -0.007560 -0.008061
# 4 -0.000064 -0.002062 0.003072 0.019496 -0.006594 -0.007662
# 5 -0.020130 -0.011080 -0.007560 -0.006594 0.067723 0.012487
# 6 0.002551 -0.000311 -0.008061 -0.007662 0.012487 0.026251
#
#
# Mechanical properties :
#
#
# Convention : Reuss Voigt Hill
#
# Bulk Modulus (GPa) = 21.15793 42.85590 32.00691
# Shear Modulus (GPa) = 27.05250 43.39665 35.22457
#
# Velocity S-wave (km/s) = 3.16325 4.00643 3.60954
# Velocity P-wave (km/s) = 4.60080 6.10356 5.40466
#
# Compressibility (1/GPa) = 0.04726361
#
# Stress axis : x y z
#
# Youngs Moduli (GPa) = 46.91278 75.40650 59.33154
#
# Poissons Ratio (x) = -0.16989 0.03839
# Poissons Ratio (y) = -0.10569 0.21894
# Poissons Ratio (z) = 0.03036 0.27826
#
# Static dielectric constant tensor:
#      x y z
#    x 2.239130 0.001040 0.002370 
#    y 0.001040 2.229210 -0.000310 
#    z 0.002370 -0.000310 2.102560 
# 
# From -- ./inp_files/53638.got.cif
#   From: 2010.05.17/outbox.cif.g08.bks.cpg/sg2_27_cif.got.tgz:53638.got - 2010.06.03 11:33:40.
