data_PCOD9047695
_publ_section_title
;
Structure prediction by ZEFSAII (Michael W. Deem and Ramdas Pophale) SiO2 
 PCOD9047695
Probable space group: P -1
;
_chemical_formula_sum "Si O2"
_cell_formula_units_Z 16
_cell_length_a 12.602106
_cell_length_b 5.132985
_cell_length_c 24.147315
_cell_angle_alpha 80.090275
_cell_angle_beta 146.032145
_cell_angle_gamma 79.659144
_cell_volume 696.971064
_symmetry_space_group_name_H-M "P -1"
_symmetry_group_IT_number 2
_symmetry_cell_setting 'triclinic'
loop_
_space_group_symop_operation_xyz
x,y,z
-x,-y,-z
loop_
_atom_site_type_symbol
_atom_site_label
_atom_site_fract_x
_atom_site_fract_y
_atom_site_fract_z
Si Si1 0.720577 0.629881 0.099923
Si Si2 0.908771 0.289368 0.406497
Si Si3 0.799591 0.597996 0.732584
Si Si4 0.999985 0.757583 0.382149
Si Si5 0.486385 0.642800 0.429527
Si Si6 0.570846 0.308211 0.128340
Si Si7 0.958386 0.378596 0.929477
Si Si8 0.385788 0.684951 0.148091
O O1 0.713439 0.424917 0.154079
O O2 0.967652 0.568768 0.198431
O O3 0.645060 0.558427 0.011645
O O4 0.500000 0.000000 0.000000
O O5 0.633036 0.566217 0.284412
O O6 0.012653 0.497162 0.438714
O O7 0.000000 0.000000 0.500000
O O8 0.957917 0.078696 0.379957
O O9 0.672615 0.420969 0.674912
O O10 0.866328 0.584870 0.826446
O O11 0.627391 0.976659 0.629269
O O12 0.248252 0.557085 0.468381
O O13 0.766713 0.919970 0.236955
O O14 0.500000 0.500000 0.500000
O O15 0.458296 0.455470 0.134245
O O16 0.762823 0.330114 0.867049
O O17 0.000000 0.500000 0.000000
O O18 0.209557 0.048622 0.035986
#
# Coordination Sequence:
#
# PCOD9047695 Si02
#       8
#     2   2   2   2   2   2   2   2
#     4  11  25  41  75 104 150 183 249 304 370 440
#     4  11  26  45  73 105 137 187 243 299 360 432
#     4  12  29  46  78 110 149 198 250 305 378 450
#     4  11  26  46  74  99 143 187 240 302 360 429
#     4  12  29  51  75 106 150 197 254 308 372 445
#     4  10  24  44  69 108 140 193 239 308 369 441
#     4  11  26  44  72 104 152 195 238 303 375 453
#     4  10  25  43  69 102 147 184 241 297 372 441
#
# _framework density 22.956477
#
# number of rings (size 3 to 8) (size 9 to 14) (size 15 to 20)
#    0.000    1.000    0.000    3.750   22.750    0.000 
#    0.000    0.000    0.000    0.000    0.000    0.000 
#    0.000    0.000    0.000    0.000    0.000    0.000 
#
# Total GULP energy -89438.613448 kJ/mol
# GULP energy per Si atom -5589.913341 kJ/mol
# Density = 2.290423 g / cm^3
# Si number density = 22.956477 Si / 1000 Ang^3
#
#
#
# Elastic Constant Matrix: (Units=GPa)
#
#
# Indices 1 2 3 4 5 6 
#
# 1 103.5684 12.1216 64.2679 -12.4781 7.3007 5.8792
# 2 12.1216 53.5381 3.8644 -9.3858 14.6276 2.5570
# 3 64.2679 3.8644 106.5673 -21.3398 18.1017 -3.6604
# 4 -12.4781 -9.3858 -21.3398 36.6571 -2.4739 -0.8059
# 5 7.3007 14.6276 18.1017 -2.4739 56.9116 -6.4036
# 6 5.8792 2.5570 -3.6604 -0.8059 -6.4036 28.6933
#
#
#
# Elastic Compliance Matrix: (Units=1/GPa)
#
#
# Indices 1 2 3 4 5 6 
#
# 1 0.016565 -0.003471 -0.010553 -0.001376 0.001601 -0.004112
# 2 -0.003471 0.022095 0.003505 0.006045 -0.006316 -0.002050
# 3 -0.010553 0.003505 0.018028 0.007565 -0.004576 0.003341
# 4 -0.001376 0.006045 0.007565 0.032637 -0.002238 0.001125
# 5 0.001601 -0.006316 -0.004576 -0.002238 0.020824 0.004236
# 6 -0.004112 -0.002050 0.003341 0.001125 0.004236 0.037280
#
#
# Mechanical properties :
#
#
# Convention : Reuss Voigt Hill
#
# Bulk Modulus (GPa) = 28.05079 47.13128 37.59103
# Shear Modulus (GPa) = 27.72422 36.68040 32.20231
#
# Velocity S-wave (km/s) = 3.47895 4.00161 3.74940
# Velocity P-wave (km/s) = 5.32758 6.47502 5.92912
#
# Compressibility (1/GPa) = 0.03564962
#
# Stress axis : x y z
#
# Youngs Moduli (GPa) = 60.36897 45.26011 55.47073
#
# Poissons Ratio (x) = 0.15710 0.58536
# Poissons Ratio (y) = 0.20954 -0.19442
# Poissons Ratio (z) = 0.63705 -0.15863
#
# Static dielectric constant tensor:
#      x y z
#    x 4.426420 -0.122410 -0.452510 
#    y -0.122410 1.978560 0.120320 
#    z -0.452510 0.120320 1.961240 
# 
# From -- ./inp_files/609165.got.cif
#   From: 2010.05.17/outbox.cif.g08.bks.cpg/sg2_305_cif.got.tgz:609165.got - 2010.06.03 11:33:40.
