data_PCOD9047530
_publ_section_title
;
Structure prediction by ZEFSAII (Michael W. Deem and Ramdas Pophale) SiO2 
 PCOD9047530
Probable space group: P -1
;
_chemical_formula_sum "Si O2"
_cell_formula_units_Z 16
_cell_length_a 14.869464
_cell_length_b 8.771612
_cell_length_c 12.225389
_cell_angle_alpha 61.822139
_cell_angle_beta 55.306575
_cell_angle_gamma 108.556288
_cell_volume 677.830152
_symmetry_space_group_name_H-M "P -1"
_symmetry_group_IT_number 2
_symmetry_cell_setting 'triclinic'
loop_
_space_group_symop_operation_xyz
x,y,z
-x,-y,-z
loop_
_atom_site_type_symbol
_atom_site_label
_atom_site_fract_x
_atom_site_fract_y
_atom_site_fract_z
Si Si1 0.229442 0.286138 0.119950
Si Si2 0.906184 0.261063 0.993048
Si Si3 0.607163 0.158200 0.259336
Si Si4 0.726058 0.346266 0.490129
Si Si5 0.795857 0.330046 0.690895
Si Si6 0.800311 0.739565 0.610803
Si Si7 0.693750 0.900709 0.044783
Si Si8 0.292837 0.294726 0.551965
O O1 0.286658 0.320166 0.193109
O O2 0.354603 0.595339 0.878214
O O3 0.229859 0.128334 0.090694
O O4 0.015495 0.074435 0.348460
O O5 0.801243 0.303501 0.078161
O O6 0.839387 0.122961 0.964056
O O7 0.825556 0.012212 0.213688
O O8 0.127849 0.549253 0.731781
O O9 0.500000 0.000000 0.500000
O O10 0.475164 0.913905 0.338406
O O11 0.737058 0.265514 0.626709
O O12 0.783333 0.618785 0.381158
O O13 0.798659 0.528096 0.669966
O O14 0.000000 0.500000 0.500000
O O15 0.659384 0.034902 0.957169
O O16 0.709289 0.702544 0.578934
O O17 0.511642 0.579712 0.331854
#
# Coordination Sequence:
#
# PCOD9047530 Si02
#       8
#     2   2   2   2   2   2   2   2
#     4  11  25  45  66 100 149 178 230 290 353 408
#     4  12  25  49  76  99 140 188 236 288 345 418
#     4  12  29  48  69 104 147 187 230 292 352 418
#     4  11  26  44  75 105 135 189 235 292 344 418
#     4  11  21  44  73 105 133 182 246 281 351 414
#     4  10  24  44  68 101 139 189 223 294 348 410
#     4  12  23  42  75 101 137 184 228 295 343 413
#     4  11  25  43  73 105 135 179 246 285 343 413
#
# _framework density 23.604733
#
# number of rings (size 3 to 8) (size 9 to 14) (size 15 to 20)
#    0.000    0.750    3.750    3.000    5.250    2.000 
#    4.500    0.000    0.000    0.000    0.000    0.000 
#    0.000    0.000    0.000    0.000    0.000    0.000 
#
# Total GULP energy -89656.057602 kJ/mol
# GULP energy per Si atom -5603.503600 kJ/mol
# Density = 2.355101 g / cm^3
# Si number density = 23.604733 Si / 1000 Ang^3
#
#
#
# Elastic Constant Matrix: (Units=GPa)
#
#
# Indices 1 2 3 4 5 6 
#
# 1 56.3941 6.3746 10.6647 7.8776 17.7318 -0.8417
# 2 6.3746 75.8066 9.0544 23.1741 25.2738 4.8649
# 3 10.6647 9.0544 97.0176 14.2572 19.5560 -2.3883
# 4 7.8776 23.1741 14.2572 37.8700 -4.0983 -3.2795
# 5 17.7318 25.2738 19.5560 -4.0983 49.6143 6.1991
# 6 -0.8417 4.8649 -2.3883 -3.2795 6.1991 21.6827
#
#
#
# Elastic Compliance Matrix: (Units=1/GPa)
#
#
# Indices 1 2 3 4 5 6 
#
# 1 0.021855 0.004302 0.000760 -0.008518 -0.011242 0.001893
# 2 0.004302 0.023653 0.003200 -0.018567 -0.016004 -0.003020
# 3 0.000760 0.003200 0.012637 -0.007557 -0.007728 0.001770
# 4 -0.008518 -0.018567 -0.007557 0.044786 0.018624 0.004452
# 5 -0.011242 -0.016004 -0.007728 0.018624 0.037614 -0.005634
# 6 0.001893 -0.003020 0.001770 0.004452 -0.005634 0.049350
#
#
# Mechanical properties :
#
#
# Convention : Reuss Voigt Hill
#
# Bulk Modulus (GPa) = 13.39233 31.26730 22.32982
# Shear Modulus (GPa) = 25.21925 35.37503 30.29714
#
# Velocity S-wave (km/s) = 3.27218 3.87543 3.58651
# Velocity P-wave (km/s) = 4.46790 5.77063 5.16054
#
# Compressibility (1/GPa) = 0.07466960
#
# Stress axis : x y z
#
# Youngs Moduli (GPa) = 45.75578 42.27774 79.13227
#
# Poissons Ratio (x) = -0.18187 -0.06018
# Poissons Ratio (y) = -0.19683 -0.25321
# Poissons Ratio (z) = -0.03480 -0.13528
#
# Static dielectric constant tensor:
#      x y z
#    x 1.889660 0.015990 -0.048180 
#    y 0.015990 1.900430 -0.002130 
#    z -0.048180 -0.002130 1.899960 
# 
# From -- ./inp_files/263061.got.cif
#   From: 2010.05.17/outbox.cif.g08.bks.cpg/sg2_132_cif.got.tgz:263061.got - 2010.06.03 11:33:40.
