data_PCOD9047396
_publ_section_title
;
Structure prediction by ZEFSAII (Michael W. Deem and Ramdas Pophale) SiO2 
 PCOD9047396
Probable space group: P -1
;
_chemical_formula_sum "Si O2"
_cell_formula_units_Z 12
_cell_length_a 8.485785
_cell_length_b 7.899645
_cell_length_c 11.685760
_cell_angle_alpha 128.580472
_cell_angle_beta 51.501052
_cell_angle_gamma 117.596915
_cell_volume 475.634501
_symmetry_space_group_name_H-M "P -1"
_symmetry_group_IT_number 2
_symmetry_cell_setting 'triclinic'
loop_
_space_group_symop_operation_xyz
x,y,z
-x,-y,-z
loop_
_atom_site_type_symbol
_atom_site_label
_atom_site_fract_x
_atom_site_fract_y
_atom_site_fract_z
Si Si1 0.652789 0.122433 0.669088
Si Si2 0.974110 0.795833 0.622888
Si Si3 0.681034 0.158451 0.923100
Si Si4 0.782583 0.979386 0.195482
Si Si5 0.719733 0.626564 0.480349
Si Si6 0.119519 0.682096 0.888214
O O1 0.438739 0.102476 0.692441
O O2 0.703594 0.876294 0.563164
O O3 0.843391 0.226893 0.555992
O O4 0.625196 0.228049 0.850789
O O5 0.082173 0.835497 0.713077
O O6 0.795935 0.623169 0.576674
O O7 0.867913 0.017256 0.759708
O O8 0.768676 0.339564 0.051136
O O9 0.500000 0.000000 0.000000
O O10 0.754204 0.109666 0.146073
O O11 0.906549 0.776006 0.036645
O O12 0.500000 0.500000 0.500000
O O13 0.870344 0.525665 0.282682
#
# Coordination Sequence:
#
# PCOD9047396 Si02
#       6
#     2   2   2   2   2   2
#     4  11  21  40  61  87 115 155 193 235 289 347
#     4  10  23  37  60  85 120 155 187 234 297 348
#     4  10  17  34  57  82 110 151 193 228 277 340
#     4  10  20  38  59  83 121 154 188 229 296 353
#     4  11  20  38  58  88 115 147 199 245 276 333
#     4  10  20  35  57  90 112 148 196 245 278 330
#
# _framework density 25.229458000000001
#
# number of rings (size 3 to 8) (size 9 to 14) (size 15 to 20)
#    0.000    1.667    3.333    3.500    0.000    0.667 
#    0.000    8.333    0.000    0.000    0.000    0.000 
#    0.000    0.000    0.000    0.000    0.000    0.000 
#
# Total GULP energy -67037.849504 kJ/mol
# GULP energy per Si atom -5586.487459 kJ/mol
# Density = 2.517203 g / cm^3
# Si number density = 25.229458 Si / 1000 Ang^3
#
#
#
# Elastic Constant Matrix: (Units=GPa)
#
#
# Indices 1 2 3 4 5 6 
#
# 1 122.9570 21.5721 60.5108 7.8787 20.1196 24.4200
# 2 21.5721 43.9465 7.1039 1.3632 -1.8495 2.9293
# 3 60.5108 7.1039 128.0026 7.0163 11.7718 6.4479
# 4 7.8787 1.3632 7.0163 35.5326 12.3088 -2.2456
# 5 20.1196 -1.8495 11.7718 12.3088 52.4098 -2.7199
# 6 24.4200 2.9293 6.4479 -2.2456 -2.7199 21.4417
#
#
#
# Elastic Compliance Matrix: (Units=1/GPa)
#
#
# Indices 1 2 3 4 5 6 
#
# 1 0.016664 -0.006260 -0.006055 -0.001322 -0.005839 -0.017181
# 2 -0.006260 0.025577 0.001082 -0.000764 0.003433 0.003666
# 3 -0.006055 0.001082 0.010437 -0.000657 0.000359 0.003586
# 4 -0.001322 -0.000764 -0.000657 0.031100 -0.006455 0.004246
# 5 -0.005839 0.003433 0.000359 -0.006455 0.023312 0.008354
# 6 -0.017181 0.003666 0.003586 0.004246 0.008354 0.066131
#
#
# Mechanical properties :
#
#
# Convention : Reuss Voigt Hill
#
# Bulk Modulus (GPa) = 33.10175 52.58666 42.84420
# Shear Modulus (GPa) = 24.30030 35.59142 29.94586
#
# Velocity S-wave (km/s) = 3.10687 3.76002 3.44894
# Velocity P-wave (km/s) = 5.10088 6.30388 5.73401
#
# Compressibility (1/GPa) = 0.03020988
#
# Stress axis : x y z
#
# Youngs Moduli (GPa) = 60.01092 39.09767 95.81212
#
# Poissons Ratio (x) = 0.24477 0.58015
# Poissons Ratio (y) = 0.37569 -0.10363
# Poissons Ratio (z) = 0.36337 -0.04229
#
# Static dielectric constant tensor:
#      x y z
#    x 2.084460 0.036250 0.035920 
#    y 0.036250 2.046110 -0.061040 
#    z 0.035920 -0.061040 2.005440 
# 
# From -- ./inp_files/146896.got.cif
#   From: 2010.05.17/outbox.cif.g08.bks.cpg/sg2_74_cif.got.tgz:146896.got - 2010.06.03 11:33:40.
