data_PCOD9047991
_publ_section_title
;
Structure prediction by ZEFSAII (Michael W. Deem and Ramdas Pophale) SiO2 
 PCOD9047991
Probable space group: P -1
;
_chemical_formula_sum "Si O2"
_cell_formula_units_Z 13
_cell_length_a 12.078162
_cell_length_b 4.976808
_cell_length_c 18.042108
_cell_angle_alpha 105.481399
_cell_angle_beta 152.050409
_cell_angle_gamma 68.941101
_cell_volume 471.189991
_symmetry_space_group_name_H-M "P -1"
_symmetry_group_IT_number 2
_symmetry_cell_setting 'triclinic'
loop_
_space_group_symop_operation_xyz
x,y,z
-x,-y,-z
loop_
_atom_site_type_symbol
_atom_site_label
_atom_site_fract_x
_atom_site_fract_y
_atom_site_fract_z
Si Si1 0.096956 0.217537 0.138969
Si Si2 0.500000 0.500000 0.000000
Si Si3 0.485627 0.212890 0.577478
Si Si4 0.174868 0.869105 0.443493
Si Si5 0.156722 0.317881 0.647202
Si Si6 0.869043 0.719899 0.132247
Si Si7 0.333721 0.016942 0.122496
O O1 0.087532 0.457126 0.212296
O O2 0.244028 0.907494 0.236710
O O3 0.226009 0.246572 0.140238
O O4 0.813281 0.219981 0.962821
O O5 0.306400 0.460267 0.807588
O O6 0.326593 0.388352 0.944760
O O7 0.372818 0.553843 0.524944
O O8 0.500000 0.000000 0.500000
O O9 0.310549 0.114095 0.526258
O O10 0.017709 0.828417 0.418546
O O11 0.979010 0.918821 0.263925
O O12 0.378431 0.088586 0.720141
O O13 0.000000 0.500000 0.500000
O O14 0.745499 0.887509 0.000064
#
# Coordination Sequence:
#
# PCOD9047991 Si02
#       7
#     2   1   2   2   2   2   2
#     4  11  24  43  71 101 150 192 254 311 387 452
#     4  10  24  44  72 104 148 192 244 314 378 458
#     4  12  24  45  71 110 150 194 252 316 382 463
#     4  11  27  44  77 111 152 202 256 319 387 453
#     4  11  25  49  75 111 153 198 262 321 387 464
#     4  11  23  43  70 106 145 197 253 313 380 463
#     4  11  25  45  70 105 140 203 249 318 381 464
#
# _framework density 27.589721999999998
#
# number of rings (size 3 to 8) (size 9 to 14) (size 15 to 20)
#    0.000    0.923    3.077    2.769    2.154    6.154 
#    0.000    2.308    0.000    0.000    0.000    0.000 
#    0.000    0.000    0.000    0.000    0.000    0.000 
#
# Total GULP energy -72611.667474 kJ/mol
# GULP energy per Si atom -5585.512883 kJ/mol
# Density = 2.752693 g / cm^3
# Si number density = 27.589722 Si / 1000 Ang^3
#
#
#
# Elastic Constant Matrix: (Units=GPa)
#
#
# Indices 1 2 3 4 5 6 
#
# 1 194.0711 11.3441 54.1642 -4.4954 -2.6504 7.9863
# 2 11.3441 73.3281 11.2918 -4.1520 8.3652 7.0617
# 3 54.1642 11.2918 133.9350 3.8970 0.6337 12.8443
# 4 -4.4954 -4.1520 3.8970 37.1107 -3.0753 -1.0908
# 5 -2.6504 8.3652 0.6337 -3.0753 68.8679 -1.5577
# 6 7.9863 7.0617 12.8443 -1.0908 -1.5577 34.0385
#
#
#
# Elastic Compliance Matrix: (Units=1/GPa)
#
#
# Indices 1 2 3 4 5 6 
#
# 1 0.005872 -0.000503 -0.002327 0.000917 0.000342 -0.000350
# 2 -0.000503 0.014367 -0.000791 0.001408 -0.001753 -0.002599
# 3 -0.002327 -0.000791 0.008770 -0.001385 -0.000196 -0.002652
# 4 0.000917 0.001408 -0.001385 0.027482 0.001126 0.000948
# 5 0.000342 -0.001753 -0.000196 0.001126 0.014823 0.001072
# 6 -0.000350 -0.002599 -0.002652 0.000948 0.001072 0.031080
#
#
# Mechanical properties :
#
#
# Convention : Reuss Voigt Hill
#
# Bulk Modulus (GPa) = 45.94367 61.65938 53.80153
# Shear Modulus (GPa) = 42.77470 49.63904 46.20687
#
# Velocity S-wave (km/s) = 3.94177 4.24628 4.09685
# Velocity P-wave (km/s) = 6.11599 6.81457 6.47471
#
# Compressibility (1/GPa) = 0.02176578
#
# Stress axis : x y z
#
# Youngs Moduli (GPa) = 170.30166 69.60379 114.02969
#
# Poissons Ratio (x) = 0.03504 0.26534
# Poissons Ratio (y) = 0.08573 0.09021
# Poissons Ratio (z) = 0.39628 0.05506
#
# Static dielectric constant tensor:
#      x y z
#    x 2.081000 -0.116900 -0.048090 
#    y -0.116900 2.289890 0.030130 
#    z -0.048090 0.030130 2.346260 
# 
# From -- ./inp_files/65739.got.cif
#   From: 2010.05.17/outbox.cif.g08.bks.cpg/sg2_33_cif.got.tgz:65739.got - 2010.06.03 11:33:40.
