data_PCOD9047576
_publ_section_title
;
Structure prediction by ZEFSAII (Michael W. Deem and Ramdas Pophale) SiO2 
 PCOD9047576
Probable space group: P -1
;
_chemical_formula_sum "Si O2"
_cell_formula_units_Z 15
_cell_length_a 8.825928
_cell_length_b 15.985728
_cell_length_c 12.128273
_cell_angle_alpha 153.746005
_cell_angle_beta 57.940395
_cell_angle_gamma 120.210509
_cell_volume 639.817804
_symmetry_space_group_name_H-M "P -1"
_symmetry_group_IT_number 2
_symmetry_cell_setting 'triclinic'
loop_
_space_group_symop_operation_xyz
x,y,z
-x,-y,-z
loop_
_atom_site_type_symbol
_atom_site_label
_atom_site_fract_x
_atom_site_fract_y
_atom_site_fract_z
Si Si1 0.869932 0.797518 0.433473
Si Si2 0.616255 0.639470 0.700828
Si Si3 0.500773 0.034548 0.169239
Si Si4 0.500000 0.000000 0.500000
Si Si5 0.342991 0.743515 0.454091
Si Si6 0.431127 0.352597 0.020248
Si Si7 0.946979 0.578979 0.356449
Si Si8 0.087870 0.194120 0.832137
O O1 0.674978 0.867020 0.613329
O O2 0.894565 0.628351 0.309742
O O3 0.883915 0.760977 0.254959
O O4 0.005631 0.980692 0.624657
O O5 0.500000 0.500000 0.500000
O O6 0.628935 0.593641 0.770697
O O7 0.807196 0.662861 0.593755
O O8 0.514105 0.828533 0.968472
O O9 0.661629 0.165853 0.315214
O O10 0.500000 0.000000 0.000000
O O11 0.565120 0.097496 0.472343
O O12 0.581167 0.204833 0.775723
O O13 0.453543 0.555622 0.193891
O O14 0.145354 0.673046 0.410151
O O15 0.275781 0.218920 0.856178
O O16 0.960516 0.355511 0.110762
#
# Coordination Sequence:
#
# PCOD9047576 Si02
#       8
#     2   2   2   1   2   2   2   2
#     4  11  23  43  71 100 143 183 236 293 354 425
#     4  12  26  47  73 106 142 193 241 298 358 426
#     4  12  24  44  68 104 141 186 241 294 353 418
#     4  12  22  46  70 106 146 182 236 286 356 420
#     4  11  26  45  72 108 141 193 235 299 351 430
#     4  11  25  45  72 105 146 187 242 293 358 426
#     4  11  25  47  72 101 142 188 237 292 359 423
#     4  10  24  44  68 105 138 185 233 296 355 421
#
# _framework density 23.444174
#
# number of rings (size 3 to 8) (size 9 to 14) (size 15 to 20)
#    0.000    0.800    2.667    4.000    0.000    5.867 
#    2.400    0.000    0.000    0.000    0.000    0.000 
#    0.000    0.000    0.000    0.000    0.000    0.000 
#
# Total GULP energy -83686.895433 kJ/mol
# GULP energy per Si atom -5579.126362 kJ/mol
# Density = 2.339081 g / cm^3
# Si number density = 23.444174 Si / 1000 Ang^3
#
#
#
# Elastic Constant Matrix: (Units=GPa)
#
#
# Indices 1 2 3 4 5 6 
#
# 1 36.9275 33.6645 27.4252 -1.3308 12.3966 0.0263
# 2 33.6645 84.5666 21.6521 -4.0712 5.2977 -23.9533
# 3 27.4252 21.6521 72.5044 -0.8882 24.2282 -3.0932
# 4 -1.3308 -4.0712 -0.8882 47.1259 -9.3165 5.4954
# 5 12.3966 5.2977 24.2282 -9.3165 35.6587 -8.9440
# 6 0.0263 -23.9533 -3.0932 5.4954 -8.9440 28.8834
#
#
#
# Elastic Compliance Matrix: (Units=1/GPa)
#
#
# Indices 1 2 3 4 5 6 
#
# 1 0.079214 -0.038420 -0.012200 -0.001349 -0.024033 -0.040426
# 2 -0.038420 0.036216 -0.000649 0.001410 0.017611 0.035185
# 3 -0.012200 -0.000649 0.022472 -0.002157 -0.011840 -0.001377
# 4 -0.001349 0.001410 -0.002157 0.022859 0.007419 -0.001112
# 5 -0.024033 0.017611 -0.011840 0.007419 0.050699 0.027647
# 6 -0.040426 0.035185 -0.001377 -0.001112 0.027647 0.072463
#
#
# Mechanical properties :
#
#
# Convention : Reuss Voigt Hill
#
# Bulk Modulus (GPa) = 28.27723 39.94246 34.10985
# Shear Modulus (GPa) = 12.55494 29.75072 21.15283
#
# Velocity S-wave (km/s) = 2.31665 3.56617 3.00703
# Velocity P-wave (km/s) = 4.38675 5.83361 5.16113
#
# Compressibility (1/GPa) = 0.03536414
#
# Stress axis : x y z
#
# Youngs Moduli (GPa) = 12.62407 27.61193 44.49989
#
# Poissons Ratio (x) = 1.06085 0.54289
# Poissons Ratio (y) = 0.48502 0.02889
# Poissons Ratio (z) = 0.15401 0.01792
#
# Static dielectric constant tensor:
#      x y z
#    x 1.865470 0.041460 0.158550 
#    y 0.041460 1.995110 -0.028870 
#    z 0.158550 -0.028870 1.795000 
# 
# From -- ./inp_files/397941.got.cif
#   From: 2010.05.17/outbox.cif.g08.bks.cpg/sg2_199_cif.got.tgz:397941.got - 2010.06.03 11:33:40.
