data_PCOD9047473
_publ_section_title
;
Structure prediction by ZEFSAII (Michael W. Deem and Ramdas Pophale) SiO2 
 PCOD9047473
Probable space group: P -1
;
_chemical_formula_sum "Si O2"
_cell_formula_units_Z 14
_cell_length_a 20.604915
_cell_length_b 18.569854
_cell_length_c 8.715989
_cell_angle_alpha 29.007026
_cell_angle_beta 145.699181
_cell_angle_gamma 158.912486
_cell_volume 580.882114
_symmetry_space_group_name_H-M "P -1"
_symmetry_group_IT_number 2
_symmetry_cell_setting 'triclinic'
loop_
_space_group_symop_operation_xyz
x,y,z
-x,-y,-z
loop_
_atom_site_type_symbol
_atom_site_label
_atom_site_fract_x
_atom_site_fract_y
_atom_site_fract_z
Si Si1 0.492495 0.589384 0.665973
Si Si2 0.224917 0.325089 0.055772
Si Si3 0.940335 0.309915 0.027425
Si Si4 0.759042 0.594074 0.717663
Si Si5 0.452006 0.043698 0.173500
Si Si6 0.923574 0.225729 0.514414
Si Si7 0.492875 0.185310 0.475712
O O1 0.330360 0.383172 0.621466
O O2 0.453700 0.710355 0.442268
O O3 0.500000 0.500000 0.000000
O O4 0.686881 0.746095 0.680249
O O5 0.053278 0.217898 0.828785
O O6 0.385467 0.599007 0.807760
O O7 0.188690 0.293476 0.224444
O O8 0.753224 0.109484 0.946053
O O9 0.000213 0.542920 0.699735
O O10 0.084440 0.345049 0.166537
O O11 0.922618 0.252099 0.280429
O O12 0.587975 0.314807 0.926180
O O13 0.471266 0.948293 0.247699
O O14 0.500000 0.000000 0.500000
O O15 0.721516 0.001927 0.598376
#
# Coordination Sequence:
#
# PCOD9047473 Si02
#       7
#     2   2   2   2   2   2   2
#     4  10  24  44  67  91 128 177 223 259 313 382
#     4  11  24  44  65  93 132 173 217 263 317 382
#     4  11  24  37  63 100 132 167 212 263 329 391
#     4  12  24  41  70  96 133 169 212 270 327 380
#     4  12  24  40  66 102 138 162 209 270 335 385
#     4  11  23  39  65  95 133 168 215 265 323 384
#     4  11  22  42  66  93 129 171 210 266 320 378
#
# _framework density 24.101275000000001
#
# number of rings (size 3 to 8) (size 9 to 14) (size 15 to 20)
#    0.000    0.857    4.286    3.000    4.000    2.857 
#    0.000    2.857    0.000    6.857    0.000    0.000 
#    0.000    0.000    0.000    0.000    0.000    0.000 
#
# Total GULP energy -78375.682307 kJ/mol
# GULP energy per Si atom -5598.263022 kJ/mol
# Density = 2.404642 g / cm^3
# Si number density = 24.101275 Si / 1000 Ang^3
#
#
#
# Elastic Constant Matrix: (Units=GPa)
#
#
# Indices 1 2 3 4 5 6 
#
# 1 60.4239 -7.7142 13.8421 8.8941 -8.3474 11.8957
# 2 -7.7142 116.3048 22.9411 26.6817 -13.5513 32.0262
# 3 13.8421 22.9411 83.3964 24.1701 -25.6068 -1.0072
# 4 8.8941 26.6817 24.1701 51.9642 -5.3986 9.2589
# 5 -8.3474 -13.5513 -25.6068 -5.3986 29.6182 6.4780
# 6 11.8957 32.0262 -1.0072 9.2589 6.4780 34.5295
#
#
#
# Elastic Compliance Matrix: (Units=1/GPa)
#
#
# Indices 1 2 3 4 5 6 
#
# 1 0.024106 0.009360 -0.001840 -0.003430 0.012916 -0.018543
# 2 0.009360 0.018032 -0.001084 -0.005171 0.013635 -0.021153
# 3 -0.001840 -0.001084 0.018742 -0.006679 0.013663 0.001414
# 4 -0.003430 -0.005171 -0.006679 0.025146 -0.004498 -0.000116
# 5 0.012916 0.013635 0.013663 -0.004498 0.060505 -0.026843
# 6 -0.018543 -0.021153 0.001414 -0.000116 -0.026843 0.060076
#
#
# Mechanical properties :
#
#
# Convention : Reuss Voigt Hill
#
# Bulk Modulus (GPa) = 13.55884 35.36256 24.46070
# Shear Modulus (GPa) = 22.90207 38.62612 30.76410
#
# Velocity S-wave (km/s) = 3.08595 4.00767 3.57662
# Velocity P-wave (km/s) = 4.28199 6.00995 5.21799
#
# Compressibility (1/GPa) = 0.07375263
#
# Stress axis : x y z
#
# Youngs Moduli (GPa) = 41.48348 55.45550 53.35499
#
# Poissons Ratio (x) = -0.51905 0.09816
# Poissons Ratio (y) = -0.38827 0.05784
# Poissons Ratio (z) = 0.07632 0.06012
#
# Static dielectric constant tensor:
#      x y z
#    x 1.943000 -0.052890 -0.015610 
#    y -0.052890 1.926310 -0.006740 
#    z -0.015610 -0.006740 2.143510 
# 
# From -- ./inp_files/255989.got.cif
#   From: 2010.05.17/outbox.cif.g08.bks.cpg/sg2_128_cif.got.tgz:255989.got - 2010.06.03 11:33:40.
