data_PCOD9047405
_publ_section_title
;
Structure prediction by ZEFSAII (Michael W. Deem and Ramdas Pophale) SiO2 
 PCOD9047405
Probable space group: P -1
;
_chemical_formula_sum "Si O2"
_cell_formula_units_Z 16
_cell_length_a 15.784376
_cell_length_b 15.777588
_cell_length_c 8.438183
_cell_angle_alpha 111.019969
_cell_angle_beta 93.856448
_cell_angle_gamma 27.765114
_cell_volume 747.486505
_symmetry_space_group_name_H-M "P -1"
_symmetry_group_IT_number 2
_symmetry_cell_setting 'triclinic'
loop_
_space_group_symop_operation_xyz
x,y,z
-x,-y,-z
loop_
_atom_site_type_symbol
_atom_site_label
_atom_site_fract_x
_atom_site_fract_y
_atom_site_fract_z
Si Si1 0.432480 0.739688 0.118286
Si Si2 0.125329 0.379409 0.767934
Si Si3 0.720680 0.051148 0.110803
Si Si4 0.602480 0.496857 0.465621
Si Si5 0.434010 0.940212 0.359649
Si Si6 0.696546 0.871797 0.884172
Si Si7 0.845113 0.269723 0.009777
Si Si8 0.978022 0.971376 0.643812
O O1 0.442600 0.824262 0.270027
O O2 0.674026 0.456800 0.971429
O O3 0.251361 0.854671 0.253104
O O4 0.357538 0.832945 0.992240
O O5 0.322975 0.258273 0.709676
O O6 0.934997 0.590635 0.758365
O O7 0.254777 0.157553 0.604334
O O8 0.000000 0.500000 0.000000
O O9 0.573998 0.249447 0.354021
O O10 0.690691 0.972824 0.046883
O O11 0.976617 0.826746 0.013438
O O12 0.500000 0.500000 0.500000
O O13 0.696634 0.405650 0.238738
O O14 0.815893 0.297506 0.472996
O O15 0.350568 0.058649 0.257666
O O16 0.500000 0.000000 0.000000
O O17 0.976127 0.049069 0.834218
O O18 0.000000 0.000000 0.500000
#
# Coordination Sequence:
#
# PCOD9047405 Si02
#       8
#     2   2   2   2   2   2   2   2
#     4  11  24  44  65  97 131 167 219 267 318 386
#     4  11  22  43  68  95 129 172 213 264 327 382
#     4  11  25  45  67  96 131 172 217 264 323 386
#     4  12  23  42  68  95 130 170 213 268 319 380
#     4  10  24  44  66  95 131 169 214 268 320 384
#     4  11  23  44  67  97 132 170 214 268 324 382
#     4  12  24  45  67  93 134 170 215 268 319 384
#     4  12  24  43  67  95 131 175 214 265 326 378
#
# _framework density 21.405069000000001
#
# number of rings (size 3 to 8) (size 9 to 14) (size 15 to 20)
#    0.000    0.750    3.750    4.125    0.000    2.000 
#    4.500    0.000    0.000    0.000    0.000    0.000 
#    0.000    0.000    0.000    0.000    0.000    0.000 
#
# Total GULP energy -89567.255401 kJ/mol
# GULP energy per Si atom -5597.953463 kJ/mol
# Density = 2.135635 g / cm^3
# Si number density = 21.405069 Si / 1000 Ang^3
#
#
#
# Elastic Constant Matrix: (Units=GPa)
#
#
# Indices 1 2 3 4 5 6 
#
# 1 100.3336 3.6429 32.4804 13.9072 -10.1777 -15.1797
# 2 3.6429 93.3075 -4.0917 23.1898 -25.9604 -18.5078
# 3 32.4804 -4.0917 124.4158 7.1165 -7.3234 -0.3778
# 4 13.9072 23.1898 7.1165 34.4076 0.9693 -7.6305
# 5 -10.1777 -25.9604 -7.3234 0.9693 18.1001 2.7470
# 6 -15.1797 -18.5078 -0.3778 -7.6305 2.7470 32.1500
#
#
#
# Elastic Compliance Matrix: (Units=1/GPa)
#
#
# Indices 1 2 3 4 5 6 
#
# 1 0.014977 0.009263 -0.001771 -0.010706 0.020334 0.008105
# 2 0.009263 0.036321 0.003824 -0.027594 0.058233 0.013803
# 3 -0.001771 0.003824 0.009361 -0.004087 0.008529 -0.000224
# 4 -0.010706 -0.027594 -0.004087 0.053317 -0.049483 -0.004106
# 5 0.020334 0.058233 0.008529 -0.049483 0.153518 0.018363
# 6 0.008105 0.013803 -0.000224 -0.004106 0.018363 0.040331
#
#
# Mechanical properties :
#
#
# Convention : Reuss Voigt Hill
#
# Bulk Modulus (GPa) = 12.00610 42.45776 27.23193
# Shear Modulus (GPa) = 15.97672 35.99988 25.98830
#
# Velocity S-wave (km/s) = 2.73499 4.10547 3.48820
# Velocity P-wave (km/s) = 3.94902 6.50781 5.38268
#
# Compressibility (1/GPa) = 0.08329102
#
# Stress axis : x y z
#
# Youngs Moduli (GPa) = 66.77066 27.53239 106.82706
#
# Poissons Ratio (x) = -0.25504 0.18922
# Poissons Ratio (y) = -0.61853 -0.40852
# Poissons Ratio (z) = 0.11827 -0.10529
#
# Static dielectric constant tensor:
#      x y z
#    x 1.744350 -0.007510 0.023730 
#    y -0.007510 1.794190 -0.016600 
#    z 0.023730 -0.016600 1.773190 
# 
# From -- ./inp_files/52299.got.cif
#   From: 2010.05.17/outbox.cif.g08.bks.cpg/sg2_27_cif.got.tgz:52299.got - 2010.06.03 11:33:40.
