data_PCOD9047397
_publ_section_title
;
Structure prediction by ZEFSAII (Michael W. Deem and Ramdas Pophale) SiO2 
 PCOD9047397
Probable space group: P -1
;
_chemical_formula_sum "Si O2"
_cell_formula_units_Z 12
_cell_length_a 8.637349
_cell_length_b 13.788827
_cell_length_c 8.859693
_cell_angle_alpha 66.028433
_cell_angle_beta 32.984780
_cell_angle_gamma 75.773434
_cell_volume 515.239777
_symmetry_space_group_name_H-M "P -1"
_symmetry_group_IT_number 2
_symmetry_cell_setting 'triclinic'
loop_
_space_group_symop_operation_xyz
x,y,z
-x,-y,-z
loop_
_atom_site_type_symbol
_atom_site_label
_atom_site_fract_x
_atom_site_fract_y
_atom_site_fract_z
Si Si1 0.822701 0.803933 0.603511
Si Si2 0.827904 0.015620 0.280380
Si Si3 0.223587 0.669289 0.184647
Si Si4 0.284015 0.630603 0.654291
Si Si5 0.831527 0.771940 0.974176
Si Si6 0.286021 0.478114 0.466705
O O1 0.803483 0.800786 0.802767
O O2 0.065038 0.739246 0.385733
O O3 0.871249 0.923921 0.422546
O O4 0.508340 0.743884 0.839272
O O5 0.966095 0.130580 0.166574
O O6 0.500000 0.000000 0.500000
O O7 0.000000 0.000000 0.000000
O O8 0.327606 0.569164 0.245795
O O9 0.978809 0.615450 0.303417
O O10 0.229164 0.544189 0.619186
O O11 0.438569 0.575655 0.693978
O O12 0.995408 0.671389 0.905313
O O13 0.521907 0.731975 0.331907
#
# Coordination Sequence:
#
# PCOD9047397 Si02
#       6
#     2   2   2   2   2   2
#     4  12  25  48  71 104 139 186 228 287 350 419
#     4  12  29  48  75 106 134 177 235 296 357 411
#     4  11  25  42  72 102 145 182 236 276 347 402
#     4  11  25  42  72 102 145 182 236 276 347 402
#     4  12  25  48  71 104 139 186 228 287 350 419
#     4  10  24  44  66 108 142 190 228 286 330 414
#
# _framework density 23.290126999999998
#
# number of rings (size 3 to 8) (size 9 to 14) (size 15 to 20)
#    0.000    0.667    3.333    2.500    7.000    8.000 
#    0.000    5.000    0.000    0.000    0.000    0.000 
#    0.000    0.000    0.000    0.000    0.000    0.000 
#
# Total GULP energy -67319.005445 kJ/mol
# GULP energy per Si atom -5609.917120 kJ/mol
# Density = 2.323712 g / cm^3
# Si number density = 23.290127 Si / 1000 Ang^3
#
#
#
# Elastic Constant Matrix: (Units=GPa)
#
#
# Indices 1 2 3 4 5 6 
#
# 1 94.4418 19.6779 -0.5624 -10.4897 -8.2910 5.4915
# 2 19.6779 65.6550 15.7740 -12.6503 -2.0916 11.0178
# 3 -0.5624 15.7740 89.8269 -4.9340 -8.5189 1.2408
# 4 -10.4897 -12.6503 -4.9340 34.7508 3.4679 -4.6490
# 5 -8.2910 -2.0916 -8.5189 3.4679 26.6750 -12.6340
# 6 5.4915 11.0178 1.2408 -4.6490 -12.6340 47.4720
#
#
#
# Elastic Compliance Matrix: (Units=1/GPa)
#
#
# Indices 1 2 3 4 5 6 
#
# 1 0.011841 -0.003378 0.001139 0.002210 0.003779 0.000607
# 2 -0.003378 0.018605 -0.003265 0.005053 -0.003291 -0.004223
# 3 0.001139 -0.003265 0.012168 0.000633 0.004665 0.001611
# 4 0.002210 0.005053 0.000633 0.031746 -0.002350 0.001039
# 5 0.003779 -0.003291 0.004665 -0.002350 0.045984 0.012213
# 6 0.000607 -0.004223 0.001611 0.001039 0.012213 0.025285
#
#
# Mechanical properties :
#
#
# Convention : Reuss Voigt Hill
#
# Bulk Modulus (GPa) = 31.63895 35.52253 33.58074
# Shear Modulus (GPa) = 29.90909 36.11518 33.01213
#
# Velocity S-wave (km/s) = 3.58746 3.94212 3.76896
# Velocity P-wave (km/s) = 5.54743 6.00048 5.77839
#
# Compressibility (1/GPa) = 0.03160661
#
# Stress axis : x y z
#
# Youngs Moduli (GPa) = 84.45100 53.74788 82.18400
#
# Poissons Ratio (x) = 0.18157 -0.09359
# Poissons Ratio (y) = 0.28529 0.26829
# Poissons Ratio (z) = -0.09617 0.17546
#
# Static dielectric constant tensor:
#      x y z
#    x 1.868970 0.001540 0.021580 
#    y 0.001540 1.842710 -0.031520 
#    z 0.021580 -0.031520 1.865810 
# 
# From -- ./inp_files/205793.got.cif
#   From: 2010.05.17/outbox.cif.g08.bks.cpg/sg2_103_cif.got.tgz:205793.got - 2010.06.03 11:33:40.
