data_PCOD9047583
_publ_section_title
;
Structure prediction by ZEFSAII (Michael W. Deem and Ramdas Pophale) SiO2 
 PCOD9047583
Probable space group: P -1
;
_chemical_formula_sum "Si O2"
_cell_formula_units_Z 16
_cell_length_a 10.519840
_cell_length_b 5.861749
_cell_length_c 22.198399
_cell_angle_alpha 59.229961
_cell_angle_beta 148.825202
_cell_angle_gamma 118.518510
_cell_volume 606.406292
_symmetry_space_group_name_H-M "P -1"
_symmetry_group_IT_number 2
_symmetry_cell_setting 'triclinic'
loop_
_space_group_symop_operation_xyz
x,y,z
-x,-y,-z
loop_
_atom_site_type_symbol
_atom_site_label
_atom_site_fract_x
_atom_site_fract_y
_atom_site_fract_z
Si Si1 0.512981 0.940115 0.225957
Si Si2 0.065709 0.357854 0.162503
Si Si3 0.266562 0.128719 0.861707
Si Si4 0.858048 0.408595 0.718453
Si Si5 0.180262 0.452835 0.523132
Si Si6 0.973707 0.816196 0.616621
Si Si7 0.368467 0.530148 0.119687
Si Si8 0.512065 0.072297 0.390604
O O1 0.397148 0.208202 0.166819
O O2 0.759218 0.058901 0.274029
O O3 0.647265 0.770059 0.353435
O O4 0.358972 0.723227 0.149767
O O5 0.146614 0.588546 0.211694
O O6 0.308837 0.234610 0.252808
O O7 0.934050 0.129119 0.185016
O O8 0.870820 0.418813 0.024839
O O9 0.389489 0.319086 0.834467
O O10 0.126525 0.319083 0.822834
O O11 0.500000 0.000000 0.000000
O O12 0.843375 0.681376 0.639893
O O13 0.648314 0.205829 0.631199
O O14 0.013868 0.380952 0.407805
O O15 0.374653 0.701610 0.547615
O O16 0.000000 0.500000 0.500000
O O17 0.777571 0.004353 0.484346
#
# Coordination Sequence:
#
# PCOD9047583 Si02
#       8
#     2   2   2   2   2   2   2   2
#     4  12  26  45  75 109 142 192 253 308 357 424
#     4  10  24  44  68 106 151 195 233 296 372 448
#     4   9  20  35  64  99 144 187 231 288 356 428
#     4  11  23  42  69 110 147 188 235 298 379 451
#     4  12  27  48  72 105 144 192 251 310 364 431
#     4  12  25  44  75 107 145 187 243 312 372 438
#     4  11  25  44  75 108 151 192 251 300 363 437
#     4  11  26  45  73 100 153 183 253 287 388 433
#
# _framework density 26.38495
#
# number of rings (size 3 to 8) (size 9 to 14) (size 15 to 20)
#    0.000    1.000    2.500    3.000    7.000    4.000 
#    0.000    1.250    0.000    0.000    0.000    0.000 
#    0.000    0.000    0.000    0.000    0.000    0.000 
#
# Total GULP energy -89158.668446 kJ/mol
# GULP energy per Si atom -5572.416778 kJ/mol
# Density = 2.632490 g / cm^3
# Si number density = 26.384950 Si / 1000 Ang^3
#
#
#
# Elastic Constant Matrix: (Units=GPa)
#
#
# Indices 1 2 3 4 5 6 
#
# 1 89.7181 32.9464 54.3220 9.4268 -8.2268 -23.4798
# 2 32.9464 155.6546 66.2278 17.1480 -16.8544 2.6381
# 3 54.3220 66.2278 178.1377 12.3083 8.6676 -37.9549
# 4 9.4268 17.1480 12.3083 23.7975 -3.2297 10.6604
# 5 -8.2268 -16.8544 8.6676 -3.2297 46.5372 4.3725
# 6 -23.4798 2.6381 -37.9549 10.6604 4.3725 40.2513
#
#
#
# Elastic Compliance Matrix: (Units=1/GPa)
#
#
# Indices 1 2 3 4 5 6 
#
# 1 0.016604 -0.001992 -0.001435 -0.009119 0.000835 0.010788
# 2 -0.001992 0.009340 -0.004428 -0.000190 0.004442 -0.006381
# 3 -0.001435 -0.004428 0.011397 -0.008827 -0.005830 0.013171
# 4 -0.009119 -0.000190 -0.008827 0.065610 0.007507 -0.031823
# 5 0.000835 0.004442 -0.005830 0.007507 0.025799 -0.010092
# 6 0.010788 -0.006381 0.013171 -0.031823 -0.010092 0.053499
#
#
# Mechanical properties :
#
#
# Convention : Reuss Voigt Hill
#
# Bulk Modulus (GPa) = 46.22629 81.16697 63.69663
# Shear Modulus (GPa) = 24.37008 40.11816 32.24412
#
# Velocity S-wave (km/s) = 3.04243 3.90358 3.49960
# Velocity P-wave (km/s) = 5.46808 7.15169 6.36579
#
# Compressibility (1/GPa) = 0.02163271
#
# Stress axis : x y z
#
# Youngs Moduli (GPa) = 60.22599 107.06717 87.74031
#
# Poissons Ratio (x) = 0.21326 0.12590
# Poissons Ratio (y) = 0.11996 0.38848
# Poissons Ratio (z) = 0.08642 0.47405
#
# Static dielectric constant tensor:
#      x y z
#    x 0.610190 -0.455520 0.514000 
#    y -0.455520 2.216390 0.056650 
#    z 0.514000 0.056650 1.826360 
# 
# From -- ./inp_files/609152.got.cif
#   From: 2010.05.17/outbox.cif.g08.bks.cpg/sg2_305_cif.got.tgz:609152.got - 2010.06.03 11:33:40.
