data_PCOD9047278
_publ_section_title
;
Structure prediction by ZEFSAII (Michael W. Deem and Ramdas Pophale) SiO2 
 PCOD9047278
Probable space group: P -1
;
_chemical_formula_sum "Si O2"
_cell_formula_units_Z 16
_cell_length_a 8.893573
_cell_length_b 14.476936
_cell_length_c 5.067772
_cell_angle_alpha 94.687787
_cell_angle_beta 72.284366
_cell_angle_gamma 72.637936
_cell_volume 582.444641
_symmetry_space_group_name_H-M "P -1"
_symmetry_group_IT_number 2
_symmetry_cell_setting 'triclinic'
loop_
_space_group_symop_operation_xyz
x,y,z
-x,-y,-z
loop_
_atom_site_type_symbol
_atom_site_label
_atom_site_fract_x
_atom_site_fract_y
_atom_site_fract_z
Si Si1 0.615865 0.564130 0.383910
Si Si2 0.174609 0.991102 0.277706
Si Si3 0.164161 0.822550 0.921212
Si Si4 0.704366 0.309013 0.680317
Si Si5 0.933295 0.426018 0.352230
Si Si6 0.474989 0.095413 0.850533
Si Si7 0.271950 0.299144 0.269237
Si Si8 0.181135 0.159914 0.628257
O O1 0.500000 0.500000 0.500000
O O2 0.494782 0.638477 0.256263
O O3 0.803576 0.487736 0.211056
O O4 0.645996 0.626545 0.628977
O O5 0.188345 0.927218 0.991014
O O6 0.335091 0.924289 0.339044
O O7 0.172879 0.101519 0.348532
O O8 0.000000 0.000000 0.500000
O O9 0.262588 0.739983 0.063459
O O10 0.972752 0.837904 0.105677
O O11 0.219255 0.775252 0.599453
O O12 0.814264 0.380203 0.576956
O O13 0.000000 0.500000 0.500000
O O14 0.112952 0.344466 0.170031
O O15 0.350893 0.103658 0.679004
O O16 0.404532 0.199275 0.063239
O O17 0.500000 0.000000 0.000000
O O18 0.186815 0.263539 0.554941
#
# Coordination Sequence:
#
# PCOD9047278 Si02
#       8
#     2   2   2   2   2   2   2   2
#     4   9  21  40  70 100 135 183 236 296 361 432
#     4  10  24  44  63 101 141 183 234 292 355 423
#     4  11  25  43  71 102 144 192 237 294 358 434
#     4  11  22  44  70 101 142 183 238 292 364 429
#     4   9  19  41  70  99 138 180 238 297 363 426
#     4  12  25  41  71 102 139 185 241 297 350 437
#     4  11  21  41  71  95 139 180 235 297 358 422
#     4  11  24  41  65 100 138 186 237 292 355 419
#
# _framework density 27.470424000000001
#
# number of rings (size 3 to 8) (size 9 to 14) (size 15 to 20)
#    0.000    1.500    2.500    1.875    1.750    1.000 
#    0.000    9.375   11.000    0.000    0.000    0.000 
#    0.000    0.000    0.000    0.000    0.000    0.000 
#
# Total GULP energy -89631.421949 kJ/mol
# GULP energy per Si atom -5601.963872 kJ/mol
# Density = 2.740790 g / cm^3
# Si number density = 27.470424 Si / 1000 Ang^3
#
#
#
# Elastic Constant Matrix: (Units=GPa)
#
#
# Indices 1 2 3 4 5 6 
#
# 1 219.7697 86.6773 35.2784 8.7553 -1.6071 -32.1104
# 2 86.6773 139.7598 51.2684 15.0715 2.4242 -2.7156
# 3 35.2784 51.2684 87.4790 7.9706 4.3336 10.4485
# 4 8.7553 15.0715 7.9706 28.9335 6.4016 4.3627
# 5 -1.6071 2.4242 4.3336 6.4016 24.2400 17.8911
# 6 -32.1104 -2.7156 10.4485 4.3627 17.8911 91.6035
#
#
#
# Elastic Compliance Matrix: (Units=1/GPa)
#
#
# Indices 1 2 3 4 5 6 
#
# 1 0.006462 -0.003693 -0.000685 -0.000018 -0.000847 0.002400
# 2 -0.003693 0.011659 -0.005002 -0.003683 0.000708 -0.000341
# 3 -0.000685 -0.005002 0.014981 -0.000899 -0.000549 -0.001947
# 4 -0.000018 -0.003683 -0.000899 0.038889 -0.009775 0.000044
# 5 -0.000847 0.000708 -0.000549 -0.009775 0.050968 -0.009702
# 6 0.002400 -0.000341 -0.001947 0.000044 -0.009702 0.013863
#
#
# Mechanical properties :
#
#
# Convention : Reuss Voigt Hill
#
# Bulk Modulus (GPa) = 69.72835 88.16184 78.94510
# Shear Modulus (GPa) = 31.17950 47.20769 39.19360
#
# Velocity S-wave (km/s) = 3.37266 4.14997 3.78134
# Velocity P-wave (km/s) = 6.37218 7.42469 6.91848
#
# Compressibility (1/GPa) = 0.01434137
#
# Stress axis : x y z
#
# Youngs Moduli (GPa) = 154.75356 85.77188 66.75281
#
# Poissons Ratio (x) = 0.31678 0.04570
# Poissons Ratio (y) = 0.57155 0.33391
# Poissons Ratio (z) = 0.10594 0.42905
#
# Static dielectric constant tensor:
#      x y z
#    x 2.200600 0.012380 -0.050390 
#    y 0.012380 2.236740 -0.010220 
#    z -0.050390 -0.010220 2.118410 
# 
# From -- ./inp_files/39262.got.cif
#   From: 2010.05.17/outbox.cif.g08.bks.cpg/sg2_20_cif.got.tgz:39262.got - 2010.06.03 11:33:40.
