data_PCOD9047881
_publ_section_title
;
Structure prediction by ZEFSAII (Michael W. Deem and Ramdas Pophale) SiO2 
 PCOD9047881
Probable space group: P -1
;
_chemical_formula_sum "Si O2"
_cell_formula_units_Z 16
_cell_length_a 8.908988
_cell_length_b 16.958284
_cell_length_c 11.767614
_cell_angle_alpha 30.957181
_cell_angle_beta 49.587042
_cell_angle_gamma 54.490456
_cell_volume 694.906677
_symmetry_space_group_name_H-M "P -1"
_symmetry_group_IT_number 2
_symmetry_cell_setting 'triclinic'
loop_
_space_group_symop_operation_xyz
x,y,z
-x,-y,-z
loop_
_atom_site_type_symbol
_atom_site_label
_atom_site_fract_x
_atom_site_fract_y
_atom_site_fract_z
Si Si1 0.172512 0.604451 0.317155
Si Si2 0.621468 0.838459 0.140030
Si Si3 0.126714 0.145866 0.769471
Si Si4 0.109334 0.621882 0.868585
Si Si5 0.489902 0.944000 0.445087
Si Si6 0.750381 0.784401 0.905936
Si Si7 0.575217 0.450320 0.373396
Si Si8 0.677558 0.373717 0.036630
O O1 0.348959 0.512665 0.405802
O O2 0.000000 0.500000 0.500000
O O3 0.053955 0.726728 0.302305
O O4 0.272882 0.647519 0.094261
O O5 0.748589 0.826168 0.209691
O O6 0.457626 0.713085 0.349625
O O7 0.767831 0.828676 0.973559
O O8 0.500000 0.000000 0.000000
O O9 0.296159 0.122826 0.620457
O O10 0.000000 0.000000 0.000000
O O11 0.323236 0.612255 0.716383
O O12 0.139262 0.574290 0.043564
O O13 0.962666 0.773591 0.752570
O O14 0.000000 0.500000 0.000000
O O15 0.361753 0.795142 0.688571
O O16 0.500000 0.000000 0.500000
O O17 0.400746 0.089073 0.235500
O O18 0.680338 0.607936 0.155322
O O19 0.500000 0.500000 0.000000
#
# Coordination Sequence:
#
# PCOD9047881 Si02
#       8
#     2   2   2   2   2   2   2   2
#     4  12  24  44  75 103 141 189 246 293 354 430
#     4  12  25  46  72 103 149 188 234 298 361 428
#     4  12  25  47  70 108 144 189 243 298 360 427
#     4  10  24  44  71 103 142 185 241 289 356 428
#     4  12  27  49  73 106 146 191 241 306 367 431
#     4  11  25  48  73 103 144 190 243 296 364 430
#     4  11  23  48  70 104 144 187 236 300 354 425
#     4  12  24  45  75 104 146 194 237 298 362 429
#
# _framework density 23.024674999999998
#
# number of rings (size 3 to 8) (size 9 to 14) (size 15 to 20)
#    0.000    0.500    3.750    4.875    1.750    0.500 
#    4.500    0.000    0.000    0.000    0.000    0.000 
#    0.000    0.000    0.000    0.000    0.000    0.000 
#
# Total GULP energy -89201.065534 kJ/mol
# GULP energy per Si atom -5575.066596 kJ/mol
# Density = 2.297227 g / cm^3
# Si number density = 23.024675 Si / 1000 Ang^3
#
#
#
# Elastic Constant Matrix: (Units=GPa)
#
#
# Indices 1 2 3 4 5 6 
#
# 1 59.4636 24.1475 6.8189 -8.0585 -5.0035 2.4371
# 2 24.1475 215.8519 38.8081 -1.1625 7.6831 -13.7626
# 3 6.8189 38.8081 84.6367 -15.0893 -9.7383 3.1040
# 4 -8.0585 -1.1625 -15.0893 38.8756 9.0575 2.2330
# 5 -5.0035 7.6831 -9.7383 9.0575 25.9405 3.5368
# 6 2.4371 -13.7626 3.1040 2.2330 3.5368 49.3373
#
#
#
# Elastic Compliance Matrix: (Units=1/GPa)
#
#
# Indices 1 2 3 4 5 6 
#
# 1 0.018576 -0.002453 0.000721 0.003312 0.003705 -0.002063
# 2 -0.002453 0.005704 -0.003032 -0.000873 -0.003293 0.002179
# 3 0.000721 -0.003032 0.014671 0.004669 0.005240 -0.002391
# 4 0.003312 -0.000873 0.004669 0.030063 -0.007640 -0.001514
# 5 0.003705 -0.003293 0.005240 -0.007640 0.045467 -0.004345
# 6 -0.002063 0.002179 -0.002391 -0.001514 -0.004345 0.021509
#
#
# Mechanical properties :
#
#
# Convention : Reuss Voigt Hill
#
# Bulk Modulus (GPa) = 33.98941 55.50014 44.74478
# Shear Modulus (GPa) = 32.19057 42.17585 37.18321
#
# Velocity S-wave (km/s) = 3.74316 4.28456 4.02298
# Velocity P-wave (km/s) = 5.78583 6.97378 6.40740
#
# Compressibility (1/GPa) = 0.02942093
#
# Stress axis : x y z
#
# Youngs Moduli (GPa) = 53.83365 175.32136 68.16370
#
# Poissons Ratio (x) = 0.43010 -0.04913
# Poissons Ratio (y) = 0.13207 0.20668
# Poissons Ratio (z) = -0.03880 0.53159
#
# Static dielectric constant tensor:
#      x y z
#    x 1.941710 -0.010040 -0.034660 
#    y -0.010040 1.767810 0.053440 
#    z -0.034660 0.053440 2.006730 
# 
# From -- ./inp_files/402617.got.cif
#   From: 2010.05.17/outbox.cif.g08.bks.cpg/sg2_202_cif.got.tgz:402617.got - 2010.06.03 11:33:40.
