data_PCOD9047070
_publ_section_title
;
Structure prediction by ZEFSAII (Michael W. Deem and Ramdas Pophale) SiO2 
 PCOD9047070
Probable space group: P -1
;
_chemical_formula_sum "Si O2"
_cell_formula_units_Z 12
_cell_length_a 9.292680
_cell_length_b 15.800776
_cell_length_c 9.631646
_cell_angle_alpha 32.539600
_cell_angle_beta 56.175614
_cell_angle_gamma 63.866769
_cell_volume 630.626215
_symmetry_space_group_name_H-M "P -1"
_symmetry_group_IT_number 2
_symmetry_cell_setting 'triclinic'
loop_
_space_group_symop_operation_xyz
x,y,z
-x,-y,-z
loop_
_atom_site_type_symbol
_atom_site_label
_atom_site_fract_x
_atom_site_fract_y
_atom_site_fract_z
Si Si1 0.321788 0.906561 0.183006
Si Si2 0.824880 0.684460 0.900375
Si Si3 0.016346 0.987968 0.677057
Si Si4 0.490292 0.148656 0.107331
Si Si5 0.335838 0.806700 0.758272
Si Si6 0.791031 0.383228 0.153845
O O1 0.166785 0.019398 0.138784
O O2 0.272954 0.756764 0.513356
O O3 0.355924 0.848922 0.089201
O O4 0.500000 0.000000 0.000000
O O5 0.667316 0.742556 0.997439
O O6 0.886686 0.844796 0.564564
O O7 0.999755 0.631258 0.954842
O O8 0.766341 0.547371 0.014932
O O9 0.000000 0.000000 0.500000
O O10 0.140721 0.852561 0.833250
O O11 0.557348 0.207950 0.139188
O O12 0.417124 0.965843 0.417260
O O13 0.312865 0.658941 0.872473
#
# Coordination Sequence:
#
# PCOD9047070 Si02
#       6
#     2   2   2   2   2   2
#     4  11  19  31  55  82 103 131 176 223 254 298
#     4   9  19  34  54  79 101 141 176 213 250 316
#     4  10  17  34  57  76 100 139 177 212 252 311
#     4  10  21  33  52  80 111 130 173 221 261 301
#     4  10  19  35  54  77 103 144 171 210 262 313
#     4  10  19  34  58  76 101 141 182 205 257 313
#
# _framework density 19.028704999999999
#
# number of rings (size 3 to 8) (size 9 to 14) (size 15 to 20)
#    0.000    2.000    5.000    1.000    0.000    2.000 
#    0.000    0.000    0.000    9.000    0.000    0.000 
#    0.000    0.000    0.000    0.000    0.000    0.000 
#
# Total GULP energy -66870.432723 kJ/mol
# GULP energy per Si atom -5572.536060 kJ/mol
# Density = 1.898539 g / cm^3
# Si number density = 19.028705 Si / 1000 Ang^3
#
#
#
# Elastic Constant Matrix: (Units=GPa)
#
#
# Indices 1 2 3 4 5 6 
#
# 1 61.4220 36.3166 21.5058 7.7168 -16.6966 8.9080
# 2 36.3166 96.4184 28.5583 5.2417 -14.0124 12.6055
# 3 21.5058 28.5583 28.0533 5.1590 -12.0360 3.8949
# 4 7.7168 5.2417 5.1590 37.5618 0.8166 -17.5287
# 5 -16.6966 -14.0124 -12.0360 0.8166 21.1089 -0.5956
# 6 8.9080 12.6055 3.8949 -17.5287 -0.5956 47.4745
#
#
#
# Elastic Compliance Matrix: (Units=1/GPa)
#
#
# Indices 1 2 3 4 5 6 
#
# 1 0.027402 -0.004799 -0.008135 -0.006714 0.013954 -0.005504
# 2 -0.004799 0.016220 -0.012353 -0.000841 -0.000116 -0.002705
# 3 -0.008135 -0.012353 0.066368 -0.007721 0.023416 -0.003195
# 4 -0.006714 -0.000841 -0.007721 0.036664 -0.011252 0.015512
# 5 0.013954 -0.000116 0.023416 -0.011252 0.071902 -0.007761
# 6 -0.005504 -0.002705 -0.003195 0.015512 -0.007761 0.028707
#
#
# Mechanical properties :
#
#
# Convention : Reuss Voigt Hill
#
# Bulk Modulus (GPa) = 16.83041 39.85057 28.34049
# Shear Modulus (GPa) = 15.74098 27.86324 21.80211
#
# Velocity S-wave (km/s) = 2.87927 3.83074 3.38856
# Velocity P-wave (km/s) = 4.46291 6.36819 5.49870
#
# Compressibility (1/GPa) = 0.05941625
#
# Stress axis : x y z
#
# Youngs Moduli (GPa) = 36.49424 61.65084 15.06745
#
# Poissons Ratio (x) = 0.29586 0.12257
# Poissons Ratio (y) = 0.17513 0.18613
# Poissons Ratio (z) = 0.29688 0.76158
#
# Static dielectric constant tensor:
#      x y z
#    x 1.715620 -0.003450 -0.024690 
#    y -0.003450 1.721080 0.009810 
#    z -0.024690 0.009810 1.641270 
# 
# From -- ./inp_files/146752.got.cif
#   From: 2010.05.17/outbox.cif.g08.bks.cpg/sg2_74_cif.got.tgz:146752.got - 2010.06.03 11:33:40.
