data_PCOD9047848
_publ_section_title
;
Structure prediction by ZEFSAII (Michael W. Deem and Ramdas Pophale) SiO2 
 PCOD9047848
Probable space group: P -1
;
_chemical_formula_sum "Si O2"
_cell_formula_units_Z 11
_cell_length_a 14.796083
_cell_length_b 5.696356
_cell_length_c 9.098364
_cell_angle_alpha 71.834045
_cell_angle_beta 42.902167
_cell_angle_gamma 61.242197
_cell_volume 456.578996
_symmetry_space_group_name_H-M "P -1"
_symmetry_group_IT_number 2
_symmetry_cell_setting 'triclinic'
loop_
_space_group_symop_operation_xyz
x,y,z
-x,-y,-z
loop_
_atom_site_type_symbol
_atom_site_label
_atom_site_fract_x
_atom_site_fract_y
_atom_site_fract_z
Si Si1 0.360780 0.731502 0.888438
Si Si2 0.763975 0.172843 0.693028
Si Si3 0.990537 0.627998 0.648054
Si Si4 0.359085 0.751301 0.476506
Si Si5 0.500000 0.000000 0.500000
Si Si6 0.122974 0.720517 0.959503
O O1 0.497465 0.502946 0.689327
O O2 0.394100 0.991902 0.764494
O O3 0.213292 0.747850 0.987773
O O4 0.356352 0.671440 0.076039
O O5 0.707049 0.099022 0.624627
O O6 0.861911 0.335382 0.504752
O O7 0.864038 0.916308 0.716601
O O8 0.000000 0.500000 0.500000
O O9 0.951556 0.473616 0.856896
O O10 0.393466 0.929435 0.522578
O O11 0.246183 0.636786 0.703551
O O12 0.000000 0.000000 0.000000
#
# Coordination Sequence:
#
# PCOD9047848 Si02
#       6
#     2   2   2   2   1   2
#     4  11  25  45  71 108 149 187 250 301 363 443
#     4  11  26  44  76 111 146 195 245 300 374 435
#     4  11  24  46  72 107 157 188 244 308 359 446
#     4  11  26  47  71 110 145 193 247 300 370 434
#     4  10  24  44  70  98 150 188 242 298 358 428
#     4  11  24  46  75 103 148 194 245 298 366 433
#
# _framework density 24.092214999999999
#
# number of rings (size 3 to 8) (size 9 to 14) (size 15 to 20)
#    0.000    1.091    1.818    3.818    7.636    5.818 
#    0.000    0.000    0.000    0.000    0.000    0.000 
#    0.000    0.000    0.000    0.000    0.000    0.000 
#
# Total GULP energy -61310.779688 kJ/mol
# GULP energy per Si atom -5573.707244 kJ/mol
# Density = 2.403738 g / cm^3
# Si number density = 24.092215 Si / 1000 Ang^3
#
#
#
# Elastic Constant Matrix: (Units=GPa)
#
#
# Indices 1 2 3 4 5 6 
#
# 1 130.4406 26.5893 87.8738 -5.6668 20.9574 -2.3115
# 2 26.5893 54.7247 71.7465 -9.7887 -3.1713 -11.5313
# 3 87.8738 71.7465 172.4429 -31.0335 -7.3508 -15.0018
# 4 -5.6668 -9.7887 -31.0335 47.4738 3.8896 3.7486
# 5 20.9574 -3.1713 -7.3508 3.8896 38.4699 -0.3019
# 6 -2.3115 -11.5313 -15.0018 3.7486 -0.3019 18.6490
#
#
#
# Elastic Compliance Matrix: (Units=1/GPa)
#
#
# Indices 1 2 3 4 5 6 
#
# 1 0.015946 0.006080 -0.012032 -0.003610 -0.010146 -0.003381
# 2 0.006080 0.045859 -0.022149 -0.005005 -0.003162 0.012248
# 3 -0.012032 -0.022149 0.023161 0.008304 0.008330 0.001911
# 4 -0.003610 -0.005005 0.008304 0.025132 0.000585 -0.001905
# 5 -0.010146 -0.003162 0.008330 0.000585 0.032824 0.003902
# 6 -0.003381 0.012248 0.001911 -0.001905 0.003902 0.062759
#
#
# Mechanical properties :
#
#
# Convention : Reuss Voigt Hill
#
# Bulk Modulus (GPa) = 34.76330 81.11417 57.93873
# Shear Modulus (GPa) = 18.41828 32.34512 25.38170
#
# Velocity S-wave (km/s) = 2.76794 3.66806 3.24932
# Velocity P-wave (km/s) = 4.96749 7.18894 6.17887
#
# Compressibility (1/GPa) = 0.02876597
#
# Stress axis : x y z
#
# Youngs Moduli (GPa) = 62.71286 21.80597 43.17604
#
# Poissons Ratio (x) = -0.13259 0.51948
# Poissons Ratio (y) = -0.38132 0.95629
# Poissons Ratio (z) = 0.75454 0.48297
#
# Static dielectric constant tensor:
#      x y z
#    x 1.850080 0.003080 0.011630 
#    y 0.003080 2.120370 0.012230 
#    z 0.011630 0.012230 1.993620 
# 
# From -- ./inp_files/17355.got.cif
#   From: 2010.05.17/outbox.cif.g08.bks.cpg/sg2_9_cif.got.tgz:17355.got - 2010.06.03 11:33:40.
