data_PCOD9047549
_publ_section_title
;
Structure prediction by ZEFSAII (Michael W. Deem and Ramdas Pophale) SiO2 
 PCOD9047549
Probable space group: P -1
;
_chemical_formula_sum "Si O2"
_cell_formula_units_Z 12
_cell_length_a 8.842274
_cell_length_b 10.929513
_cell_length_c 9.093247
_cell_angle_alpha 138.013445
_cell_angle_beta 110.793060
_cell_angle_gamma 84.001324
_cell_volume 531.438689
_symmetry_space_group_name_H-M "P -1"
_symmetry_group_IT_number 2
_symmetry_cell_setting 'triclinic'
loop_
_space_group_symop_operation_xyz
x,y,z
-x,-y,-z
loop_
_atom_site_type_symbol
_atom_site_label
_atom_site_fract_x
_atom_site_fract_y
_atom_site_fract_z
Si Si1 0.360004 0.947857 0.283422
Si Si2 0.067412 0.836381 0.303478
Si Si3 0.724106 0.547591 0.561723
Si Si4 0.655669 0.479803 0.139928
Si Si5 0.452980 0.171880 0.222393
Si Si6 0.030977 0.540534 0.239185
O O1 0.190390 0.931328 0.300003
O O2 0.500000 0.000000 0.500000
O O3 0.405945 0.091700 0.296125
O O4 0.360928 0.741768 0.043111
O O5 0.137734 0.732720 0.370750
O O6 0.000000 0.000000 0.500000
O O7 0.958856 0.642348 0.017615
O O8 0.673241 0.555147 0.380327
O O9 0.599888 0.362920 0.426675
O O10 0.702349 0.741855 0.801473
O O11 0.901582 0.507666 0.623701
O O12 0.839283 0.555574 0.197663
O O13 0.500000 0.500000 0.000000
O O14 0.500000 0.000000 0.000000
#
# Coordination Sequence:
#
# PCOD9047549 Si02
#       6
#     2   2   2   2   2   2
#     4  11  23  42  68 102 135 181 241 283 343 428
#     4  10  24  44  68 102 140 187 226 289 353 418
#     4  11  24  44  70 103 142 189 228 296 358 406
#     4  11  24  44  71 100 139 188 234 294 354 417
#     4  11  24  44  68 104 143 183 232 289 348 429
#     4  10  24  45  67 103 144 179 239 289 350 423
#
# _framework density 22.580214999999999
#
# number of rings (size 3 to 8) (size 9 to 14) (size 15 to 20)
#    0.000    1.333    1.667    2.500    4.667    9.333 
#    0.000    1.667    0.000    0.000    0.000    0.000 
#    0.000    0.000    0.000    0.000    0.000    0.000 
#
# Total GULP energy -66872.323827 kJ/mol
# GULP energy per Si atom -5572.693652 kJ/mol
# Density = 2.252882 g / cm^3
# Si number density = 22.580215 Si / 1000 Ang^3
#
#
#
# Elastic Constant Matrix: (Units=GPa)
#
#
# Indices 1 2 3 4 5 6 
#
# 1 113.6023 89.1189 48.8419 -4.7449 -22.0254 -0.9319
# 2 89.1189 176.1274 64.0614 -6.3373 -22.7730 7.7560
# 3 48.8419 64.0614 90.5745 22.3026 -40.9425 -4.2216
# 4 -4.7449 -6.3373 22.3026 40.2507 -12.9797 5.9577
# 5 -22.0254 -22.7730 -40.9425 -12.9797 33.8893 1.6568
# 6 -0.9319 7.7560 -4.2216 5.9577 1.6568 44.4363
#
#
#
# Elastic Compliance Matrix: (Units=1/GPa)
#
#
# Indices 1 2 3 4 5 6 
#
# 1 0.016118 -0.006234 -0.003796 0.003997 0.003211 0.000410
# 2 -0.006234 0.011487 -0.007773 0.004661 -0.003774 -0.003358
# 3 -0.003796 -0.007773 0.035562 -0.012380 0.030278 0.005186
# 4 0.003997 0.004661 -0.012380 0.035427 0.004676 -0.006830
# 5 0.003211 -0.003774 0.030278 0.004676 0.067406 0.000462
# 6 0.000410 -0.003358 0.005186 -0.006830 0.000462 0.024490
#
#
# Mechanical properties :
#
#
# Convention : Reuss Voigt Hill
#
# Bulk Modulus (GPa) = 36.28317 87.14983 61.71650
# Shear Modulus (GPa) = 21.25108 35.60072 28.42590
#
# Velocity S-wave (km/s) = 3.07112 3.97499 3.55193
# Velocity P-wave (km/s) = 5.35530 7.72961 6.64929
#
# Compressibility (1/GPa) = 0.02756099
#
# Stress axis : x y z
#
# Youngs Moduli (GPa) = 62.04295 87.05664 28.12027
#
# Poissons Ratio (x) = 0.54270 0.10674
# Poissons Ratio (y) = 0.38677 0.21857
# Poissons Ratio (z) = 0.23551 0.67668
#
# Static dielectric constant tensor:
#      x y z
#    x 1.948070 -0.049160 -0.039270 
#    y -0.049160 1.849040 -0.045480 
#    z -0.039270 -0.045480 1.936320 
# 
# From -- ./inp_files/160368.got.cif
#   From: 2010.05.17/outbox.cif.g08.bks.cpg/sg2_81_cif.got.tgz:160368.got - 2010.06.03 11:33:40.
