data_PCOD9047016
_publ_section_title
;
Structure prediction by ZEFSAII (Michael W. Deem and Ramdas Pophale) SiO2 
 PCOD9047016
Probable space group: P -1
;
_chemical_formula_sum "Si O2"
_cell_formula_units_Z 12
_cell_length_a 12.181931
_cell_length_b 24.005006
_cell_length_c 22.561888
_cell_angle_alpha 168.081382
_cell_angle_beta 157.097928
_cell_angle_gamma 23.380036
_cell_volume 518.848946
_symmetry_space_group_name_H-M "P -1"
_symmetry_group_IT_number 2
_symmetry_cell_setting 'triclinic'
loop_
_space_group_symop_operation_xyz
x,y,z
-x,-y,-z
loop_
_atom_site_type_symbol
_atom_site_label
_atom_site_fract_x
_atom_site_fract_y
_atom_site_fract_z
Si Si1 0.142085 0.815984 0.540078
Si Si2 0.829045 0.928132 0.064104
Si Si3 0.465033 0.125628 0.746666
Si Si4 0.529268 0.237192 0.133106
Si Si5 0.790990 0.289878 0.191584
Si Si6 0.671163 0.516763 0.163620
O O1 0.007383 0.961077 0.685044
O O2 0.331557 0.006202 0.798701
O O3 0.328873 0.525533 0.353236
O O4 0.880213 0.795350 0.345891
O O5 0.793612 0.090235 0.153344
O O6 0.500000 0.000000 0.000000
O O7 0.985277 0.610307 0.804746
O O8 0.577935 0.802587 0.450645
O O9 0.577865 0.245903 0.987298
O O10 0.580764 0.284888 0.917433
O O11 0.629015 0.324026 0.209293
O O12 0.000000 0.500000 0.500000
O O13 0.000000 0.000000 0.000000
O O14 0.500000 0.500000 0.000000
#
# Coordination Sequence:
#
# PCOD9047016 Si02
#       6
#     2   2   2   2   2   2
#     4  11  24  44  71 108 144 188 242 300 371 433
#     4  10  24  43  70 106 147 190 239 297 361 435
#     4  12  27  45  74 107 146 188 247 302 360 441
#     4  11  25  45  72 102 146 194 241 298 366 432
#     4  12  27  49  71 102 144 193 248 301 359 435
#     4  12  25  45  72 106 149 190 239 303 371 436
#
# _framework density 23.128119999999999
#
# number of rings (size 3 to 8) (size 9 to 14) (size 15 to 20)
#    0.000    0.667    1.667    5.000    2.333    8.000 
#    0.000    0.000    0.000    0.000    0.000    0.000 
#    0.000    0.000    0.000    0.000    0.000    0.000 
#
# Total GULP energy -67070.162828 kJ/mol
# GULP energy per Si atom -5589.180236 kJ/mol
# Density = 2.307548 g / cm^3
# Si number density = 23.128120 Si / 1000 Ang^3
#
#
#
# Elastic Constant Matrix: (Units=GPa)
#
#
# Indices 1 2 3 4 5 6 
#
# 1 92.4947 43.8900 11.5614 -8.6604 -1.0239 25.4927
# 2 43.8900 139.4813 65.7227 -3.3174 4.8019 20.4257
# 3 11.5614 65.7227 132.1152 4.4670 0.0302 4.2522
# 4 -8.6604 -3.3174 4.4670 50.9911 -4.8096 -14.3507
# 5 -1.0239 4.8019 0.0302 -4.8096 30.5884 0.3271
# 6 25.4927 20.4257 4.2522 -14.3507 0.3271 42.6273
#
#
#
# Elastic Compliance Matrix: (Units=1/GPa)
#
#
# Indices 1 2 3 4 5 6 
#
# 1 0.014523 -0.004072 0.000959 0.000343 0.001250 -0.006724
# 2 -0.004072 0.011331 -0.005182 -0.000417 -0.001948 -0.002602
# 3 0.000959 -0.005182 0.010070 -0.000814 0.000701 0.000625
# 4 0.000343 -0.000417 -0.000814 0.022155 0.003481 0.007507
# 5 0.001250 -0.001948 0.000701 0.003481 0.033575 0.001030
# 6 -0.006724 -0.002602 0.000625 0.007507 0.001030 0.031184
#
#
# Mechanical properties :
#
#
# Convention : Reuss Voigt Hill
#
# Bulk Modulus (GPa) = 51.72129 67.38215 59.55172
# Shear Modulus (GPa) = 34.27638 41.03584 37.65611
#
# Velocity S-wave (km/s) = 3.85388 4.21679 4.03941
# Velocity P-wave (km/s) = 6.49728 7.27365 6.89640
#
# Compressibility (1/GPa) = 0.01933440
#
# Stress axis : x y z
#
# Youngs Moduli (GPa) = 68.85658 88.25530 99.30172
#
# Poissons Ratio (x) = 0.35939 -0.09527
# Poissons Ratio (y) = 0.28040 0.51458
# Poissons Ratio (z) = -0.06606 0.45734
#
# Static dielectric constant tensor:
#      x y z
#    x 2.070290 -0.249110 0.136900 
#    y -0.249110 1.992440 -0.026640 
#    z 0.136900 -0.026640 1.779620 
# 
# From -- ./inp_files/619940.got.cif
#   From: 2010.05.17/outbox.cif.g08.bks.cpg/sg2_310_cif.got.tgz:619940.got - 2010.06.03 11:33:40.
