data_PCOD9047429
_publ_section_title
;
Structure prediction by ZEFSAII (Michael W. Deem and Ramdas Pophale) SiO2 
 PCOD9047429
Probable space group: P -1
;
_chemical_formula_sum "Si O2"
_cell_formula_units_Z 16
_cell_length_a 16.197492
_cell_length_b 8.898645
_cell_length_c 26.465827
_cell_angle_alpha 31.077923
_cell_angle_beta 154.973597
_cell_angle_gamma 133.143525
_cell_volume 755.081347
_symmetry_space_group_name_H-M "P -1"
_symmetry_group_IT_number 2
_symmetry_cell_setting 'triclinic'
loop_
_space_group_symop_operation_xyz
x,y,z
-x,-y,-z
loop_
_atom_site_type_symbol
_atom_site_label
_atom_site_fract_x
_atom_site_fract_y
_atom_site_fract_z
Si Si1 0.116547 0.996798 0.325320
Si Si2 0.804220 0.369076 0.670164
Si Si3 0.989910 0.228645 0.381607
Si Si4 0.883350 0.278407 0.013542
Si Si5 0.109417 0.114377 0.671450
Si Si6 0.480047 0.643558 0.274927
Si Si7 0.551107 0.777947 0.971797
Si Si8 0.643458 0.575760 0.632286
O O1 0.278654 0.631021 0.507201
O O2 0.983651 0.999817 0.300038
O O3 0.273093 0.173465 0.370969
O O4 0.948582 0.169768 0.138062
O O5 0.777233 0.434347 0.696229
O O6 0.602978 0.302042 0.558510
O O7 0.824616 0.663255 0.566308
O O8 0.012385 0.045334 0.868204
O O9 0.947716 0.040827 0.364872
O O10 0.791455 0.575042 0.183239
O O11 0.000000 0.000000 0.500000
O O12 0.636407 0.444651 0.811624
O O13 0.000000 0.500000 0.000000
O O14 0.000000 0.500000 0.500000
O O15 0.368766 0.977104 0.853599
O O16 0.352185 0.650559 0.253181
O O17 0.473097 0.979132 0.157193
O O18 0.500000 0.500000 0.000000
#
# Coordination Sequence:
#
# PCOD9047429 Si02
#       8
#     2   2   2   2   2   2   2   2
#     4  12  24  47  71 101 145 182 226 295 354 411
#     4  11  24  44  68 104 137 181 237 283 347 423
#     4  11  25  46  72 101 141 183 234 294 351 416
#     4  12  25  43  67 102 136 185 233 275 352 421
#     4  11  24  45  72 101 138 184 234 291 355 410
#     4  12  23  43  74  98 140 186 227 289 350 420
#     4  10  24  44  67 100 133 180 238 277 353 422
#     4  11  24  43  70 101 139 183 229 285 352 415
#
# _framework density 21.189768999999998
#
# number of rings (size 3 to 8) (size 9 to 14) (size 15 to 20)
#    0.000    0.750    6.250    1.125    5.250    0.500 
#    6.750    1.250    0.000    0.000    0.000    0.000 
#    0.000    0.000    0.000    0.000    0.000    0.000 
#
# Total GULP energy -89333.473539 kJ/mol
# GULP energy per Si atom -5583.342096 kJ/mol
# Density = 2.114154 g / cm^3
# Si number density = 21.189769 Si / 1000 Ang^3
#
#
#
# Elastic Constant Matrix: (Units=GPa)
#
#
# Indices 1 2 3 4 5 6 
#
# 1 178.3091 36.8444 64.2614 -13.9932 -27.9539 16.2468
# 2 36.8444 73.2927 22.8576 -10.2675 -7.2651 15.0673
# 3 64.2614 22.8576 75.2489 -8.3678 -18.1235 1.5932
# 4 -13.9932 -10.2675 -8.3678 37.2341 2.0712 -11.3783
# 5 -27.9539 -7.2651 -18.1235 2.0712 43.0624 -4.1615
# 6 16.2468 15.0673 1.5932 -11.3783 -4.1615 38.4436
#
#
#
# Elastic Compliance Matrix: (Units=1/GPa)
#
#
# Indices 1 2 3 4 5 6 
#
# 1 0.008916 -0.001664 -0.006376 0.000583 0.002564 -0.002402
# 2 -0.001664 0.016855 -0.003474 0.001636 -0.000290 -0.005306
# 3 -0.006376 -0.003474 0.021039 0.002471 0.004436 0.004396
# 4 0.000583 0.001636 0.002471 0.030517 0.001014 0.008152
# 5 0.002564 -0.000290 0.004436 0.001014 0.026854 0.002054
# 6 -0.002402 -0.005306 0.004396 0.008152 0.002054 0.031560
#
#
# Mechanical properties :
#
#
# Convention : Reuss Voigt Hill
#
# Bulk Modulus (GPa) = 42.04808 63.86418 52.95613
# Shear Modulus (GPa) = 29.99428 37.27384 33.63406
#
# Velocity S-wave (km/s) = 3.76641 4.19865 3.98839
# Velocity P-wave (km/s) = 6.22905 7.32868 6.80112
#
# Compressibility (1/GPa) = 0.02378230
#
# Stress axis : x y z
#
# Youngs Moduli (GPa) = 112.15231 59.32832 47.52986
#
# Poissons Ratio (x) = 0.09875 0.30304
# Poissons Ratio (y) = 0.18667 0.16513
# Poissons Ratio (z) = 0.71506 0.20612
#
# Static dielectric constant tensor:
#      x y z
#    x 1.754250 0.032770 0.024590 
#    y 0.032770 1.803310 0.044450 
#    z 0.024590 0.044450 1.788830 
# 
# From -- ./inp_files/206540.got.cif
#   From: 2010.05.17/outbox.cif.g08.bks.cpg/sg2_104_cif.got.tgz:206540.got - 2010.06.03 11:33:40.
