data_PCOD9047645
_publ_section_title
;
Structure prediction by ZEFSAII (Michael W. Deem and Ramdas Pophale) SiO2 
 PCOD9047645
Probable space group: P -1
;
_chemical_formula_sum "Si O2"
_cell_formula_units_Z 14
_cell_length_a 8.133053
_cell_length_b 6.483380
_cell_length_c 14.479787
_cell_angle_alpha 67.750833
_cell_angle_beta 67.952518
_cell_angle_gamma 58.652180
_cell_volume 587.940334
_symmetry_space_group_name_H-M "P -1"
_symmetry_group_IT_number 2
_symmetry_cell_setting 'triclinic'
loop_
_space_group_symop_operation_xyz
x,y,z
-x,-y,-z
loop_
_atom_site_type_symbol
_atom_site_label
_atom_site_fract_x
_atom_site_fract_y
_atom_site_fract_z
Si Si1 0.440675 0.281850 0.530700
Si Si2 0.934785 0.852650 0.668688
Si Si3 0.587188 0.620233 0.088978
Si Si4 0.777814 0.907108 0.881439
Si Si5 0.162866 0.146524 0.524561
Si Si6 0.272753 0.320712 0.746962
Si Si7 0.135849 0.912833 0.896224
O O1 0.500000 0.500000 0.500000
O O2 0.228434 0.350780 0.515134
O O3 0.421888 0.194639 0.652420
O O4 0.625853 0.093861 0.464118
O O5 0.772979 0.894496 0.774213
O O6 0.872197 0.838132 0.579694
O O7 0.118679 0.590051 0.697337
O O8 0.002629 0.075755 0.618199
O O9 0.639172 0.644989 0.180614
O O10 0.658484 0.334603 0.095912
O O11 0.358856 0.817125 0.098300
O O12 0.706306 0.726547 0.980104
O O13 0.003441 0.838867 0.867970
O O14 0.168313 0.143897 0.817215
O O15 0.000000 0.000000 0.000000
#
# Coordination Sequence:
#
# PCOD9047645 Si02
#       7
#     2   2   2   2   2   2   2
#     4  11  23  44  67  99 137 185 237 295 353 415
#     4  11  22  45  70 101 141 188 238 291 356 421
#     4  11  25  45  70 102 145 178 233 290 349 428
#     4  11  23  46  71 101 141 187 230 292 351 424
#     4  10  24  44  68  99 139 183 242 295 348 420
#     4  12  24  43  70 101 141 188 227 293 357 417
#     4  12  24  44  69 101 141 186 231 285 352 416
#
# _framework density 23.811941999999998
#
# number of rings (size 3 to 8) (size 9 to 14) (size 15 to 20)
#    0.000    0.857    4.286    3.000    0.000    1.143 
#   10.286    0.000    0.000    0.000    0.000    0.000 
#    0.000    0.000    0.000    0.000    0.000    0.000 
#
# Total GULP energy -78292.480190 kJ/mol
# GULP energy per Si atom -5592.320014 kJ/mol
# Density = 2.375774 g / cm^3
# Si number density = 23.811942 Si / 1000 Ang^3
#
#
#
# Elastic Constant Matrix: (Units=GPa)
#
#
# Indices 1 2 3 4 5 6 
#
# 1 67.5727 7.9499 18.8411 -8.5301 10.1972 16.2961
# 2 7.9499 75.8154 5.1700 -3.6554 -5.3280 -6.3928
# 3 18.8411 5.1700 134.3061 3.1715 -1.4076 14.9516
# 4 -8.5301 -3.6554 3.1715 39.0501 3.4019 0.7105
# 5 10.1972 -5.3280 -1.4076 3.4019 30.9745 -0.7970
# 6 16.2961 -6.3928 14.9516 0.7105 -0.7970 31.1413
#
#
#
# Elastic Compliance Matrix: (Units=1/GPa)
#
#
# Indices 1 2 3 4 5 6 
#
# 1 0.020096 -0.003212 -0.001713 0.005127 -0.008084 -0.010677
# 2 -0.003212 0.014255 -0.000623 0.000281 0.003579 0.004991
# 3 -0.001713 -0.000623 0.008087 -0.001109 0.000867 -0.003067
# 4 0.005127 0.000281 -0.001109 0.027311 -0.004762 -0.002838
# 5 -0.008084 0.003579 0.000867 -0.004762 0.036268 0.005586
# 6 -0.010677 0.004991 -0.003067 -0.002838 0.005586 0.040404
#
#
# Mechanical properties :
#
#
# Convention : Reuss Voigt Hill
#
# Bulk Modulus (GPa) = 31.90480 37.95735 34.93108
# Shear Modulus (GPa) = 29.76845 36.61539 33.19192
#
# Velocity S-wave (km/s) = 3.53958 3.92559 3.73757
# Velocity P-wave (km/s) = 5.48931 6.04335 5.77298
#
# Compressibility (1/GPa) = 0.03134324
#
# Stress axis : x y z
#
# Youngs Moduli (GPa) = 49.76018 70.15029 123.66132
#
# Poissons Ratio (x) = 0.22530 0.21180
# Poissons Ratio (y) = 0.15982 0.07704
# Poissons Ratio (z) = 0.08523 0.04370
#
# Static dielectric constant tensor:
#      x y z
#    x 1.901400 0.056220 0.103460 
#    y 0.056220 2.014990 0.030550 
#    z 0.103460 0.030550 1.861810 
# 
# From -- ./inp_files/40187.got.cif
#   From: 2010.05.17/outbox.cif.g08.bks.cpg/sg2_21_cif.got.tgz:40187.got - 2010.06.03 11:33:40.
