data_PCOD9047753
_publ_section_title
;
Structure prediction by ZEFSAII (Michael W. Deem and Ramdas Pophale) SiO2 
 PCOD9047753
Probable space group: P -1
;
_chemical_formula_sum "Si O2"
_cell_formula_units_Z 13
_cell_length_a 20.398490
_cell_length_b 5.185955
_cell_length_c 12.293681
_cell_angle_alpha 103.559426
_cell_angle_beta 26.279254
_cell_angle_gamma 113.840432
_cell_volume 499.677028
_symmetry_space_group_name_H-M "P -1"
_symmetry_group_IT_number 2
_symmetry_cell_setting 'triclinic'
loop_
_space_group_symop_operation_xyz
x,y,z
-x,-y,-z
loop_
_atom_site_type_symbol
_atom_site_label
_atom_site_fract_x
_atom_site_fract_y
_atom_site_fract_z
Si Si1 0.825608 0.951946 0.003232
Si Si2 0.676035 0.283249 0.753983
Si Si3 0.000000 0.500000 0.000000
Si Si4 0.367444 0.716221 0.738174
Si Si5 0.110832 0.951166 0.695729
Si Si6 0.350851 0.561947 0.436030
Si Si7 0.326179 0.439645 0.988993
O O1 0.689036 0.641891 0.235441
O O2 0.832728 0.800284 0.863090
O O3 0.786518 0.216360 0.051019
O O4 0.991819 0.088930 0.840768
O O5 0.823095 0.190576 0.509234
O O6 0.655457 0.416472 0.683351
O O7 0.705185 0.478508 0.836942
O O8 0.500000 0.000000 0.000000
O O9 0.005872 0.714434 0.915515
O O10 0.213710 0.652183 0.693474
O O11 0.397036 0.710547 0.823262
O O12 0.500000 0.000000 0.500000
O O13 0.270873 0.208459 0.536255
O O14 0.534331 0.676969 0.220685
#
# Coordination Sequence:
#
# PCOD9047753 Si02
#       7
#     2   2   1   2   2   2   2
#     4  10  26  43  68 104 142 177 239 290 357 419
#     4  11  24  44  71 102 138 183 243 292 349 426
#     4  10  26  42  68 102 144 174 240 280 372 404
#     4  10  24  44  70 101 141 191 232 289 349 430
#     4  11  25  44  70 101 142 185 230 302 353 422
#     4  11  24  43  71 101 138 188 232 297 348 430
#     4  10  25  42  70 101 136 185 236 289 354 417
#
# _framework density 26.016808000000001
#
# number of rings (size 3 to 8) (size 9 to 14) (size 15 to 20)
#    0.923    0.615    1.538    1.385    8.615    1.846 
#    0.000    1.538    0.000    0.000    0.000    0.000 
#    0.000    0.000    0.000    0.000    0.000    0.000 
#
# Total GULP energy -72400.703284 kJ/mol
# GULP energy per Si atom -5569.284868 kJ/mol
# Density = 2.595759 g / cm^3
# Si number density = 26.016808 Si / 1000 Ang^3
#
#
#
# Elastic Constant Matrix: (Units=GPa)
#
#
# Indices 1 2 3 4 5 6 
#
# 1 131.3007 9.7585 30.7304 14.5013 4.7066 -22.1923
# 2 9.7585 66.6505 8.6222 -7.1045 13.4388 -24.7835
# 3 30.7304 8.6222 86.1179 5.9263 19.5242 -13.8444
# 4 14.5013 -7.1045 5.9263 45.8168 -4.2912 -4.0860
# 5 4.7066 13.4388 19.5242 -4.2912 46.8174 5.6111
# 6 -22.1923 -24.7835 -13.8444 -4.0860 5.6111 59.6374
#
#
#
# Elastic Compliance Matrix: (Units=1/GPa)
#
#
# Indices 1 2 3 4 5 6 
#
# 1 0.008917 -0.000241 -0.002531 -0.002336 -0.000285 0.002497
# 2 -0.000241 0.020164 0.000934 0.003266 -0.006979 0.009387
# 3 -0.002531 0.000934 0.014543 -0.001254 -0.006596 0.003357
# 4 -0.002336 0.003266 -0.001254 0.023547 0.001782 0.001642
# 5 -0.000285 -0.006979 -0.006596 0.001782 0.027141 -0.006969
# 6 0.002497 0.009387 0.003357 0.001642 -0.006969 0.023146
#
#
# Mechanical properties :
#
#
# Convention : Reuss Voigt Hill
#
# Bulk Modulus (GPa) = 25.03322 42.47681 33.75501
# Shear Modulus (GPa) = 37.18881 46.11818 41.65350
#
# Velocity S-wave (km/s) = 3.78486 4.21483 4.00562
# Velocity P-wave (km/s) = 5.36126 6.32839 5.86479
#
# Compressibility (1/GPa) = 0.03994693
#
# Stress axis : x y z
#
# Youngs Moduli (GPa) = 112.14962 49.59379 68.76219
#
# Poissons Ratio (x) = 0.01196 0.17403
# Poissons Ratio (y) = 0.02704 -0.06420
# Poissons Ratio (z) = 0.28383 -0.04631
#
# Static dielectric constant tensor:
#      x y z
#    x 1.981710 0.012070 -0.057660 
#    y 0.012070 2.451540 0.123350 
#    z -0.057660 0.123350 2.099980 
# 
# From -- ./inp_files/467913.got.cif
#   From: 2010.05.17/outbox.cif.g08.bks.cpg/sg2_234_cif.got.tgz:467913.got - 2010.06.03 11:33:40.
