data_PCOD9047510
_publ_section_title
;
Structure prediction by ZEFSAII (Michael W. Deem and Ramdas Pophale) SiO2 
 PCOD9047510
Probable space group: P -1
;
_chemical_formula_sum "Si O2"
_cell_formula_units_Z 16
_cell_length_a 19.986198
_cell_length_b 23.131163
_cell_length_c 12.993194
_cell_angle_alpha 26.289075
_cell_angle_beta 26.409604
_cell_angle_gamma 17.539716
_cell_volume 763.483079
_symmetry_space_group_name_H-M "P -1"
_symmetry_group_IT_number 2
_symmetry_cell_setting 'triclinic'
loop_
_space_group_symop_operation_xyz
x,y,z
-x,-y,-z
loop_
_atom_site_type_symbol
_atom_site_label
_atom_site_fract_x
_atom_site_fract_y
_atom_site_fract_z
Si Si1 0.581414 0.614152 0.112298
Si Si2 0.780196 0.363962 0.447784
Si Si3 0.482231 0.357906 0.230994
Si Si4 0.236175 0.181479 0.109609
Si Si5 0.608014 0.977025 0.281435
Si Si6 0.173564 0.510324 0.602533
Si Si7 0.269792 0.054881 0.489236
Si Si8 0.887457 0.431265 0.779008
O O1 0.666475 0.502843 0.281814
O O2 0.356841 0.679950 0.279420
O O3 0.772592 0.487195 0.960195
O O4 0.508677 0.809053 0.921919
O O5 0.760079 0.458938 0.431195
O O6 0.055696 0.184829 0.326891
O O7 0.376677 0.369714 0.462962
O O8 0.307312 0.460570 0.211717
O O9 0.707486 0.115791 0.285033
O O10 0.500000 0.500000 0.000000
O O11 0.257838 0.149955 0.251583
O O12 0.125194 0.391653 0.888962
O O13 0.500000 0.000000 0.000000
O O14 0.884609 0.808345 0.168272
O O15 0.500000 0.000000 0.500000
O O16 0.507979 0.938585 0.400900
O O17 0.969446 0.730632 0.475409
O O18 0.000000 0.500000 0.500000
#
# Coordination Sequence:
#
# PCOD9047510 Si02
#       8
#     2   2   2   2   2   2   2   2
#     4  11  24  46  66  97 143 174 228 278 341 408
#     4  10  24  44  67  99 139 179 214 289 344 403
#     4  12  26  43  65  99 137 175 225 286 339 399
#     4  11  22  40  70  98 127 172 223 277 339 404
#     4  12  23  40  69  97 132 177 230 275 336 398
#     4  11  23  43  69  97 134 172 225 278 339 408
#     4  11  23  40  66  98 126 175 222 275 338 399
#     4  12  25  42  69  99 132 183 231 275 333 408
#
# _framework density 20.956588
#
# number of rings (size 3 to 8) (size 9 to 14) (size 15 to 20)
#    0.000    0.750    3.750    4.500    3.500    2.500 
#    2.250    1.250    0.000    0.000    0.000    0.000 
#    0.000    0.000    0.000    0.000    0.000    0.000 
#
# Total GULP energy -89237.235734 kJ/mol
# GULP energy per Si atom -5577.327233 kJ/mol
# Density = 2.090889 g / cm^3
# Si number density = 20.956588 Si / 1000 Ang^3
#
#
#
# Elastic Constant Matrix: (Units=GPa)
#
#
# Indices 1 2 3 4 5 6 
#
# 1 62.7765 3.3861 3.8331 -9.7014 0.7201 -13.2296
# 2 3.3861 114.3067 12.4024 -9.2524 -6.9057 -2.9576
# 3 3.8331 12.4024 74.6679 -9.3742 -5.8231 2.1801
# 4 -9.7014 -9.2524 -9.3742 30.0815 -0.1886 -0.5035
# 5 0.7201 -6.9057 -5.8231 -0.1886 32.3710 1.5090
# 6 -13.2296 -2.9576 2.1801 -0.5035 1.5090 24.8680
#
#
#
# Elastic Compliance Matrix: (Units=1/GPa)
#
#
# Indices 1 2 3 4 5 6 
#
# 1 0.019126 0.000216 -0.000616 0.006212 -0.000940 0.010437
# 2 0.000216 0.009209 -0.001119 0.002585 0.001715 0.001257
# 3 -0.000616 -0.001119 0.014346 0.003913 0.002462 -0.001789
# 4 0.006212 0.002585 0.003913 0.037334 0.001150 0.003955
# 5 -0.000940 0.001715 0.002462 0.001150 0.031841 -0.002421
# 6 0.010437 0.001257 -0.001789 0.003955 -0.002421 0.046298
#
#
# Mechanical properties :
#
#
# Convention : Reuss Voigt Hill
#
# Bulk Modulus (GPa) = 25.22542 32.33271 28.77906
# Shear Modulus (GPa) = 28.66885 32.93940 30.80412
#
# Velocity S-wave (km/s) = 3.70268 3.96888 3.83809
# Velocity P-wave (km/s) = 5.50844 6.03860 5.77960
#
# Compressibility (1/GPa) = 0.03964255
#
# Stress axis : x y z
#
# Youngs Moduli (GPa) = 52.28559 108.59198 69.70767
#
# Poissons Ratio (x) = -0.02349 0.04294
# Poissons Ratio (y) = -0.01131 0.07801
# Poissons Ratio (z) = 0.03221 0.12152
#
# Static dielectric constant tensor:
#      x y z
#    x 1.752190 -0.011770 -0.043990 
#    y -0.011770 1.950660 0.026500 
#    z -0.043990 0.026500 1.719680 
# 
# From -- ./inp_files/467021.got.cif
#   From: 2010.05.17/outbox.cif.g08.bks.cpg/sg2_234_cif.got.tgz:467021.got - 2010.06.03 11:33:40.
