data_PCOD9047954
_publ_section_title
;
Structure prediction by ZEFSAII (Michael W. Deem and Ramdas Pophale) SiO2 
 PCOD9047954
Probable space group: P -1
;
_chemical_formula_sum "Si O2"
_cell_formula_units_Z 14
_cell_length_a 8.085802
_cell_length_b 8.862037
_cell_length_c 16.618907
_cell_angle_alpha 33.780608
_cell_angle_beta 68.401862
_cell_angle_gamma 70.296976
_cell_volume 614.521612
_symmetry_space_group_name_H-M "P -1"
_symmetry_group_IT_number 2
_symmetry_cell_setting 'triclinic'
loop_
_space_group_symop_operation_xyz
x,y,z
-x,-y,-z
loop_
_atom_site_type_symbol
_atom_site_label
_atom_site_fract_x
_atom_site_fract_y
_atom_site_fract_z
Si Si1 0.037272 0.703473 0.829674
Si Si2 0.150719 0.420131 0.352944
Si Si3 0.316973 0.846904 0.597085
Si Si4 0.534485 0.059973 0.184506
Si Si5 0.207431 0.801395 0.317312
Si Si6 0.289609 0.458996 0.145961
Si Si7 0.252467 0.500003 0.610347
O O1 0.233038 0.707882 0.752659
O O2 0.897406 0.631728 0.816269
O O3 0.971975 0.005371 0.737661
O O4 0.000000 0.500000 0.000000
O O5 0.198652 0.549687 0.371386
O O6 0.277727 0.507324 0.220800
O O7 0.952829 0.534249 0.317271
O O8 0.169480 0.093907 0.495415
O O9 0.333436 0.639315 0.611882
O O10 0.500000 0.000000 0.500000
O O11 0.436815 0.219010 0.204982
O O12 0.371899 0.986401 0.187691
O O13 0.643449 0.780490 0.306856
O O14 0.658008 0.272858 0.027734
O O15 0.243970 0.693049 0.448627
#
# Coordination Sequence:
#
# PCOD9047954 Si02
#       7
#     2   2   2   2   2   2   2
#     4  11  25  44  70 100 144 184 234 290 358 415
#     4  12  25  44  73  99 143 184 231 290 346 420
#     4  12  26  45  72 106 139 187 241 291 350 418
#     4  10  24  44  72 101 139 184 231 288 349 417
#     4  11  25  44  68 107 138 181 232 288 346 417
#     4  10  24  47  70  99 142 186 229 285 354 415
#     4  12  24  45  74 101 142 181 236 285 353 414
#
# _framework density 22.781948
#
# number of rings (size 3 to 8) (size 9 to 14) (size 15 to 20)
#    0.000    0.857    2.857    3.857    2.000    8.000 
#    0.000    0.000    0.000    0.000    0.000    0.000 
#    0.000    0.000    0.000    0.000    0.000    0.000 
#
# Total GULP energy -78361.230576 kJ/mol
# GULP energy per Si atom -5597.230755 kJ/mol
# Density = 2.273010 g / cm^3
# Si number density = 22.781948 Si / 1000 Ang^3
#
#
#
# Elastic Constant Matrix: (Units=GPa)
#
#
# Indices 1 2 3 4 5 6 
#
# 1 68.5957 32.6457 36.8971 4.6030 -15.1062 -8.4818
# 2 32.6457 99.2146 79.8814 6.8383 4.3690 -2.6437
# 3 36.8971 79.8814 108.2449 9.6728 -5.8471 -10.7090
# 4 4.6030 6.8383 9.6728 42.0972 -7.4214 -0.0949
# 5 -15.1062 4.3690 -5.8471 -7.4214 37.9172 -3.0599
# 6 -8.4818 -2.6437 -10.7090 -0.0949 -3.0599 32.4811
#
#
#
# Elastic Compliance Matrix: (Units=1/GPa)
#
#
# Indices 1 2 3 4 5 6 
#
# 1 0.020968 -0.005480 -0.002157 0.000729 0.009214 0.005188
# 2 -0.005480 0.028443 -0.020191 -0.001039 -0.009315 -0.006653
# 3 -0.002157 -0.020191 0.025995 -0.001427 0.005753 0.006902
# 4 0.000729 -0.001039 -0.001427 0.025073 0.005113 0.000190
# 5 0.009214 -0.009315 0.005753 0.005113 0.033548 0.006720
# 6 0.005188 -0.006653 0.006902 0.000190 0.006720 0.034510
#
#
# Mechanical properties :
#
#
# Convention : Reuss Voigt Hill
#
# Bulk Modulus (GPa) = 50.63307 63.87818 57.25563
# Shear Modulus (GPa) = 21.66593 30.94115 26.30354
#
# Velocity S-wave (km/s) = 3.08720 3.68930 3.40159
# Velocity P-wave (km/s) = 5.91448 6.80057 6.37294
#
# Compressibility (1/GPa) = 0.01974994
#
# Stress axis : x y z
#
# Youngs Moduli (GPa) = 47.69059 35.15783 38.46914
#
# Poissons Ratio (x) = 0.19268 0.08299
# Poissons Ratio (y) = 0.26136 0.77672
# Poissons Ratio (z) = 0.10288 0.70986
#
# Static dielectric constant tensor:
#      x y z
#    x 1.903780 -0.027050 -0.025330 
#    y -0.027050 1.829240 0.030750 
#    z -0.025330 0.030750 1.851390 
# 
# From -- ./inp_files/242784.got.cif
#   From: 2010.05.17/outbox.cif.g08.bks.cpg/sg2_122_cif.got.tgz:242784.got - 2010.06.03 11:33:40.
