data_PCOD9047378
_publ_section_title
;
Structure prediction by ZEFSAII (Michael W. Deem and Ramdas Pophale) SiO2 
 PCOD9047378
Probable space group: P -1
;
_chemical_formula_sum "Si O2"
_cell_formula_units_Z 12
_cell_length_a 9.022804
_cell_length_b 20.496711
_cell_length_c 7.529614
_cell_angle_alpha 139.236751
_cell_angle_beta 55.833503
_cell_angle_gamma 148.402762
_cell_volume 461.962091
_symmetry_space_group_name_H-M "P -1"
_symmetry_group_IT_number 2
_symmetry_cell_setting 'triclinic'
loop_
_space_group_symop_operation_xyz
x,y,z
-x,-y,-z
loop_
_atom_site_type_symbol
_atom_site_label
_atom_site_fract_x
_atom_site_fract_y
_atom_site_fract_z
Si Si1 0.593542 0.639974 0.875245
Si Si2 0.705108 0.308405 0.838579
Si Si3 0.903319 0.248976 0.088971
Si Si4 0.774093 0.689062 0.354416
Si Si5 0.663122 0.064770 0.333331
Si Si6 0.303547 0.592522 0.619219
O O1 0.387917 0.481381 0.812190
O O2 0.441578 0.581551 0.663175
O O3 0.559400 0.741385 0.159577
O O4 0.921375 0.743640 0.874140
O O5 0.712316 0.202703 0.537385
O O6 0.691337 0.304236 0.056667
O O7 0.000000 0.500000 0.000000
O O8 0.064765 0.277472 0.861476
O O9 0.000981 0.405975 0.387358
O O10 0.561536 0.084117 0.956744
O O11 0.529522 0.667746 0.465965
O O12 0.024195 0.840819 0.629782
O O13 0.500000 0.000000 0.500000
#
# Coordination Sequence:
#
# PCOD9047378 Si02
#       6
#     2   2   2   2   2   2
#     4   9  18  32  59  77 108 139 191 215 269 318
#     4  10  20  37  59  79 110 147 185 225 271 324
#     4  10  19  33  57  85 109 143 182 226 273 325
#     4  10  17  34  57  82 109 147 179 221 274 330
#     4  10  21  36  55  80 117 145 175 227 285 318
#     4   9  19  34  58  82 104 145 191 220 264 329
#
# _framework density 25.976158999999999
#
# number of rings (size 3 to 8) (size 9 to 14) (size 15 to 20)
#    1.000    1.333    1.667    4.000    0.000    0.667 
#    0.000   14.167    0.000    0.000    0.000    0.000 
#    0.000    0.000    0.000    0.000    0.000    0.000 
#
# Total GULP energy -66978.839327 kJ/mol
# GULP energy per Si atom -5581.569944 kJ/mol
# Density = 2.591704 g / cm^3
# Si number density = 25.976159 Si / 1000 Ang^3
#
#
#
# Elastic Constant Matrix: (Units=GPa)
#
#
# Indices 1 2 3 4 5 6 
#
# 1 42.2161 3.9524 35.0192 16.7043 -5.6527 13.0794
# 2 3.9524 69.1089 26.1650 3.7148 5.4862 9.4816
# 3 35.0192 26.1650 134.2969 25.1567 11.9933 24.0581
# 4 16.7043 3.7148 25.1567 57.4165 10.7245 20.0828
# 5 -5.6527 5.4862 11.9933 10.7245 47.2165 -4.4162
# 6 13.0794 9.4816 24.0581 20.0828 -4.4162 44.2869
#
#
#
# Elastic Compliance Matrix: (Units=1/GPa)
#
#
# Indices 1 2 3 4 5 6 
#
# 1 0.035025 0.001206 -0.008318 -0.007359 0.007652 -0.001984
# 2 0.001206 0.015984 -0.003014 0.001205 -0.001486 -0.002836
# 3 -0.008318 -0.003014 0.011182 -0.000515 -0.003659 -0.003104
# 4 -0.007359 0.001205 -0.000515 0.024442 -0.007341 -0.009620
# 5 0.007652 -0.001486 -0.003659 -0.007341 0.025417 0.005910
# 6 -0.001984 -0.002836 -0.003104 -0.009620 0.005910 0.030411
#
#
# Mechanical properties :
#
#
# Convention : Reuss Voigt Hill
#
# Bulk Modulus (GPa) = 23.84300 41.76615 32.80458
# Shear Modulus (GPa) = 28.29787 41.81634 35.05710
#
# Velocity S-wave (km/s) = 3.30415 4.01658 3.67766
# Velocity P-wave (km/s) = 4.87394 6.13385 5.53983
#
# Compressibility (1/GPa) = 0.04194102
#
# Stress axis : x y z
#
# Youngs Moduli (GPa) = 28.55064 62.56173 89.43297
#
# Poissons Ratio (x) = -0.07547 0.74388
# Poissons Ratio (y) = -0.03444 0.26952
# Poissons Ratio (z) = 0.23748 0.18854
#
# Static dielectric constant tensor:
#      x y z
#    x 2.270340 -0.015190 0.035880 
#    y -0.015190 2.162330 -0.112450 
#    z 0.035880 -0.112450 2.105160 
# 
# From -- ./inp_files/173845.got.cif
#   From: 2010.05.17/outbox.cif.g08.bks.cpg/sg2_87_cif.got.tgz:173845.got - 2010.06.03 11:33:40.
