data_PCOD9047987
_publ_section_title
;
Structure prediction by ZEFSAII (Michael W. Deem and Ramdas Pophale) SiO2 
 PCOD9047987
Probable space group: P -1
;
_chemical_formula_sum "Si O2"
_cell_formula_units_Z 12
_cell_length_a 11.978760
_cell_length_b 14.103171
_cell_length_c 9.650562
_cell_angle_alpha 106.100981
_cell_angle_beta 108.025157
_cell_angle_gamma 20.525823
_cell_volume 543.213570
_symmetry_space_group_name_H-M "P -1"
_symmetry_group_IT_number 2
_symmetry_cell_setting 'triclinic'
loop_
_space_group_symop_operation_xyz
x,y,z
-x,-y,-z
loop_
_atom_site_type_symbol
_atom_site_label
_atom_site_fract_x
_atom_site_fract_y
_atom_site_fract_z
Si Si1 0.385205 0.582479 0.330658
Si Si2 0.932746 0.800787 0.381290
Si Si3 0.480873 0.044727 0.850925
Si Si4 0.654378 0.286405 0.051547
Si Si5 0.496035 0.717810 0.417645
Si Si6 0.783992 0.540771 0.161659
O O1 0.500000 0.500000 0.500000
O O2 0.632089 0.334789 0.223305
O O3 0.355069 0.719613 0.330526
O O4 0.066891 0.764644 0.293561
O O5 0.231820 0.512119 0.453333
O O6 0.680203 0.918997 0.278962
O O7 0.770259 0.000641 0.510929
O O8 0.843241 0.780413 0.831411
O O9 0.268974 0.308081 0.854338
O O10 0.500000 0.000000 0.000000
O O11 0.500000 0.500000 0.000000
O O12 0.432639 0.365114 0.971499
O O13 0.000000 0.000000 0.000000
O O14 0.656994 0.633768 0.307497
#
# Coordination Sequence:
#
# PCOD9047987 Si02
#       6
#     2   2   2   2   2   2
#     4  10  24  44  72 104 144 185 234 296 352 422
#     4  11  25  44  71 102 144 189 236 287 355 427
#     4  12  27  47  70  98 142 191 239 289 351 430
#     4  12  26  44  72 106 144 181 235 293 362 421
#     4  11  24  43  72 106 140 181 239 295 364 413
#     4  12  26  45  74 101 144 182 238 299 351 425
#
# _framework density 22.090758999999998
#
# number of rings (size 3 to 8) (size 9 to 14) (size 15 to 20)
#    0.000    0.667    1.667    5.000    4.667    9.333 
#    0.000    0.000    0.000    0.000    0.000    0.000 
#    0.000    0.000    0.000    0.000    0.000    0.000 
#
# Total GULP energy -67216.353368 kJ/mol
# GULP energy per Si atom -5601.362781 kJ/mol
# Density = 2.204048 g / cm^3
# Si number density = 22.090759 Si / 1000 Ang^3
#
#
#
# Elastic Constant Matrix: (Units=GPa)
#
#
# Indices 1 2 3 4 5 6 
#
# 1 80.1966 -5.9304 25.9512 -4.1403 17.1883 -9.6455
# 2 -5.9304 85.9620 19.1015 9.2312 13.2446 -10.2298
# 3 25.9512 19.1015 105.9132 18.3846 8.0875 -17.7646
# 4 -4.1403 9.2312 18.3846 38.1741 -5.0207 -0.2618
# 5 17.1883 13.2446 8.0875 -5.0207 53.0410 -5.7840
# 6 -9.6455 -10.2298 -17.7646 -0.2618 -5.7840 36.1730
#
#
#
# Elastic Compliance Matrix: (Units=1/GPa)
#
#
# Indices 1 2 3 4 5 6 
#
# 1 0.015290 0.002638 -0.003909 0.002318 -0.004559 0.002191
# 2 0.002638 0.013445 -0.001833 -0.002569 -0.003852 0.002971
# 3 -0.003909 -0.001833 0.012555 -0.006032 -0.000268 0.004519
# 4 0.002318 -0.002569 -0.006032 0.030410 0.003437 -0.002301
# 5 -0.004559 -0.003852 -0.000268 0.003437 0.021775 0.001070
# 6 0.002191 0.002971 0.004519 -0.002301 0.001070 0.031443
#
#
# Mechanical properties :
#
#
# Convention : Reuss Voigt Hill
#
# Bulk Modulus (GPa) = 28.50453 38.92404 33.71428
# Shear Modulus (GPa) = 35.00908 41.00761 38.00834
#
# Velocity S-wave (km/s) = 3.98525 4.31318 4.15246
# Velocity P-wave (km/s) = 5.84018 6.51637 6.18752
#
# Compressibility (1/GPa) = 0.03508214
#
# Stress axis : x y z
#
# Youngs Moduli (GPa) = 65.40406 74.37627 79.64716
#
# Poissons Ratio (x) = -0.19617 0.31132
# Poissons Ratio (y) = -0.17251 0.14597
# Poissons Ratio (z) = 0.25565 0.13631
#
# Static dielectric constant tensor:
#      x y z
#    x 1.798120 -0.021750 -0.001760 
#    y -0.021750 1.784910 -0.030120 
#    z -0.001760 -0.030120 1.808930 
# 
# From -- ./inp_files/59618.got.cif
#   From: 2010.05.17/outbox.cif.g08.bks.cpg/sg2_30_cif.got.tgz:59618.got - 2010.06.03 11:33:40.
