data_PCOD9047375
_publ_section_title
;
Structure prediction by ZEFSAII (Michael W. Deem and Ramdas Pophale) SiO2 
 PCOD9047375
Probable space group: P -1
;
_chemical_formula_sum "Si O2"
_cell_formula_units_Z 13
_cell_length_a 6.743472
_cell_length_b 9.415980
_cell_length_c 17.550203
_cell_angle_alpha 129.677233
_cell_angle_beta 49.136897
_cell_angle_gamma 97.001492
_cell_volume 558.628361
_symmetry_space_group_name_H-M "P -1"
_symmetry_group_IT_number 2
_symmetry_cell_setting 'triclinic'
loop_
_space_group_symop_operation_xyz
x,y,z
-x,-y,-z
loop_
_atom_site_type_symbol
_atom_site_label
_atom_site_fract_x
_atom_site_fract_y
_atom_site_fract_z
Si Si1 0.670781 0.979786 0.330409
Si Si2 0.368651 0.726088 0.069415
Si Si3 0.782238 0.579937 0.655678
Si Si4 0.502606 0.704936 0.382790
Si Si5 0.095254 0.325889 0.180784
Si Si6 0.583044 0.998444 0.191785
Si Si7 0.000000 0.000000 0.000000
O O1 0.525665 0.853102 0.363656
O O2 0.020982 0.815340 0.168603
O O3 0.653049 0.149546 0.453878
O O4 0.520250 0.075363 0.319732
O O5 0.393477 0.890517 0.177584
O O6 0.500000 0.500000 0.000000
O O7 0.582455 0.709375 0.940356
O O8 0.675205 0.411491 0.640071
O O9 0.930266 0.624526 0.705999
O O10 0.481652 0.808062 0.785267
O O11 0.000000 0.500000 0.500000
O O12 0.832356 0.528883 0.271285
O O13 0.068101 0.121670 0.097232
O O14 0.929153 0.850993 0.028270
#
# Coordination Sequence:
#
# PCOD9047375 Si02
#       7
#     2   2   2   2   2   2   1
#     4  11  26  45  72  99 147 183 235 294 345 430
#     4  11  25  44  68 106 137 184 235 288 360 410
#     4  12  27  45  74 106 139 187 236 292 351 418
#     4  11  25  47  70 105 137 193 234 285 360 409
#     4  11  25  46  72 104 144 182 237 293 344 428
#     4  11  26  42  68 104 137 184 229 290 352 409
#     4  10  24  44  66 102 138 186 228 282 358 400
#
# _framework density 23.271284999999999
#
# number of rings (size 3 to 8) (size 9 to 14) (size 15 to 20)
#    0.000    0.923    3.077    1.846    8.615    3.077 
#    0.000    3.846    0.000    0.000    0.000    0.000 
#    0.000    0.000    0.000    0.000    0.000    0.000 
#
# Total GULP energy -72577.298720 kJ/mol
# GULP energy per Si atom -5582.869132 kJ/mol
# Density = 2.321832 g / cm^3
# Si number density = 23.271285 Si / 1000 Ang^3
#
#
#
# Elastic Constant Matrix: (Units=GPa)
#
#
# Indices 1 2 3 4 5 6 
#
# 1 94.0150 42.8545 25.4029 -6.7801 46.4153 6.6058
# 2 42.8545 68.5812 8.6181 10.1642 26.6650 9.4945
# 3 25.4029 8.6181 86.0687 -7.8895 20.2077 -3.0019
# 4 -6.7801 10.1642 -7.8895 34.9119 -5.1310 6.0751
# 5 46.4153 26.6650 20.2077 -5.1310 41.5198 -0.6884
# 6 6.6058 9.4945 -3.0019 6.0751 -0.6884 37.7501
#
#
#
# Elastic Compliance Matrix: (Units=1/GPa)
#
#
# Indices 1 2 3 4 5 6 
#
# 1 0.026879 -0.007220 -0.001253 0.004174 -0.024354 -0.004103
# 2 -0.007220 0.024383 0.000899 -0.009039 -0.009201 -0.003511
# 3 -0.001253 0.000899 0.013352 0.001587 -0.005467 0.000700
# 4 0.004174 -0.009039 0.001587 0.033742 0.004476 -0.003679
# 5 -0.024354 -0.009201 -0.005467 0.004476 0.060541 0.006525
# 6 -0.004103 -0.003511 0.000700 -0.003679 0.006525 0.028858
#
#
# Mechanical properties :
#
#
# Convention : Reuss Voigt Hill
#
# Bulk Modulus (GPa) = 20.21618 44.71286 32.46452
# Shear Modulus (GPa) = 22.79023 34.28899 28.53961
#
# Velocity S-wave (km/s) = 3.13282 3.84271 3.50578
# Velocity P-wave (km/s) = 4.66820 6.24052 5.51072
#
# Compressibility (1/GPa) = 0.04946532
#
# Stress axis : x y z
#
# Youngs Moduli (GPa) = 37.20379 41.01226 74.89547
#
# Poissons Ratio (x) = 0.29611 0.09384
# Poissons Ratio (y) = 0.26861 -0.06730
# Poissons Ratio (z) = 0.04661 -0.03686
#
# Static dielectric constant tensor:
#      x y z
#    x 1.797680 -0.051620 0.125650 
#    y -0.051620 1.837770 0.029160 
#    z 0.125650 0.029160 1.572120 
# 
# From -- ./inp_files/40313.got.cif
#   From: 2010.05.17/outbox.cif.g08.bks.cpg/sg2_21_cif.got.tgz:40313.got - 2010.06.03 11:33:40.
