data_PCOD9047824
_publ_section_title
;
Structure prediction by ZEFSAII (Michael W. Deem and Ramdas Pophale) SiO2 
 PCOD9047824
Probable space group: P -1
;
_chemical_formula_sum "Si O2"
_cell_formula_units_Z 14
_cell_length_a 17.992327
_cell_length_b 14.544378
_cell_length_c 11.182080
_cell_angle_alpha 28.126394
_cell_angle_beta 30.566549
_cell_angle_gamma 29.353894
_cell_volume 619.862935
_symmetry_space_group_name_H-M "P -1"
_symmetry_group_IT_number 2
_symmetry_cell_setting 'triclinic'
loop_
_space_group_symop_operation_xyz
x,y,z
-x,-y,-z
loop_
_atom_site_type_symbol
_atom_site_label
_atom_site_fract_x
_atom_site_fract_y
_atom_site_fract_z
Si Si1 0.170058 0.496563 0.399242
Si Si2 0.077517 0.664237 0.709621
Si Si3 0.527274 0.106976 0.959782
Si Si4 0.241473 0.818258 0.800268
Si Si5 0.383209 0.334257 0.522385
Si Si6 0.161749 0.853916 0.598784
Si Si7 0.800658 0.691526 0.687038
O O1 0.304196 0.382581 0.445681
O O2 0.218847 0.366320 0.355806
O O3 0.989429 0.531861 0.645765
O O4 0.158659 0.733007 0.111210
O O5 0.257224 0.529053 0.557928
O O6 0.091453 0.737106 0.740469
O O7 0.962352 0.884525 0.542539
O O8 0.000000 0.500000 0.000000
O O9 0.350229 0.289377 0.044346
O O10 0.597943 0.901540 0.189537
O O11 0.661521 0.185561 0.652993
O O12 0.500000 0.000000 0.000000
O O13 0.439047 0.675552 0.704214
O O14 0.183009 0.791877 0.779407
O O15 0.213421 0.065355 0.568512
#
# Coordination Sequence:
#
# PCOD9047824 Si02
#       7
#     2   2   2   2   2   2   2
#     4  11  25  45  65 100 131 186 232 265 335 395
#     4  11  25  43  67 103 137 174 224 284 337 409
#     4  11  22  44  70 100 139 174 223 281 343 405
#     4  11  24  44  68  98 136 176 223 283 330 410
#     4  11  24  41  68  98 138 176 224 283 330 395
#     4  11  24  44  68 102 135 181 221 274 359 392
#     4  10  24  44  70  96 136 183 221 279 329 400
#
# _framework density 22.585639
#
# number of rings (size 3 to 8) (size 9 to 14) (size 15 to 20)
#    0.000    1.143    4.286    1.714    2.000    7.429 
#    2.571    0.000    0.000    0.000    0.000    0.000 
#    0.000    0.000    0.000    0.000    0.000    0.000 
#
# Total GULP energy -78425.900502 kJ/mol
# GULP energy per Si atom -5601.850036 kJ/mol
# Density = 2.253423 g / cm^3
# Si number density = 22.585639 Si / 1000 Ang^3
#
#
#
# Elastic Constant Matrix: (Units=GPa)
#
#
# Indices 1 2 3 4 5 6 
#
# 1 131.8458 20.2484 7.4111 -31.3873 6.9304 -30.7109
# 2 20.2484 102.4314 6.8402 20.2712 -3.4471 -8.1159
# 3 7.4111 6.8402 68.6716 -11.1947 8.5515 -16.8863
# 4 -31.3873 20.2712 -11.1947 24.3144 5.3847 -13.0069
# 5 6.9304 -3.4471 8.5515 5.3847 33.9922 -7.5197
# 6 -30.7109 -8.1159 -16.8863 -13.0069 -7.5197 34.9473
#
#
#
# Elastic Compliance Matrix: (Units=1/GPa)
#
#
# Indices 1 2 3 4 5 6 
#
# 1 -0.008567 0.008597 -0.013368 -0.039333 0.006637 -0.025203
# 2 0.008597 0.004857 0.007140 0.021286 -0.002091 0.019605
# 3 -0.013368 0.007140 0.005217 -0.031432 0.002997 -0.018622
# 4 -0.039333 0.021286 -0.031432 -0.084236 0.015310 -0.072867
# 5 0.006637 -0.002091 0.002997 0.015310 0.028809 0.018691
# 6 -0.025203 0.019605 -0.018622 -0.072867 0.018691 -0.021076
#
#
# Mechanical properties :
#
#
# Convention : Reuss Voigt Hill
#
# Bulk Modulus (GPa) = 160.13206 41.32757 100.72982
# Shear Modulus (GPa) = -64.38901 36.54738 -13.92081
#
# Velocity S-wave (km/s) = -5.34516 4.02701 -2.48535
# Velocity P-wave (km/s) = 5.74104 6.32142 6.03821
#
# Compressibility (1/GPa) = 0.00624485
#
# Stress axis : x y z
#
# Youngs Moduli (GPa) = -116.72284 205.89415 191.67050
#
# Poissons Ratio (x) = -1.77002 2.56217
# Poissons Ratio (y) = 1.00344 -1.36849
# Poissons Ratio (z) = -1.56030 -1.47005
#
# Static dielectric constant tensor:
#      x y z
#    x 1.794050 -0.015860 -0.008750 
#    y -0.015860 1.865700 0.006730 
#    z -0.008750 0.006730 1.874590 
# 
# From -- ./inp_files/345726.got.cif
#   From: 2010.05.17/outbox.cif.g08.bks.cpg/sg2_173_cif.got.tgz:345726.got - 2010.06.03 11:33:40.
