data_PCOD9047080
_publ_section_title
;
Structure prediction by ZEFSAII (Michael W. Deem and Ramdas Pophale) SiO2 
 PCOD9047080
Probable space group: P -1
;
_chemical_formula_sum "Si O2"
_cell_formula_units_Z 16
_cell_length_a 10.969160
_cell_length_b 13.707365
_cell_length_c 9.527827
_cell_angle_alpha 58.470546
_cell_angle_beta 115.096319
_cell_angle_gamma 66.471235
_cell_volume 656.782592
_symmetry_space_group_name_H-M "P -1"
_symmetry_group_IT_number 2
_symmetry_cell_setting 'triclinic'
loop_
_space_group_symop_operation_xyz
x,y,z
-x,-y,-z
loop_
_atom_site_type_symbol
_atom_site_label
_atom_site_fract_x
_atom_site_fract_y
_atom_site_fract_z
Si Si1 0.280128 0.075795 0.869424
Si Si2 0.037443 0.791050 0.174851
Si Si3 0.614033 0.596692 0.993689
Si Si4 0.002328 0.466982 0.357636
Si Si5 0.286949 0.810405 0.426809
Si Si6 0.073842 0.768282 0.764581
Si Si7 0.298405 0.846712 0.883749
Si Si8 0.246093 0.495882 0.284979
O O1 0.095886 0.273293 0.543528
O O2 0.159771 0.156330 0.901538
O O3 0.328371 0.910437 0.981371
O O4 0.500000 0.000000 0.000000
O O5 0.161116 0.775974 0.369706
O O6 0.227765 0.598411 0.324470
O O7 0.900458 0.971519 0.875126
O O8 0.388888 0.759039 0.667738
O O9 0.532170 0.650136 0.073450
O O10 0.743795 0.400517 0.135477
O O11 0.760746 0.613310 0.054557
O O12 0.156652 0.442108 0.355362
O O13 0.000000 0.500000 0.500000
O O14 0.506984 0.673101 0.536891
O O15 0.168199 0.816454 0.854397
O O16 0.075940 0.661979 0.956179
O O17 0.850128 0.967090 0.429039
#
# Coordination Sequence:
#
# PCOD9047080 Si02
#       8
#     2   2   2   2   2   2   2   2
#     4  12  26  46  71 104 142 195 240 291 356 429
#     4  11  24  45  71 101 148 184 237 298 352 426
#     4  11  24  46  71 107 143 188 237 294 357 426
#     4  12  25  48  71 101 144 192 239 291 355 426
#     4  10  25  43  72 108 140 186 234 297 366 415
#     4  10  24  43  71 106 138 185 230 299 359 413
#     4  11  24  43  72 102 144 181 236 290 358 424
#     4  11  24  46  71 102 142 187 240 291 357 425
#
# _framework density 24.361180000000001
#
# number of rings (size 3 to 8) (size 9 to 14) (size 15 to 20)
#    0.000    1.000    2.500    3.000    7.000    4.000 
#    6.750    1.250    0.000    0.000    0.000    0.000 
#    0.000    0.000    0.000    0.000    0.000    0.000 
#
# Total GULP energy -89400.054753 kJ/mol
# GULP energy per Si atom -5587.503422 kJ/mol
# Density = 2.430573 g / cm^3
# Si number density = 24.361180 Si / 1000 Ang^3
#
#
#
# Elastic Constant Matrix: (Units=GPa)
#
#
# Indices 1 2 3 4 5 6 
#
# 1 83.9963 31.0027 8.8358 -5.3140 -5.7299 -10.7965
# 2 31.0027 126.7415 18.0311 -17.7506 -4.8935 -8.3002
# 3 8.8358 18.0311 72.0228 6.5298 -9.1631 9.9913
# 4 -5.3140 -17.7506 6.5298 27.1340 7.1645 2.0808
# 5 -5.7299 -4.8935 -9.1631 7.1645 44.9915 0.6839
# 6 -10.7965 -8.3002 9.9913 2.0808 0.6839 43.3353
#
#
#
# Elastic Compliance Matrix: (Units=1/GPa)
#
#
# Indices 1 2 3 4 5 6 
#
# 1 0.013588 -0.002803 -0.001327 0.000643 0.001006 0.003108
# 2 -0.002803 0.010066 -0.003166 0.006946 -0.001038 0.001643
# 3 -0.001327 -0.003166 0.016620 -0.007059 0.004064 -0.004494
# 4 0.000643 0.006946 -0.007059 0.045204 -0.007815 0.001071
# 5 0.001006 -0.001038 0.004064 -0.007815 0.024327 -0.000894
# 6 0.003108 0.001643 -0.004494 0.001071 -0.000894 0.025164
#
#
# Mechanical properties :
#
#
# Convention : Reuss Voigt Hill
#
# Bulk Modulus (GPa) = 38.93488 44.27776 41.60632
# Shear Modulus (GPa) = 31.62107 38.08490 34.85299
#
# Velocity S-wave (km/s) = 3.60670 3.95820 3.78653
# Velocity P-wave (km/s) = 5.77593 6.25339 6.01940
#
# Compressibility (1/GPa) = 0.02568391
#
# Stress axis : x y z
#
# Youngs Moduli (GPa) = 73.59416 99.34020 60.16708
#
# Poissons Ratio (x) = 0.27841 0.07983
# Poissons Ratio (y) = 0.20626 0.19049
# Poissons Ratio (z) = 0.09764 0.31451
#
# Static dielectric constant tensor:
#      x y z
#    x 1.930290 -0.018380 0.019510 
#    y -0.018380 2.008070 0.011750 
#    z 0.019510 0.011750 2.013350 
# 
# From -- ./inp_files/272201.got.cif
#   From: 2010.05.17/outbox.cif.g08.bks.cpg/sg2_137_cif.got.tgz:272201.got - 2010.06.03 11:33:40.
