data_PCOD9047868
_publ_section_title
;
Structure prediction by ZEFSAII (Michael W. Deem and Ramdas Pophale) SiO2 
 PCOD9047868
Probable space group: P -1
;
_chemical_formula_sum "Si O2"
_cell_formula_units_Z 16
_cell_length_a 26.252276
_cell_length_b 8.743137
_cell_length_c 10.417374
_cell_angle_alpha 44.613319
_cell_angle_beta 25.893148
_cell_angle_gamma 47.379230
_cell_volume 728.055937
_symmetry_space_group_name_H-M "P -1"
_symmetry_group_IT_number 2
_symmetry_cell_setting 'triclinic'
loop_
_space_group_symop_operation_xyz
x,y,z
-x,-y,-z
loop_
_atom_site_type_symbol
_atom_site_label
_atom_site_fract_x
_atom_site_fract_y
_atom_site_fract_z
Si Si1 0.020779 0.578950 0.548681
Si Si2 0.595071 0.049998 0.149769
Si Si3 0.986842 0.182279 0.033425
Si Si4 0.755931 0.899650 0.398833
Si Si5 0.419159 0.897250 0.140215
Si Si6 0.252315 0.729466 0.012763
Si Si7 0.155529 0.992679 0.321856
Si Si8 0.596426 0.510412 0.989301
O O1 0.000000 0.500000 0.500000
O O2 0.159838 0.583052 0.249473
O O3 0.948997 0.817752 0.582786
O O4 0.974538 0.415303 0.852996
O O5 0.500000 0.000000 0.500000
O O6 0.562812 0.020839 0.092992
O O7 0.721489 0.919109 0.974106
O O8 0.609692 0.307251 0.983683
O O9 0.883342 0.140232 0.388657
O O10 0.105837 0.161819 0.860426
O O11 0.000000 0.000000 0.000000
O O12 0.688350 0.687931 0.652735
O O13 0.709145 0.018439 0.566587
O O14 0.727004 0.079003 0.246316
O O15 0.466882 0.640762 0.193789
O O16 0.500000 0.000000 0.000000
O O17 0.184875 0.840988 0.222971
O O18 0.368300 0.591607 0.889823
#
# Coordination Sequence:
#
# PCOD9047868 Si02
#       8
#     2   2   2   2   2   2   2   2
#     4  12  24  42  70 103 139 183 229 278 347 416
#     4  11  26  50  71 102 142 180 237 295 341 417
#     4  12  23  43  68 101 144 179 225 286 344 409
#     4  11  23  44  72  99 148 178 228 294 336 419
#     4  10  24  44  71 102 135 183 234 283 351 406
#     4  11  24  44  68 104 140 182 231 281 344 416
#     4  11  26  44  70 100 139 183 228 280 350 415
#     4  10  24  45  72 100 139 183 231 286 348 411
#
# _framework density 21.976331999999999
#
# number of rings (size 3 to 8) (size 9 to 14) (size 15 to 20)
#    0.000    1.000    3.750    1.500    7.000    3.000 
#    9.000    0.000    0.000    0.000    0.000    0.000 
#    0.000    0.000    0.000    0.000    0.000    0.000 
#
# Total GULP energy -89470.605192 kJ/mol
# GULP energy per Si atom -5591.912825 kJ/mol
# Density = 2.192631 g / cm^3
# Si number density = 21.976332 Si / 1000 Ang^3
#
#
#
# Elastic Constant Matrix: (Units=GPa)
#
#
# Indices 1 2 3 4 5 6 
#
# 1 113.4554 -5.8077 40.0899 -7.1396 17.9586 -1.4372
# 2 -5.8077 40.5746 17.8103 -14.0539 10.5981 -4.6165
# 3 40.0899 17.8103 130.4168 -12.9255 25.2682 -6.9854
# 4 -7.1396 -14.0539 -12.9255 42.0556 -9.5710 4.0061
# 5 17.9586 10.5981 25.2682 -9.5710 41.9181 -2.9050
# 6 -1.4372 -4.6165 -6.9854 4.0061 -2.9050 36.7018
#
#
#
# Elastic Compliance Matrix: (Units=1/GPa)
#
#
# Indices 1 2 3 4 5 6 
#
# 1 0.010774 0.004335 -0.003074 0.001540 -0.003512 -0.000064
# 2 0.004335 0.031543 -0.003594 0.008717 -0.005533 0.002064
# 3 -0.003074 -0.003594 0.009889 0.000410 -0.003574 0.000982
# 4 0.001540 0.008717 0.000410 0.027947 0.003162 -0.001566
# 5 -0.003512 -0.005533 -0.003574 0.003162 0.029670 0.000490
# 6 -0.000064 0.002064 0.000982 -0.001566 0.000490 0.027900
#
#
# Mechanical properties :
#
#
# Convention : Reuss Voigt Hill
#
# Bulk Modulus (GPa) = 21.03496 43.18130 32.10813
# Shear Modulus (GPa) = 31.59824 39.62537 35.61181
#
# Velocity S-wave (km/s) = 3.79599 4.25089 4.02986
# Velocity P-wave (km/s) = 5.36704 6.61703 6.02454
#
# Compressibility (1/GPa) = 0.04753990
#
# Stress axis : x y z
#
# Youngs Moduli (GPa) = 92.81413 31.70266 101.12010
#
# Poissons Ratio (x) = -0.13743 0.31089
# Poissons Ratio (y) = -0.40235 0.36341
# Poissons Ratio (z) = 0.28535 0.11393
#
# Static dielectric constant tensor:
#      x y z
#    x 1.832120 0.008570 -0.017940 
#    y 0.008570 1.850570 0.039900 
#    z -0.017940 0.039900 1.823390 
# 
# From -- ./inp_files/352014.got.cif
#   From: 2010.05.17/outbox.cif.g08.bks.cpg/sg2_177_cif.got.tgz:352014.got - 2010.06.03 11:33:40.
