data_PCOD9047077
_publ_section_title
;
Structure prediction by ZEFSAII (Michael W. Deem and Ramdas Pophale) SiO2 
 PCOD9047077
Probable space group: P -1
;
_chemical_formula_sum "Si O2"
_cell_formula_units_Z 14
_cell_length_a 7.864589
_cell_length_b 9.365260
_cell_length_c 10.805488
_cell_angle_alpha 54.297756
_cell_angle_beta 104.892968
_cell_angle_gamma 104.076076
_cell_volume 620.159112
_symmetry_space_group_name_H-M "P -1"
_symmetry_group_IT_number 2
_symmetry_cell_setting 'triclinic'
loop_
_space_group_symop_operation_xyz
x,y,z
-x,-y,-z
loop_
_atom_site_type_symbol
_atom_site_label
_atom_site_fract_x
_atom_site_fract_y
_atom_site_fract_z
Si Si1 0.291508 0.977962 0.592778
Si Si2 0.522070 0.805933 0.059374
Si Si3 0.519458 0.296563 0.620942
Si Si4 0.873491 0.702715 0.048737
Si Si5 0.648181 0.363760 0.108934
Si Si6 0.932645 0.315013 0.649393
Si Si7 0.949783 0.959340 0.702013
O O1 0.384080 0.796736 0.716520
O O2 0.107895 0.922214 0.660170
O O3 0.399098 0.145087 0.597710
O O4 0.227659 0.031893 0.418083
O O5 0.522209 0.715017 0.235939
O O6 0.701542 0.785132 0.029853
O O7 0.362465 0.731017 0.977795
O O8 0.500000 0.000000 0.000000
O O9 0.500000 0.500000 0.500000
O O10 0.721113 0.277213 0.633490
O O11 0.818970 0.498633 0.103683
O O12 0.004498 0.697753 0.190956
O O13 0.929643 0.820794 0.880380
O O14 0.500000 0.500000 0.000000
O O15 0.000000 0.500000 0.500000
O O16 0.001082 0.154711 0.668383
#
# Coordination Sequence:
#
# PCOD9047077 Si02
#       7
#     2   2   2   2   2   2   2
#     4  11  25  48  71 105 150 187 247 298 359 440
#     4  11  22  44  72 105 140 185 241 296 358 430
#     4  12  27  44  75 104 139 194 243 296 362 436
#     4  11  25  46  72 106 146 186 244 293 367 432
#     4  10  24  43  71 105 145 189 238 299 356 430
#     4  12  26  47  71 103 147 188 236 305 368 430
#     4  11  26  45  74 105 145 193 236 304 368 421
#
# _framework density 22.574852
#
# number of rings (size 3 to 8) (size 9 to 14) (size 15 to 20)
#    0.000    0.857    1.429    4.714    6.000    3.429 
#    2.571    0.000    0.000    0.000    0.000    0.000 
#    0.000    0.000    0.000    0.000    0.000    0.000 
#
# Total GULP energy -78275.563691 kJ/mol
# GULP energy per Si atom -5591.111692 kJ/mol
# Density = 2.252347 g / cm^3
# Si number density = 22.574852 Si / 1000 Ang^3
#
#
#
# Elastic Constant Matrix: (Units=GPa)
#
#
# Indices 1 2 3 4 5 6 
#
# 1 75.7303 19.0936 36.7681 -1.5739 -8.2993 3.1240
# 2 19.0936 138.3855 58.5072 -2.1528 8.7550 13.3862
# 3 36.7681 58.5072 192.2783 2.7916 -3.3480 16.5397
# 4 -1.5739 -2.1528 2.7916 46.5083 -1.9942 7.6591
# 5 -8.2993 8.7550 -3.3480 -1.9942 36.3080 3.6907
# 6 3.1240 13.3862 16.5397 7.6591 3.6907 32.7560
#
#
#
# Elastic Compliance Matrix: (Units=1/GPa)
#
#
# Indices 1 2 3 4 5 6 
#
# 1 0.015126 -0.001243 -0.002437 0.000804 0.003607 -0.000298
# 2 -0.001243 0.008736 -0.002282 0.000764 -0.002334 -0.002215
# 3 -0.002437 -0.002282 0.006567 -0.000185 0.000812 -0.002199
# 4 0.000804 0.000764 -0.000185 0.022606 0.001812 -0.005785
# 5 0.003607 -0.002334 0.000812 0.001812 0.029464 -0.003544
# 6 -0.000298 -0.002215 -0.002199 -0.005785 -0.003544 0.034325
#
#
# Mechanical properties :
#
#
# Convention : Reuss Voigt Hill
#
# Bulk Modulus (GPa) = 54.04081 70.57021 62.30551
# Shear Modulus (GPa) = 37.05981 42.58281 39.82131
#
# Velocity S-wave (km/s) = 4.05611 4.34786 4.20452
# Velocity P-wave (km/s) = 6.77691 7.51888 7.15752
#
# Compressibility (1/GPa) = 0.01850453
#
# Stress axis : x y z
#
# Youngs Moduli (GPa) = 66.11171 114.46564 152.27263
#
# Poissons Ratio (x) = 0.14232 0.37113
# Poissons Ratio (y) = 0.08220 0.34745
# Poissons Ratio (z) = 0.16113 0.26118
#
# Static dielectric constant tensor:
#      x y z
#    x 1.915070 0.051370 0.005790 
#    y 0.051370 1.936150 -0.060040 
#    z 0.005790 -0.060040 1.828270 
# 
# From -- ./inp_files/377773.got.cif
#   From: 2010.05.17/outbox.cif.g08.bks.cpg/sg2_189_cif.got.tgz:377773.got - 2010.06.03 11:33:40.
