data_PCOD9047152
_publ_section_title
;
Structure prediction by ZEFSAII (Michael W. Deem and Ramdas Pophale) SiO2 
 PCOD9047152
Probable space group: P -1
;
_chemical_formula_sum "Si O2"
_cell_formula_units_Z 10
_cell_length_a 11.581825
_cell_length_b 14.805592
_cell_length_c 15.230896
_cell_angle_alpha 161.815169
_cell_angle_beta 153.230376
_cell_angle_gamma 33.012932
_cell_volume 366.241978
_symmetry_space_group_name_H-M "P -1"
_symmetry_group_IT_number 2
_symmetry_cell_setting 'triclinic'
loop_
_space_group_symop_operation_xyz
x,y,z
-x,-y,-z
loop_
_atom_site_type_symbol
_atom_site_label
_atom_site_fract_x
_atom_site_fract_y
_atom_site_fract_z
Si Si1 0.491991 0.029417 0.726501
Si Si2 0.766524 0.333204 0.436137
Si Si3 0.756385 0.341671 0.641394
Si Si4 0.041174 0.086970 0.958788
Si Si5 0.552765 0.654173 0.272203
O O1 0.314886 0.935095 0.600979
O O2 0.389518 0.868998 0.420077
O O3 0.762727 0.902307 0.816870
O O4 0.553851 0.369264 0.070458
O O5 0.801130 0.274157 0.507510
O O6 0.490045 0.458829 0.345556
O O7 0.810588 0.053845 0.150979
O O8 0.978834 0.581170 0.776046
O O9 0.000000 0.500000 0.000000
O O10 0.800461 0.875817 0.627567
O O11 0.500000 0.500000 0.000000
#
# Coordination Sequence:
#
# PCOD9047152 Si02
#       5
#     2   2   2   2   2
#     4  11  24  44  65  99 129 180 223 266 341 400
#     4  10  24  45  68 106 130 181 222 271 344 397
#     4  10  24  43  72  97 141 174 226 279 329 402
#     4  11  23  45  72  93 140 173 221 278 332 407
#     4  12  26  41  68  99 135 170 224 281 332 396
#
# _framework density 27.304349999999999
#
# number of rings (size 3 to 8) (size 9 to 14) (size 15 to 20)
#    0.000    1.200    0.000    5.400    5.600    8.800 
#    0.000   10.000    0.000    0.000    0.000    0.000 
#    0.000    0.000    0.000    0.000    0.000    0.000 
#
# Total GULP energy -56076.286739 kJ/mol
# GULP energy per Si atom -5607.628674 kJ/mol
# Density = 2.724220 g / cm^3
# Si number density = 27.304350 Si / 1000 Ang^3
#
#
#
# Elastic Constant Matrix: (Units=GPa)
#
#
# Indices 1 2 3 4 5 6 
#
# 1 165.5309 73.6447 68.3809 8.9141 -4.4425 41.8168
# 2 73.6447 92.5009 40.1163 0.1612 4.6646 24.5205
# 3 68.3809 40.1163 173.3795 -3.4641 7.6040 29.8238
# 4 8.9141 0.1612 -3.4641 53.1661 4.5062 -0.7611
# 5 -4.4425 4.6646 7.6040 4.5062 67.3343 18.1003
# 6 41.8168 24.5205 29.8238 -0.7611 18.1003 44.5447
#
#
#
# Elastic Compliance Matrix: (Units=1/GPa)
#
#
# Indices 1 2 3 4 5 6 
#
# 1 0.012203 -0.006921 -0.002081 -0.002595 0.003801 -0.007841
# 2 -0.006921 0.017268 -0.000857 0.001118 -0.001102 -0.001968
# 3 -0.002081 -0.000857 0.007204 0.000818 -0.000343 -0.002245
# 4 -0.002595 0.001118 0.000818 0.019528 -0.002335 0.002556
# 5 0.003801 -0.001102 -0.000343 -0.002335 0.018095 -0.010125
# 6 -0.007841 -0.001968 -0.002245 0.002556 -0.010125 0.036554
#
#
# Mechanical properties :
#
#
# Convention : Reuss Voigt Hill
#
# Bulk Modulus (GPa) = 58.97319 88.41055 73.69187
# Shear Modulus (GPa) = 36.70470 49.62699 43.16584
#
# Velocity S-wave (km/s) = 3.67042 4.26790 3.98039
# Velocity P-wave (km/s) = 6.29349 7.53237 6.94062
#
# Compressibility (1/GPa) = 0.01695686
#
# Stress axis : x y z
#
# Youngs Moduli (GPa) = 81.94893 57.91136 138.80779
#
# Poissons Ratio (x) = 0.40082 0.28887
# Poissons Ratio (y) = 0.56719 0.11889
# Poissons Ratio (z) = 0.17054 0.04960
#
# Static dielectric constant tensor:
#      x y z
#    x 2.076850 -0.035790 0.050320 
#    y -0.035790 2.198200 -0.105620 
#    z 0.050320 -0.105620 2.059390 
# 
# From -- ./inp_files/18715.got.cif
#   From: 2010.05.17/outbox.cif.g08.bks.cpg/sg2_10_cif.got.tgz:18715.got - 2010.06.03 11:33:40.
