data_PCOD9047653
_publ_section_title
;
Structure prediction by ZEFSAII (Michael W. Deem and Ramdas Pophale) SiO2 
 PCOD9047653
Probable space group: P -1
;
_chemical_formula_sum "Si O2"
_cell_formula_units_Z 10
_cell_length_a 9.191281
_cell_length_b 7.551485
_cell_length_c 10.018374
_cell_angle_alpha 62.221645
_cell_angle_beta 98.055381
_cell_angle_gamma 51.661092
_cell_volume 379.174446
_symmetry_space_group_name_H-M "P -1"
_symmetry_group_IT_number 2
_symmetry_cell_setting 'triclinic'
loop_
_space_group_symop_operation_xyz
x,y,z
-x,-y,-z
loop_
_atom_site_type_symbol
_atom_site_label
_atom_site_fract_x
_atom_site_fract_y
_atom_site_fract_z
Si Si1 0.816641 0.016512 0.466572
Si Si2 0.382183 0.838469 0.336008
Si Si3 0.912399 0.818674 0.093562
Si Si4 0.320044 0.114847 0.730409
Si Si5 0.671418 0.463063 0.891170
O O1 0.776980 0.955346 0.625629
O O2 0.844455 0.824965 0.419353
O O3 0.559902 0.377973 0.265473
O O4 0.000000 0.000000 0.500000
O O5 0.500000 0.500000 0.500000
O O6 0.213968 0.029552 0.118835
O O7 0.589145 0.775860 0.356242
O O8 0.840686 0.096613 0.070433
O O9 0.798903 0.763595 0.183782
O O10 0.187037 0.546880 0.190183
O O11 0.559442 0.719533 0.901291
#
# Coordination Sequence:
#
# PCOD9047653 Si02
#       5
#     2   2   2   2   2
#     4  10  24  44  69 100 142 183 225 288 352 404
#     4  12  24  45  68 105 141 181 238 289 338 414
#     4  11  22  43  76 101 139 184 229 287 346 419
#     4  10  24  45  71 102 142 186 231 278 352 419
#     4   9  23  42  72  99 143 179 233 275 354 412
#
# _framework density 26.373083999999999
#
# number of rings (size 3 to 8) (size 9 to 14) (size 15 to 20)
#    1.200    0.400    2.000    1.800    5.600    0.800 
#    3.600    2.000    0.000    0.000    0.000    0.000 
#    0.000    0.000    0.000    0.000    0.000    0.000 
#
# Total GULP energy -55976.149742 kJ/mol
# GULP energy per Si atom -5597.614974 kJ/mol
# Density = 2.631306 g / cm^3
# Si number density = 26.373084 Si / 1000 Ang^3
#
#
#
# Elastic Constant Matrix: (Units=GPa)
#
#
# Indices 1 2 3 4 5 6 
#
# 1 265.9203 52.5992 63.7267 26.7861 -13.4251 -37.0675
# 2 52.5992 111.8256 43.2900 21.1262 -6.9933 -32.5197
# 3 63.7267 43.2900 101.8655 29.7625 -13.3842 -14.6618
# 4 26.7861 21.1262 29.7625 41.9403 -15.2964 -4.8502
# 5 -13.4251 -6.9933 -13.3842 -15.2964 41.1317 5.5727
# 6 -37.0675 -32.5197 -14.6618 -4.8502 5.5727 53.1370
#
#
#
# Elastic Compliance Matrix: (Units=1/GPa)
#
#
# Indices 1 2 3 4 5 6 
#
# 1 0.004811 -0.000574 -0.002138 -0.000960 0.000106 0.002316
# 2 -0.000574 0.012964 -0.003373 -0.003482 -0.001245 0.006416
# 3 -0.002138 -0.003373 0.014748 -0.007091 0.000922 -0.000231
# 4 -0.000960 -0.003482 -0.007091 0.034587 0.010009 -0.002650
# 5 0.000106 -0.001245 0.000922 0.010009 0.028497 -0.002509
# 6 0.002316 0.006416 -0.000231 -0.002650 -0.002509 0.024319
#
#
# Mechanical properties :
#
#
# Convention : Reuss Voigt Hill
#
# Bulk Modulus (GPa) = 49.13335 88.76036 68.94685
# Shear Modulus (GPa) = 36.00213 48.57484 42.28848
#
# Velocity S-wave (km/s) = 3.69875 4.29631 4.00868
# Velocity P-wave (km/s) = 6.07549 7.63805 6.90114
#
# Compressibility (1/GPa) = 0.02035277
#
# Stress axis : x y z
#
# Youngs Moduli (GPa) = 207.83953 77.13750 67.80612
#
# Poissons Ratio (x) = 0.04425 0.14500
# Poissons Ratio (y) = 0.11924 0.22872
# Poissons Ratio (z) = 0.44444 0.26019
#
# Static dielectric constant tensor:
#      x y z
#    x 2.036080 0.018130 -0.008890 
#    y 0.018130 2.183190 -0.072540 
#    z -0.008890 -0.072540 2.130250 
# 
# From -- ./inp_files/354494.got.cif
#   From: 2010.05.17/outbox.cif.g08.bks.cpg/sg2_178_cif.got.tgz:354494.got - 2010.06.03 11:33:40.
