data_PCOD9047592
_publ_section_title
;
Structure prediction by ZEFSAII (Michael W. Deem and Ramdas Pophale) SiO2 
 PCOD9047592
Probable space group: P -1
;
_chemical_formula_sum "Si O2"
_cell_formula_units_Z 15
_cell_length_a 14.504807
_cell_length_b 15.019363
_cell_length_c 11.342721
_cell_angle_alpha 120.171059
_cell_angle_beta 137.406378
_cell_angle_gamma 29.759602
_cell_volume 758.494625
_symmetry_space_group_name_H-M "P -1"
_symmetry_group_IT_number 2
_symmetry_cell_setting 'triclinic'
loop_
_space_group_symop_operation_xyz
x,y,z
-x,-y,-z
loop_
_atom_site_type_symbol
_atom_site_label
_atom_site_fract_x
_atom_site_fract_y
_atom_site_fract_z
Si Si1 0.500000 0.500000 0.500000
Si Si2 0.576498 0.997753 0.945634
Si Si3 0.876643 0.178155 0.440441
Si Si4 0.129594 0.170605 0.508056
Si Si5 0.325415 0.009244 0.329520
Si Si6 0.546030 0.684481 0.976416
Si Si7 0.941651 0.309558 0.953155
Si Si8 0.761091 0.578494 0.363015
O O1 0.724186 0.339452 0.503224
O O2 0.730541 0.372040 0.734365
O O3 0.371573 0.085409 0.716819
O O4 0.557946 0.133424 0.021175
O O5 0.858270 0.785098 0.022616
O O6 0.500000 0.000000 0.000000
O O7 0.085166 0.110814 0.521924
O O8 0.671656 0.261067 0.212033
O O9 0.000000 0.000000 0.500000
O O10 0.177666 0.096098 0.372869
O O11 0.881962 0.405337 0.431288
O O12 0.500000 0.000000 0.500000
O O13 0.533919 0.785294 0.353371
O O14 0.121997 0.148181 0.121574
O O15 0.650046 0.611223 0.157007
O O16 0.778370 0.508203 0.987966
O O17 0.000000 0.500000 0.500000
#
# Coordination Sequence:
#
# PCOD9047592 Si02
#       8
#     1   2   2   2   2   2   2   2
#     4  10  24  44  68  90 134 188 222 272 332 400
#     4  12  24  40  68  99 131 174 228 276 337 402
#     4  11  26  47  69  92 138 180 228 273 332 402
#     4  12  25  41  69 106 134 172 226 279 342 408
#     4  12  21  39  69 103 137 174 218 286 343 401
#     4  11  22  41  67  91 130 180 213 280 329 391
#     4  11  21  40  66  95 134 175 223 273 341 393
#     4  12  21  39  67  99 136 170 215 279 340 393
#
# _framework density 19.776012999999999
#
# number of rings (size 3 to 8) (size 9 to 14) (size 15 to 20)
#    0.000    0.533    6.667    2.400    0.000    2.133 
#    0.000    0.667    0.000    0.000    0.000    0.000 
#    0.000    0.000    0.000    0.000    0.000    0.000 
#
# Total GULP energy -83547.919277 kJ/mol
# GULP energy per Si atom -5569.861285 kJ/mol
# Density = 1.973100 g / cm^3
# Si number density = 19.776013 Si / 1000 Ang^3
#
#
#
# Elastic Constant Matrix: (Units=GPa)
#
#
# Indices 1 2 3 4 5 6 
#
# 1 72.2891 27.2964 1.7434 5.3986 -3.1812 -14.7760
# 2 27.2964 91.1755 26.0996 1.6052 9.1853 -25.4053
# 3 1.7434 26.0996 123.2185 8.6399 -15.1861 -9.5197
# 4 5.3986 1.6052 8.6399 24.3115 -3.8470 0.1210
# 5 -3.1812 9.1853 -15.1861 -3.8470 25.8916 -0.2644
# 6 -14.7760 -25.4053 -9.5197 0.1210 -0.2644 36.4602
#
#
#
# Elastic Compliance Matrix: (Units=1/GPa)
#
#
# Indices 1 2 3 4 5 6 
#
# 1 0.016895 -0.004876 0.001889 -0.003417 0.004447 0.003986
# 2 -0.004876 0.016853 -0.003908 -0.000076 -0.008793 0.008683
# 3 0.001889 -0.003908 0.010033 -0.002603 0.007124 0.000722
# 4 -0.003417 -0.000076 -0.002603 0.043549 0.004528 -0.002229
# 5 0.004447 -0.008793 0.007124 0.004528 0.047117 -0.002138
# 6 0.003986 0.008683 0.000722 -0.002229 -0.002138 0.035273
#
#
# Mechanical properties :
#
#
# Convention : Reuss Voigt Hill
#
# Bulk Modulus (GPa) = 33.34320 44.10686 38.72503
# Shear Modulus (GPa) = 25.83877 32.76889 29.30383
#
# Velocity S-wave (km/s) = 3.61857 4.07505 3.85357
# Velocity P-wave (km/s) = 5.86138 6.67030 6.27888
#
# Compressibility (1/GPa) = 0.02999112
#
# Stress axis : x y z
#
# Youngs Moduli (GPa) = 59.19059 59.33669 99.67013
#
# Poissons Ratio (x) = 0.28932 -0.18831
# Poissons Ratio (y) = 0.28861 0.38954
# Poissons Ratio (z) = -0.11183 0.23190
#
# Static dielectric constant tensor:
#      x y z
#    x 1.679990 0.003400 0.009520 
#    y 0.003400 1.699470 -0.005250 
#    z 0.009520 -0.005250 1.749240 
# 
# From -- ./inp_files/455828.got.cif
#   From: 2010.05.17/outbox.cif.g08.bks.cpg/sg2_228_cif.got.tgz:455828.got - 2010.06.03 11:33:40.
