data_PCOD9047565
_publ_section_title
;
Structure prediction by ZEFSAII (Michael W. Deem and Ramdas Pophale) SiO2 
 PCOD9047565
Probable space group: P -1
;
_chemical_formula_sum "Si O2"
_cell_formula_units_Z 16
_cell_length_a 13.438532
_cell_length_b 5.250859
_cell_length_c 11.928356
_cell_angle_alpha 105.717557
_cell_angle_beta 91.118073
_cell_angle_gamma 122.410858
_cell_volume 669.827479
_symmetry_space_group_name_H-M "P -1"
_symmetry_group_IT_number 2
_symmetry_cell_setting 'triclinic'
loop_
_space_group_symop_operation_xyz
x,y,z
-x,-y,-z
loop_
_atom_site_type_symbol
_atom_site_label
_atom_site_fract_x
_atom_site_fract_y
_atom_site_fract_z
Si Si1 0.299427 0.389989 0.639035
Si Si2 0.038504 0.414428 0.184531
Si Si3 0.796826 0.358174 0.175760
Si Si4 0.243697 0.995436 0.367656
Si Si5 0.559744 0.059008 0.739128
Si Si6 0.689135 0.462962 0.986491
Si Si7 0.591668 0.716960 0.170732
Si Si8 0.163202 0.050801 0.143801
O O1 0.203064 0.453386 0.692747
O O2 0.265838 0.201933 0.501180
O O3 0.432711 0.722473 0.678421
O O4 0.317147 0.207386 0.717090
O O5 0.067576 0.148949 0.149748
O O6 0.902416 0.305057 0.174888
O O7 0.116529 0.651585 0.317829
O O8 0.098459 0.671138 0.113270
O O9 0.663564 0.034588 0.136358
O O10 0.789972 0.517958 0.081958
O O11 0.347921 0.932057 0.344591
O O12 0.237383 0.169396 0.276641
O O13 0.630227 0.146933 0.870412
O O14 0.521005 0.310106 0.777339
O O15 0.753016 0.761465 0.937267
O O16 0.588281 0.456502 0.060178
#
# Coordination Sequence:
#
# PCOD9047565 Si02
#       8
#     2   2   2   2   2   2   2   2
#     4  10  24  45  65 100 132 182 224 284 337 406
#     4  10  24  44  71 102 139 176 230 278 348 401
#     4  10  25  44  65 100 135 179 225 279 340 408
#     4  10  24  44  69  99 137 175 231 282 341 404
#     4  11  23  43  65 101 132 178 229 280 344 400
#     4  11  23  43  66  97 140 174 227 280 342 410
#     4  10  25  39  68  94 138 180 228 274 343 401
#     4  10  24  44  68 104 134 180 224 282 341 402
#
# _framework density 23.886748999999998
#
# number of rings (size 3 to 8) (size 9 to 14) (size 15 to 20)
#    0.750    1.000    1.250    0.750    8.750    8.500 
#    0.000    1.250    0.000    0.000    0.000    0.000 
#    0.000    0.000    0.000    0.000    0.000    0.000 
#
# Total GULP energy -89319.633616 kJ/mol
# GULP energy per Si atom -5582.477101 kJ/mol
# Density = 2.383238 g / cm^3
# Si number density = 23.886749 Si / 1000 Ang^3
#
#
#
# Elastic Constant Matrix: (Units=GPa)
#
#
# Indices 1 2 3 4 5 6 
#
# 1 141.7217 5.2551 23.2805 7.2840 -15.8934 -17.1318
# 2 5.2551 38.4146 3.3344 3.2030 -3.0318 -5.8916
# 3 23.2805 3.3344 151.5820 25.2331 -19.9070 -1.6594
# 4 7.2840 3.2030 25.2331 29.8154 -1.8353 2.8695
# 5 -15.8934 -3.0318 -19.9070 -1.8353 26.9865 12.6590
# 6 -17.1318 -5.8916 -1.6594 2.8695 12.6590 32.8853
#
#
#
# Elastic Compliance Matrix: (Units=1/GPa)
#
#
# Indices 1 2 3 4 5 6 
#
# 1 0.007917 -0.000207 -0.000571 -0.001575 0.002615 0.003189
# 2 -0.000207 0.027118 0.000121 -0.003402 0.000503 0.004860
# 3 -0.000571 0.000121 0.008598 -0.006592 0.006380 -0.001723
# 4 -0.001575 -0.003402 -0.006592 0.040261 -0.001171 -0.004825
# 5 0.002615 0.000503 0.006380 -0.001171 0.051742 -0.018041
# 6 0.003189 0.004860 -0.001723 -0.004825 -0.018041 0.040220
#
#
# Mechanical properties :
#
#
# Convention : Reuss Voigt Hill
#
# Bulk Modulus (GPa) = 23.62931 43.93982 33.78457
# Shear Modulus (GPa) = 26.14012 37.92733 32.03372
#
# Velocity S-wave (km/s) = 3.31166 3.98904 3.66603
# Velocity P-wave (km/s) = 4.95343 6.29695 5.66516
#
# Compressibility (1/GPa) = 0.04232032
#
# Stress axis : x y z
#
# Youngs Moduli (GPa) = 126.30559 36.87553 116.30017
#
# Poissons Ratio (x) = 0.00762 0.06640
# Poissons Ratio (y) = 0.02610 -0.01404
# Poissons Ratio (z) = 0.07211 -0.00445
#
# Static dielectric constant tensor:
#      x y z
#    x 1.948160 -0.015550 0.006410 
#    y -0.015550 1.989580 -0.001870 
#    z 0.006410 -0.001870 1.897490 
# 
# From -- ./inp_files/411084.got.cif
#   From: 2010.05.17/outbox.cif.g08.bks.cpg/sg2_206_cif.got.tgz:411084.got - 2010.06.03 11:33:40.
