data_PCOD9047071
_publ_section_title
;
Structure prediction by ZEFSAII (Michael W. Deem and Ramdas Pophale) SiO2 
 PCOD9047071
Probable space group: P -1
;
_chemical_formula_sum "Si O2"
_cell_formula_units_Z 14
_cell_length_a 5.234542
_cell_length_b 17.822098
_cell_length_c 10.411640
_cell_angle_alpha 40.511060
_cell_angle_beta 93.469812
_cell_angle_gamma 96.053593
_cell_volume 627.147266
_symmetry_space_group_name_H-M "P -1"
_symmetry_group_IT_number 2
_symmetry_cell_setting 'triclinic'
loop_
_space_group_symop_operation_xyz
x,y,z
-x,-y,-z
loop_
_atom_site_type_symbol
_atom_site_label
_atom_site_fract_x
_atom_site_fract_y
_atom_site_fract_z
Si Si1 0.721472 0.562197 0.514785
Si Si2 0.800209 0.788657 0.783584
Si Si3 0.896211 0.574794 0.232352
Si Si4 0.716420 0.192199 0.411893
Si Si5 0.626986 0.318483 0.500757
Si Si6 0.174434 0.059610 0.168721
Si Si7 0.646585 0.102153 0.957440
O O1 0.500000 0.500000 0.500000
O O2 0.896510 0.609920 0.337662
O O3 0.656903 0.661680 0.480430
O O4 0.812202 0.455039 0.738714
O O5 0.531965 0.813949 0.679149
O O6 0.875393 0.887360 0.762637
O O7 0.022915 0.781497 0.694564
O O8 0.789039 0.669329 0.018066
O O9 0.763817 0.445905 0.367019
O O10 0.663803 0.284132 0.400793
O O11 0.748762 0.070207 0.640695
O O12 0.711236 0.215185 0.725405
O O13 0.428740 0.126455 0.024635
O O14 0.911401 0.064763 0.073890
O O15 0.500000 0.000000 0.000000
#
# Coordination Sequence:
#
# PCOD9047071 Si02
#       7
#     2   2   2   2   2   2   2
#     4   9  21  41  69 101 141 177 228 296 359 412
#     4  12  28  47  73 103 143 199 243 280 348 426
#     4  10  24  43  71 104 143 181 239 287 360 427
#     4  12  28  47  72 101 148 193 243 290 343 421
#     4  11  26  42  72 103 148 178 232 296 365 416
#     4  12  26  49  76 104 143 187 243 301 347 422
#     4  12  26  44  77 109 141 177 236 300 375 409
#
# _framework density 22.323305999999999
#
# number of rings (size 3 to 8) (size 9 to 14) (size 15 to 20)
#    0.000    0.857    1.429    3.857   14.000    1.143 
#    0.000    0.000    0.000    0.000    0.000    0.000 
#    0.000    0.000    0.000    0.000    0.000    0.000 
#
# Total GULP energy -78163.417397 kJ/mol
# GULP energy per Si atom -5583.101243 kJ/mol
# Density = 2.227250 g / cm^3
# Si number density = 22.323306 Si / 1000 Ang^3
#
#
#
# Elastic Constant Matrix: (Units=GPa)
#
#
# Indices 1 2 3 4 5 6 
#
# 1 109.1234 11.2626 40.7092 1.3539 29.3963 -4.1489
# 2 11.2626 125.3519 15.9237 -0.1712 -0.3463 -19.4533
# 3 40.7092 15.9237 61.5216 2.2411 12.1829 -9.4576
# 4 1.3539 -0.1712 2.2411 24.5976 -5.3499 -4.5164
# 5 29.3963 -0.3463 12.1829 -5.3499 46.2181 1.6721
# 6 -4.1489 -19.4533 -9.4576 -4.5164 1.6721 35.6850
#
#
#
# Elastic Compliance Matrix: (Units=1/GPa)
#
#
# Indices 1 2 3 4 5 6 
#
# 1 0.014007 -0.000371 -0.007799 -0.001689 -0.007033 -0.000525
# 2 -0.000371 0.008913 -0.001545 0.001203 0.000686 0.004526
# 3 -0.007799 -0.001545 0.022769 -0.001177 -0.001341 0.004199
# 4 -0.001689 0.001203 -0.001177 0.043189 0.006200 0.005323
# 5 -0.007033 0.000686 -0.001341 0.006200 0.027232 -0.001291
# 6 -0.000525 0.004526 0.004199 0.005323 -0.001291 0.032277
#
#
# Mechanical properties :
#
#
# Convention : Reuss Voigt Hill
#
# Bulk Modulus (GPa) = 38.08273 47.97643 43.02958
# Shear Modulus (GPa) = 28.31718 36.50691 32.41204
#
# Velocity S-wave (km/s) = 3.56547 4.04836 3.81456
# Velocity P-wave (km/s) = 5.83496 6.58715 6.22243
#
# Compressibility (1/GPa) = 0.02625862
#
# Stress axis : x y z
#
# Youngs Moduli (GPa) = 71.39175 112.19354 43.91907
#
# Poissons Ratio (x) = 0.04162 0.34253
# Poissons Ratio (y) = 0.02648 0.06787
# Poissons Ratio (z) = 0.55680 0.17337
#
# Static dielectric constant tensor:
#      x y z
#    x 2.224660 -0.063860 -0.093210 
#    y -0.063860 1.811250 0.009230 
#    z -0.093210 0.009230 1.855430 
# 
# From -- ./inp_files/138397.got.cif
#   From: 2010.05.17/outbox.cif.g08.bks.cpg/sg2_70_cif.got.tgz:138397.got - 2010.06.03 11:33:40.
