data_PCOD9047169
_publ_section_title
;
Structure prediction by ZEFSAII (Michael W. Deem and Ramdas Pophale) SiO2 
 PCOD9047169
Probable space group: P -1
;
_chemical_formula_sum "Si O2"
_cell_formula_units_Z 16
_cell_length_a 18.235800
_cell_length_b 5.229931
_cell_length_c 20.983142
_cell_angle_alpha 70.194556
_cell_angle_beta 19.141937
_cell_angle_gamma 69.310790
_cell_volume 613.811172
_symmetry_space_group_name_H-M "P -1"
_symmetry_group_IT_number 2
_symmetry_cell_setting 'triclinic'
loop_
_space_group_symop_operation_xyz
x,y,z
-x,-y,-z
loop_
_atom_site_type_symbol
_atom_site_label
_atom_site_fract_x
_atom_site_fract_y
_atom_site_fract_z
Si Si1 0.261450 0.900813 0.280621
Si Si2 0.602139 0.616292 0.487545
Si Si3 0.069170 0.780781 0.107309
Si Si4 0.138940 0.667573 0.822218
Si Si5 0.573029 0.562287 0.231655
Si Si6 0.921473 0.936032 0.707647
Si Si7 0.791926 0.572375 0.545560
Si Si8 0.632020 0.043718 0.051333
O O1 0.267404 0.928608 0.197622
O O2 0.296015 0.596112 0.307783
O O3 0.422217 0.084575 0.171701
O O4 0.000000 0.000000 0.500000
O O5 0.358062 0.792730 0.663601
O O6 0.722881 0.504142 0.332766
O O7 0.514432 0.400232 0.627868
O O8 0.814614 0.730452 0.336717
O O9 0.184228 0.594675 0.971703
O O10 0.032370 0.090547 0.085753
O O11 0.234439 0.749154 0.035202
O O12 0.000000 0.500000 0.000000
O O13 0.405521 0.379978 0.347379
O O14 0.553729 0.842639 0.185714
O O15 0.098003 0.159104 0.549195
O O16 0.025235 0.649812 0.618200
O O17 0.823639 0.896205 0.860772
#
# Coordination Sequence:
#
# PCOD9047169 Si02
#       8
#     2   2   2   2   2   2   2   2
#     4   9  21  44  68 100 143 197 252 312 381 449
#     4  11  25  47  72 106 144 187 239 295 377 441
#     4  12  26  44  73 104 146 187 247 298 379 446
#     4  11  26  49  77 106 146 186 240 301 374 450
#     4  11  27  44  69 105 148 194 247 304 376 450
#     4  11  23  44  71 106 143 200 256 320 382 450
#     4  10  24  43  73 102 152 195 254 313 387 448
#     4  11  25  43  68 103 145 189 251 312 371 450
#
# _framework density 26.066651
#
# number of rings (size 3 to 8) (size 9 to 14) (size 15 to 20)
#    0.000    1.250    0.000    4.125   10.500    5.000 
#    2.250    3.125    0.000    0.000    0.000    0.000 
#    0.000    0.000    0.000    0.000    0.000    0.000 
#
# Total GULP energy -89421.853584 kJ/mol
# GULP energy per Si atom -5588.865849 kJ/mol
# Density = 2.600732 g / cm^3
# Si number density = 26.066651 Si / 1000 Ang^3
#
#
#
# Elastic Constant Matrix: (Units=GPa)
#
#
# Indices 1 2 3 4 5 6 
#
# 1 106.8597 13.7100 73.3848 -6.5119 4.1728 6.1418
# 2 13.7100 71.3645 43.2596 -0.9372 11.0269 10.7254
# 3 73.3848 43.2596 167.4674 -3.9861 -2.1803 6.1400
# 4 -6.5119 -0.9372 -3.9861 36.7778 9.3135 -3.7281
# 5 4.1728 11.0269 -2.1803 9.3135 77.3621 -5.6464
# 6 6.1418 10.7254 6.1400 -3.7281 -5.6464 27.3089
#
#
#
# Elastic Compliance Matrix: (Units=1/GPa)
#
#
# Indices 1 2 3 4 5 6 
#
# 1 0.013870 0.001894 -0.006451 0.001963 -0.001617 -0.002479
# 2 0.001894 0.018532 -0.005391 0.000375 -0.003463 -0.007157
# 3 -0.006451 -0.005391 0.010144 -0.000419 0.001566 0.001554
# 4 0.001963 0.000375 -0.000419 0.028643 -0.003422 0.002708
# 5 -0.001617 -0.003463 0.001566 -0.003422 0.014244 0.003850
# 6 -0.002479 -0.007157 0.001554 0.002708 0.003850 0.040803
#
#
# Mechanical properties :
#
#
# Convention : Reuss Voigt Hill
#
# Bulk Modulus (GPa) = 44.14763 67.37781 55.76272
# Shear Modulus (GPa) = 32.53462 42.64557 37.59010
#
# Velocity S-wave (km/s) = 3.53672 4.04916 3.80159
# Velocity P-wave (km/s) = 5.80096 6.91125 6.38030
#
# Compressibility (1/GPa) = 0.02265127
#
# Stress axis : x y z
#
# Youngs Moduli (GPa) = 72.09655 53.96005 98.58044
#
# Poissons Ratio (x) = -0.10219 0.63591
# Poissons Ratio (y) = -0.13654 0.53143
# Poissons Ratio (z) = 0.46507 0.29089
#
# Static dielectric constant tensor:
#      x y z
#    x 2.163560 0.011890 -0.039280 
#    y 0.011890 2.051470 -0.034640 
#    z -0.039280 -0.034640 2.080310 
# 
# From -- ./inp_files/598999.got.cif
#   From: 2010.05.17/outbox.cif.g08.bks.cpg/sg2_300_cif.got.tgz:598999.got - 2010.06.03 11:33:40.
