data_PCOD9047980
_publ_section_title
;
Structure prediction by ZEFSAII (Michael W. Deem and Ramdas Pophale) SiO2 
 PCOD9047980
Probable space group: P -1
;
_chemical_formula_sum "Si O2"
_cell_formula_units_Z 16
_cell_length_a 15.622713
_cell_length_b 16.214733
_cell_length_c 5.867083
_cell_angle_alpha 65.525413
_cell_angle_beta 125.300139
_cell_angle_gamma 143.001649
_cell_volume 726.576039
_symmetry_space_group_name_H-M "P -1"
_symmetry_group_IT_number 2
_symmetry_cell_setting 'triclinic'
loop_
_space_group_symop_operation_xyz
x,y,z
-x,-y,-z
loop_
_atom_site_type_symbol
_atom_site_label
_atom_site_fract_x
_atom_site_fract_y
_atom_site_fract_z
Si Si1 0.587712 0.642156 0.586065
Si Si2 0.305395 0.468031 0.692270
Si Si3 0.572619 0.333781 0.998449
Si Si4 0.982938 0.344307 0.206624
Si Si5 0.105562 0.533748 0.828091
Si Si6 0.842990 0.813967 0.126340
Si Si7 0.699322 0.916442 0.885697
Si Si8 0.822254 0.053383 0.425102
O O1 0.500000 0.500000 0.500000
O O2 0.472127 0.584376 0.688949
O O3 0.565512 0.717863 0.316759
O O4 0.767805 0.751207 0.828618
O O5 0.240765 0.325215 0.714210
O O6 0.167506 0.449652 0.442596
O O7 0.345031 0.521061 0.948851
O O8 0.712428 0.369838 0.055897
O O9 0.487753 0.223576 0.194849
O O10 0.900750 0.383901 0.109724
O O11 0.891989 0.200317 0.335226
O O12 0.014733 0.383432 0.944539
O O13 0.000000 0.500000 0.500000
O O14 0.028476 0.916962 0.331014
O O15 0.787099 0.875978 0.046803
O O16 0.726728 0.982068 0.603723
O O17 0.756038 0.994787 0.129668
#
# Coordination Sequence:
#
# PCOD9047980 Si02
#       8
#     2   2   2   2   2   2   2   2
#     4  12  22  36  62  99 143 179 220 284 360 415
#     4  11  21  39  62 102 135 171 224 293 360 404
#     4  12  24  40  67 100 141 176 233 286 361 413
#     4  10  24  44  72 104 132 171 233 294 364 415
#     4  11  23  43  76 105 128 169 224 309 367 419
#     4  11  23  42  68 100 136 190 242 287 337 413
#     4  12  26  46  67  99 145 200 235 280 329 422
#     4  11  28  47  72  96 146 192 243 279 337 416
#
# _framework density 22.021097000000001
#
# number of rings (size 3 to 8) (size 9 to 14) (size 15 to 20)
#    0.000    0.750    5.000    2.625    1.750    3.000 
#    0.000    1.250    0.000    0.000    0.000    0.000 
#    0.000    0.000    0.000    0.000    0.000    0.000 
#
# Total GULP energy -89114.949444 kJ/mol
# GULP energy per Si atom -5569.684340 kJ/mol
# Density = 2.197098 g / cm^3
# Si number density = 22.021097 Si / 1000 Ang^3
#
#
#
# Elastic Constant Matrix: (Units=GPa)
#
#
# Indices 1 2 3 4 5 6 
#
# 1 93.5019 40.8933 21.2260 -16.6832 -5.2381 -0.9064
# 2 40.8933 75.2068 27.8962 -20.2630 -7.9783 13.1425
# 3 21.2260 27.8962 107.1059 -11.4225 -11.3187 6.5065
# 4 -16.6832 -20.2630 -11.4225 42.1523 -5.4799 -13.6854
# 5 -5.2381 -7.9783 -11.3187 -5.4799 19.7215 -4.8924
# 6 -0.9064 13.1425 6.5065 -13.6854 -4.8924 23.9515
#
#
#
# Elastic Compliance Matrix: (Units=1/GPa)
#
#
# Indices 1 2 3 4 5 6 
#
# 1 0.015667 -0.007883 -0.000496 0.005935 0.004668 0.009397
# 2 -0.007883 0.021654 -0.002636 0.004577 0.004456 -0.007939
# 3 -0.000496 -0.002636 0.010989 0.002727 0.006180 0.001263
# 4 0.005935 0.004577 0.002727 0.039721 0.022026 0.024167
# 5 0.004668 0.004456 0.006180 0.022026 0.069057 0.022744
# 6 0.009397 -0.007939 0.001263 0.024167 0.022744 0.064574
#
#
# Mechanical properties :
#
#
# Convention : Reuss Voigt Hill
#
# Bulk Modulus (GPa) = 38.05427 50.64950 44.35188
# Shear Modulus (GPa) = 19.80577 29.55167 24.67872
#
# Velocity S-wave (km/s) = 3.00225 3.66727 3.35130
# Velocity P-wave (km/s) = 5.41631 6.40173 5.92953
#
# Compressibility (1/GPa) = 0.02627826
#
# Stress axis : x y z
#
# Youngs Moduli (GPa) = 63.83014 46.18138 91.00184
#
# Poissons Ratio (x) = 0.36403 0.04517
# Poissons Ratio (y) = 0.50314 0.23992
# Poissons Ratio (z) = 0.03169 0.12176
#
# Static dielectric constant tensor:
#      x y z
#    x 1.922320 -0.068580 -0.096680 
#    y -0.068580 1.913270 0.034590 
#    z -0.096680 0.034590 1.972070 
# 
# From -- ./inp_files/97831.got.cif
#   From: 2010.05.17/outbox.cif.g08.bks.cpg/sg2_49_cif.got.tgz:97831.got - 2010.06.03 11:33:40.
