data_PCOD9047488
_publ_section_title
;
Structure prediction by ZEFSAII (Michael W. Deem and Ramdas Pophale) SiO2 
 PCOD9047488
Probable space group: P -1
;
_chemical_formula_sum "Si O2"
_cell_formula_units_Z 14
_cell_length_a 9.769459
_cell_length_b 5.246159
_cell_length_c 17.417882
_cell_angle_alpha 82.948861
_cell_angle_beta 135.767459
_cell_angle_gamma 109.987805
_cell_volume 574.964393
_symmetry_space_group_name_H-M "P -1"
_symmetry_group_IT_number 2
_symmetry_cell_setting 'triclinic'
loop_
_space_group_symop_operation_xyz
x,y,z
-x,-y,-z
loop_
_atom_site_type_symbol
_atom_site_label
_atom_site_fract_x
_atom_site_fract_y
_atom_site_fract_z
Si Si1 0.816145 0.717925 0.597912
Si Si2 0.772339 0.596443 0.104982
Si Si3 0.846033 0.689140 0.856226
Si Si4 0.290404 0.954162 0.826173
Si Si5 0.713441 0.972621 0.932386
Si Si6 0.793697 0.066074 0.699966
Si Si7 0.461619 0.684330 0.362817
O O1 0.688650 0.671128 0.468729
O O2 0.675376 0.475930 0.609549
O O3 0.067026 0.792019 0.698831
O O4 0.792359 0.994202 0.613937
O O5 0.682421 0.268792 0.093536
O O6 0.021646 0.664513 0.205526
O O7 0.723273 0.772947 0.148731
O O8 0.718923 0.733404 0.003114
O O9 0.759553 0.857072 0.875041
O O10 0.655579 0.418022 0.761347
O O11 0.879470 0.851751 0.783346
O O12 0.084542 0.747032 0.977976
O O13 0.495191 0.015981 0.853404
O O14 0.568018 0.027748 0.644204
#
# Coordination Sequence:
#
# PCOD9047488 Si02
#       7
#     2   2   2   2   2   2   2
#     4   9  19  31  58  86 113 144 187 238 300 331
#     4  10  21  36  61  87 116 148 194 239 293 341
#     4   9  21  39  52  85 111 155 197 227 286 348
#     4  11  21  40  58  91 116 148 194 243 291 346
#     4  10  21  39  58  77 119 154 190 239 285 340
#     4   9  17  33  56  82 120 140 192 237 285 345
#     4  10  17  34  57  83 113 148 188 241 281 347
#
# _framework density 24.349335
#
# number of rings (size 3 to 8) (size 9 to 14) (size 15 to 20)
#    0.000    2.286    1.429    2.143    0.000    0.000 
#    7.714    2.857    0.000    0.857    0.000    0.000 
#    0.000    0.000    0.000    0.000    0.000    0.000 
#
# Total GULP energy -77960.164938 kJ/mol
# GULP energy per Si atom -5568.583210 kJ/mol
# Density = 2.429391 g / cm^3
# Si number density = 24.349335 Si / 1000 Ang^3
#
#
#
# Elastic Constant Matrix: (Units=GPa)
#
#
# Indices 1 2 3 4 5 6 
#
# 1 85.5220 13.2782 58.3117 -4.5772 19.7368 -14.4472
# 2 13.2782 75.8638 21.6271 2.4143 4.6919 -0.7411
# 3 58.3117 21.6271 127.5594 1.0041 37.4742 -15.6203
# 4 -4.5772 2.4143 1.0041 20.2204 -13.9495 1.5631
# 5 19.7368 4.6919 37.4742 -13.9495 29.1634 -3.5133
# 6 -14.4472 -0.7411 -15.6203 1.5631 -3.5133 30.9761
#
#
#
# Elastic Compliance Matrix: (Units=1/GPa)
#
#
# Indices 1 2 3 4 5 6 
#
# 1 0.017957 -0.001087 -0.007800 0.004862 0.000885 0.004271
# 2 -0.001087 0.013986 -0.002094 -0.001503 0.000323 -0.001116
# 3 -0.007800 -0.002094 0.024252 -0.030315 -0.039373 0.005606
# 4 0.004862 -0.001503 -0.030315 0.114863 0.089803 -0.008666
# 5 0.000885 0.000323 -0.039373 0.089803 0.126022 -0.009672
# 6 0.004271 -0.001116 0.005606 -0.008666 -0.009672 0.036415
#
#
# Mechanical properties :
#
#
# Convention : Reuss Voigt Hill
#
# Bulk Modulus (GPa) = 29.21134 52.81992 41.01563
# Shear Modulus (GPa) = 13.62888 29.12052 21.37470
#
# Velocity S-wave (km/s) = 2.36841 3.46200 2.96604
# Velocity P-wave (km/s) = 4.41611 6.14168 5.34894
#
# Compressibility (1/GPa) = 0.03423328
#
# Stress axis : x y z
#
# Youngs Moduli (GPa) = 55.68732 71.50169 41.23362
#
# Poissons Ratio (x) = 0.07774 0.32161
# Poissons Ratio (y) = 0.06054 0.08634
# Poissons Ratio (z) = 0.43435 0.14973
#
# Static dielectric constant tensor:
#      x y z
#    x 1.991300 0.026630 0.072120 
#    y 0.026630 2.341620 0.040890 
#    z 0.072120 0.040890 2.026120 
# 
# From -- ./inp_files/552856.got.cif
#   From: 2010.05.17/outbox.cif.g08.bks.cpg/sg2_277_cif.got.tgz:552856.got - 2010.06.03 11:33:40.
