data_PCOD9047387
_publ_section_title
;
Structure prediction by ZEFSAII (Michael W. Deem and Ramdas Pophale) SiO2 
 PCOD9047387
Probable space group: P -1
;
_chemical_formula_sum "Si O2"
_cell_formula_units_Z 16
_cell_length_a 8.372451
_cell_length_b 21.567060
_cell_length_c 9.954115
_cell_angle_alpha 151.117588
_cell_angle_beta 96.416947
_cell_angle_gamma 64.988458
_cell_volume 634.975793
_symmetry_space_group_name_H-M "P -1"
_symmetry_group_IT_number 2
_symmetry_cell_setting 'triclinic'
loop_
_space_group_symop_operation_xyz
x,y,z
-x,-y,-z
loop_
_atom_site_type_symbol
_atom_site_label
_atom_site_fract_x
_atom_site_fract_y
_atom_site_fract_z
Si Si1 0.008274 0.533235 0.909727
Si Si2 0.620849 0.385795 0.566774
Si Si3 0.159424 0.970153 0.844119
Si Si4 0.398124 0.345050 0.064118
Si Si5 0.128166 0.031913 0.666432
Si Si6 0.787173 0.340955 0.769262
Si Si7 0.510449 0.817200 0.796928
Si Si8 0.656001 0.844801 0.117311
O O1 0.237594 0.353089 0.535481
O O2 0.799488 0.594392 0.932050
O O3 0.000000 0.500000 0.000000
O O4 0.018053 0.683452 0.195501
O O5 0.799095 0.341094 0.607747
O O6 0.615924 0.237624 0.250727
O O7 0.587118 0.509024 0.681688
O O8 0.422332 0.488610 0.852391
O O9 0.061226 0.084114 0.916688
O O10 0.236477 0.793709 0.454153
O O11 0.359767 0.927169 0.860924
O O12 0.000000 0.000000 0.000000
O O13 0.624851 0.157313 0.682364
O O14 0.332563 0.310570 0.132628
O O15 0.130841 0.180225 0.903275
O O16 0.000000 0.000000 0.500000
O O17 0.540089 0.911066 0.087532
O O18 0.500000 0.000000 0.500000
#
# Coordination Sequence:
#
# PCOD9047387 Si02
#       8
#     2   2   2   2   2   2   2   2
#     4  11  21  36  69 102 136 171 212 288 352 409
#     4   9  17  37  66  96 131 169 212 278 336 407
#     4  11  24  39  72 101 131 182 231 279 341 398
#     4  11  22  40  69  98 129 186 224 262 357 403
#     4  11  26  46  68  96 137 186 233 277 330 418
#     4   9  18  35  60  98 136 164 214 275 341 401
#     4  10  24  44  66 104 142 161 232 294 332 410
#     4  10  26  46  67  93 139 186 232 278 338 409
#
# _framework density 25.197813
#
# number of rings (size 3 to 8) (size 9 to 14) (size 15 to 20)
#    0.000    1.750    2.500    1.500    5.250    3.500 
#    0.000    0.000    0.000    0.000    0.000    0.000 
#    0.000    0.000    0.000    0.000    0.000    0.000 
#
# Total GULP energy -89166.535351 kJ/mol
# GULP energy per Si atom -5572.908459 kJ/mol
# Density = 2.514046 g / cm^3
# Si number density = 25.197813 Si / 1000 Ang^3
#
#
#
# Elastic Constant Matrix: (Units=GPa)
#
#
# Indices 1 2 3 4 5 6 
#
# 1 128.9026 67.9573 23.4895 -21.5866 5.8411 -15.7404
# 2 67.9573 118.5479 17.9523 -22.0683 0.5226 -1.1364
# 3 23.4895 17.9523 48.3650 -19.6418 2.9580 -17.6259
# 4 -21.5866 -22.0683 -19.6418 34.1961 -9.6243 6.6708
# 5 5.8411 0.5226 2.9580 -9.6243 37.6204 6.3946
# 6 -15.7404 -1.1364 -17.6259 6.6708 6.3946 56.5852
#
#
#
# Elastic Compliance Matrix: (Units=1/GPa)
#
#
# Indices 1 2 3 4 5 6 
#
# 1 0.012090 -0.006345 -0.001833 0.001475 -0.001724 0.002686
# 2 -0.006345 0.013140 -0.000780 0.005300 0.002674 -0.002671
# 3 -0.001833 -0.000780 0.030320 0.014467 0.000394 0.007169
# 4 0.001475 0.005300 0.014467 0.045101 0.010347 -0.001463
# 5 -0.001724 0.002674 0.000394 0.010347 0.030268 -0.004943
# 6 0.002686 -0.002671 0.007169 -0.001463 -0.004943 0.021330
#
#
# Mechanical properties :
#
#
# Convention : Reuss Voigt Hill
#
# Bulk Modulus (GPa) = 26.57303 57.17932 41.87618
# Shear Modulus (GPa) = 27.36558 38.10810 32.73684
#
# Velocity S-wave (km/s) = 3.29907 3.89312 3.60834
# Velocity P-wave (km/s) = 5.00804 6.55362 5.83226
#
# Compressibility (1/GPa) = 0.03763214
#
# Stress axis : x y z
#
# Youngs Moduli (GPa) = 82.71265 76.10305 32.98172
#
# Poissons Ratio (x) = 0.48288 0.06047
# Poissons Ratio (y) = 0.52481 0.02574
# Poissons Ratio (z) = 0.15165 0.05939
#
# Static dielectric constant tensor:
#      x y z
#    x 2.095100 -0.006860 -0.046880 
#    y -0.006860 2.049960 -0.004080 
#    z -0.046880 -0.004080 1.950920 
# 
# From -- ./inp_files/224253.got.cif
#   From: 2010.05.17/outbox.cif.g08.bks.cpg/sg2_113_cif.got.tgz:224253.got - 2010.06.03 11:33:40.
