data_PCOD9047819
_publ_section_title
;
Structure prediction by ZEFSAII (Michael W. Deem and Ramdas Pophale) SiO2 
 PCOD9047819
Probable space group: P -1
;
_chemical_formula_sum "Si O2"
_cell_formula_units_Z 14
_cell_length_a 8.646232
_cell_length_b 9.063800
_cell_length_c 12.496556
_cell_angle_alpha 118.575545
_cell_angle_beta 80.802804
_cell_angle_gamma 131.706317
_cell_volume 623.049262
_symmetry_space_group_name_H-M "P -1"
_symmetry_group_IT_number 2
_symmetry_cell_setting 'triclinic'
loop_
_space_group_symop_operation_xyz
x,y,z
-x,-y,-z
loop_
_atom_site_type_symbol
_atom_site_label
_atom_site_fract_x
_atom_site_fract_y
_atom_site_fract_z
Si Si1 0.368864 0.072555 0.066776
Si Si2 0.436681 0.259524 0.909275
Si Si3 0.847679 0.538268 0.488516
Si Si4 0.851952 0.949005 0.339075
Si Si5 0.412671 0.079597 0.457941
Si Si6 0.800374 0.249204 0.838766
Si Si7 0.191832 0.465774 0.760674
O O1 0.556375 0.331662 0.177945
O O2 0.211191 0.897587 0.116201
O O3 0.296503 0.097051 0.970620
O O4 0.500000 0.000000 0.000000
O O5 0.307967 0.135347 0.771294
O O6 0.649698 0.299088 0.897988
O O7 0.500000 0.500000 0.000000
O O8 0.611137 0.333821 0.485219
O O9 0.849727 0.530627 0.357408
O O10 0.000000 0.500000 0.500000
O O11 0.941473 0.783892 0.602208
O O12 0.746791 0.928571 0.455573
O O13 0.882041 0.773629 0.282742
O O14 0.500000 0.000000 0.500000
O O15 0.305211 0.913453 0.310723
O O16 0.040523 0.470808 0.853769
#
# Coordination Sequence:
#
# PCOD9047819 Si02
#       7
#     2   2   2   2   2   2   2
#     4  10  24  44  70  95 136 186 231 272 337 406
#     4  11  23  47  70  95 139 184 225 283 335 406
#     4  12  24  41  71 104 138 180 224 281 346 410
#     4  12  26  44  69 106 143 172 230 287 342 403
#     4  12  22  42  71 103 135 179 221 280 351 402
#     4  11  23  44  74  97 132 182 232 274 350 404
#     4  12  25  45  69 105 139 175 230 291 337 403
#
# _framework density 22.470134999999999
#
# number of rings (size 3 to 8) (size 9 to 14) (size 15 to 20)
#    0.000    0.571    7.143    0.429    2.000    4.000 
#    0.000    2.143    0.000    0.000    0.000    0.000 
#    0.000    0.000    0.000    0.000    0.000    0.000 
#
# Total GULP energy -78369.540859 kJ/mol
# GULP energy per Si atom -5597.824347 kJ/mol
# Density = 2.241899 g / cm^3
# Si number density = 22.470135 Si / 1000 Ang^3
#
#
#
# Elastic Constant Matrix: (Units=GPa)
#
#
# Indices 1 2 3 4 5 6 
#
# 1 53.3931 26.2456 19.7801 -5.9778 0.5737 -7.8193
# 2 26.2456 144.5310 49.1779 -6.9480 4.8347 -0.7898
# 3 19.7801 49.1779 110.5429 -7.4303 8.9499 -4.0842
# 4 -5.9778 -6.9480 -7.4303 46.4397 -6.8831 7.6338
# 5 0.5737 4.8347 8.9499 -6.8831 33.3809 -0.9969
# 6 -7.8193 -0.7898 -4.0842 7.6338 -0.9969 39.5562
#
#
#
# Elastic Compliance Matrix: (Units=1/GPa)
#
#
# Indices 1 2 3 4 5 6 
#
# 1 0.021841 -0.003101 -0.002380 0.001520 0.001137 0.003745
# 2 -0.003101 0.008617 -0.003259 0.000476 -0.000249 -0.000875
# 3 -0.002380 -0.003259 0.011167 0.000571 -0.002350 0.000448
# 4 0.001520 0.000476 0.000571 0.023203 0.004417 -0.003998
# 5 0.001137 -0.000249 -0.002350 0.004417 0.031512 -0.000081
# 6 0.003745 -0.000875 0.000448 -0.003998 -0.000081 0.026819
#
#
# Mechanical properties :
#
#
# Convention : Reuss Voigt Hill
#
# Bulk Modulus (GPa) = 41.41511 55.43044 48.42278
# Shear Modulus (GPa) = 33.62715 38.09292 35.86003
#
# Velocity S-wave (km/s) = 3.87269 4.12183 3.99920
# Velocity P-wave (km/s) = 6.20227 6.88293 6.55145
#
# Compressibility (1/GPa) = 0.02414578
#
# Stress axis : x y z
#
# Youngs Moduli (GPa) = 45.78452 116.04519 89.54774
#
# Poissons Ratio (x) = 0.35984 0.21315
# Poissons Ratio (y) = 0.14197 0.29184
# Poissons Ratio (z) = 0.10898 0.37819
#
# Static dielectric constant tensor:
#      x y z
#    x 1.799540 0.021120 0.016070 
#    y 0.021120 1.830110 0.011170 
#    z 0.016070 0.011170 1.871170 
# 
# From -- ./inp_files/175794.got.cif
#   From: 2010.05.17/outbox.cif.g08.bks.cpg/sg2_88_cif.got.tgz:175794.got - 2010.06.03 11:33:40.
