data_PCOD9047450
_publ_section_title
;
Structure prediction by ZEFSAII (Michael W. Deem and Ramdas Pophale) SiO2 
 PCOD9047450
Probable space group: P -1
;
_chemical_formula_sum "Si O2"
_cell_formula_units_Z 12
_cell_length_a 8.261969
_cell_length_b 12.297624
_cell_length_c 9.690520
_cell_angle_alpha 74.668994
_cell_angle_beta 95.958010
_cell_angle_gamma 36.023241
_cell_volume 462.654913
_symmetry_space_group_name_H-M "P -1"
_symmetry_group_IT_number 2
_symmetry_cell_setting 'triclinic'
loop_
_space_group_symop_operation_xyz
x,y,z
-x,-y,-z
loop_
_atom_site_type_symbol
_atom_site_label
_atom_site_fract_x
_atom_site_fract_y
_atom_site_fract_z
Si Si1 0.790410 0.096313 0.231314
Si Si2 0.964881 0.194653 0.411232
Si Si3 0.101707 0.536413 0.855933
Si Si4 0.140655 0.340290 0.683426
Si Si5 0.776747 0.337786 0.732799
Si Si6 0.759805 0.865080 0.940607
O O1 0.911381 0.135043 0.306254
O O2 0.466259 0.316414 0.034914
O O3 0.769285 0.017860 0.384881
O O4 0.066181 0.873483 0.231891
O O5 0.983569 0.305451 0.304402
O O6 0.613635 0.412845 0.388175
O O7 0.078840 0.441891 0.787790
O O8 0.849502 0.708523 0.902314
O O9 0.000000 0.500000 0.500000
O O10 0.953194 0.334452 0.670289
O O11 0.527857 0.092241 0.765633
O O12 0.910584 0.279973 0.919608
O O13 0.500000 0.000000 0.000000
#
# Coordination Sequence:
#
# PCOD9047450 Si02
#       6
#     2   2   2   2   2   2
#     4  11  24  43  72 104 146 188 230 299 359 421
#     4  11  26  44  70 111 139 186 245 288 359 433
#     4  12  25  47  75 103 147 189 237 301 361 424
#     4  11  26  46  72 107 140 189 243 297 358 431
#     4  11  23  45  69 103 143 184 240 291 356 426
#     4  10  24  44  67 102 139 184 240 285 357 429
#
# _framework density 25.937258
#
# number of rings (size 3 to 8) (size 9 to 14) (size 15 to 20)
#    0.000    1.000    3.333    2.000    0.000   10.667 
#    0.000    0.000    0.000    0.000    0.000    0.000 
#    0.000    0.000    0.000    0.000    0.000    0.000 
#
# Total GULP energy -67185.663444 kJ/mol
# GULP energy per Si atom -5598.805287 kJ/mol
# Density = 2.587822 g / cm^3
# Si number density = 25.937258 Si / 1000 Ang^3
#
#
#
# Elastic Constant Matrix: (Units=GPa)
#
#
# Indices 1 2 3 4 5 6 
#
# 1 70.2753 33.8347 10.8305 7.8726 2.2832 18.4637
# 2 33.8347 198.9085 15.7121 14.9753 17.3536 34.2021
# 3 10.8305 15.7121 117.6639 -19.0785 16.8503 -10.2207
# 4 7.8726 14.9753 -19.0785 46.6819 9.4835 5.6691
# 5 2.2832 17.3536 16.8503 9.4835 47.2945 7.2548
# 6 18.4637 34.2021 -10.2207 5.6691 7.2548 44.2051
#
#
#
# Elastic Compliance Matrix: (Units=1/GPa)
#
#
# Indices 1 2 3 4 5 6 
#
# 1 0.017482 -0.001552 -0.002873 -0.003303 0.002446 -0.006743
# 2 -0.001552 0.006292 -0.001189 -0.001563 -0.000860 -0.004153
# 3 -0.002873 -0.001189 0.011044 0.005869 -0.005271 0.004786
# 4 -0.003303 -0.001563 0.005869 0.026060 -0.006849 0.001728
# 5 0.002446 -0.000860 -0.005271 -0.006849 0.025338 -0.004855
# 6 -0.006743 -0.004153 0.004786 0.001728 -0.004855 0.030334
#
#
# Mechanical properties :
#
#
# Convention : Reuss Voigt Hill
#
# Bulk Modulus (GPa) = 42.38984 56.40024 49.39504
# Shear Modulus (GPa) = 36.86194 49.40099 43.13147
#
# Velocity S-wave (km/s) = 3.77397 4.36895 4.08231
# Velocity P-wave (km/s) = 5.94720 6.87331 6.42695
#
# Compressibility (1/GPa) = 0.02359056
#
# Stress axis : x y z
#
# Youngs Moduli (GPa) = 57.20154 158.92713 90.54547
#
# Poissons Ratio (x) = 0.24665 0.26018
# Poissons Ratio (y) = 0.08877 0.10761
# Poissons Ratio (z) = 0.16437 0.18889
#
# Static dielectric constant tensor:
#      x y z
#    x 2.002750 -0.045880 -0.050490 
#    y -0.045880 2.029490 -0.022910 
#    z -0.050490 -0.022910 2.273650 
# 
# From -- ./inp_files/168628.got.cif
#   From: 2010.05.17/outbox.cif.g08.bks.cpg/sg2_85_cif.got.tgz:168628.got - 2010.06.03 11:33:40.
