data_PCOD9047209
_publ_section_title
;
Structure prediction by ZEFSAII (Michael W. Deem and Ramdas Pophale) SiO2 
 PCOD9047209
Probable space group: P -1
;
_chemical_formula_sum "Si O2"
_cell_formula_units_Z 14
_cell_length_a 5.635603
_cell_length_b 8.112754
_cell_length_c 21.636039
_cell_angle_alpha 137.034043
_cell_angle_beta 66.147402
_cell_angle_gamma 91.180805
_cell_volume 553.224208
_symmetry_space_group_name_H-M "P -1"
_symmetry_group_IT_number 2
_symmetry_cell_setting 'triclinic'
loop_
_space_group_symop_operation_xyz
x,y,z
-x,-y,-z
loop_
_atom_site_type_symbol
_atom_site_label
_atom_site_fract_x
_atom_site_fract_y
_atom_site_fract_z
Si Si1 0.789148 0.141378 0.806897
Si Si2 0.871386 0.490781 0.226609
Si Si3 0.671893 0.350319 0.337306
Si Si4 0.783659 0.818501 0.609222
Si Si5 0.428064 0.743823 0.899362
Si Si6 0.379482 0.278405 0.998724
Si Si7 0.495433 0.071879 0.449279
O O1 0.504822 0.221417 0.901221
O O2 0.789907 0.062147 0.714150
O O3 0.842373 0.405903 0.885256
O O4 0.010227 0.851366 0.729820
O O5 0.714596 0.421021 0.282274
O O6 0.724597 0.409206 0.162506
O O7 0.217746 0.365939 0.170252
O O8 0.755087 0.811371 0.323534
O O9 0.492349 0.190946 0.331222
O O10 0.520469 0.632795 0.467796
O O11 0.763840 0.893471 0.559519
O O12 0.000000 0.500000 0.500000
O O13 0.302247 0.040096 0.962798
O O14 0.383674 0.749832 0.980053
O O15 0.500000 0.000000 0.500000
#
# Coordination Sequence:
#
# PCOD9047209 Si02
#       7
#     2   2   2   2   2   2   2
#     4  11  23  47  65 107 141 189 245 298 370 431
#     4  11  25  46  75 104 150 191 248 303 372 435
#     4  11  24  43  68 104 147 188 240 306 362 443
#     4  12  25  43  76 101 145 190 244 303 373 439
#     4  11  24  48  71 106 142 194 248 304 367 431
#     4  10  24  43  73  99 146 192 244 304 361 435
#     4  10  24  44  69 108 139 190 237 305 370 444
#
# _framework density 25.306193
#
# number of rings (size 3 to 8) (size 9 to 14) (size 15 to 20)
#    0.000    1.143    2.857    2.143    2.000    3.429 
#    5.143    5.714    0.000    0.000    0.000    0.000 
#    0.000    0.000    0.000    0.000    0.000    0.000 
#
# Total GULP energy -78082.514471 kJ/mol
# GULP energy per Si atom -5577.322462 kJ/mol
# Density = 2.524860 g / cm^3
# Si number density = 25.306193 Si / 1000 Ang^3
#
#
#
# Elastic Constant Matrix: (Units=GPa)
#
#
# Indices 1 2 3 4 5 6 
#
# 1 83.3868 33.4620 73.1679 -6.2700 27.4192 -4.7881
# 2 33.4620 121.6785 50.9264 8.4664 15.7710 -12.9738
# 3 73.1679 50.9264 179.9527 23.9072 23.7810 1.3229
# 4 -6.2700 8.4664 23.9072 52.8286 -4.9783 4.8106
# 5 27.4192 15.7710 23.7810 -4.9783 42.1332 6.8356
# 6 -4.7881 -12.9738 1.3229 4.8106 6.8356 34.0593
#
#
#
# Elastic Compliance Matrix: (Units=1/GPa)
#
#
# Indices 1 2 3 4 5 6 
#
# 1 0.024657 -0.001594 -0.009014 0.005875 -0.010392 0.004465
# 2 -0.001594 0.010351 -0.001707 -0.001761 -0.002828 0.004601
# 3 -0.009014 -0.001707 0.010388 -0.005323 0.000277 -0.001625
# 4 0.005875 -0.001761 -0.005323 0.022930 0.003118 -0.003502
# 5 -0.010392 -0.002828 0.000277 0.003118 0.033338 -0.009680
# 6 0.004465 0.004601 -0.001625 -0.003502 -0.009680 0.034242
#
#
# Mechanical properties :
#
#
# Convention : Reuss Voigt Hill
#
# Bulk Modulus (GPa) = 48.15904 77.79229 62.97567
# Shear Modulus (GPa) = 29.85819 40.96833 35.41326
#
# Velocity S-wave (km/s) = 3.43866 4.02793 3.74490
# Velocity P-wave (km/s) = 5.90235 7.24151 6.60595
#
# Compressibility (1/GPa) = 0.02076453
#
# Stress axis : x y z
#
# Youngs Moduli (GPa) = 40.55703 96.60903 96.26507
#
# Poissons Ratio (x) = 0.15397 0.86777
# Poissons Ratio (y) = 0.06464 0.16437
# Poissons Ratio (z) = 0.36560 0.16496
#
# Static dielectric constant tensor:
#      x y z
#    x 2.076850 -0.034600 -0.020840 
#    y -0.034600 2.188000 -0.077090 
#    z -0.020840 -0.077090 2.043390 
# 
# From -- ./inp_files/43102.got.cif
#   From: 2010.05.17/outbox.cif.g08.bks.cpg/sg2_22_cif.got.tgz:43102.got - 2010.06.03 11:33:40.
