data_PCOD9047944
_publ_section_title
;
Structure prediction by ZEFSAII (Michael W. Deem and Ramdas Pophale) SiO2 
 PCOD9047944
Probable space group: P -1
;
_chemical_formula_sum "Si O2"
_cell_formula_units_Z 16
_cell_length_a 19.771141
_cell_length_b 15.349018
_cell_length_c 5.302760
_cell_angle_alpha 64.197699
_cell_angle_beta 131.349942
_cell_angle_gamma 144.126235
_cell_volume 689.342251
_symmetry_space_group_name_H-M "P -1"
_symmetry_group_IT_number 2
_symmetry_cell_setting 'triclinic'
loop_
_space_group_symop_operation_xyz
x,y,z
-x,-y,-z
loop_
_atom_site_type_symbol
_atom_site_label
_atom_site_fract_x
_atom_site_fract_y
_atom_site_fract_z
Si Si1 0.113135 0.712988 0.601371
Si Si2 0.375797 0.818008 0.371291
Si Si3 0.502583 0.730003 0.586088
Si Si4 0.866099 0.400928 0.610923
Si Si5 0.949203 0.126769 0.712680
Si Si6 0.076550 0.166866 0.482547
Si Si7 0.659759 0.791912 0.410534
Si Si8 0.367809 0.421897 0.607517
O O1 0.148777 0.717883 0.395393
O O2 0.121473 0.828700 0.561834
O O3 0.946965 0.541289 0.441725
O O4 0.239627 0.758337 0.988758
O O5 0.438830 0.783340 0.404650
O O6 0.288750 0.698715 0.544629
O O7 0.500000 0.000000 0.500000
O O8 0.608713 0.805988 0.515745
O O9 0.383973 0.550092 0.452093
O O10 0.580555 0.766255 0.996926
O O11 0.000000 0.500000 0.000000
O O12 0.063704 0.202050 0.682999
O O13 0.827391 0.946447 0.605380
O O14 0.003978 0.169643 0.078804
O O15 0.234334 0.287556 0.621550
O O16 0.000000 0.000000 0.500000
O O17 0.635654 0.656328 0.533870
O O18 0.500000 0.500000 0.000000
#
# Coordination Sequence:
#
# PCOD9047944 Si02
#       8
#     2   2   2   2   2   2   2   2
#     4  10  24  44  71  99 140 194 232 298 356 423
#     4  11  25  42  70 103 147 183 244 298 352 427
#     4  11  26  43  71 104 142 194 237 291 358 426
#     4   9  22  43  65  92 139 179 239 291 354 407
#     4  12  27  43  79 103 147 186 241 289 364 424
#     4  12  27  47  73 109 143 183 239 295 351 430
#     4  11  24  46  69 104 144 186 239 294 360 420
#     4  10  25  47  73 102 146 184 234 292 363 421
#
# _framework density 23.210532000000001
#
# number of rings (size 3 to 8) (size 9 to 14) (size 15 to 20)
#    0.000    1.250    1.250    2.250   10.500    4.500 
#    0.000    0.000    0.000    0.000    0.000    0.000 
#    0.000    0.000    0.000    0.000    0.000    0.000 
#
# Total GULP energy -89326.757273 kJ/mol
# GULP energy per Si atom -5582.922330 kJ/mol
# Density = 2.315770 g / cm^3
# Si number density = 23.210532 Si / 1000 Ang^3
#
#
#
# Elastic Constant Matrix: (Units=GPa)
#
#
# Indices 1 2 3 4 5 6 
#
# 1 146.2180 35.4122 24.9616 -4.2506 9.8822 -0.2443
# 2 35.4122 84.7316 23.7687 22.5844 20.6213 1.6395
# 3 24.9616 23.7687 70.5944 0.4251 8.5004 2.0933
# 4 -4.2506 22.5844 0.4251 32.0107 6.7547 6.5408
# 5 9.8822 20.6213 8.5004 6.7547 32.2021 -1.8372
# 6 -0.2443 1.6395 2.0933 6.5408 -1.8372 50.0315
#
#
#
# Elastic Compliance Matrix: (Units=1/GPa)
#
#
# Indices 1 2 3 4 5 6 
#
# 1 0.008210 -0.003974 -0.001527 0.004072 -0.000444 -0.000315
# 2 -0.003974 0.020049 -0.004373 -0.013196 -0.007642 0.000951
# 3 -0.001527 -0.004373 0.016406 0.003259 -0.001805 -0.001043
# 4 0.004072 -0.013196 0.003259 0.042767 -0.002937 -0.005383
# 5 -0.000444 -0.007642 -0.001805 -0.002937 0.037295 0.002077
# 6 -0.000315 0.000951 -0.001043 -0.005383 0.002077 0.020778
#
#
# Mechanical properties :
#
#
# Convention : Reuss Voigt Hill
#
# Bulk Modulus (GPa) = 40.13478 52.20322 46.16900
# Shear Modulus (GPa) = 28.80845 37.34230 33.07537
#
# Velocity S-wave (km/s) = 3.52686 4.01540 3.77903
# Velocity P-wave (km/s) = 5.82359 6.63611 6.24308
#
# Compressibility (1/GPa) = 0.02491605
#
# Stress axis : x y z
#
# Youngs Moduli (GPa) = 121.80065 49.87848 60.95197
#
# Poissons Ratio (x) = 0.19824 0.09305
# Poissons Ratio (y) = 0.48409 0.26657
# Poissons Ratio (z) = 0.18595 0.21814
#
# Static dielectric constant tensor:
#      x y z
#    x 2.236790 0.235590 -0.348760 
#    y 0.235590 2.129950 -0.237790 
#    z -0.348760 -0.237790 2.181330 
# 
# From -- ./inp_files/110769.got.cif
#   From: 2010.05.17/outbox.cif.g08.bks.cpg/sg2_56_cif.got.tgz:110769.got - 2010.06.03 11:33:40.
