data_PCOD9047275
_publ_section_title
;
Structure prediction by ZEFSAII (Michael W. Deem and Ramdas Pophale) SiO2 
 PCOD9047275
Probable space group: P -1
;
_chemical_formula_sum "Si O2"
_cell_formula_units_Z 15
_cell_length_a 14.498103
_cell_length_b 9.309560
_cell_length_c 9.699206
_cell_angle_alpha 86.308563
_cell_angle_beta 26.561760
_cell_angle_gamma 91.869201
_cell_volume 572.110244
_symmetry_space_group_name_H-M "P -1"
_symmetry_group_IT_number 2
_symmetry_cell_setting 'triclinic'
loop_
_space_group_symop_operation_xyz
x,y,z
-x,-y,-z
loop_
_atom_site_type_symbol
_atom_site_label
_atom_site_fract_x
_atom_site_fract_y
_atom_site_fract_z
Si Si1 0.985567 0.690672 0.630669
Si Si2 0.004711 0.133055 0.114658
Si Si3 0.000000 0.000000 0.500000
Si Si4 0.819136 0.540613 0.513951
Si Si5 0.465787 0.203485 0.367174
Si Si6 0.729684 0.860831 0.645118
Si Si7 0.228470 0.724577 0.816649
Si Si8 0.499727 0.552213 0.280531
O O1 0.001743 0.751425 0.761932
O O2 0.126265 0.569227 0.438071
O O3 0.742222 0.621570 0.943528
O O4 0.047799 0.835302 0.447528
O O5 0.858822 0.177264 0.186740
O O6 0.238956 0.142984 0.744611
O O7 0.922948 0.976543 0.307586
O O8 0.240449 0.070784 0.246649
O O9 0.758527 0.693922 0.622726
O O10 0.635317 0.444277 0.676634
O O11 0.031952 0.600132 0.138119
O O12 0.448826 0.147494 0.234610
O O13 0.654242 0.182938 0.217191
O O14 0.478378 0.378864 0.341953
O O15 0.392407 0.638239 0.532324
#
# Coordination Sequence:
#
# PCOD9047275 Si02
#       8
#     2   2   1   2   2   2   2   2
#     4  11  22  42  69  92 125 171 214 261 313 374
#     4  11  21  38  60  95 142 169 199 250 318 385
#     4  10  26  50  72  78 122 176 216 280 326 348
#     4  11  22  37  67  99 129 166 210 255 316 381
#     4  11  21  34  61  98 134 164 206 253 310 390
#     4  10  24  44  62  92 127 170 220 264 309 369
#     4  12  20  32  62 102 140 168 190 243 326 388
#     4  11  20  35  61 103 134 165 204 249 311 393
#
# _framework density 26.218722
#
# number of rings (size 3 to 8) (size 9 to 14) (size 15 to 20)
#    0.000    1.067    6.667    2.000    0.000    1.067 
#    0.000    3.333    2.933    0.000    0.000    0.000 
#    0.000    0.000    0.000    0.000    0.000    0.000 
#
# Total GULP energy -83725.096682 kJ/mol
# GULP energy per Si atom -5581.673112 kJ/mol
# Density = 2.615905 g / cm^3
# Si number density = 26.218722 Si / 1000 Ang^3
#
#
#
# Elastic Constant Matrix: (Units=GPa)
#
#
# Indices 1 2 3 4 5 6 
#
# 1 160.2315 48.6208 27.5490 10.8457 -52.9630 13.0164
# 2 48.6208 113.0598 56.4527 -16.3960 -7.0088 -6.3293
# 3 27.5490 56.4527 97.0692 -1.5479 -23.3669 -7.5569
# 4 10.8457 -16.3960 -1.5479 32.6681 2.0893 2.8613
# 5 -52.9630 -7.0088 -23.3669 2.0893 46.8359 -11.3540
# 6 13.0164 -6.3293 -7.5569 2.8613 -11.3540 60.3875
#
#
#
# Elastic Compliance Matrix: (Units=1/GPa)
#
#
# Indices 1 2 3 4 5 6 
#
# 1 0.015434 -0.010023 0.006037 -0.011175 0.019607 0.000594
# 2 -0.010023 0.020498 -0.012623 0.014075 -0.015394 -0.000832
# 3 0.006037 -0.012623 0.019914 -0.008712 0.016062 0.003301
# 4 -0.011175 0.014075 -0.008712 0.042300 -0.017364 -0.002475
# 5 0.019607 -0.015394 0.016062 -0.017364 0.051632 0.006701
# 6 0.000594 -0.000832 0.003301 -0.002475 0.006701 0.018135
#
#
# Mechanical properties :
#
#
# Convention : Reuss Voigt Hill
#
# Bulk Modulus (GPa) = 44.19266 70.62283 57.40775
# Shear Modulus (GPa) = 23.96099 43.82750 33.89424
#
# Velocity S-wave (km/s) = 3.02634 4.09297 3.59938
# Velocity P-wave (km/s) = 5.39478 7.02361 6.26237
#
# Compressibility (1/GPa) = 0.02262819
#
# Stress axis : x y z
#
# Youngs Moduli (GPa) = 64.79400 48.78451 50.21585
#
# Poissons Ratio (x) = 0.48898 -0.30316
# Poissons Ratio (y) = 0.64945 0.63385
# Poissons Ratio (z) = -0.39117 0.61579
#
# Static dielectric constant tensor:
#      x y z
#    x 2.290410 0.037580 0.047490 
#    y 0.037580 2.030860 0.045750 
#    z 0.047490 0.045750 2.063890 
# 
# From -- ./inp_files/273121.got.cif
#   From: 2010.05.17/outbox.cif.g08.bks.cpg/sg2_137_cif.got.tgz:273121.got - 2010.06.03 11:33:40.
