data_PCOD9047028
_publ_section_title
;
Structure prediction by ZEFSAII (Michael W. Deem and Ramdas Pophale) SiO2 
 PCOD9047028
Probable space group: P -1
;
_chemical_formula_sum "Si O2"
_cell_formula_units_Z 16
_cell_length_a 13.563999
_cell_length_b 14.019671
_cell_length_c 9.110137
_cell_angle_alpha 52.014856
_cell_angle_beta 56.909541
_cell_angle_gamma 32.123657
_cell_volume 724.801868
_symmetry_space_group_name_H-M "P -1"
_symmetry_group_IT_number 2
_symmetry_cell_setting 'triclinic'
loop_
_space_group_symop_operation_xyz
x,y,z
-x,-y,-z
loop_
_atom_site_type_symbol
_atom_site_label
_atom_site_fract_x
_atom_site_fract_y
_atom_site_fract_z
Si Si1 0.592832 0.319842 0.501490
Si Si2 0.457075 0.800771 0.072575
Si Si3 0.066339 0.337813 0.497213
Si Si4 0.107272 0.173375 0.914357
Si Si5 0.796764 0.359297 0.613034
Si Si6 0.663925 0.285938 0.008921
Si Si7 0.133767 0.438007 0.082896
Si Si8 0.930267 0.056591 0.266131
O O1 0.500000 0.500000 0.500000
O O2 0.419347 0.438183 0.423087
O O3 0.782572 0.199071 0.380308
O O4 0.610168 0.200407 0.717799
O O5 0.418141 0.736608 0.029877
O O6 0.671567 0.664215 0.035134
O O7 0.316545 0.020788 0.947113
O O8 0.126346 0.192343 0.708908
O O9 0.179826 0.300894 0.302240
O O10 0.000000 0.500000 0.500000
O O11 0.896694 0.406384 0.491560
O O12 0.972595 0.372370 0.919848
O O13 0.034964 0.095394 0.089909
O O14 0.799769 0.276558 0.835139
O O15 0.921759 0.165711 0.599100
O O16 0.788228 0.127690 0.184560
O O17 0.500000 0.500000 0.000000
O O18 0.000000 0.500000 0.000000
#
# Coordination Sequence:
#
# PCOD9047028 Si02
#       8
#     2   2   2   2   2   2   2   2
#     4  12  24  40  61 102 140 178 216 271 343 412
#     4  12  26  43  68 100 136 175 229 278 335 398
#     4  10  24  43  70  95 131 184 226 271 326 399
#     4  11  23  45  69  99 134 173 225 282 330 399
#     4  12  23  42  69  99 140 170 226 275 341 401
#     4  12  21  40  68 102 135 175 211 283 343 397
#     4  11  26  48  69  93 134 185 226 273 330 394
#     4  12  24  40  71 104 140 174 215 282 351 396
#
# _framework density 22.074998999999998
#
# number of rings (size 3 to 8) (size 9 to 14) (size 15 to 20)
#    0.000    0.500    5.000    3.375    1.750    5.000 
#    0.000    2.500    0.000    0.000    0.000    0.000 
#    0.000    0.000    0.000    0.000    0.000    0.000 
#
# Total GULP energy -89207.178826 kJ/mol
# GULP energy per Si atom -5575.448677 kJ/mol
# Density = 2.202476 g / cm^3
# Si number density = 22.074999 Si / 1000 Ang^3
#
#
#
# Elastic Constant Matrix: (Units=GPa)
#
#
# Indices 1 2 3 4 5 6 
#
# 1 73.1582 19.3097 35.6637 -7.0292 -0.0541 -5.3781
# 2 19.3097 113.7039 22.4049 5.2037 2.1902 -15.0207
# 3 35.6637 22.4049 111.4614 5.5745 13.9963 -3.1550
# 4 -7.0292 5.2037 5.5745 23.6705 -0.5374 5.6869
# 5 -0.0541 2.1902 13.9963 -0.5374 31.4103 -10.4104
# 6 -5.3781 -15.0207 -3.1550 5.6869 -10.4104 27.2132
#
#
#
# Elastic Compliance Matrix: (Units=1/GPa)
#
#
# Indices 1 2 3 4 5 6 
#
# 1 0.017952 -0.002017 -0.006082 0.006892 0.003545 0.001645
# 2 -0.002017 0.010458 -0.001311 -0.004197 0.002063 0.006888
# 3 -0.006082 -0.001311 0.012083 -0.004022 -0.006032 -0.001992
# 4 0.006892 -0.004197 -0.004022 0.049041 -0.001067 -0.012077
# 5 0.003545 0.002063 -0.006032 -0.001067 0.039876 0.016617
# 6 0.001645 0.006888 -0.001992 -0.012077 0.016617 0.049524
#
#
# Mechanical properties :
#
#
# Convention : Reuss Voigt Hill
#
# Bulk Modulus (GPa) = 46.13754 50.34222 48.23988
# Shear Modulus (GPa) = 24.39293 31.18848 27.79070
#
# Velocity S-wave (km/s) = 3.32776 3.76286 3.55198
# Velocity P-wave (km/s) = 5.97587 6.46014 6.22272
#
# Compressibility (1/GPa) = 0.02167433
#
# Stress axis : x y z
#
# Youngs Moduli (GPa) = 55.70455 95.62191 82.75761
#
# Poissons Ratio (x) = 0.19283 0.50332
# Poissons Ratio (y) = 0.11233 0.10850
# Poissons Ratio (z) = 0.33879 0.12536
#
# Static dielectric constant tensor:
#      x y z
#    x 1.953360 0.016040 0.019350 
#    y 0.016040 1.948960 0.067100 
#    z 0.019350 0.067100 1.894860 
# 
# From -- ./inp_files/314588.got.cif
#   From: 2010.05.17/outbox.cif.g08.bks.cpg/sg2_158_cif.got.tgz:314588.got - 2010.06.03 11:33:40.
