data_PCOD9047383
_publ_section_title
;
Structure prediction by ZEFSAII (Michael W. Deem and Ramdas Pophale) SiO2 
 PCOD9047383
Probable space group: P -1
;
_chemical_formula_sum "Si O2"
_cell_formula_units_Z 16
_cell_length_a 6.324474
_cell_length_b 16.527022
_cell_length_c 7.727556
_cell_angle_alpha 105.342592
_cell_angle_beta 62.583931
_cell_angle_gamma 95.711441
_cell_volume 691.214379
_symmetry_space_group_name_H-M "P -1"
_symmetry_group_IT_number 2
_symmetry_cell_setting 'triclinic'
loop_
_space_group_symop_operation_xyz
x,y,z
-x,-y,-z
loop_
_atom_site_type_symbol
_atom_site_label
_atom_site_fract_x
_atom_site_fract_y
_atom_site_fract_z
Si Si1 0.614195 0.011523 0.700707
Si Si2 0.883529 0.603979 0.776574
Si Si3 0.234127 0.584478 0.303765
Si Si4 0.204995 0.085802 0.103975
Si Si5 0.700716 0.118489 0.423182
Si Si6 0.069099 0.688231 0.088520
Si Si7 0.450329 0.258047 0.179018
Si Si8 0.443268 0.288478 0.599694
O O1 0.757490 0.070501 0.553104
O O2 0.745215 0.986761 0.813787
O O3 0.530248 0.926995 0.590779
O O4 0.362871 0.059405 0.865609
O O5 0.761888 0.514489 0.786955
O O6 0.689745 0.677201 0.855076
O O7 0.055492 0.600458 0.542175
O O8 0.030569 0.627722 0.904341
O O9 0.479553 0.624949 0.294264
O O10 0.139902 0.633586 0.198561
O O11 0.320210 0.170628 0.177253
O O12 0.924870 0.104509 0.203941
O O13 0.636026 0.215467 0.531621
O O14 0.817464 0.733466 0.249131
O O15 0.280084 0.749224 0.993574
O O16 0.444677 0.294067 0.395332
#
# Coordination Sequence:
#
# PCOD9047383 Si02
#       8
#     2   2   2   2   2   2   2   2
#     4  10  24  44  66 104 130 178 228 282 348 408
#     4  11  25  47  74 104 140 185 236 291 348 411
#     4  11  25  47  74 104 140 185 236 291 348 411
#     4  11  24  44  70  98 138 177 228 285 342 410
#     4  11  24  44  70  98 138 177 228 285 342 410
#     4  12  27  46  72 102 140 192 234 284 350 412
#     4  12  26  45  70 104 143 186 232 287 347 418
#     4  12  26  45  70 104 143 186 232 287 347 418
#
# _framework density 23.147663999999999
#
# number of rings (size 3 to 8) (size 9 to 14) (size 15 to 20)
#    0.000    0.750    3.750    2.625    3.500    3.500 
#    9.000    0.000    0.000    0.000    0.000    0.000 
#    0.000    0.000    0.000    0.000    0.000    0.000 
#
# Total GULP energy -89624.380492 kJ/mol
# GULP energy per Si atom -5601.523781 kJ/mol
# Density = 2.309498 g / cm^3
# Si number density = 23.147664 Si / 1000 Ang^3
#
#
#
# Elastic Constant Matrix: (Units=GPa)
#
#
# Indices 1 2 3 4 5 6 
#
# 1 62.6134 14.2907 18.5790 -10.5794 7.7781 5.4787
# 2 14.2907 41.6175 -1.8759 -5.6324 20.9248 -10.7930
# 3 18.5790 -1.8759 92.9884 -12.7290 0.7237 -9.4362
# 4 -10.5794 -5.6324 -12.7290 7.2411 15.1015 -8.1519
# 5 7.7781 20.9248 0.7237 15.1015 37.0038 10.6801
# 6 5.4787 -10.7930 -9.4362 -8.1519 10.6801 14.6400
#
#
#
# Elastic Compliance Matrix: (Units=1/GPa)
#
#
# Indices 1 2 3 4 5 6 
#
# 1 0.021833 -0.008043 -0.004055 0.010578 -0.001462 -0.009757
# 2 -0.008043 0.016475 -0.003179 -0.030214 0.007398 -0.009114
# 3 -0.004055 -0.003179 0.010115 -0.007445 0.006389 -0.003113
# 4 0.010578 -0.030214 -0.007445 0.003607 0.027757 -0.049273
# 5 -0.001462 0.007398 0.006389 0.027757 0.005465 0.021588
# 6 -0.009757 -0.009114 -0.003113 -0.049273 0.021588 0.020047
#
#
# Mechanical properties :
#
#
# Convention : Reuss Voigt Hill
#
# Bulk Modulus (GPa) = 55.96716 28.80077 42.38397
# Shear Modulus (GPa) = 43.83980 22.85867 33.34924
#
# Velocity S-wave (km/s) = 4.35664 3.14588 3.79980
# Velocity P-wave (km/s) = 7.03832 5.06603 6.13199
#
# Compressibility (1/GPa) = 0.01786762
#
# Stress axis : x y z
#
# Youngs Moduli (GPa) = 45.80262 60.69906 98.85995
#
# Poissons Ratio (x) = 0.48823 0.40090
# Poissons Ratio (y) = 0.36841 0.31427
# Poissons Ratio (z) = 0.18574 0.19296
#
# Static dielectric constant tensor:
#      x y z
#    x 1.882440 -0.001060 -0.014600 
#    y -0.001060 1.812520 -0.008870 
#    z -0.014600 -0.008870 1.873950 
# 
# From -- ./inp_files/137787.got.cif
#   From: 2010.05.17/outbox.cif.g08.bks.cpg/sg2_69_cif.got.tgz:137787.got - 2010.06.03 11:33:40.
