data_PCOD9047612
_publ_section_title
;
Structure prediction by ZEFSAII (Michael W. Deem and Ramdas Pophale) SiO2 
 PCOD9047612
Probable space group: P -1
;
_chemical_formula_sum "Si O2"
_cell_formula_units_Z 15
_cell_length_a 6.352958
_cell_length_b 7.240004
_cell_length_c 16.460479
_cell_angle_alpha 76.100070
_cell_angle_beta 126.539780
_cell_angle_gamma 101.719953
_cell_volume 588.724154
_symmetry_space_group_name_H-M "P -1"
_symmetry_group_IT_number 2
_symmetry_cell_setting 'triclinic'
loop_
_space_group_symop_operation_xyz
x,y,z
-x,-y,-z
loop_
_atom_site_type_symbol
_atom_site_label
_atom_site_fract_x
_atom_site_fract_y
_atom_site_fract_z
Si Si1 0.158561 0.387516 0.835173
Si Si2 0.743685 0.376546 0.333523
Si Si3 0.334635 0.297901 0.481384
Si Si4 0.708348 0.953449 0.191264
Si Si5 0.727935 0.841370 0.701852
Si Si6 0.465051 0.717493 0.307859
Si Si7 0.500000 0.000000 0.000000
Si Si8 0.090770 0.641756 0.933169
O O1 0.845538 0.331889 0.764306
O O2 0.234098 0.519642 0.760142
O O3 0.291983 0.185363 0.876325
O O4 0.231312 0.500663 0.919907
O O5 0.555854 0.184230 0.316779
O O6 0.621293 0.528959 0.348663
O O7 0.034199 0.329336 0.428737
O O8 0.500000 0.500000 0.500000
O O9 0.336515 0.212385 0.401138
O O10 0.467499 0.194475 0.597313
O O11 0.575820 0.849617 0.246962
O O12 0.014395 0.010471 0.267491
O O13 0.520084 0.091523 0.091389
O O14 0.866433 0.700794 0.811832
O O15 0.232054 0.839979 0.976094
O O16 0.000000 0.500000 0.000000
#
# Coordination Sequence:
#
# PCOD9047612 Si02
#       8
#     2   2   2   2   2   2   1   2
#     4  11  22  43  68  99 129 177 220 269 337 398
#     4  11  20  38  68  95 131 175 214 275 323 394
#     4  12  21  37  67 100 129 175 226 264 331 397
#     4  10  26  45  65  96 137 172 221 280 335 392
#     4  11  24  43  61 100 136 169 224 278 326 401
#     4  11  22  40  67  96 134 172 224 271 322 400
#     4  10  24  44  68  96 132 172 218 286 328 400
#     4  11  22  45  69  95 134 171 226 281 335 399
#
# _framework density 25.478828
#
# number of rings (size 3 to 8) (size 9 to 14) (size 15 to 20)
#    0.000    1.067    5.333    1.200    1.867    2.133 
#    2.400    4.667    0.000    0.000    0.000    0.000 
#    0.000    0.000    0.000    0.000    0.000    0.000 
#
# Total GULP energy -83556.596870 kJ/mol
# GULP energy per Si atom -5570.439791 kJ/mol
# Density = 2.542084 g / cm^3
# Si number density = 25.478828 Si / 1000 Ang^3
#
#
#
# Elastic Constant Matrix: (Units=GPa)
#
#
# Indices 1 2 3 4 5 6 
#
# 1 130.7671 49.2886 69.4045 12.1484 7.7799 47.9111
# 2 49.2886 130.1120 43.9879 8.8200 -13.3390 45.2162
# 3 69.4045 43.9879 131.7261 18.0615 -0.4919 35.1189
# 4 12.1484 8.8200 18.0615 38.4156 7.0783 -15.3217
# 5 7.7799 -13.3390 -0.4919 7.0783 53.9386 -1.5965
# 6 47.9111 45.2162 35.1189 -15.3217 -1.5965 51.2719
#
#
#
# Elastic Compliance Matrix: (Units=1/GPa)
#
#
# Indices 1 2 3 4 5 6 
#
# 1 0.016257 0.001831 -0.002702 -0.011457 -0.000958 -0.018409
# 2 0.001831 0.014533 0.000966 -0.012707 0.004448 -0.018848
# 3 -0.002702 0.000966 0.012595 -0.009485 0.001700 -0.009736
# 4 -0.011457 -0.012707 -0.009485 0.056397 -0.007645 0.045024
# 5 -0.000958 0.004448 0.001700 -0.007645 0.020624 -0.005834
# 6 -0.018409 -0.018848 -0.009736 0.045024 -0.005834 0.073270
#
#
# Mechanical properties :
#
#
# Convention : Reuss Voigt Hill
#
# Bulk Modulus (GPa) = 22.94868 79.77413 51.36140
# Shear Modulus (GPa) = 24.03717 44.05349 34.04533
#
# Velocity S-wave (km/s) = 3.07484 4.16266 3.65940
# Velocity P-wave (km/s) = 4.65110 7.38117 6.16905
#
# Compressibility (1/GPa) = 0.04357548
#
# Stress axis : x y z
#
# Youngs Moduli (GPa) = 61.51071 68.80996 79.39648
#
# Poissons Ratio (x) = -0.12598 0.21451
# Poissons Ratio (y) = -0.11262 -0.07670
# Poissons Ratio (z) = 0.16619 -0.06648
#
# Static dielectric constant tensor:
#      x y z
#    x 2.057920 -0.157440 0.082610 
#    y -0.157440 2.495220 -0.287390 
#    z 0.082610 -0.287390 2.303380 
# 
# From -- ./inp_files/34800.got.cif
#   From: 2010.05.17/outbox.cif.g08.bks.cpg/sg2_18_cif.got.tgz:34800.got - 2010.06.03 11:33:40.
