data_PCOD9047975
_publ_section_title
;
Structure prediction by ZEFSAII (Michael W. Deem and Ramdas Pophale) SiO2 
 PCOD9047975
Probable space group: P -1
;
_chemical_formula_sum "Si O2"
_cell_formula_units_Z 14
_cell_length_a 5.359637
_cell_length_b 11.964828
_cell_length_c 30.148298
_cell_angle_alpha 159.097623
_cell_angle_beta 71.165808
_cell_angle_gamma 109.527363
_cell_volume 649.769792
_symmetry_space_group_name_H-M "P -1"
_symmetry_group_IT_number 2
_symmetry_cell_setting 'triclinic'
loop_
_space_group_symop_operation_xyz
x,y,z
-x,-y,-z
loop_
_atom_site_type_symbol
_atom_site_label
_atom_site_fract_x
_atom_site_fract_y
_atom_site_fract_z
Si Si1 0.649242 0.637922 0.677000
Si Si2 0.174433 0.798879 0.299618
Si Si3 0.448092 0.687130 0.939373
Si Si4 0.110760 0.245290 0.547287
Si Si5 0.737928 0.677089 0.581373
Si Si6 0.697440 0.354243 0.968653
Si Si7 0.804729 0.267170 0.111026
O O1 0.351563 0.472568 0.638460
O O2 0.669200 0.694320 0.643483
O O3 0.877503 0.430358 0.606460
O O4 0.685552 0.979756 0.823802
O O5 0.370849 0.534132 0.180701
O O6 0.900055 0.589231 0.249060
O O7 0.235374 0.042275 0.425942
O O8 0.182114 0.997209 0.327684
O O9 0.189608 0.643137 0.907942
O O10 0.404377 0.584425 0.953450
O O11 0.546044 0.060667 0.067759
O O12 0.000000 0.000000 0.500000
O O13 0.500000 0.500000 0.500000
O O14 0.000000 0.500000 0.500000
O O15 0.500000 0.500000 0.000000
O O16 0.000000 0.500000 0.000000
O O17 0.000000 0.000000 0.000000
#
# Coordination Sequence:
#
# PCOD9047975 Si02
#       7
#     2   2   2   2   2   2   2
#     4  12  26  50  70 109 145 189 239 297 355 430
#     4  11  24  42  75 101 141 182 240 291 361 417
#     4  10  24  44  72 103 139 184 243 298 352 415
#     4  12  28  47  73 108 147 193 235 291 367 428
#     4  12  24  43  70 101 140 177 235 284 343 419
#     4  12  29  49  75 105 146 194 239 293 365 425
#     4   9  22  41  68 103 133 180 239 295 349 407
#
# _framework density 21.546092999999999
#
# number of rings (size 3 to 8) (size 9 to 14) (size 15 to 20)
#    0.000    0.857    2.857    2.143   12.000    3.429 
#    0.000    0.000    0.000    0.000    0.000    0.000 
#    0.000    0.000    0.000    0.000    0.000    0.000 
#
# Total GULP energy -78104.166593 kJ/mol
# GULP energy per Si atom -5578.869042 kJ/mol
# Density = 2.149705 g / cm^3
# Si number density = 21.546093 Si / 1000 Ang^3
#
#
#
# Elastic Constant Matrix: (Units=GPa)
#
#
# Indices 1 2 3 4 5 6 
#
# 1 133.5563 40.0883 51.2670 14.5106 5.4065 -7.8258
# 2 40.0883 121.5727 31.5338 7.7146 -6.6107 -12.0315
# 3 51.2670 31.5338 112.9188 20.4338 6.4274 1.4006
# 4 14.5106 7.7146 20.4338 41.4299 3.6922 5.9096
# 5 5.4065 -6.6107 6.4274 3.6922 33.2323 15.5957
# 6 -7.8258 -12.0315 1.4006 5.9096 15.5957 40.2006
#
#
#
# Elastic Compliance Matrix: (Units=1/GPa)
#
#
# Indices 1 2 3 4 5 6 
#
# 1 0.009885 -0.002129 -0.003521 -0.001481 -0.002384 0.002552
# 2 -0.002129 0.009714 -0.001756 -0.000634 0.001769 0.001961
# 3 -0.003521 -0.001756 0.011762 -0.004048 -0.001369 -0.000495
# 4 -0.001481 -0.000634 -0.004048 0.027397 -0.000120 -0.004318
# 5 -0.002384 0.001769 -0.001369 -0.000120 0.037959 -0.014595
# 6 0.002552 0.001961 -0.000495 -0.004318 -0.014595 0.032273
#
#
# Mechanical properties :
#
#
# Convention : Reuss Voigt Hill
#
# Bulk Modulus (GPa) = 60.43456 68.20290 64.31873
# Shear Modulus (GPa) = 33.48541 39.31648 36.40094
#
# Velocity S-wave (km/s) = 3.94652 4.27636 4.11475
# Velocity P-wave (km/s) = 6.99118 7.49040 7.24509
#
# Compressibility (1/GPa) = 0.01654682
#
# Stress axis : x y z
#
# Youngs Moduli (GPa) = 101.16038 102.94782 85.02120
#
# Poissons Ratio (x) = 0.21921 0.29940
# Poissons Ratio (y) = 0.21540 0.14931
# Poissons Ratio (z) = 0.35623 0.18079
#
# Static dielectric constant tensor:
#      x y z
#    x 1.644860 0.035180 0.057260 
#    y 0.035180 1.861670 -0.053750 
#    z 0.057260 -0.053750 1.833380 
# 
# From -- ./inp_files/123488.got.cif
#   From: 2010.05.17/outbox.cif.g08.bks.cpg/sg2_62_cif.got.tgz:123488.got - 2010.06.03 11:33:40.
