data_PCOD9047305
_publ_section_title
;
Structure prediction by ZEFSAII (Michael W. Deem and Ramdas Pophale) SiO2 
 PCOD9047305
Probable space group: P -1
;
_chemical_formula_sum "Si O2"
_cell_formula_units_Z 16
_cell_length_a 20.953954
_cell_length_b 17.503328
_cell_length_c 11.092992
_cell_angle_alpha 145.294864
_cell_angle_beta 148.174521
_cell_angle_gamma 20.594492
_cell_volume 746.790854
_symmetry_space_group_name_H-M "P -1"
_symmetry_group_IT_number 2
_symmetry_cell_setting 'triclinic'
loop_
_space_group_symop_operation_xyz
x,y,z
-x,-y,-z
loop_
_atom_site_type_symbol
_atom_site_label
_atom_site_fract_x
_atom_site_fract_y
_atom_site_fract_z
Si Si1 0.802103 0.941257 0.797802
Si Si2 0.959149 0.909131 0.403649
Si Si3 0.938837 0.909775 0.629240
Si Si4 0.004446 0.388516 0.530441
Si Si5 0.505180 0.339558 0.262431
Si Si6 0.902133 0.390964 0.967987
Si Si7 0.720284 0.259301 0.902218
Si Si8 0.563996 0.666805 0.136032
O O1 0.869679 0.765677 0.585919
O O2 0.993661 0.793437 0.000047
O O3 0.732274 0.124754 0.838220
O O4 0.617033 0.089015 0.783055
O O5 0.050506 0.840241 0.593600
O O6 0.731292 0.096930 0.320943
O O7 0.000000 0.000000 0.500000
O O8 0.021261 0.727463 0.190556
O O9 0.911872 0.776838 0.439988
O O10 0.752211 0.165847 0.699774
O O11 0.090293 0.816824 0.858226
O O12 0.772157 0.557836 0.356118
O O13 0.033242 0.517162 0.775451
O O14 0.500000 0.500000 0.500000
O O15 0.332892 0.419247 0.163226
O O16 0.453341 0.346630 0.050806
O O17 0.556008 0.518834 0.980480
#
# Coordination Sequence:
#
# PCOD9047305 Si02
#       8
#     2   2   2   2   2   2   2   2
#     4  11  21  38  63  95 127 164 213 260 319 373
#     4  12  24  42  65  95 127 167 211 259 319 384
#     4   9  20  39  64  90 128 170 209 257 317 374
#     4  10  24  44  64  90 129 171 211 267 313 370
#     4  12  25  39  62  96 129 163 208 261 319 379
#     4  12  25  42  64  93 130 171 212 259 316 377
#     4   9  19  36  63  93 129 160 208 268 316 367
#     4  11  22  38  64  97 125 163 214 263 319 377
#
# _framework density 21.425008999999999
#
# number of rings (size 3 to 8) (size 9 to 14) (size 15 to 20)
#    0.000    1.250    3.750    3.000    0.000    2.000 
#    0.000    3.125    0.000    0.000    0.000    0.000 
#    0.000    0.000    0.000    0.000    0.000    0.000 
#
# Total GULP energy -89215.635372 kJ/mol
# GULP energy per Si atom -5575.977211 kJ/mol
# Density = 2.137624 g / cm^3
# Si number density = 21.425009 Si / 1000 Ang^3
#
#
#
# Elastic Constant Matrix: (Units=GPa)
#
#
# Indices 1 2 3 4 5 6 
#
# 1 77.2583 19.3379 41.9977 21.3862 -17.7911 -14.6817
# 2 19.3379 84.8007 26.0833 17.7402 -2.9337 -37.8855
# 3 41.9977 26.0833 105.7631 23.4018 2.6668 -20.2405
# 4 21.3862 17.7402 23.4018 31.9415 -8.1478 -5.2664
# 5 -17.7911 -2.9337 2.6668 -8.1478 30.4506 7.9524
# 6 -14.6817 -37.8855 -20.2405 -5.2664 7.9524 38.0114
#
#
#
# Elastic Compliance Matrix: (Units=1/GPa)
#
#
# Indices 1 2 3 4 5 6 
#
# 1 0.021342 -0.000997 -0.007274 -0.005437 0.011499 0.000217
# 2 -0.000997 0.025440 0.002216 -0.012973 -0.008629 0.026159
# 3 -0.007274 0.002216 0.015692 -0.009006 -0.010070 0.008614
# 4 -0.005437 -0.012973 -0.009006 0.049657 0.013783 -0.015830
# 5 0.011499 -0.008629 -0.010070 0.013783 0.047902 -0.017633
# 6 0.000217 0.026159 0.008614 -0.015830 -0.017633 0.058546
#
#
# Mechanical properties :
#
#
# Convention : Reuss Voigt Hill
#
# Bulk Modulus (GPa) = 19.85555 49.18444 34.52000
# Shear Modulus (GPa) = 20.20393 32.10758 26.15575
#
# Velocity S-wave (km/s) = 3.07417 3.87538 3.49779
# Velocity P-wave (km/s) = 4.67849 6.55981 5.69734
#
# Compressibility (1/GPa) = 0.05036375
#
# Stress axis : x y z
#
# Youngs Moduli (GPa) = 46.85698 39.30796 63.72630
#
# Poissons Ratio (x) = 0.03920 0.46354
# Poissons Ratio (y) = 0.04673 -0.14123
# Poissons Ratio (z) = 0.34084 -0.08711
#
# Static dielectric constant tensor:
#      x y z
#    x 1.884960 0.097260 -0.071970 
#    y 0.097260 1.930590 -0.074960 
#    z -0.071970 -0.074960 1.865250 
# 
# From -- ./inp_files/475561.got.cif
#   From: 2010.05.17/outbox.cif.g08.bks.cpg/sg2_238_cif.got.tgz:475561.got - 2010.06.03 11:33:40.
