data_PCOD9047361
_publ_section_title
;
Structure prediction by ZEFSAII (Michael W. Deem and Ramdas Pophale) SiO2 
 PCOD9047361
Probable space group: P -1
;
_chemical_formula_sum "Si O2"
_cell_formula_units_Z 14
_cell_length_a 21.027449
_cell_length_b 5.086952
_cell_length_c 11.612863
_cell_angle_alpha 79.354199
_cell_angle_beta 29.923377
_cell_angle_gamma 85.641329
_cell_volume 599.954465
_symmetry_space_group_name_H-M "P -1"
_symmetry_group_IT_number 2
_symmetry_cell_setting 'triclinic'
loop_
_space_group_symop_operation_xyz
x,y,z
-x,-y,-z
loop_
_atom_site_type_symbol
_atom_site_label
_atom_site_fract_x
_atom_site_fract_y
_atom_site_fract_z
Si Si1 0.163325 0.708732 0.531616
Si Si2 0.751724 0.988602 0.195644
Si Si3 0.536657 0.140345 0.295862
Si Si4 0.114293 0.416261 0.131913
Si Si5 0.410253 0.573219 0.033382
Si Si6 0.308906 0.298399 0.994399
Si Si7 0.858449 0.869979 0.276465
O O1 0.292773 0.700123 0.258823
O O2 0.168704 0.977273 0.577048
O O3 0.149543 0.447827 0.659862
O O4 0.036457 0.666813 0.653200
O O5 0.838098 0.266194 0.993565
O O6 0.771661 0.942240 0.302878
O O7 0.598228 0.983294 0.424266
O O8 0.804969 0.744281 0.068815
O O9 0.507490 0.223873 0.202468
O O10 0.601469 0.431806 0.220224
O O11 0.644531 0.955082 0.117187
O O12 0.163826 0.330334 0.185501
O O13 0.343966 0.330553 0.071522
O O14 0.500000 0.500000 0.000000
O O15 0.000000 0.000000 0.000000
#
# Coordination Sequence:
#
# PCOD9047361 Si02
#       7
#     2   2   2   2   2   2   2
#     4  12  25  42  71  97 134 173 214 273 325 387
#     4  12  24  40  70  95 140 167 219 272 328 387
#     4  10  24  44  65  99 126 180 212 275 315 385
#     4  12  24  42  66 101 129 180 210 269 335 382
#     4  10  26  47  69  96 129 173 223 267 326 382
#     4  10  25  44  64  99 133 168 229 259 324 392
#     4  12  23  42  64 104 131 165 219 266 331 386
#
# _framework density 23.335101000000002
#
# number of rings (size 3 to 8) (size 9 to 14) (size 15 to 20)
#    0.857    0.000    2.857    3.857    4.000    4.571 
#    0.000    0.714    0.000    0.000    0.000    0.000 
#    0.000    0.000    0.000    0.000    0.000    0.000 
#
# Total GULP energy -78296.090518 kJ/mol
# GULP energy per Si atom -5592.577894 kJ/mol
# Density = 2.328199 g / cm^3
# Si number density = 23.335101 Si / 1000 Ang^3
#
#
#
# Elastic Constant Matrix: (Units=GPa)
#
#
# Indices 1 2 3 4 5 6 
#
# 1 145.2069 3.5497 15.4961 5.0614 -30.9346 1.3134
# 2 3.5497 84.7262 -8.4283 10.8654 3.6019 -7.1286
# 3 15.4961 -8.4283 93.9274 15.6160 -11.2241 8.1229
# 4 5.0614 10.8654 15.6160 23.7064 -5.1116 5.6546
# 5 -30.9346 3.6019 -11.2241 -5.1116 46.6163 4.4080
# 6 1.3134 -7.1286 8.1229 5.6546 4.4080 27.5236
#
#
#
# Elastic Compliance Matrix: (Units=1/GPa)
#
#
# Indices 1 2 3 4 5 6 
#
# 1 0.008149 -0.000854 -0.000754 0.000669 0.005498 -0.001406
# 2 -0.000854 0.013826 0.002170 -0.009431 -0.002652 0.005343
# 3 -0.000754 0.002170 0.012711 -0.008457 0.001624 -0.001676
# 4 0.000669 -0.009431 -0.008457 0.056340 0.006505 -0.012595
# 5 0.005498 -0.002652 0.001624 0.006505 0.027081 -0.007102
# 6 -0.001406 0.005343 -0.001676 -0.012595 -0.007102 0.042003
#
#
# Mechanical properties :
#
#
# Convention : Reuss Voigt Hill
#
# Bulk Modulus (GPa) = 27.92456 38.34392 33.13424
# Shear Modulus (GPa) = 29.25326 40.45214 34.85270
#
# Velocity S-wave (km/s) = 3.54449 4.16809 3.86887
# Velocity P-wave (km/s) = 5.36133 6.29535 5.84702
#
# Compressibility (1/GPa) = 0.03581077
#
# Stress axis : x y z
#
# Youngs Moduli (GPa) = 122.71761 72.32681 78.67477
#
# Poissons Ratio (x) = 0.06178 0.05929
# Poissons Ratio (y) = 0.10482 -0.17076
# Poissons Ratio (z) = 0.09249 -0.15698
#
# Static dielectric constant tensor:
#      x y z
#    x 2.090910 -0.006120 0.000920 
#    y -0.006120 1.851710 -0.037160 
#    z 0.000920 -0.037160 1.817220 
# 
# From -- ./inp_files/467741.got.cif
#   From: 2010.05.17/outbox.cif.g08.bks.cpg/sg2_234_cif.got.tgz:467741.got - 2010.06.03 11:33:40.
