data_PCOD9047491
_publ_section_title
;
Structure prediction by ZEFSAII (Michael W. Deem and Ramdas Pophale) SiO2 
 PCOD9047491
Probable space group: P -1
;
_chemical_formula_sum "Si O2"
_cell_formula_units_Z 16
_cell_length_a 19.116725
_cell_length_b 5.405038
_cell_length_c 8.699135
_cell_angle_alpha 120.139929
_cell_angle_beta 64.865360
_cell_angle_gamma 103.057442
_cell_volume 703.633417
_symmetry_space_group_name_H-M "P -1"
_symmetry_group_IT_number 2
_symmetry_cell_setting 'triclinic'
loop_
_space_group_symop_operation_xyz
x,y,z
-x,-y,-z
loop_
_atom_site_type_symbol
_atom_site_label
_atom_site_fract_x
_atom_site_fract_y
_atom_site_fract_z
Si Si1 0.699961 0.622723 0.796778
Si Si2 0.421537 0.276537 0.299004
Si Si3 0.569343 0.319291 0.020923
Si Si4 0.856236 0.525588 0.557866
Si Si5 0.917019 0.045821 0.519449
Si Si6 0.082146 0.944702 0.829924
Si Si7 0.754628 0.931280 0.138711
Si Si8 0.661187 0.448529 0.268293
O O1 0.660188 0.740188 0.718949
O O2 0.767784 0.413637 0.613209
O O3 0.628047 0.505567 0.924581
O O4 0.745608 0.811869 0.937396
O O5 0.489243 0.446023 0.196957
O O6 0.403294 0.404832 0.520082
O O7 0.449787 0.953223 0.153639
O O8 0.618025 0.268451 0.117129
O O9 0.896718 0.381650 0.622845
O O10 0.902263 0.386492 0.329479
O O11 0.860175 0.859633 0.620731
O O12 0.914623 0.938044 0.311512
O O13 0.000000 0.000000 0.500000
O O14 0.156269 0.045431 0.888692
O O15 0.000000 0.000000 0.000000
O O16 0.711527 0.235278 0.259109
O O17 0.711471 0.702559 0.220250
#
# Coordination Sequence:
#
# PCOD9047491 Si02
#       8
#     2   2   2   2   2   2   2   2
#     4  11  24  43  70  96 143 176 235 282 342 407
#     4  11  23  41  75  93 144 181 231 285 346 405
#     4  10  24  45  62 111 132 185 230 285 344 411
#     4  10  25  41  71  98 130 178 226 271 344 407
#     4  10  24  44  67  97 131 167 229 273 344 410
#     4  10  26  45  66  99 134 173 225 279 345 402
#     4  11  26  45  67 102 136 179 227 286 340 411
#     4  11  25  47  70 101 140 181 231 281 345 402
#
# _framework density 22.739111999999999
#
# number of rings (size 3 to 8) (size 9 to 14) (size 15 to 20)
#    0.750    0.750    1.250    1.875   10.500    0.500 
#    0.000    1.875    0.000    0.000    0.000    0.000 
#    0.000    0.000    0.000    0.000    0.000    0.000 
#
# Total GULP energy -89157.461381 kJ/mol
# GULP energy per Si atom -5572.341336 kJ/mol
# Density = 2.268736 g / cm^3
# Si number density = 22.739112 Si / 1000 Ang^3
#
#
#
# Elastic Constant Matrix: (Units=GPa)
#
#
# Indices 1 2 3 4 5 6 
#
# 1 139.2384 28.5154 22.0564 -13.7863 -4.5908 -3.6925
# 2 28.5154 104.4418 36.0083 -20.1068 -2.1876 -6.3487
# 3 22.0564 36.0083 103.5178 -10.7001 -17.1289 5.7229
# 4 -13.7863 -20.1068 -10.7001 21.6090 8.4946 -2.3397
# 5 -4.5908 -2.1876 -17.1289 8.4946 36.8668 -6.2842
# 6 -3.6925 -6.3487 5.7229 -2.3397 -6.2842 29.0405
#
#
#
# Elastic Compliance Matrix: (Units=1/GPa)
#
#
# Indices 1 2 3 4 5 6 
#
# 1 0.007961 -0.000993 -0.001061 0.003859 -0.000234 0.001264
# 2 -0.000993 0.013696 -0.004090 0.011791 -0.003260 0.003918
# 3 -0.001061 -0.004090 0.012206 -0.000681 0.005044 -0.002398
# 4 0.003859 0.011791 -0.000681 0.065167 -0.013197 0.005597
# 5 -0.000234 -0.003260 0.005044 -0.013197 0.033028 0.004347
# 6 0.001264 0.003918 -0.002398 0.005597 0.004347 0.037316
#
#
# Mechanical properties :
#
#
# Convention : Reuss Voigt Hill
#
# Bulk Modulus (GPa) = 46.34847 57.81758 52.08303
# Shear Modulus (GPa) = 26.47578 34.87777 30.67677
#
# Velocity S-wave (km/s) = 3.41593 3.92065 3.67696
# Velocity P-wave (km/s) = 5.99875 6.78064 6.40164
#
# Compressibility (1/GPa) = 0.02157568
#
# Stress axis : x y z
#
# Youngs Moduli (GPa) = 125.60920 73.01584 81.92962
#
# Poissons Ratio (x) = 0.07251 0.08689
# Poissons Ratio (y) = 0.12475 0.33507
# Poissons Ratio (z) = 0.13322 0.29861
#
# Static dielectric constant tensor:
#      x y z
#    x 1.892850 0.007900 -0.039780 
#    y 0.007900 1.979310 0.075640 
#    z -0.039780 0.075640 1.952240 
# 
# From -- ./inp_files/340644.got.cif
#   From: 2010.05.17/outbox.cif.g08.bks.cpg/sg2_171_cif.got.tgz:340644.got - 2010.06.03 11:33:40.
