data_PCOD9047584
_publ_section_title
;
Structure prediction by ZEFSAII (Michael W. Deem and Ramdas Pophale) SiO2 
 PCOD9047584
Probable space group: P -1
;
_chemical_formula_sum "Si O2"
_cell_formula_units_Z 16
_cell_length_a 8.245680
_cell_length_b 17.758090
_cell_length_c 5.683753
_cell_angle_alpha 80.810461
_cell_angle_beta 124.997734
_cell_angle_gamma 84.137961
_cell_volume 653.416087
_symmetry_space_group_name_H-M "P -1"
_symmetry_group_IT_number 2
_symmetry_cell_setting 'triclinic'
loop_
_space_group_symop_operation_xyz
x,y,z
-x,-y,-z
loop_
_atom_site_type_symbol
_atom_site_label
_atom_site_fract_x
_atom_site_fract_y
_atom_site_fract_z
Si Si1 0.616830 0.349796 0.502139
Si Si2 0.032203 0.936646 0.849507
Si Si3 0.653307 0.106163 0.222737
Si Si4 0.695846 0.867375 0.737865
Si Si5 0.862451 0.471753 0.701783
Si Si6 0.610996 0.755491 0.351366
Si Si7 0.097112 0.805175 0.312535
Si Si8 0.255111 0.383643 0.795795
O O1 0.702783 0.419449 0.650238
O O2 0.534203 0.298899 0.652657
O O3 0.805436 0.286014 0.577464
O O4 0.437863 0.374467 0.144108
O O5 0.806303 0.920467 0.639011
O O6 0.185207 0.955471 0.770305
O O7 0.147201 0.852226 0.099148
O O8 0.000000 0.000000 0.000000
O O9 0.494839 0.162617 0.895894
O O10 0.519465 0.091505 0.343174
O O11 0.798622 0.159954 0.409061
O O12 0.701098 0.786432 0.644546
O O13 0.856779 0.839243 0.096721
O O14 0.739748 0.548074 0.422123
O O15 0.036984 0.416567 0.717228
O O16 0.000000 0.500000 0.000000
O O17 0.741255 0.696915 0.298568
#
# Coordination Sequence:
#
# PCOD9047584 Si02
#       8
#     2   2   2   2   2   2   2   2
#     4  12  24  45  70  99 138 180 236 294 347 429
#     4  10  25  46  71 106 147 190 236 290 359 428
#     4  12  22  46  71 105 144 181 241 297 358 411
#     4  10  25  43  70 107 142 179 245 296 345 432
#     4  11  28  47  67 100 143 183 236 286 359 433
#     4  12  23  44  72 104 134 181 237 296 351 415
#     4  10  24  44  68 107 135 182 245 287 347 431
#     4  11  26  45  69 101 138 186 228 293 363 414
#
# _framework density 24.486694
#
# number of rings (size 3 to 8) (size 9 to 14) (size 15 to 20)
#    0.750    0.250    3.750    1.125    7.000    5.000 
#    0.000    2.500    0.000    0.000    0.000    0.000 
#    0.000    0.000    0.000    0.000    0.000    0.000 
#
# Total GULP energy -89287.227654 kJ/mol
# GULP energy per Si atom -5580.451728 kJ/mol
# Density = 2.443096 g / cm^3
# Si number density = 24.486694 Si / 1000 Ang^3
#
#
#
# Elastic Constant Matrix: (Units=GPa)
#
#
# Indices 1 2 3 4 5 6 
#
# 1 162.8274 64.0296 18.3828 15.2068 -1.6886 -9.8170
# 2 64.0296 100.0769 16.5772 3.0737 7.2376 -1.6979
# 3 18.3828 16.5772 62.0706 -5.4355 12.0722 5.2597
# 4 15.2068 3.0737 -5.4355 48.8027 -5.9407 2.5391
# 5 -1.6886 7.2376 12.0722 -5.9407 27.1935 -2.3166
# 6 -9.8170 -1.6979 5.2597 2.5391 -2.3166 53.3586
#
#
#
# Elastic Compliance Matrix: (Units=1/GPa)
#
#
# Indices 1 2 3 4 5 6 
#
# 1 0.008868 -0.005411 -0.002046 -0.002441 0.002527 0.001887
# 2 -0.005411 0.013911 -0.001375 0.000271 -0.003418 -0.000579
# 3 -0.002046 -0.001375 0.019051 0.002013 -0.008012 -0.002742
# 4 -0.002441 0.000271 0.002013 0.021970 0.003552 -0.001530
# 5 0.002527 -0.003418 -0.008012 0.003552 0.042413 0.002818
# 6 0.001887 -0.000579 -0.002742 -0.001530 0.002818 0.019535
#
#
# Mechanical properties :
#
#
# Convention : Reuss Voigt Hill
#
# Bulk Modulus (GPa) = 41.38150 58.10601 49.74375
# Shear Modulus (GPa) = 33.01011 40.93665 36.97338
#
# Velocity S-wave (km/s) = 3.67561 4.09319 3.89001
# Velocity P-wave (km/s) = 5.91183 6.79118 6.36670
#
# Compressibility (1/GPa) = 0.02416539
#
# Stress axis : x y z
#
# Youngs Moduli (GPa) = 112.76368 71.88600 52.49057
#
# Poissons Ratio (x) = 0.38895 0.10742
# Poissons Ratio (y) = 0.61012 0.07219
# Poissons Ratio (z) = 0.23076 0.09886
#
# Static dielectric constant tensor:
#      x y z
#    x 2.051750 0.001010 -0.045570 
#    y 0.001010 1.934340 -0.001950 
#    z -0.045570 -0.001950 1.960480 
# 
# From -- ./inp_files/48039.got.cif
#   From: 2010.05.17/outbox.cif.g08.bks.cpg/sg2_25_cif.got.tgz:48039.got - 2010.06.03 11:33:40.
