data_PCOD9047735
_publ_section_title
;
Structure prediction by ZEFSAII (Michael W. Deem and Ramdas Pophale) SiO2 
 PCOD9047735
Probable space group: P -1
;
_chemical_formula_sum "Si O2"
_cell_formula_units_Z 13
_cell_length_a 9.212253
_cell_length_b 12.389194
_cell_length_c 8.540605
_cell_angle_alpha 104.451789
_cell_angle_beta 112.803140
_cell_angle_gamma 33.145764
_cell_volume 485.853967
_symmetry_space_group_name_H-M "P -1"
_symmetry_group_IT_number 2
_symmetry_cell_setting 'triclinic'
loop_
_space_group_symop_operation_xyz
x,y,z
-x,-y,-z
loop_
_atom_site_type_symbol
_atom_site_label
_atom_site_fract_x
_atom_site_fract_y
_atom_site_fract_z
Si Si1 0.822994 0.145245 0.190700
Si Si2 0.181446 0.228842 0.937506
Si Si3 0.421377 0.836039 0.453653
Si Si4 0.079878 0.660542 0.792799
Si Si5 0.646172 0.523521 0.634979
Si Si6 0.455429 0.240021 0.852823
Si Si7 0.500000 0.000000 0.500000
O O1 0.828681 0.265098 0.161076
O O2 0.564626 0.300498 0.259824
O O3 0.741652 0.099299 0.013504
O O4 0.123063 0.954549 0.333412
O O5 0.235432 0.316017 0.906584
O O6 0.942450 0.318384 0.758504
O O7 0.051004 0.289629 0.075301
O O8 0.500000 0.000000 0.000000
O O9 0.643438 0.621422 0.538459
O O10 0.496672 0.857890 0.324465
O O11 0.403952 0.959927 0.584396
O O12 0.342842 0.422534 0.805413
O O13 0.841516 0.778311 0.608735
O O14 0.500000 0.500000 0.500000
#
# Coordination Sequence:
#
# PCOD9047735 Si02
#       7
#     2   2   2   2   2   2   1
#     4  11  25  46  75 105 145 192 237 301 364 436
#     4  12  28  45  71 106 147 195 241 300 361 431
#     4  11  26  45  74 109 145 189 243 305 362 434
#     4  11  24  45  74 102 147 191 239 301 360 435
#     4  12  28  47  75 110 147 192 245 300 366 430
#     4  12  25  45  75 104 145 190 245 293 373 426
#     4  10  24  44  70 100 146 182 244 290 368 414
#
# _framework density 26.757014000000002
#
# number of rings (size 3 to 8) (size 9 to 14) (size 15 to 20)
#    0.000    0.615    1.538    5.538    6.462    8.615 
#    0.000    0.000    0.000    0.000    0.000    0.000 
#    0.000    0.000    0.000    0.000    0.000    0.000 
#
# Total GULP energy -72657.262009 kJ/mol
# GULP energy per Si atom -5589.020155 kJ/mol
# Density = 2.669611 g / cm^3
# Si number density = 26.757014 Si / 1000 Ang^3
#
#
#
# Elastic Constant Matrix: (Units=GPa)
#
#
# Indices 1 2 3 4 5 6 
#
# 1 99.2597 -3.8051 45.5644 8.9467 -5.9001 -0.2157
# 2 -3.8051 95.4726 43.1815 -21.3364 -7.7721 1.1931
# 3 45.5644 43.1815 155.7248 -24.9766 29.7537 -4.2590
# 4 8.9467 -21.3364 -24.9766 45.3577 -14.0749 -8.1033
# 5 -5.9001 -7.7721 29.7537 -14.0749 62.0453 -0.8228
# 6 -0.2157 1.1931 -4.2590 -8.1033 -0.8228 50.3768
#
#
#
# Elastic Compliance Matrix: (Units=1/GPa)
#
#
# Indices 1 2 3 4 5 6 
#
# 1 0.013508 0.002744 -0.006044 -0.003756 0.003661 -0.001062
# 2 0.002744 0.014524 -0.005066 0.005309 0.005716 0.000187
# 3 -0.006044 -0.005066 0.011310 0.003503 -0.005818 0.001519
# 4 -0.003756 0.005309 0.003503 0.029807 0.005457 0.005038
# 5 0.003661 0.005716 -0.005818 0.005457 0.021217 0.000613
# 6 -0.001062 0.000187 0.001519 0.005038 0.000613 0.020790
#
#
# Mechanical properties :
#
#
# Convention : Reuss Voigt Hill
#
# Bulk Modulus (GPa) = 44.22842 57.81539 51.02191
# Shear Modulus (GPa) = 36.92046 49.25705 43.08876
#
# Velocity S-wave (km/s) = 3.71865 4.29523 4.01730
# Velocity P-wave (km/s) = 5.91637 6.80096 6.37403
#
# Compressibility (1/GPa) = 0.02260989
#
# Stress axis : x y z
#
# Youngs Moduli (GPa) = 74.02948 68.85014 88.41810
#
# Poissons Ratio (x) = -0.18893 0.53442
# Poissons Ratio (y) = -0.20314 0.44793
# Poissons Ratio (z) = 0.44745 0.34880
#
# Static dielectric constant tensor:
#      x y z
#    x 2.431520 0.398010 0.505150 
#    y 0.398010 2.666010 0.885630 
#    z 0.505150 0.885630 3.224180 
# 
# From -- ./inp_files/150118.got.cif
#   From: 2010.05.17/outbox.cif.g08.bks.cpg/sg2_76_cif.got.tgz:150118.got - 2010.06.03 11:33:40.
