data_PCOD9047464
_publ_section_title
;
Structure prediction by ZEFSAII (Michael W. Deem and Ramdas Pophale) SiO2 
 PCOD9047464
Probable space group: P -1
;
_chemical_formula_sum "Si O2"
_cell_formula_units_Z 15
_cell_length_a 8.664585
_cell_length_b 9.460172
_cell_length_c 17.907990
_cell_angle_alpha 48.752268
_cell_angle_beta 67.158075
_cell_angle_gamma 103.870163
_cell_volume 710.730114
_symmetry_space_group_name_H-M "P -1"
_symmetry_group_IT_number 2
_symmetry_cell_setting 'triclinic'
loop_
_space_group_symop_operation_xyz
x,y,z
-x,-y,-z
loop_
_atom_site_type_symbol
_atom_site_label
_atom_site_fract_x
_atom_site_fract_y
_atom_site_fract_z
Si Si1 0.369773 0.085932 0.474563
Si Si2 0.527322 0.549441 0.389678
Si Si3 0.516612 0.600601 0.798821
Si Si4 0.200481 0.617759 0.360978
Si Si5 0.028317 0.901618 0.952524
Si Si6 0.500000 0.500000 0.000000
Si Si7 0.854087 0.541055 0.733050
Si Si8 0.330329 0.777209 0.978522
O O1 0.469345 0.320405 0.431201
O O2 0.432197 0.193191 0.340322
O O3 0.500000 0.000000 0.500000
O O4 0.085536 0.827696 0.624305
O O5 0.500000 0.500000 0.500000
O O6 0.348642 0.562862 0.386018
O O7 0.794956 0.836314 0.223145
O O8 0.601643 0.676096 0.841481
O O9 0.646246 0.525685 0.763954
O O10 0.234627 0.333208 0.949825
O O11 0.074518 0.476590 0.354872
O O12 0.000000 0.500000 0.500000
O O13 0.404783 0.933358 0.190950
O O14 0.147432 0.790107 0.978320
O O15 0.000000 0.000000 0.000000
O O16 0.660113 0.431790 0.977391
O O17 0.743686 0.299660 0.893737
#
# Coordination Sequence:
#
# PCOD9047464 Si02
#       8
#     2   2   2   2   2   1   2   2
#     4  12  26  44  71 101 143 192 232 294 361 429
#     4  11  27  45  68 105 142 181 238 293 354 421
#     4  11  23  45  71 101 139 184 239 291 360 422
#     4  11  25  42  70 101 138 187 232 296 348 417
#     4  11  22  45  75  97 136 186 237 293 347 431
#     4  10  26  42  68 102 144 182 226 302 350 422
#     4  11  24  44  72 100 142 183 238 295 356 434
#     4  10  24  44  67 106 139 183 241 285 363 423
#
# _framework density 21.105056000000001
#
# number of rings (size 3 to 8) (size 9 to 14) (size 15 to 20)
#    0.000    1.067    2.667    2.400    3.733    8.000 
#    0.000    0.000    0.000    0.000    0.000    0.000 
#    0.000    0.000    0.000    0.000    0.000    0.000 
#
# Total GULP energy -83516.252891 kJ/mol
# GULP energy per Si atom -5567.750193 kJ/mol
# Density = 2.105702 g / cm^3
# Si number density = 21.105056 Si / 1000 Ang^3
#
#
#
# Elastic Constant Matrix: (Units=GPa)
#
#
# Indices 1 2 3 4 5 6 
#
# 1 96.5273 39.1098 73.9583 -11.3561 8.3964 -12.7302
# 2 39.1098 74.9034 52.5940 21.1056 13.3778 -10.0933
# 3 73.9583 52.5940 183.4508 18.6794 12.2495 1.7117
# 4 -11.3561 21.1056 18.6794 47.3093 12.0203 4.5086
# 5 8.3964 13.3778 12.2495 12.0203 49.1235 10.4186
# 6 -12.7302 -10.0933 1.7117 4.5086 10.4186 24.6624
#
#
#
# Elastic Compliance Matrix: (Units=1/GPa)
#
#
# Indices 1 2 3 4 5 6 
#
# 1 0.022534 -0.007664 -0.007911 0.012301 -0.004661 0.008764
# 2 -0.007664 0.024541 -0.002580 -0.011714 -0.004006 0.010100
# 3 -0.007911 -0.002580 0.009766 -0.004549 0.001966 -0.005816
# 4 0.012301 -0.011714 -0.004549 0.032653 -0.005381 -0.001825
# 5 -0.004661 -0.004006 0.001966 -0.005381 0.026086 -0.014218
# 6 0.008764 0.010100 -0.005816 -0.001825 -0.014218 0.055949
#
#
# Mechanical properties :
#
#
# Convention : Reuss Voigt Hill
#
# Bulk Modulus (GPa) = 48.70414 76.24509 62.47461
# Shear Modulus (GPa) = 23.29013 36.83364 30.06189
#
# Velocity S-wave (km/s) = 3.32555 4.18215 3.77821
# Velocity P-wave (km/s) = 6.15409 7.71527 6.97848
#
# Compressibility (1/GPa) = 0.02053214
#
# Stress axis : x y z
#
# Youngs Moduli (GPa) = 44.37660 40.74831 102.39581
#
# Poissons Ratio (x) = 0.31230 0.81001
# Poissons Ratio (y) = 0.34011 0.26417
# Poissons Ratio (z) = 0.35104 0.10513
#
# Static dielectric constant tensor:
#      x y z
#    x 1.701360 -0.040200 -0.129810 
#    y -0.040200 1.754910 -0.105290 
#    z -0.129810 -0.105290 1.478660 
# 
# From -- ./inp_files/329204.got.cif
#   From: 2010.05.17/outbox.cif.g08.bks.cpg/sg2_165_cif.got.tgz:329204.got - 2010.06.03 11:33:40.
