data_PCOD9047886
_publ_section_title
;
Structure prediction by ZEFSAII (Michael W. Deem and Ramdas Pophale) SiO2 
 PCOD9047886
Probable space group: P -1
;
_chemical_formula_sum "Si O2"
_cell_formula_units_Z 14
_cell_length_a 5.837169
_cell_length_b 13.595054
_cell_length_c 13.704917
_cell_angle_alpha 38.774528
_cell_angle_beta 125.160989
_cell_angle_gamma 126.363129
_cell_volume 534.368529
_symmetry_space_group_name_H-M "P -1"
_symmetry_group_IT_number 2
_symmetry_cell_setting 'triclinic'
loop_
_space_group_symop_operation_xyz
x,y,z
-x,-y,-z
loop_
_atom_site_type_symbol
_atom_site_label
_atom_site_fract_x
_atom_site_fract_y
_atom_site_fract_z
Si Si1 0.137351 0.721593 0.745454
Si Si2 0.768792 0.138401 0.548494
Si Si3 0.317628 0.127368 0.971536
Si Si4 0.342449 0.380846 0.957891
Si Si5 0.277253 0.381204 0.608646
Si Si6 0.483689 0.622077 0.641485
Si Si7 0.080945 0.865030 0.831031
O O1 0.248154 0.837925 0.589939
O O2 0.364762 0.622073 0.909928
O O3 0.094467 0.819722 0.756318
O O4 0.813848 0.612924 0.721290
O O5 0.502557 0.185715 0.500483
O O6 0.020630 0.283156 0.550119
O O7 0.866627 0.976447 0.713755
O O8 0.357021 0.234849 0.800111
O O9 0.332531 0.252926 0.966463
O O10 0.591560 0.056050 0.110833
O O11 0.000000 0.000000 0.000000
O O12 0.060703 0.300760 0.015599
O O13 0.368807 0.545585 0.777288
O O14 0.500000 0.500000 0.500000
O O15 0.279156 0.510288 0.597000
#
# Coordination Sequence:
#
# PCOD9047886 Si02
#       7
#     2   2   2   2   2   2   2
#     4  11  24  44  70 104 145 187 244 294 353 421
#     4  12  26  43  71 105 143 190 236 295 365 419
#     4  10  24  47  76 104 141 189 243 295 361 431
#     4  10  24  44  71 104 139 188 241 293 358 421
#     4  11  24  47  73 107 143 188 240 301 361 425
#     4  11  25  45  73 104 144 188 239 298 358 430
#     4  11  26  47  73 104 143 188 240 294 353 436
#
# _framework density 26.199148000000001
#
# number of rings (size 3 to 8) (size 9 to 14) (size 15 to 20)
#    0.000    1.143    1.429    3.000    2.000   11.429 
#    2.571    0.000    0.000    0.000    0.000    0.000 
#    0.000    0.000    0.000    0.000    0.000    0.000 
#
# Total GULP energy -78401.184317 kJ/mol
# GULP energy per Si atom -5600.084594 kJ/mol
# Density = 2.613952 g / cm^3
# Si number density = 26.199148 Si / 1000 Ang^3
#
#
#
# Elastic Constant Matrix: (Units=GPa)
#
#
# Indices 1 2 3 4 5 6 
#
# 1 73.1296 36.1563 57.9485 7.3099 0.2453 -2.2027
# 2 36.1563 110.4735 40.2341 20.7481 7.2803 9.4503
# 3 57.9485 40.2341 146.1112 11.4242 -1.8486 2.1577
# 4 7.3099 20.7481 11.4242 54.6549 -4.1951 5.3305
# 5 0.2453 7.2803 -1.8486 -4.1951 55.9099 6.2509
# 6 -2.2027 9.4503 2.1577 5.3305 6.2509 58.3228
#
#
#
# Elastic Compliance Matrix: (Units=1/GPa)
#
#
# Indices 1 2 3 4 5 6 
#
# 1 0.021917 -0.004663 -0.007452 0.000224 0.000077 0.001830
# 2 -0.004663 0.011922 -0.001147 -0.003639 -0.001669 -0.001554
# 3 -0.007452 -0.001147 0.010177 -0.000609 0.000526 -0.000473
# 4 0.000224 -0.003639 -0.000609 0.020079 0.002121 -0.001442
# 5 0.000077 -0.001669 0.000526 0.002121 0.018494 -0.001922
# 6 0.001830 -0.001554 -0.000473 -0.001442 -0.001922 0.017822
#
#
# Mechanical properties :
#
#
# Convention : Reuss Voigt Hill
#
# Bulk Modulus (GPa) = 57.16943 66.48799 61.82871
# Shear Modulus (GPa) = 37.66005 46.80254 42.23130
#
# Velocity S-wave (km/s) = 3.79549 4.23119 4.01925
# Velocity P-wave (km/s) = 6.40907 7.02165 6.72234
#
# Compressibility (1/GPa) = 0.01749186
#
# Stress axis : x y z
#
# Youngs Moduli (GPa) = 45.62602 83.87673 98.26287
#
# Poissons Ratio (x) = 0.39110 0.73226
# Poissons Ratio (y) = 0.21275 0.11274
# Poissons Ratio (z) = 0.34001 0.09623
#
# Static dielectric constant tensor:
#      x y z
#    x 1.716580 0.161860 0.027090 
#    y 0.161860 1.957360 0.029020 
#    z 0.027090 0.029020 2.051630 
# 
# From -- ./inp_files/368110.got.cif
#   From: 2010.05.17/outbox.cif.g08.bks.cpg/sg2_185_cif.got.tgz:368110.got - 2010.06.03 11:33:40.
