data_PCOD9047207
_publ_section_title
;
Structure prediction by ZEFSAII (Michael W. Deem and Ramdas Pophale) SiO2 
 PCOD9047207
Probable space group: P -1
;
_chemical_formula_sum "Si O2"
_cell_formula_units_Z 16
_cell_length_a 9.165138
_cell_length_b 10.483591
_cell_length_c 14.842647
_cell_angle_alpha 44.910317
_cell_angle_beta 47.074938
_cell_angle_gamma 72.961254
_cell_volume 686.052525
_symmetry_space_group_name_H-M "P -1"
_symmetry_group_IT_number 2
_symmetry_cell_setting 'triclinic'
loop_
_space_group_symop_operation_xyz
x,y,z
-x,-y,-z
loop_
_atom_site_type_symbol
_atom_site_label
_atom_site_fract_x
_atom_site_fract_y
_atom_site_fract_z
Si Si1 0.788630 0.988453 0.307594
Si Si2 0.452441 0.408362 0.312217
Si Si3 0.435403 0.296645 0.176875
Si Si4 0.497773 0.061463 0.724390
Si Si5 0.994488 0.293941 0.368442
Si Si6 0.148463 0.639924 0.793825
Si Si7 0.155090 0.609281 0.297786
Si Si8 0.145852 0.013987 0.022048
O O1 0.745153 0.780361 0.475892
O O2 0.022874 0.085188 0.115152
O O3 0.619703 0.935122 0.322645
O O4 0.762980 0.139953 0.314488
O O5 0.514567 0.342261 0.222719
O O6 0.656940 0.431065 0.275079
O O7 0.381925 0.590935 0.237892
O O8 0.529487 0.163375 0.148117
O O9 0.177018 0.200900 0.341046
O O10 0.500000 0.500000 0.000000
O O11 0.749965 0.175241 0.556837
O O12 0.380760 0.118964 0.828068
O O13 0.986012 0.363104 0.236314
O O14 0.077980 0.471083 0.313219
O O15 0.000000 0.500000 0.000000
O O16 0.150630 0.815195 0.164890
O O17 0.000000 0.500000 0.500000
O O18 0.000000 0.000000 0.000000
#
# Coordination Sequence:
#
# PCOD9047207 Si02
#       8
#     2   2   2   2   2   2   2   2
#     4  11  22  43  68  98 139 186 224 276 365 406
#     4  11  21  42  71  94 133 184 223 279 357 411
#     4  11  22  39  67  95 137 183 225 287 349 408
#     4  11  21  42  66  99 140 176 234 285 343 418
#     4  11  25  40  69 107 133 179 240 289 348 407
#     4  12  25  41  68 106 140 178 238 299 341 415
#     4  11  24  48  72 100 141 184 233 281 355 424
#     4  10  24  43  73  99 135 192 228 278 350 426
#
# _framework density 23.321829000000001
#
# number of rings (size 3 to 8) (size 9 to 14) (size 15 to 20)
#    0.000    1.000    3.750    3.750    3.500    1.000 
#    2.250    3.750    0.000    0.000    0.000    0.000 
#    0.000    0.000    0.000    0.000    0.000    0.000 
#
# Total GULP energy -89395.917083 kJ/mol
# GULP energy per Si atom -5587.244818 kJ/mol
# Density = 2.326875 g / cm^3
# Si number density = 23.321829 Si / 1000 Ang^3
#
#
#
# Elastic Constant Matrix: (Units=GPa)
#
#
# Indices 1 2 3 4 5 6 
#
# 1 82.1629 27.2390 0.6304 -3.3899 9.2131 -15.8900
# 2 27.2390 62.3229 1.9720 7.6932 1.7217 -16.1293
# 3 0.6304 1.9720 93.9118 9.8609 3.3761 -5.1897
# 4 -3.3899 7.6932 9.8609 38.4547 -10.4932 4.6045
# 5 9.2131 1.7217 3.3761 -10.4932 37.0578 4.4930
# 6 -15.8900 -16.1293 -5.1897 4.6045 4.4930 35.6169
#
#
#
# Elastic Compliance Matrix: (Units=1/GPa)
#
#
# Indices 1 2 3 4 5 6 
#
# 1 0.015394 -0.005454 0.000352 0.000683 -0.004003 0.004866
# 2 -0.005454 0.021560 0.000874 -0.006794 -0.002701 0.008677
# 3 0.000352 0.000874 0.011332 -0.004159 -0.002712 0.003084
# 4 0.000683 -0.006794 -0.004159 0.032513 0.010816 -0.008946
# 5 -0.004003 -0.002701 -0.002712 0.010816 0.032494 -0.008901
# 6 0.004866 0.008677 0.003084 -0.008946 -0.008901 0.036906
#
#
# Mechanical properties :
#
#
# Convention : Reuss Voigt Hill
#
# Bulk Modulus (GPa) = 25.10558 33.12003 29.11281
# Shear Modulus (GPa) = 29.08117 36.12963 32.60540
#
# Velocity S-wave (km/s) = 3.53505 3.94023 3.74313
# Velocity P-wave (km/s) = 5.23930 5.91039 5.58493
#
# Compressibility (1/GPa) = 0.03983178
#
# Stress axis : x y z
#
# Youngs Moduli (GPa) = 64.95867 46.38127 88.24410
#
# Poissons Ratio (x) = 0.25295 -0.03109
# Poissons Ratio (y) = 0.35427 -0.07712
# Poissons Ratio (z) = -0.02288 -0.04053
#
# Static dielectric constant tensor:
#      x y z
#    x 1.877720 -0.042920 -0.023290 
#    y -0.042920 1.873900 -0.018940 
#    z -0.023290 -0.018940 1.944960 
# 
# From -- ./inp_files/278582.got.cif
#   From: 2010.05.17/outbox.cif.g08.bks.cpg/sg2_140_cif.got.tgz:278582.got - 2010.06.03 11:33:40.
