data_PCOD9047274
_publ_section_title
;
Structure prediction by ZEFSAII (Michael W. Deem and Ramdas Pophale) SiO2 
 PCOD9047274
Probable space group: P -1
;
_chemical_formula_sum "Si O2"
_cell_formula_units_Z 14
_cell_length_a 8.489116
_cell_length_b 9.127846
_cell_length_c 11.991357
_cell_angle_alpha 80.283291
_cell_angle_beta 123.223120
_cell_angle_gamma 121.624156
_cell_volume 652.649048
_symmetry_space_group_name_H-M "P -1"
_symmetry_group_IT_number 2
_symmetry_cell_setting 'triclinic'
loop_
_space_group_symop_operation_xyz
x,y,z
-x,-y,-z
loop_
_atom_site_type_symbol
_atom_site_label
_atom_site_fract_x
_atom_site_fract_y
_atom_site_fract_z
Si Si1 0.929475 0.207209 0.907119
Si Si2 0.860392 0.959775 0.285174
Si Si3 0.955427 0.231723 0.473577
Si Si4 0.803190 0.856410 0.803087
Si Si5 0.598736 0.191430 0.960318
Si Si6 0.678138 0.401711 0.387978
Si Si7 0.291316 0.508742 0.872371
O O1 0.778762 0.238864 0.928149
O O2 0.059225 0.340926 0.841188
O O3 0.782025 0.011971 0.827014
O O4 0.124371 0.217684 0.057393
O O5 0.611667 0.815570 0.175877
O O6 0.978876 0.870795 0.401994
O O7 0.864000 0.104193 0.348727
O O8 0.992885 0.054096 0.213400
O O9 0.785398 0.282105 0.449972
O O10 0.174053 0.420882 0.508740
O O11 0.581285 0.714034 0.674693
O O12 0.693745 0.329164 0.078381
O O13 0.500000 0.000000 0.000000
O O14 0.697143 0.460672 0.258551
O O15 0.500000 0.500000 0.000000
#
# Coordination Sequence:
#
# PCOD9047274 Si02
#       7
#     2   2   2   2   2   2   2
#     4  11  23  38  60 103 130 162 200 253 331 381
#     4  11  23  42  65  91 125 168 209 261 306 373
#     4  10  24  44  62  86 124 172 218 250 308 362
#     4  11  22  38  66  94 128 162 209 261 313 375
#     4  12  23  40  66  96 131 162 203 262 321 374
#     4  11  23  42  65  91 125 168 209 261 306 373
#     4  12  23  40  66  96 131 162 203 262 321 374
#
# _framework density 21.451039000000002
#
# number of rings (size 3 to 8) (size 9 to 14) (size 15 to 20)
#    0.000    0.857    2.857    5.571    0.000    1.143 
#    0.000    5.714    0.000    0.000    0.000    0.000 
#    0.000    0.000    0.000    0.000    0.000    0.000 
#
# Total GULP energy -78338.488686 kJ/mol
# GULP energy per Si atom -5595.606335 kJ/mol
# Density = 2.140222 g / cm^3
# Si number density = 21.451039 Si / 1000 Ang^3
#
#
#
# Elastic Constant Matrix: (Units=GPa)
#
#
# Indices 1 2 3 4 5 6 
#
# 1 56.1452 26.2797 -8.7692 -1.7619 -0.7834 13.3939
# 2 26.2797 51.8570 6.3259 2.4743 7.8311 2.7386
# 3 -8.7692 6.3259 43.1360 5.7129 8.4391 -8.1316
# 4 -1.7619 2.4743 5.7129 41.1795 0.2136 6.4359
# 5 -0.7834 7.8311 8.4391 0.2136 28.8814 10.3399
# 6 13.3939 2.7386 -8.1316 6.4359 10.3399 20.8571
#
#
#
# Elastic Compliance Matrix: (Units=1/GPa)
#
#
# Indices 1 2 3 4 5 6 
#
# 1 0.034073 -0.018519 -0.000256 0.007219 0.016733 -0.030072
# 2 -0.018519 0.030386 -0.002080 -0.004642 -0.013557 0.015245
# 3 -0.000256 -0.002080 0.032551 -0.008119 -0.017618 0.024368
# 4 0.007219 -0.004642 -0.008119 0.029367 0.011463 -0.021936
# 5 0.016733 -0.013557 -0.017618 0.011463 0.061704 -0.049961
# 6 -0.030072 0.015245 0.024368 -0.021936 -0.049961 0.106293
#
#
# Mechanical properties :
#
#
# Convention : Reuss Voigt Hill
#
# Bulk Modulus (GPa) = 18.08324 22.09010 20.08667
# Shear Modulus (GPa) = 14.10361 26.67040 20.38700
#
# Velocity S-wave (km/s) = 2.56692 3.52989 3.08620
# Velocity P-wave (km/s) = 4.15135 5.18978 4.69934
#
# Compressibility (1/GPa) = 0.05529982
#
# Stress axis : x y z
#
# Youngs Moduli (GPa) = 29.34848 32.90949 30.72091
#
# Poissons Ratio (x) = 0.60947 0.00787
# Poissons Ratio (y) = 0.54352 0.06390
# Poissons Ratio (z) = 0.00752 0.06845
#
# Static dielectric constant tensor:
#      x y z
#    x 1.758260 -0.028700 0.025390 
#    y -0.028700 1.772430 -0.001310 
#    z 0.025390 -0.001310 1.768130 
# 
# From -- ./inp_files/158009.got.cif
#   From: 2010.05.17/outbox.cif.g08.bks.cpg/sg2_80_cif.got.tgz:158009.got - 2010.06.03 11:33:40.
