data_PCOD9047668
_publ_section_title
;
Structure prediction by ZEFSAII (Michael W. Deem and Ramdas Pophale) SiO2 
 PCOD9047668
Probable space group: P -1
;
_chemical_formula_sum "Si O2"
_cell_formula_units_Z 14
_cell_length_a 6.895592
_cell_length_b 9.102123
_cell_length_c 15.976935
_cell_angle_alpha 130.019091
_cell_angle_beta 124.331712
_cell_angle_gamma 51.668043
_cell_volume 579.200323
_symmetry_space_group_name_H-M "P -1"
_symmetry_group_IT_number 2
_symmetry_cell_setting 'triclinic'
loop_
_space_group_symop_operation_xyz
x,y,z
-x,-y,-z
loop_
_atom_site_type_symbol
_atom_site_label
_atom_site_fract_x
_atom_site_fract_y
_atom_site_fract_z
Si Si1 0.093391 0.400864 0.741918
Si Si2 0.337784 0.755562 0.379571
Si Si3 0.836936 0.382149 0.319485
Si Si4 0.523626 0.046707 0.812072
Si Si5 0.338827 0.085712 0.374375
Si Si6 0.205634 0.688816 0.995585
Si Si7 0.244061 0.019101 0.895274
O O1 0.905120 0.288460 0.671620
O O2 0.103085 0.466843 0.674328
O O3 0.368155 0.232018 0.777102
O O4 0.050500 0.602028 0.863773
O O5 0.567882 0.526523 0.347203
O O6 0.422211 0.887781 0.515595
O O7 0.315004 0.881127 0.333167
O O8 0.066064 0.271369 0.399475
O O9 0.799901 0.194484 0.190537
O O10 0.321663 0.031726 0.822410
O O11 0.655939 0.876626 0.710820
O O12 0.723700 0.114121 0.935280
O O13 0.500000 0.500000 0.000000
O O14 0.010482 0.782071 0.061572
O O15 0.500000 0.000000 0.000000
#
# Coordination Sequence:
#
# PCOD9047668 Si02
#       7
#     2   2   2   2   2   2   2
#     4  11  25  43  73 103 139 180 242 287 357 417
#     4  11  26  49  70 104 138 188 237 300 351 424
#     4  12  25  45  71 106 140 181 243 292 355 426
#     4  11  24  47  70 103 144 191 231 290 361 423
#     4  11  25  49  73  98 146 184 238 294 359 421
#     4  10  24  44  69 102 144 186 234 293 348 430
#     4  12  26  42  74 107 146 192 237 293 361 426
#
# _framework density 24.171256
#
# number of rings (size 3 to 8) (size 9 to 14) (size 15 to 20)
#    0.000    0.857    2.857    3.000    4.000    4.571 
#    2.571    0.000    0.000    0.000    0.000    0.000 
#    0.000    0.000    0.000    0.000    0.000    0.000 
#
# Total GULP energy -78158.548172 kJ/mol
# GULP energy per Si atom -5582.753441 kJ/mol
# Density = 2.411624 g / cm^3
# Si number density = 24.171256 Si / 1000 Ang^3
#
#
#
# Elastic Constant Matrix: (Units=GPa)
#
#
# Indices 1 2 3 4 5 6 
#
# 1 134.4136 25.1507 38.9140 -5.9397 15.3754 9.0067
# 2 25.1507 76.4919 -8.0770 -5.8890 2.2148 -5.6385
# 3 38.9140 -8.0770 85.0763 -6.0173 28.8277 9.4960
# 4 -5.9397 -5.8890 -6.0173 27.4748 -4.5306 -3.2316
# 5 15.3754 2.2148 28.8277 -4.5306 44.8472 4.3470
# 6 9.0067 -5.6385 9.4960 -3.2316 4.3470 39.7337
#
#
#
# Elastic Compliance Matrix: (Units=1/GPa)
#
#
# Indices 1 2 3 4 5 6 
#
# 1 0.009566 -0.003737 -0.004541 0.000082 -0.000012 -0.001605
# 2 -0.003737 0.015184 0.003691 0.003268 -0.001761 0.002578
# 3 -0.004541 0.003691 0.017774 0.001927 -0.009713 -0.001475
# 4 0.000082 0.003268 0.001927 0.038229 0.002157 0.002858
# 5 -0.000012 -0.001761 -0.009713 0.002157 0.028939 -0.000917
# 6 -0.001605 0.002578 -0.001475 0.002858 -0.000917 0.026583
#
#
# Mechanical properties :
#
#
# Convention : Reuss Voigt Hill
#
# Bulk Modulus (GPa) = 29.98497 45.32856 37.65677
# Shear Modulus (GPa) = 31.93547 38.41074 35.17310
#
# Velocity S-wave (km/s) = 3.63880 3.99069 3.81880
# Velocity P-wave (km/s) = 5.48513 6.32676 5.92092
#
# Compressibility (1/GPa) = 0.03335004
#
# Stress axis : x y z
#
# Youngs Moduli (GPa) = 104.53463 65.85780 56.26280
#
# Poissons Ratio (x) = 0.24608 0.25550
# Poissons Ratio (y) = 0.39060 -0.20765
# Poissons Ratio (z) = 0.47472 -0.24307
#
# Static dielectric constant tensor:
#      x y z
#    x 1.931870 -0.070780 -0.103750 
#    y -0.070780 1.987350 0.045130 
#    z -0.103750 0.045130 2.084480 
# 
# From -- ./inp_files/548459.got.cif
#   From: 2010.05.17/outbox.cif.g08.bks.cpg/sg2_275_cif.got.tgz:548459.got - 2010.06.03 11:33:40.
