data_PCOD9047524
_publ_section_title
;
Structure prediction by ZEFSAII (Michael W. Deem and Ramdas Pophale) SiO2 
 PCOD9047524
Probable space group: P -1
;
_chemical_formula_sum "Si O2"
_cell_formula_units_Z 10
_cell_length_a 13.297675
_cell_length_b 15.117032
_cell_length_c 21.246537
_cell_angle_alpha 19.815279
_cell_angle_beta 18.916754
_cell_angle_gamma 28.633009
_cell_volume 466.440375
_symmetry_space_group_name_H-M "P -1"
_symmetry_group_IT_number 2
_symmetry_cell_setting 'triclinic'
loop_
_space_group_symop_operation_xyz
x,y,z
-x,-y,-z
loop_
_atom_site_type_symbol
_atom_site_label
_atom_site_fract_x
_atom_site_fract_y
_atom_site_fract_z
Si Si1 0.271554 0.236609 0.674215
Si Si2 0.255288 0.810454 0.459768
Si Si3 0.484937 0.781073 0.207257
Si Si4 0.907399 0.304014 0.046564
Si Si5 0.742822 0.703775 0.503750
O O1 0.515141 0.181676 0.621564
O O2 0.219258 0.540165 0.514337
O O3 0.354367 0.258414 0.536646
O O4 0.000000 0.000000 0.000000
O O5 0.431302 0.878225 0.244791
O O6 0.000000 0.000000 0.500000
O O7 0.074810 0.515982 0.757228
O O8 0.826313 0.679554 0.068732
O O9 0.500000 0.000000 0.000000
O O10 0.574598 0.382239 0.212425
O O11 0.862681 0.000377 0.255988
O O12 0.000000 0.500000 0.500000
#
# Coordination Sequence:
#
# PCOD9047524 Si02
#       5
#     2   2   2   2   2
#     4  11  24  42  70  97 140 180 234 283 345 410
#     4  11  26  44  70 100 144 187 226 284 351 411
#     4  11  24  44  71  99 139 183 232 285 348 413
#     4  10  24  44  68 100 145 177 232 283 347 418
#     4  11  24  43  71 105 139 182 229 294 344 406
#
# _framework density 21.438966000000001
#
# number of rings (size 3 to 8) (size 9 to 14) (size 15 to 20)
#    0.000    1.200    0.000    6.000   11.200    1.600 
#    0.000    2.000    0.000    0.000    0.000    0.000 
#    0.000    0.000    0.000    0.000    0.000    0.000 
#
# Total GULP energy -55767.899668 kJ/mol
# GULP energy per Si atom -5576.789967 kJ/mol
# Density = 2.139017 g / cm^3
# Si number density = 21.438966 Si / 1000 Ang^3
#
#
#
# Elastic Constant Matrix: (Units=GPa)
#
#
# Indices 1 2 3 4 5 6 
#
# 1 133.9835 39.0913 79.9611 3.4480 22.1932 -7.8270
# 2 39.0913 126.4838 62.8641 4.9470 11.0736 -14.0413
# 3 79.9611 62.8641 143.0897 0.8903 1.7471 -9.2497
# 4 3.4480 4.9470 0.8903 36.4457 3.2672 5.6789
# 5 22.1932 11.0736 1.7471 3.2672 33.2663 -10.4738
# 6 -7.8270 -14.0413 -9.2497 5.6789 -10.4738 21.5256
#
#
#
# Elastic Compliance Matrix: (Units=1/GPa)
#
#
# Indices 1 2 3 4 5 6 
#
# 1 0.013359 0.000143 -0.007609 0.000227 -0.009533 -0.003017
# 2 0.000143 0.010875 -0.004509 -0.001984 -0.001747 0.004882
# 3 -0.007609 -0.004509 0.013362 -0.000162 0.006985 0.003476
# 4 0.000227 -0.001984 -0.000162 0.030177 -0.006325 -0.012320
# 5 -0.009533 -0.001747 0.006985 -0.006325 0.044020 0.021484
# 6 -0.003017 0.004882 0.003476 -0.012320 0.021484 0.063741
#
#
# Mechanical properties :
#
#
# Convention : Reuss Voigt Hill
#
# Bulk Modulus (GPa) = 73.26722 85.26554 79.26638
# Shear Modulus (GPa) = 24.50601 33.02355 28.76478
#
# Velocity S-wave (km/s) = 3.38458 3.92899 3.66690
# Velocity P-wave (km/s) = 7.03725 7.77433 7.41495
#
# Compressibility (1/GPa) = 0.01364867
#
# Stress axis : x y z
#
# Youngs Moduli (GPa) = 74.85321 91.95209 74.84090
#
# Poissons Ratio (x) = -0.01319 0.56943
# Poissons Ratio (y) = -0.01074 0.33744
# Poissons Ratio (z) = 0.56953 0.41459
#
# Static dielectric constant tensor:
#      x y z
#    x 1.791180 0.013850 -0.019080 
#    y 0.013850 1.794530 -0.026030 
#    z -0.019080 -0.026030 1.826830 
# 
# From -- ./inp_files/144174.got.cif
#   From: 2010.05.17/outbox.cif.g08.bks.cpg/sg2_73_cif.got.tgz:144174.got - 2010.06.03 11:33:40.
