data_PCOD9047750
_publ_section_title
;
Structure prediction by ZEFSAII (Michael W. Deem and Ramdas Pophale) SiO2 
 PCOD9047750
Probable space group: P -1
;
_chemical_formula_sum "Si O2"
_cell_formula_units_Z 16
_cell_length_a 5.119861
_cell_length_b 12.866336
_cell_length_c 15.035825
_cell_angle_alpha 57.241480
_cell_angle_beta 61.406273
_cell_angle_gamma 82.164189
_cell_volume 721.195802
_symmetry_space_group_name_H-M "P -1"
_symmetry_group_IT_number 2
_symmetry_cell_setting 'triclinic'
loop_
_space_group_symop_operation_xyz
x,y,z
-x,-y,-z
loop_
_atom_site_type_symbol
_atom_site_label
_atom_site_fract_x
_atom_site_fract_y
_atom_site_fract_z
Si Si1 0.612271 0.947013 0.622173
Si Si2 0.511235 0.718797 0.225233
Si Si3 0.390733 0.185600 0.491710
Si Si4 0.726086 0.573936 0.858559
Si Si5 0.901212 0.849722 0.783355
Si Si6 0.107005 0.177411 0.730528
Si Si7 0.387595 0.544219 0.739772
Si Si8 0.237513 0.075025 0.039833
O O1 0.725734 0.866612 0.561527
O O2 0.785997 0.938687 0.688411
O O3 0.259932 0.886386 0.721491
O O4 0.614761 0.088359 0.524205
O O5 0.613443 0.746358 0.297125
O O6 0.510001 0.576048 0.265733
O O7 0.189440 0.758982 0.239133
O O8 0.756687 0.812458 0.082857
O O9 0.169358 0.173211 0.617533
O O10 0.539294 0.329340 0.388665
O O11 0.826863 0.712654 0.816755
O O12 0.558072 0.572050 0.792768
O O13 0.029353 0.515471 0.826265
O O14 0.500000 0.500000 0.000000
O O15 0.727178 0.862148 0.897884
O O16 0.043493 0.037161 0.847730
O O17 0.500000 0.000000 0.000000
#
# Coordination Sequence:
#
# PCOD9047750 Si02
#       8
#     2   2   2   2   2   2   2   2
#     4  11  26  42  70 105 136 181 226 286 345 416
#     4  11  26  46  69 100 140 183 242 283 344 413
#     4  11  25  46  71 103 146 179 235 288 344 419
#     4  12  25  45  70 103 139 184 232 283 348 416
#     4  12  23  45  69 104 135 179 230 277 356 412
#     4  11  25  44  71 101 136 189 231 288 349 401
#     4  12  26  47  69 102 142 187 228 290 346 407
#     4  10  24  44  70 101 138 178 229 293 341 408
#
# _framework density 22.185375000000001
#
# number of rings (size 3 to 8) (size 9 to 14) (size 15 to 20)
#    0.000    0.750    3.750    2.250    3.500   10.000 
#    0.000    0.000    0.000    0.000    0.000    0.000 
#    0.000    0.000    0.000    0.000    0.000    0.000 
#
# Total GULP energy -89550.665311 kJ/mol
# GULP energy per Si atom -5596.916582 kJ/mol
# Density = 2.213488 g / cm^3
# Si number density = 22.185375 Si / 1000 Ang^3
#
#
#
# Elastic Constant Matrix: (Units=GPa)
#
#
# Indices 1 2 3 4 5 6 
#
# 1 48.3822 -68.6692 54.4981 -15.2216 6.9231 6.7729
# 2 -68.6692 -61.0934 161.2993 -48.5757 40.0965 -8.4054
# 3 54.4981 161.2993 20.2070 25.2357 -23.0044 3.6000
# 4 -15.2216 -48.5757 25.2357 38.0812 12.3206 8.0869
# 5 6.9231 40.0965 -23.0044 12.3206 22.1783 5.8056
# 6 6.7729 -8.4054 3.6000 8.0869 5.8056 22.7812
#
#
#
# Elastic Compliance Matrix: (Units=1/GPa)
#
#
# Indices 1 2 3 4 5 6 
#
# 1 0.013197 -0.003444 0.001989 -0.001121 0.006570 -0.006785
# 2 -0.003444 0.001628 0.003669 -0.003076 0.003307 0.001294
# 3 0.001989 0.003669 0.004586 0.003985 -0.004662 -0.000189
# 4 -0.001121 -0.003076 0.003985 0.020912 0.000798 -0.009058
# 5 0.006570 0.003307 -0.004662 0.000798 0.034130 -0.008977
# 6 -0.006785 0.001294 -0.000189 -0.009058 -0.008977 0.051923
#
#
# Mechanical properties :
#
#
# Convention : Reuss Voigt Hill
#
# Bulk Modulus (GPa) = 41.94877 33.52804 37.73840
# Shear Modulus (GPa) = 38.49295 7.29931 22.89613
#
# Velocity S-wave (km/s) = 4.16992 1.81584 3.21602
# Velocity P-wave (km/s) = 6.49105 4.42062 5.55318
#
# Compressibility (1/GPa) = 0.02383860
#
# Stress axis : x y z
#
# Youngs Moduli (GPa) = 75.77684 614.21062 218.07295
#
# Poissons Ratio (x) = 2.11542 -0.43381
# Poissons Ratio (y) = 0.26099 -0.80010
# Poissons Ratio (z) = -0.15074 -2.25351
#
# Static dielectric constant tensor:
#      x y z
#    x 1.806720 0.001370 -0.017890 
#    y 0.001370 1.801970 -0.001240 
#    z -0.017890 -0.001240 1.838240 
# 
# From -- ./inp_files/482712.got.cif
#   From: 2010.05.17/outbox.cif.g08.bks.cpg/sg2_242_cif.got.tgz:482712.got - 2010.06.03 11:33:40.
