data_PCOD9047313
_publ_section_title
;
Structure prediction by ZEFSAII (Michael W. Deem and Ramdas Pophale) SiO2 
 PCOD9047313
Probable space group: P -1
;
_chemical_formula_sum "Si O2"
_cell_formula_units_Z 16
_cell_length_a 12.827958
_cell_length_b 7.176637
_cell_length_c 11.312813
_cell_angle_alpha 131.327057
_cell_angle_beta 97.477252
_cell_angle_gamma 73.022314
_cell_volume 745.158662
_symmetry_space_group_name_H-M "P -1"
_symmetry_group_IT_number 2
_symmetry_cell_setting 'triclinic'
loop_
_space_group_symop_operation_xyz
x,y,z
-x,-y,-z
loop_
_atom_site_type_symbol
_atom_site_label
_atom_site_fract_x
_atom_site_fract_y
_atom_site_fract_z
Si Si1 0.764166 0.047256 0.679270
Si Si2 0.539154 0.597838 0.672631
Si Si3 0.092379 0.467312 0.403968
Si Si4 0.830165 0.533606 0.979769
Si Si5 0.242395 0.794978 0.508616
Si Si6 0.625996 0.914530 0.201816
Si Si7 0.485346 0.650009 0.187825
Si Si8 0.005451 0.283764 0.080338
O O1 0.775172 0.015073 0.526175
O O2 0.637260 0.161792 0.743894
O O3 0.814473 0.788145 0.650135
O O4 0.827406 0.264734 0.806451
O O5 0.500000 0.500000 0.500000
O O6 0.669151 0.469296 0.633716
O O7 0.500453 0.500878 0.749187
O O8 0.483980 0.903010 0.794574
O O9 0.138557 0.713245 0.502629
O O10 0.040478 0.419324 0.253888
O O11 0.000000 0.500000 0.500000
O O12 0.704449 0.697980 0.042509
O O13 0.890091 0.445196 0.076135
O O14 0.901731 0.697681 0.993970
O O15 0.297618 0.913116 0.670475
O O16 0.579584 0.795209 0.256275
O O17 0.500000 0.500000 0.000000
O O18 0.000000 0.000000 0.000000
#
# Coordination Sequence:
#
# PCOD9047313 Si02
#       8
#     2   2   2   2   2   2   2   2
#     4  11  23  45  66  96 137 172 212 274 331 388
#     4   9  22  43  65  95 139 176 214 262 336 400
#     4  12  27  42  67  96 127 173 228 271 324 388
#     4  11  24  43  68  97 131 172 215 274 339 382
#     4  10  24  44  64  95 135 176 214 269 330 390
#     4  11  24  41  70 100 133 174 220 272 326 405
#     4  11  23  41  69 105 134 172 223 269 334 400
#     4  11  25  45  66  92 132 173 220 273 330 391
#
# _framework density 21.471938000000002
#
# number of rings (size 3 to 8) (size 9 to 14) (size 15 to 20)
#    0.000    1.250    3.750    0.750    3.500    9.500 
#    0.000    0.000    0.000    0.000    0.000    0.000 
#    0.000    0.000    0.000    0.000    0.000    0.000 
#
# Total GULP energy -89336.784883 kJ/mol
# GULP energy per Si atom -5583.549055 kJ/mol
# Density = 2.142307 g / cm^3
# Si number density = 21.471938 Si / 1000 Ang^3
#
#
#
# Elastic Constant Matrix: (Units=GPa)
#
#
# Indices 1 2 3 4 5 6 
#
# 1 65.6438 12.1728 7.3288 -7.0406 0.5842 28.5230
# 2 12.1728 81.4567 25.3839 -21.1830 -10.0845 10.3669
# 3 7.3288 25.3839 42.6662 -9.6464 1.3698 5.1535
# 4 -7.0406 -21.1830 -9.6464 27.9922 2.9083 4.3613
# 5 0.5842 -10.0845 1.3698 2.9083 36.5484 2.0148
# 6 28.5230 10.3669 5.1535 4.3613 2.0148 43.5571
#
#
#
# Elastic Compliance Matrix: (Units=1/GPa)
#
#
# Indices 1 2 3 4 5 6 
#
# 1 0.023110 0.001184 -0.000686 0.008986 0.000163 -0.016241
# 2 0.001184 0.019278 -0.008317 0.012418 0.004946 -0.005852
# 3 -0.000686 -0.008317 0.029779 0.004390 -0.003674 -0.001364
# 4 0.008986 0.012418 0.004390 0.051166 -0.000155 -0.014475
# 5 0.000163 0.004946 -0.003674 -0.000155 0.028993 -0.002175
# 6 -0.016241 -0.005852 -0.001364 -0.014475 -0.002175 0.036698
#
#
# Mechanical properties :
#
#
# Convention : Reuss Voigt Hill
#
# Bulk Modulus (GPa) = 17.68997 31.05977 24.37487
# Shear Modulus (GPa) = 22.37093 31.27830 26.82462
#
# Velocity S-wave (km/s) = 3.23130 3.82082 3.53836
# Velocity P-wave (km/s) = 4.70938 5.82766 5.29811
#
# Compressibility (1/GPa) = 0.05652919
#
# Stress axis : x y z
#
# Youngs Moduli (GPa) = 43.27107 51.87350 33.58078
#
# Poissons Ratio (x) = -0.06143 0.02304
# Poissons Ratio (y) = -0.05125 0.27929
# Poissons Ratio (z) = 0.02969 0.43143
#
# Static dielectric constant tensor:
#      x y z
#    x 1.779680 -0.014340 0.007610 
#    y -0.014340 1.812990 0.032600 
#    z 0.007610 0.032600 1.801210 
# 
# From -- ./inp_files/336724.got.cif
#   From: 2010.05.17/outbox.cif.g08.bks.cpg/sg2_169_cif.got.tgz:336724.got - 2010.06.03 11:33:40.
