data_PCOD9047566
_publ_section_title
;
Structure prediction by ZEFSAII (Michael W. Deem and Ramdas Pophale) SiO2 
 PCOD9047566
Probable space group: P -1
;
_chemical_formula_sum "Si O2"
_cell_formula_units_Z 16
_cell_length_a 16.731775
_cell_length_b 5.570947
_cell_length_c 9.194382
_cell_angle_alpha 83.277555
_cell_angle_beta 84.490865
_cell_angle_gamma 54.780543
_cell_volume 694.903385
_symmetry_space_group_name_H-M "P -1"
_symmetry_group_IT_number 2
_symmetry_cell_setting 'triclinic'
loop_
_space_group_symop_operation_xyz
x,y,z
-x,-y,-z
loop_
_atom_site_type_symbol
_atom_site_label
_atom_site_fract_x
_atom_site_fract_y
_atom_site_fract_z
Si Si1 0.270839 0.485409 0.394816
Si Si2 0.414568 0.111357 0.627386
Si Si3 0.969935 0.644306 0.255386
Si Si4 0.440685 0.423475 0.190952
Si Si5 0.927200 0.909151 0.554092
Si Si6 0.793364 0.012299 0.036684
Si Si7 0.831256 0.485712 0.863509
Si Si8 0.417196 0.447212 0.880507
O O1 0.316388 0.270231 0.539949
O O2 0.354168 0.511992 0.308203
O O3 0.230436 0.382774 0.283503
O O4 0.180285 0.806066 0.428363
O O5 0.406436 0.325542 0.739522
O O6 0.500000 0.000000 0.500000
O O7 0.457575 0.816845 0.731164
O O8 0.929130 0.751821 0.417339
O O9 0.032539 0.292379 0.294805
O O10 0.053906 0.684280 0.184867
O O11 0.879316 0.812934 0.151616
O O12 0.470339 0.644141 0.133611
O O13 0.419641 0.321867 0.051158
O O14 0.000000 0.000000 0.500000
O O15 0.684114 0.226447 0.105370
O O16 0.813270 0.245559 0.946331
O O17 0.799823 0.765113 0.949856
#
# Coordination Sequence:
#
# PCOD9047566 Si02
#       8
#     2   2   2   2   2   2   2   2
#     4  11  23  47  71 103 149 197 248 303 380 444
#     4  10  24  44  68 104 141 193 247 303 372 443
#     4  11  26  46  73 110 150 199 255 305 376 450
#     4  10  24  45  72 103 146 190 248 314 370 446
#     4  11  24  45  71 105 150 200 243 311 367 448
#     4  12  28  46  79 112 151 200 250 316 370 448
#     4  12  26  48  73 112 151 201 250 308 377 438
#     4  11  24  45  72 109 144 193 248 312 373 443
#
# _framework density 23.024785999999999
#
# number of rings (size 3 to 8) (size 9 to 14) (size 15 to 20)
#    0.000    1.000    2.500    2.625    3.500    7.000 
#    4.500    0.000    0.000    0.000    0.000    0.000 
#    0.000    0.000    0.000    0.000    0.000    0.000 
#
# Total GULP energy -89262.811947 kJ/mol
# GULP energy per Si atom -5578.925747 kJ/mol
# Density = 2.297238 g / cm^3
# Si number density = 23.024786 Si / 1000 Ang^3
#
#
#
# Elastic Constant Matrix: (Units=GPa)
#
#
# Indices 1 2 3 4 5 6 
#
# 1 210.7658 449.0883 360.8583 248.6034 569.0257 -329.5416
# 2 449.0883 1615.5403 1232.7103 916.5406 2125.6137-1136.5817
# 3 360.8583 1232.7103 1054.5077 717.1429 1691.1139 -893.2771
# 4 248.6034 916.5406 717.1429 601.9150 1275.0322 -666.8614
# 5 569.0257 2125.6137 1691.1139 1275.0322 3036.5071-1566.5370
# 6 -329.5416-1136.5817 -893.2771 -666.8614-1566.5370 859.9979
#
#
#
# Elastic Compliance Matrix: (Units=1/GPa)
#
#
# Indices 1 2 3 4 5 6 
#
# 1 0.014570 -0.002319 -0.003390 0.000028 0.004365 0.006970
# 2 -0.002319 0.012492 -0.003179 -0.002983 -0.002075 0.006227
# 3 -0.003390 -0.003179 0.011533 0.000405 -0.003784 -0.000100
# 4 0.000028 -0.002983 0.000405 0.016157 -0.004561 0.000709
# 5 0.004365 -0.002075 -0.003784 -0.004561 0.009664 0.009067
# 6 0.006970 0.006227 -0.000100 0.000709 0.009067 0.029025
#
#
# Mechanical properties :
#
#
# Convention : Reuss Voigt Hill
#
# Bulk Modulus (GPa) = 48.03374 774.01417 411.02396
# Shear Modulus (GPa) = 42.31668 955.56114 498.93891
#
# Velocity S-wave (km/s) = 4.29170 20.39400 14.73658
# Velocity P-wave (km/s) = 6.74279 29.85714 21.64387
#
# Compressibility (1/GPa) = 0.02081870
#
# Stress axis : x y z
#
# Youngs Moduli (GPa) = 68.63392 80.04874 86.70851
#
# Poissons Ratio (x) = 0.18564 0.29396
# Poissons Ratio (y) = 0.15917 0.27565
# Poissons Ratio (z) = 0.23268 0.25448
#
# Static dielectric constant tensor:
#      x y z
#    x 1.899660 0.059030 -0.038540 
#    y 0.059030 1.951870 -0.003730 
#    z -0.038540 -0.003730 1.931750 
# 
# From -- ./inp_files/323698.got.cif
#   From: 2010.05.17/outbox.cif.g08.bks.cpg/sg2_162_cif.got.tgz:323698.got - 2010.06.03 11:33:40.
