data_PCOD9047875
_publ_section_title
;
Structure prediction by ZEFSAII (Michael W. Deem and Ramdas Pophale) SiO2 
 PCOD9047875
Probable space group: P -1
;
_chemical_formula_sum "Si O2"
_cell_formula_units_Z 16
_cell_length_a 20.151439
_cell_length_b 13.747701
_cell_length_c 8.936857
_cell_angle_alpha 48.924514
_cell_angle_beta 137.088760
_cell_angle_gamma 157.361866
_cell_volume 647.149910
_symmetry_space_group_name_H-M "P -1"
_symmetry_group_IT_number 2
_symmetry_cell_setting 'triclinic'
loop_
_space_group_symop_operation_xyz
x,y,z
-x,-y,-z
loop_
_atom_site_type_symbol
_atom_site_label
_atom_site_fract_x
_atom_site_fract_y
_atom_site_fract_z
Si Si1 0.369708 0.944162 0.495737
Si Si2 0.045579 0.726970 0.050896
Si Si3 0.677731 0.657616 0.533620
Si Si4 0.787466 0.045252 0.226168
Si Si5 0.636938 0.360074 0.185867
Si Si6 0.168651 0.695340 0.708463
Si Si7 0.575975 0.452116 0.245883
Si Si8 0.061347 0.203636 0.974959
O O1 0.176378 0.751793 0.276882
O O2 0.414761 0.844416 0.642672
O O3 0.345659 0.916540 0.664733
O O4 0.472043 0.195056 0.366877
O O5 0.842858 0.443597 0.062625
O O6 0.093739 0.895530 0.080442
O O7 0.083792 0.802174 0.866110
O O8 0.500000 0.500000 0.500000
O O9 0.807857 0.930221 0.450706
O O10 0.633992 0.562775 0.391765
O O11 0.784555 0.666279 0.782542
O O12 0.834161 0.196036 0.283295
O O13 0.563961 0.812846 0.039330
O O14 0.707460 0.543314 0.240919
O O15 0.819850 0.567534 0.169533
O O16 0.000000 0.500000 0.500000
O O17 0.500000 0.500000 0.000000
O O18 0.000000 0.000000 0.000000
#
# Coordination Sequence:
#
# PCOD9047875 Si02
#       8
#     2   2   2   2   2   2   2   2
#     4  11  24  45  76 107 152 199 245 313 383 447
#     4  11  25  48  69 110 149 199 248 313 387 448
#     4  12  26  47  76 111 148 205 253 313 386 458
#     4  12  25  44  79 106 151 196 262 317 375 457
#     4  12  26  48  76 117 146 203 262 313 381 461
#     4  10  24  44  71 102 145 197 246 306 390 445
#     4  12  24  46  77 112 153 193 257 316 377 452
#     4  12  30  48  76 110 159 200 259 317 390 460
#
# _framework density 24.723792
#
# number of rings (size 3 to 8) (size 9 to 14) (size 15 to 20)
#    0.000    0.500    5.000    1.500    8.750    2.000 
#    4.500    0.000    0.000    0.000    0.000    0.000 
#    0.000    0.000    0.000    0.000    0.000    0.000 
#
# Total GULP energy -89208.615678 kJ/mol
# GULP energy per Si atom -5575.538480 kJ/mol
# Density = 2.466752 g / cm^3
# Si number density = 24.723792 Si / 1000 Ang^3
#
#
#
# Elastic Constant Matrix: (Units=GPa)
#
#
# Indices 1 2 3 4 5 6 
#
# 1 189.2888 40.1925 38.8602 -11.1128 -9.0636 -38.0095
# 2 40.1925 72.3395 30.9473 -21.7081 -2.6438 -22.2675
# 3 38.8602 30.9473 97.6620 -30.4403 3.0667 1.0285
# 4 -11.1128 -21.7081 -30.4403 53.6771 -2.9979 -1.7345
# 5 -9.0636 -2.6438 3.0667 -2.9979 50.2488 -6.4127
# 6 -38.0095 -22.2675 1.0285 -1.7345 -6.4127 46.9197
#
#
#
# Elastic Compliance Matrix: (Units=1/GPa)
#
#
# Indices 1 2 3 4 5 6 
#
# 1 0.007332 -0.001094 -0.002755 -0.000180 0.002159 0.005769
# 2 -0.001094 0.021499 -0.004595 0.006348 0.002875 0.010045
# 3 -0.002755 -0.004595 0.014654 0.005620 -0.001909 -0.004787
# 4 -0.000180 0.006348 0.005620 0.024581 0.001925 0.003915
# 5 0.002159 0.002875 -0.001909 0.001925 0.021459 0.006159
# 6 0.005769 0.010045 -0.004787 0.003915 0.006159 0.031845
#
#
# Mechanical properties :
#
#
# Convention : Reuss Voigt Hill
#
# Bulk Modulus (GPa) = 37.59933 64.36557 50.98245
# Shear Modulus (GPa) = 33.98454 46.78848 40.38651
#
# Velocity S-wave (km/s) = 3.71154 4.35495 4.04605
# Velocity P-wave (km/s) = 5.79725 7.16783 6.51866
#
# Compressibility (1/GPa) = 0.02659622
#
# Stress axis : x y z
#
# Youngs Moduli (GPa) = 136.38404 46.51280 68.24096
#
# Poissons Ratio (x) = 0.05090 0.18804
# Poissons Ratio (y) = 0.14925 0.31356
# Poissons Ratio (z) = 0.37580 0.21372
#
# Static dielectric constant tensor:
#      x y z
#    x 2.180760 0.102990 -0.003350 
#    y 0.102990 2.290210 -0.036450 
#    z -0.003350 -0.036450 1.908480 
# 
# From -- ./inp_files/332954.got.cif
#   From: 2010.05.17/outbox.cif.g08.bks.cpg/sg2_167_cif.got.tgz:332954.got - 2010.06.03 11:33:40.
