data_PCOD9047769
_publ_section_title
;
Structure prediction by ZEFSAII (Michael W. Deem and Ramdas Pophale) SiO2 
 PCOD9047769
Probable space group: P -1
;
_chemical_formula_sum "Si O2"
_cell_formula_units_Z 14
_cell_length_a 5.331988
_cell_length_b 11.068204
_cell_length_c 10.218670
_cell_angle_alpha 66.572922
_cell_angle_beta 102.313503
_cell_angle_gamma 79.916570
_cell_volume 517.405017
_symmetry_space_group_name_H-M "P -1"
_symmetry_group_IT_number 2
_symmetry_cell_setting 'triclinic'
loop_
_space_group_symop_operation_xyz
x,y,z
-x,-y,-z
loop_
_atom_site_type_symbol
_atom_site_label
_atom_site_fract_x
_atom_site_fract_y
_atom_site_fract_z
Si Si1 0.517342 0.632224 0.355228
Si Si2 0.043171 0.355320 0.396069
Si Si3 0.266826 0.242560 0.182077
Si Si4 0.242284 0.860253 0.577820
Si Si5 0.238451 0.938243 0.286257
Si Si6 0.807688 0.930665 0.093521
Si Si7 0.010429 0.626729 0.154618
O O1 0.500000 0.500000 0.500000
O O2 0.787870 0.644353 0.455176
O O3 0.364963 0.799167 0.277976
O O4 0.328793 0.603480 0.224144
O O5 0.173789 0.293201 0.297032
O O6 0.842771 0.266788 0.437339
O O7 0.914319 0.514016 0.273684
O O8 0.588682 0.203017 0.249126
O O9 0.231540 0.096008 0.197880
O O10 0.101874 0.353977 0.013409
O O11 0.397597 0.902022 0.455592
O O12 0.000000 0.000000 0.500000
O O13 0.921464 0.946260 0.242782
O O14 0.860326 0.772316 0.137857
O O15 0.500000 0.000000 0.000000
O O16 0.000000 0.000000 0.000000
#
# Coordination Sequence:
#
# PCOD9047769 Si02
#       7
#     2   2   2   2   2   2   2
#     4   9  20  42  67  91 133 173 225 279 348 423
#     4  11  23  45  68 100 137 179 237 291 360 431
#     4  12  23  43  69  98 139 178 235 294 359 429
#     4  12  25  39  67  98 134 182 234 292 352 429
#     4  11  22  42  67 102 131 183 237 288 355 422
#     4  11  25  47  72 106 145 189 240 299 362 434
#     4  10  24  44  70 103 136 183 231 298 364 425
#
# _framework density 27.058107
#
# number of rings (size 3 to 8) (size 9 to 14) (size 15 to 20)
#    0.000    1.143    4.286    1.714    2.000    2.857 
#    2.571    6.429    0.000    0.000    0.000    0.000 
#    0.000    0.000    0.000    0.000    0.000    0.000 
#
# Total GULP energy -77971.649377 kJ/mol
# GULP energy per Si atom -5569.403527 kJ/mol
# Density = 2.699652 g / cm^3
# Si number density = 27.058107 Si / 1000 Ang^3
#
#
#
# Elastic Constant Matrix: (Units=GPa)
#
#
# Indices 1 2 3 4 5 6 
#
# 1 57.9924 27.6254 48.0454 5.5646 35.5133 12.8009
# 2 27.6254 165.7594 56.0307 -23.0317 23.1761 27.2209
# 3 48.0454 56.0307 245.5829 0.3691 43.4558 12.2340
# 4 5.5646 -23.0317 0.3691 63.3084 4.8164 6.8144
# 5 35.5133 23.1761 43.4558 4.8164 56.6643 12.4780
# 6 12.8009 27.2209 12.2340 6.8144 12.4780 41.7174
#
#
#
# Elastic Compliance Matrix: (Units=1/GPa)
#
#
# Indices 1 2 3 4 5 6 
#
# 1 0.030700 -0.001889 -0.002670 -0.001916 -0.015732 -0.002386
# 2 -0.001889 0.008113 -0.001159 0.003682 -0.000496 -0.004827
# 3 -0.002670 -0.001159 0.005171 -0.000140 -0.001954 0.000666
# 4 -0.001916 0.003682 -0.000140 0.017841 -0.000730 -0.004469
# 5 -0.015732 -0.000496 -0.001954 -0.000730 0.029957 -0.003117
# 6 -0.002386 -0.004827 0.000666 -0.004469 -0.003117 0.029320
#
#
# Mechanical properties :
#
#
# Convention : Reuss Voigt Hill
#
# Bulk Modulus (GPa) = 30.72218 81.41530 56.06874
# Shear Modulus (GPa) = 34.87080 54.84689 44.85885
#
# Velocity S-wave (km/s) = 3.59379 4.50711 4.07611
# Velocity P-wave (km/s) = 5.34783 7.56570 6.55130
#
# Compressibility (1/GPa) = 0.03254978
#
# Stress axis : x y z
#
# Youngs Moduli (GPa) = 32.57352 123.25982 193.37439
#
# Poissons Ratio (x) = 0.23281 0.51622
# Poissons Ratio (y) = 0.06152 0.22409
# Poissons Ratio (z) = 0.08696 0.14284
#
# Static dielectric constant tensor:
#      x y z
#    x 2.832840 -0.303570 -0.326340 
#    y -0.303570 2.212900 0.194960 
#    z -0.326340 0.194960 2.423310 
# 
# From -- ./inp_files/68485.got.cif
#   From: 2010.05.17/outbox.cif.g08.bks.cpg/sg2_35_cif.got.tgz:68485.got - 2010.06.03 11:33:40.
