data_PCOD9047928
_publ_section_title
;
Structure prediction by ZEFSAII (Michael W. Deem and Ramdas Pophale) SiO2 
 PCOD9047928
Probable space group: P -1
;
_chemical_formula_sum "Si O2"
_cell_formula_units_Z 16
_cell_length_a 12.073312
_cell_length_b 8.049327
_cell_length_c 18.722452
_cell_angle_alpha 129.453343
_cell_angle_beta 141.303575
_cell_angle_gamma 79.055387
_cell_volume 679.197699
_symmetry_space_group_name_H-M "P -1"
_symmetry_group_IT_number 2
_symmetry_cell_setting 'triclinic'
loop_
_space_group_symop_operation_xyz
x,y,z
-x,-y,-z
loop_
_atom_site_type_symbol
_atom_site_label
_atom_site_fract_x
_atom_site_fract_y
_atom_site_fract_z
Si Si1 0.315648 0.176291 0.340532
Si Si2 0.460852 0.640162 0.357520
Si Si3 0.224419 0.935931 0.640919
Si Si4 0.162183 0.016843 0.006673
Si Si5 0.029593 0.555152 0.171674
Si Si6 0.108111 0.333148 0.724390
Si Si7 0.596153 0.229793 0.784600
Si Si8 0.473125 0.963452 0.060246
O O1 0.500000 0.500000 0.500000
O O2 0.327038 0.183967 0.434584
O O3 0.065827 0.043217 0.151026
O O4 0.394404 0.008485 0.303061
O O5 0.499852 0.705596 0.311535
O O6 0.276675 0.677178 0.301025
O O7 0.330296 0.312688 0.210273
O O8 0.141377 0.104358 0.672583
O O9 0.441818 0.130375 0.750119
O O10 0.305405 0.859229 0.728351
O O11 0.031458 0.698896 0.425054
O O12 0.086342 0.759233 0.946942
O O13 0.301809 0.018295 0.013292
O O14 0.021044 0.694218 0.275987
O O15 0.854996 0.501256 0.008436
O O16 0.349007 0.642207 0.928759
O O17 0.500000 0.000000 0.000000
#
# Coordination Sequence:
#
# PCOD9047928 Si02
#       8
#     2   2   2   2   2   2   2   2
#     4  12  25  42  68  95 136 178 220 263 335 401
#     4  12  25  42  65 101 139 169 220 275 330 391
#     4  11  24  46  69  95 133 175 223 272 333 394
#     4  11  24  43  66  98 129 180 221 266 334 396
#     4  11  21  42  69  93 136 175 221 267 328 403
#     4  10  24  44  71  95 126 180 223 269 334 391
#     4  12  25  42  68  99 135 174 218 278 329 395
#     4  11  26  45  70  97 134 171 226 278 331 389
#
# _framework density 23.557206000000001
#
# number of rings (size 3 to 8) (size 9 to 14) (size 15 to 20)
#    0.000    0.750    5.000    3.000    3.500    0.500 
#    4.500    0.000    0.000    0.000    0.000    0.000 
#    0.000    0.000    0.000    0.000    0.000    0.000 
#
# Total GULP energy -89660.758267 kJ/mol
# GULP energy per Si atom -5603.797392 kJ/mol
# Density = 2.350359 g / cm^3
# Si number density = 23.557206 Si / 1000 Ang^3
#
#
#
# Elastic Constant Matrix: (Units=GPa)
#
#
# Indices 1 2 3 4 5 6 
#
# 1 112.3114 27.8051 16.4730 -7.3282 -30.5097 7.0700
# 2 27.8051 61.8878 13.6781 -2.8902 -13.0347 5.8320
# 3 16.4730 13.6781 112.5891 -10.9595 -24.3801 1.7972
# 4 -7.3282 -2.8902 -10.9595 37.9239 2.6092 -16.8535
# 5 -30.5097 -13.0347 -24.3801 2.6092 36.7162 -5.2994
# 6 7.0700 5.8320 1.7972 -16.8535 -5.2994 32.3910
#
#
#
# Elastic Compliance Matrix: (Units=1/GPa)
#
#
# Indices 1 2 3 4 5 6 
#
# 1 0.012360 -0.003707 0.000870 0.001913 0.009464 0.000465
# 2 -0.003707 0.018821 -0.001267 -0.000980 0.002452 -0.002618
# 3 0.000870 -0.001267 0.010895 0.003900 0.007622 0.002710
# 4 0.001913 -0.000980 0.003900 0.035905 0.004005 0.018880
# 5 0.009464 0.002452 0.007622 0.004005 0.041607 0.005961
# 6 0.000465 -0.002618 0.002710 0.018880 0.005961 0.041891
#
#
# Mechanical properties :
#
#
# Convention : Reuss Voigt Hill
#
# Bulk Modulus (GPa) = 29.52518 44.74453 37.13485
# Shear Modulus (GPa) = 27.62776 36.66167 32.14472
#
# Velocity S-wave (km/s) = 3.42832 3.94925 3.69797
# Velocity P-wave (km/s) = 5.31336 6.31116 5.83363
#
# Compressibility (1/GPa) = 0.03386939
#
# Stress axis : x y z
#
# Youngs Moduli (GPa) = 80.90398 53.13201 91.78292
#
# Poissons Ratio (x) = 0.19695 -0.07985
# Poissons Ratio (y) = 0.29989 0.11627
# Poissons Ratio (z) = -0.07038 0.06731
#
# Static dielectric constant tensor:
#      x y z
#    x 1.861730 0.038630 0.008280 
#    y 0.038630 1.918070 0.000840 
#    z 0.008280 0.000840 1.913810 
# 
# From -- ./inp_files/270105.got.cif
#   From: 2010.05.17/outbox.cif.g08.bks.cpg/sg2_136_cif.got.tgz:270105.got - 2010.06.03 11:33:40.
