data_PCOD9047887
_publ_section_title
;
Structure prediction by ZEFSAII (Michael W. Deem and Ramdas Pophale) SiO2 
 PCOD9047887
Probable space group: P -1
;
_chemical_formula_sum "Si O2"
_cell_formula_units_Z 14
_cell_length_a 16.939291
_cell_length_b 16.695272
_cell_length_c 20.008581
_cell_angle_alpha 158.715943
_cell_angle_beta 160.663737
_cell_angle_gamma 18.016994
_cell_volume 545.695136
_symmetry_space_group_name_H-M "P -1"
_symmetry_group_IT_number 2
_symmetry_cell_setting 'triclinic'
loop_
_space_group_symop_operation_xyz
x,y,z
-x,-y,-z
loop_
_atom_site_type_symbol
_atom_site_label
_atom_site_fract_x
_atom_site_fract_y
_atom_site_fract_z
Si Si1 0.424883 0.074898 0.404905
Si Si2 0.331128 0.141946 0.706813
Si Si3 0.750868 0.462763 0.220246
Si Si4 0.529536 0.512765 0.854759
Si Si5 0.704755 0.703668 0.778158
Si Si6 0.151538 0.945503 0.779789
Si Si7 0.746460 0.189236 0.390938
O O1 0.433306 0.996927 0.273333
O O2 0.574979 0.232601 0.656183
O O3 0.079878 0.267539 0.301247
O O4 0.628249 0.780851 0.375503
O O5 0.467771 0.944822 0.726771
O O6 0.077091 0.128066 0.463723
O O7 0.250131 0.436470 0.892792
O O8 0.726309 0.364338 0.196616
O O9 0.500000 0.500000 0.000000
O O10 0.416316 0.699134 0.843509
O O11 0.784396 0.429124 0.594411
O O12 0.554305 0.707412 0.730410
O O13 0.928608 0.777466 0.033672
O O14 0.228838 0.946529 0.765077
O O15 0.000000 0.000000 0.500000
#
# Coordination Sequence:
#
# PCOD9047887 Si02
#       7
#     2   2   2   2   2   2   2
#     4  12  26  49  77 108 149 198 251 306 376 439
#     4  11  24  47  70 109 147 189 244 307 365 442
#     4  12  26  50  77 107 149 197 250 312 371 437
#     4  11  26  45  74 106 146 191 244 304 368 436
#     4  10  24  44  71 104 141 187 239 295 363 437
#     4  11  24  46  71 106 143 189 240 295 370 436
#     4  11  22  45  73 101 143 183 238 298 360 434
#
# _framework density 25.655352000000001
#
# number of rings (size 3 to 8) (size 9 to 14) (size 15 to 20)
#    0.000    0.857    2.857    3.429    0.000    2.857 
#    5.143    0.000    0.000    0.000    0.000    0.000 
#    0.000    0.000    0.000    0.000    0.000    0.000 
#
# Total GULP energy -78336.485371 kJ/mol
# GULP energy per Si atom -5595.463241 kJ/mol
# Density = 2.559696 g / cm^3
# Si number density = 25.655352 Si / 1000 Ang^3
#
#
#
# Elastic Constant Matrix: (Units=GPa)
#
#
# Indices 1 2 3 4 5 6 
#
# 1 88.9717 9.3417 -7.2368 -8.8477 -17.9300 -0.8823
# 2 9.3417 76.9347 32.3707 0.6302 -2.0145 -5.7015
# 3 -7.2368 32.3707 202.3505 14.5396 -18.7284 -7.8307
# 4 -8.8477 0.6302 14.5396 42.4772 -2.6828 2.1288
# 5 -17.9300 -2.0145 -18.7284 -2.6828 45.2827 1.5346
# 6 -0.8823 -5.7015 -7.8307 2.1288 1.5346 37.3070
#
#
#
# Elastic Compliance Matrix: (Units=1/GPa)
#
#
# Indices 1 2 3 4 5 6 
#
# 1 0.012937 -0.001915 0.001092 0.002714 0.005655 -0.000145
# 2 -0.001915 0.014338 -0.002409 0.000055 -0.001171 0.001685
# 3 0.001092 -0.002409 0.005752 -0.001585 0.002581 0.000849
# 4 0.002714 0.000055 -0.001585 0.024861 0.001954 -0.001759
# 5 0.005655 -0.001171 0.002581 0.001954 0.025476 -0.000663
# 6 -0.000145 0.001685 0.000849 -0.001759 -0.000663 0.027365
#
#
# Mechanical properties :
#
#
# Convention : Reuss Voigt Hill
#
# Bulk Modulus (GPa) = 37.64737 48.57867 43.11302
# Shear Modulus (GPa) = 39.66721 47.26546 43.46634
#
# Velocity S-wave (km/s) = 3.93639 4.29689 4.12058
# Velocity P-wave (km/s) = 5.94696 6.60256 6.28332
#
# Compressibility (1/GPa) = 0.02656228
#
# Stress axis : x y z
#
# Youngs Moduli (GPa) = 77.29508 69.74425 173.85011
#
# Poissons Ratio (x) = 0.13358 -0.18981
# Poissons Ratio (y) = 0.14804 0.41885
# Poissons Ratio (z) = -0.08439 0.16803
#
# Static dielectric constant tensor:
#      x y z
#    x 2.080720 -0.039720 0.040030 
#    y -0.039720 1.993830 0.002870 
#    z 0.040030 0.002870 2.047860 
# 
# From -- ./inp_files/600487.got.cif
#   From: 2010.05.17/outbox.cif.g08.bks.cpg/sg2_301_cif.got.tgz:600487.got - 2010.06.03 11:33:40.
