data_PCOD9047342
_publ_section_title
;
Structure prediction by ZEFSAII (Michael W. Deem and Ramdas Pophale) SiO2 
 PCOD9047342
Probable space group: P -1
;
_chemical_formula_sum "Si O2"
_cell_formula_units_Z 14
_cell_length_a 7.948110
_cell_length_b 17.923567
_cell_length_c 6.401048
_cell_angle_alpha 62.960795
_cell_angle_beta 65.168161
_cell_angle_gamma 48.039309
_cell_volume 594.627495
_symmetry_space_group_name_H-M "P -1"
_symmetry_group_IT_number 2
_symmetry_cell_setting 'triclinic'
loop_
_space_group_symop_operation_xyz
x,y,z
-x,-y,-z
loop_
_atom_site_type_symbol
_atom_site_label
_atom_site_fract_x
_atom_site_fract_y
_atom_site_fract_z
Si Si1 0.352130 0.698274 0.022429
Si Si2 0.827746 0.044021 0.833524
Si Si3 0.399123 0.272874 0.809819
Si Si4 0.495717 0.416312 0.308011
Si Si5 0.973106 0.870320 0.690654
Si Si6 0.989957 0.403022 0.607722
Si Si7 0.953171 0.291062 0.447910
O O1 0.492712 0.598280 0.926617
O O2 0.189823 0.786115 0.826004
O O3 0.544263 0.701817 0.030967
O O4 0.171922 0.722711 0.271884
O O5 0.573325 0.149067 0.864775
O O6 0.946144 0.079330 0.573216
O O7 0.811500 0.959299 0.830596
O O8 0.000000 0.000000 0.000000
O O9 0.460784 0.332578 0.538600
O O10 0.135804 0.324974 0.820593
O O11 0.284990 0.530652 0.338729
O O12 0.739161 0.381680 0.310289
O O13 0.912266 0.808895 0.646701
O O14 0.080955 0.332911 0.442440
O O15 0.000000 0.500000 0.500000
#
# Coordination Sequence:
#
# PCOD9047342 Si02
#       7
#     2   2   2   2   2   2   2
#     4  10  17  34  57  81 116 142 193 232 269 332
#     4  11  18  32  61  91 109 141 189 231 278 337
#     4  10  19  35  54  85 117 145 181 237 281 331
#     4   9  19  36  58  81 107 153 193 228 277 326
#     4  10  19  32  59  89 108 144 189 234 279 321
#     4  10  22  38  57  79 118 154 186 231 286 332
#     4  10  19  36  57  83 113 149 191 233 272 330
#
# _framework density 23.544152
#
# number of rings (size 3 to 8) (size 9 to 14) (size 15 to 20)
#    0.000    2.000    5.714    0.429    0.000    1.143 
#    0.000    9.286    0.000    3.429    0.000    0.000 
#    0.000    0.000    0.000    0.000    0.000    0.000 
#
# Total GULP energy -78042.219165 kJ/mol
# GULP energy per Si atom -5574.444226 kJ/mol
# Density = 2.349056 g / cm^3
# Si number density = 23.544152 Si / 1000 Ang^3
#
#
#
# Elastic Constant Matrix: (Units=GPa)
#
#
# Indices 1 2 3 4 5 6 
#
# 1 51.2929 38.2631 30.1582 8.5855 25.5402 19.9803
# 2 38.2631 160.2378 61.6640 14.4270 38.6477 19.9644
# 3 30.1582 61.6640 115.4548 11.5200 20.7392 6.8113
# 4 8.5855 14.4270 11.5200 37.1433 7.1520 21.9858
# 5 25.5402 38.6477 20.7392 7.1520 44.2274 11.1352
# 6 19.9803 19.9644 6.8113 21.9858 11.1352 40.4330
#
#
#
# Elastic Compliance Matrix: (Units=1/GPa)
#
#
# Indices 1 2 3 4 5 6 
#
# 1 0.035929 -0.001702 -0.005699 0.005856 -0.013664 -0.015375
# 2 -0.001702 0.009507 -0.003583 -0.000164 -0.005181 -0.001733
# 3 -0.005699 -0.003583 0.012138 -0.003783 0.000198 0.004543
# 4 0.005856 -0.000164 -0.003783 0.041519 -0.002091 -0.024175
# 5 -0.013664 -0.005181 0.000198 -0.002091 0.035084 0.000752
# 6 -0.015375 -0.001733 0.004543 -0.024175 0.000752 0.045359
#
#
# Mechanical properties :
#
#
# Convention : Reuss Voigt Hill
#
# Bulk Modulus (GPa) = 28.08647 65.23957 46.66302
# Shear Modulus (GPa) = 23.43324 37.48740 30.46032
#
# Velocity S-wave (km/s) = 3.15824 3.99459 3.60078
# Velocity P-wave (km/s) = 5.02539 7.00323 6.09507
#
# Compressibility (1/GPa) = 0.03560433
#
# Stress axis : x y z
#
# Youngs Moduli (GPa) = 27.83259 105.19085 82.38863
#
# Poissons Ratio (x) = 0.17909 0.46949
# Poissons Ratio (y) = 0.04738 0.29523
# Poissons Ratio (z) = 0.15861 0.37694
#
# Static dielectric constant tensor:
#      x y z
#    x 2.096370 0.031490 -0.096370 
#    y 0.031490 1.960290 0.023890 
#    z -0.096370 0.023890 1.915950 
# 
# From -- ./inp_files/34571.got.cif
#   From: 2010.05.17/outbox.cif.g08.bks.cpg/sg2_18_cif.got.tgz:34571.got - 2010.06.03 11:33:40.
