data_PCOD9047220
_publ_section_title
;
Structure prediction by ZEFSAII (Michael W. Deem and Ramdas Pophale) SiO2 
 PCOD9047220
Probable space group: P -1
;
_chemical_formula_sum "Si O2"
_cell_formula_units_Z 16
_cell_length_a 11.845612
_cell_length_b 8.021053
_cell_length_c 18.279218
_cell_angle_alpha 107.865560
_cell_angle_beta 26.490154
_cell_angle_gamma 93.309710
_cell_volume 633.890605
_symmetry_space_group_name_H-M "P -1"
_symmetry_group_IT_number 2
_symmetry_cell_setting 'triclinic'
loop_
_space_group_symop_operation_xyz
x,y,z
-x,-y,-z
loop_
_atom_site_type_symbol
_atom_site_label
_atom_site_fract_x
_atom_site_fract_y
_atom_site_fract_z
Si Si1 0.472505 0.887929 0.691956
Si Si2 0.601075 0.436562 0.351203
Si Si3 0.179754 0.349831 0.966136
Si Si4 0.228865 0.192477 0.336131
Si Si5 0.677814 0.334573 0.584792
Si Si6 0.234852 0.067824 0.603531
Si Si7 0.551492 0.319700 0.049302
Si Si8 0.539383 0.257489 0.880172
O O1 0.268730 0.800710 0.771631
O O2 0.644348 0.809312 0.658033
O O3 0.705422 0.819051 0.481620
O O4 0.287711 0.132123 0.836773
O O5 0.500000 0.500000 0.500000
O O6 0.338949 0.537786 0.459190
O O7 0.832216 0.494908 0.192878
O O8 0.378553 0.420188 0.817892
O O9 0.095621 0.785818 0.156078
O O10 0.261579 0.305271 0.998180
O O11 0.431092 0.226668 0.165892
O O12 0.907118 0.334784 0.508624
O O13 0.238497 0.975835 0.299461
O O14 0.756729 0.121714 0.470495
O O15 0.500000 0.000000 0.500000
O O16 0.403202 0.564381 0.155816
O O17 0.507743 0.258305 0.984999
#
# Coordination Sequence:
#
# PCOD9047220 Si02
#       8
#     2   2   2   2   2   2   2   2
#     4  10  26  47  73 104 148 197 240 312 376 448
#     4  12  27  45  73 110 146 191 251 306 371 456
#     4  10  25  47  72 100 148 195 241 304 378 445
#     4  11  25  48  75 109 149 196 258 310 378 446
#     4  11  26  44  72 103 146 194 245 310 372 445
#     4  11  25  45  71 108 151 196 248 306 378 449
#     4  11  25  43  76 108 153 200 249 311 377 444
#     4  10  24  43  74 107 147 198 250 308 375 443
#
# _framework density 25.240949000000001
#
# number of rings (size 3 to 8) (size 9 to 14) (size 15 to 20)
#    0.000    1.250    1.250    1.875    8.750    8.000 
#    0.000    0.000    0.000    0.000    0.000    0.000 
#    0.000    0.000    0.000    0.000    0.000    0.000 
#
# Total GULP energy -89373.177113 kJ/mol
# GULP energy per Si atom -5585.823570 kJ/mol
# Density = 2.518350 g / cm^3
# Si number density = 25.240949 Si / 1000 Ang^3
#
#
#
# Elastic Constant Matrix: (Units=GPa)
#
#
# Indices 1 2 3 4 5 6 
#
# 1 191.8317 26.0879 68.5653 -13.1623 26.9985 -18.1070
# 2 26.0879 89.9331 41.2662 -4.4703 23.0063 2.5652
# 3 68.5653 41.2662 126.7860 -36.6363 16.4470 -13.3906
# 4 -13.1623 -4.4703 -36.6363 32.7952 -5.1302 7.5668
# 5 26.9985 23.0063 16.4470 -5.1302 25.0704 0.2172
# 6 -18.1070 2.5652 -13.3906 7.5668 0.2172 42.8361
#
#
#
# Elastic Compliance Matrix: (Units=1/GPa)
#
#
# Indices 1 2 3 4 5 6 
#
# 1 0.007596 0.001424 -0.004312 -0.003276 -0.007349 0.002394
# 2 0.001424 0.016990 -0.006371 -0.006163 -0.014196 -0.001246
# 3 -0.004312 -0.006371 0.016740 0.016341 0.002844 0.000891
# 4 -0.003276 -0.006163 0.016341 0.048989 0.008528 -0.004605
# 5 -0.007349 -0.014196 0.002844 0.008528 0.060736 -0.003182
# 6 0.002394 -0.001246 0.000891 -0.004605 -0.003182 0.025539
#
#
# Mechanical properties :
#
#
# Convention : Reuss Voigt Hill
#
# Bulk Modulus (GPa) = 43.84376 75.59885 59.72131
# Shear Modulus (GPa) = 24.66576 38.31576 31.49076
#
# Velocity S-wave (km/s) = 3.12943 3.90038 3.53598
# Velocity P-wave (km/s) = 5.51956 7.09224 6.35474
#
# Compressibility (1/GPa) = 0.02280826
#
# Stress axis : x y z
#
# Youngs Moduli (GPa) = 131.65032 58.85671 59.73815
#
# Poissons Ratio (x) = -0.08381 0.25758
# Poissons Ratio (y) = -0.18747 0.38060
# Poissons Ratio (z) = 0.56765 0.37498
#
# Static dielectric constant tensor:
#      x y z
#    x 2.012290 0.021610 -0.058270 
#    y 0.021610 2.147460 -0.001830 
#    z -0.058270 -0.001830 2.034780 
# 
# From -- ./inp_files/593668.got.cif
#   From: 2010.05.17/outbox.cif.g08.bks.cpg/sg2_297_cif.got.tgz:593668.got - 2010.06.03 11:33:40.
