data_PCOD9047601
_publ_section_title
;
Structure prediction by ZEFSAII (Michael W. Deem and Ramdas Pophale) SiO2 
 PCOD9047601
Probable space group: P -1
;
_chemical_formula_sum "Si O2"
_cell_formula_units_Z 13
_cell_length_a 18.467222
_cell_length_b 17.703241
_cell_length_c 10.016432
_cell_angle_alpha 134.185726
_cell_angle_beta 48.075335
_cell_angle_gamma 163.460536
_cell_volume 668.479319
_symmetry_space_group_name_H-M "P -1"
_symmetry_group_IT_number 2
_symmetry_cell_setting 'triclinic'
loop_
_space_group_symop_operation_xyz
x,y,z
-x,-y,-z
loop_
_atom_site_type_symbol
_atom_site_label
_atom_site_fract_x
_atom_site_fract_y
_atom_site_fract_z
Si Si1 0.999923 0.260907 0.843504
Si Si2 0.000002 0.358904 0.561778
Si Si3 0.000000 0.500000 0.000000
Si Si4 0.500075 0.276860 0.024085
Si Si5 0.000021 0.868179 0.583339
Si Si6 0.499999 0.884897 0.418113
Si Si7 0.500012 0.493958 0.830004
O O1 0.999941 0.377932 0.921510
O O2 0.250994 0.495391 0.912361
O O3 0.999982 0.171038 0.617983
O O4 0.748785 0.993175 0.912297
O O5 0.000029 0.240971 0.471179
O O6 0.251163 0.623373 0.491520
O O7 0.999984 0.443527 0.784834
O O8 0.748836 0.121034 0.491504
O O9 0.500055 0.392288 0.100249
O O10 0.500013 0.197084 0.802719
O O11 0.750294 0.683135 0.704164
O O12 0.249801 0.182600 0.704112
O O13 0.500000 0.000000 0.500000
O O14 0.500000 0.500000 0.000000
#
# Coordination Sequence:
#
# PCOD9047601 Si02
#       7
#     2   2   1   2   2   2   2
#     4  11  25  43  66  96 128 167 211 260 317 374
#     4  11  23  41  65  92 125 165 213 258 312 378
#     4  10  24  44  68  94 130 168 210 260 316 380
#     4  12  25  42  66  96 129 165 213 262 312 376
#     4  11  24  42  65  92 125 168 212 259 311 372
#     4  12  24  41  64  93 128 164 206 262 321 375
#     4  12  25  43  66  93 128 169 212 261 316 372
#
# _framework density 19.447125
#
# number of rings (size 3 to 8) (size 9 to 14) (size 15 to 20)
#    0.000    0.615    0.000    8.308    0.000    8.615 
#    0.000    0.000    0.000    0.000    0.000    0.000 
#    0.000    0.000    0.000    0.000    0.000    0.000 
#
# Total GULP energy -72469.570135 kJ/mol
# GULP energy per Si atom -5574.582318 kJ/mol
# Density = 1.940286 g / cm^3
# Si number density = 19.447125 Si / 1000 Ang^3
#
#
#
# Elastic Constant Matrix: (Units=GPa)
#
#
# Indices 1 2 3 4 5 6 
#
# 1 108.6551 116.1215 127.2171 -99.1725 -14.4678 -70.9093
# 2 116.1215 194.8696 121.3135 44.4607 28.7866 61.6074
# 3 127.2171 121.3135 249.0353 48.1963 20.4211 32.4193
# 4 -99.1725 44.4607 48.1963 -274.7260 -70.5151 -185.3334
# 5 -14.4678 28.7866 20.4211 -70.5151 33.1607 -31.5731
# 6 -70.9093 61.6074 32.4193 -185.3334 -31.5731 -97.3088
#
#
#
# Elastic Compliance Matrix: (Units=1/GPa)
#
#
# Indices 1 2 3 4 5 6 
#
# 1 0.014456 -0.007287 -0.002373 -0.014391 -0.004268 0.012855
# 2 -0.007287 0.013616 -0.003830 0.015799 0.003327 -0.018515
# 3 -0.002373 -0.003830 0.006838 -0.001381 -0.000647 0.004422
# 4 -0.014391 0.015799 -0.001381 0.034951 0.008304 -0.049233
# 5 -0.004268 0.003327 -0.000647 0.008304 0.025338 -0.019036
# 6 0.012855 -0.018515 0.004422 -0.049233 -0.019036 0.070051
#
#
# Mechanical properties :
#
#
# Convention : Reuss Voigt Hill
#
# Bulk Modulus (GPa) = 126.12123 142.42938 134.27530
# Shear Modulus (GPa) = 25.65737 -55.24764 -14.79514
#
# Velocity S-wave (km/s) = 3.63621 -5.33581 -2.76123
# Velocity P-wave (km/s) = 9.08975 5.95291 7.68312
#
# Compressibility (1/GPa) = 0.00792888
#
# Stress axis : x y z
#
# Youngs Moduli (GPa) = 69.17439 73.44306 146.23365
#
# Poissons Ratio (x) = 0.53519 0.34707
# Poissons Ratio (y) = 0.50408 0.56012
# Poissons Ratio (z) = 0.16418 0.28131
#
# Static dielectric constant tensor:
#      x y z
#    x 1.673600 -0.010960 0.003010 
#    y -0.010960 1.633440 0.000900 
#    z 0.003010 0.000900 1.653500 
# 
# From -- ./inp_files/23113.got.cif
#   From: 2010.05.17/outbox.cif.g08.bks.cpg/sg2_12_cif.got.tgz:23113.got - 2010.06.03 11:33:40.
