data_PCOD9047332
_publ_section_title
;
Structure prediction by ZEFSAII (Michael W. Deem and Ramdas Pophale) SiO2 
 PCOD9047332
Probable space group: P -1
;
_chemical_formula_sum "Si O2"
_cell_formula_units_Z 16
_cell_length_a 18.437276
_cell_length_b 14.973840
_cell_length_c 5.455890
_cell_angle_alpha 111.294805
_cell_angle_beta 80.100297
_cell_angle_gamma 149.079631
_cell_volume 689.783411
_symmetry_space_group_name_H-M "P -1"
_symmetry_group_IT_number 2
_symmetry_cell_setting 'triclinic'
loop_
_space_group_symop_operation_xyz
x,y,z
-x,-y,-z
loop_
_atom_site_type_symbol
_atom_site_label
_atom_site_fract_x
_atom_site_fract_y
_atom_site_fract_z
Si Si1 0.776359 0.904546 0.336002
Si Si2 0.127139 0.674534 0.409932
Si Si3 0.496947 0.706825 0.443468
Si Si4 0.453892 0.056405 0.630563
Si Si5 0.318303 0.567477 0.806744
Si Si6 0.056629 0.871019 0.021919
Si Si7 0.203835 0.297959 0.952227
Si Si8 0.914550 0.554617 0.110153
O O1 0.616645 0.769330 0.340434
O O2 0.857527 0.008983 0.655192
O O3 0.773927 0.788863 0.165001
O O4 0.844853 0.030731 0.178370
O O5 0.000000 0.500000 0.500000
O O6 0.058212 0.684764 0.307668
O O7 0.285374 0.870122 0.638404
O O8 0.150421 0.615928 0.137936
O O9 0.546734 0.872101 0.528858
O O10 0.451283 0.656817 0.699959
O O11 0.340482 0.503547 0.210944
O O12 0.500000 0.000000 0.500000
O O13 0.584750 0.252162 0.903058
O O14 0.198402 0.510488 0.722716
O O15 0.211596 0.361709 0.752145
O O16 0.959628 0.670560 0.965234
O O17 0.948644 0.837215 0.984499
#
# Coordination Sequence:
#
# PCOD9047332 Si02
#       8
#     2   2   2   2   2   2   2   2
#     4  12  27  47  75 110 146 190 242 303 358 428
#     4  11  25  41  71  98 138 181 240 295 361 421
#     4  11  27  44  72 102 143 189 237 301 356 431
#     4  11  24  45  65 102 136 185 234 292 356 430
#     4  10  24  44  71 100 141 188 239 289 361 425
#     4  11  27  45  75 106 148 189 240 299 362 426
#     4  10  25  47  73 104 142 191 241 292 361 431
#     4  10  24  44  65 104 137 189 238 299 354 429
#
# _framework density 23.195689999999999
#
# number of rings (size 3 to 8) (size 9 to 14) (size 15 to 20)
#    0.000    1.250    1.250    1.875   14.000    3.000 
#    0.000    0.000    0.000    0.000    0.000    0.000 
#    0.000    0.000    0.000    0.000    0.000    0.000 
#
# Total GULP energy -89249.254676 kJ/mol
# GULP energy per Si atom -5578.078417 kJ/mol
# Density = 2.314290 g / cm^3
# Si number density = 23.195690 Si / 1000 Ang^3
#
#
#
# Elastic Constant Matrix: (Units=GPa)
#
#
# Indices 1 2 3 4 5 6 
#
# 1 54.7109 9.4892 -12.1526 -35.3269 29.3665 -20.8810
# 2 9.4892 73.2316 9.9711 -18.7502 13.8586 10.2225
# 3 -12.1526 9.9711 39.8112 -10.6030 7.9780 -14.7162
# 4 -35.3269 -18.7502 -10.6030 19.8541 22.0484 -19.6318
# 5 29.3665 13.8586 7.9780 22.0484 14.9810 21.3683
# 6 -20.8810 10.2225 -14.7162 -19.6318 21.3683 31.6455
#
#
#
# Elastic Compliance Matrix: (Units=1/GPa)
#
#
# Indices 1 2 3 4 5 6 
#
# 1 0.007069 -0.003149 -0.002666 -0.006863 0.008562 -0.005597
# 2 -0.003149 0.017244 -0.006220 0.003675 -0.002521 -0.006558
# 3 -0.002666 -0.006220 0.022580 -0.007080 0.008327 0.000735
# 4 -0.006863 0.003675 -0.007080 0.011102 0.013860 -0.011480
# 5 0.008562 -0.002521 0.008327 0.013860 0.012463 0.010519
# 6 -0.005597 -0.006558 0.000735 -0.011480 0.010519 0.016142
#
#
# Mechanical properties :
#
#
# Convention : Reuss Voigt Hill
#
# Bulk Modulus (GPa) = 43.81847 20.26323 32.04085
# Shear Modulus (GPa) = 42.27331 23.99251 33.13291
#
# Velocity S-wave (km/s) = 4.27366 3.21962 3.78353
# Velocity P-wave (km/s) = 6.57906 4.75142 5.73847
#
# Compressibility (1/GPa) = 0.02282143
#
# Stress axis : x y z
#
# Youngs Moduli (GPa) = 141.47215 57.99131 44.28682
#
# Poissons Ratio (x) = 0.18262 0.11808
# Poissons Ratio (y) = 0.44550 0.27548
# Poissons Ratio (z) = 0.37720 0.36072
#
# Static dielectric constant tensor:
#      x y z
#    x 1.883340 -0.030380 0.048640 
#    y -0.030380 1.966310 -0.144290 
#    z 0.048640 -0.144290 2.045610 
# 
# From -- ./inp_files/106897.got.cif
#   From: 2010.05.17/outbox.cif.g08.bks.cpg/sg2_54_cif.got.tgz:106897.got - 2010.06.03 11:33:40.
