data_PCOD9047060
_publ_section_title
;
Structure prediction by ZEFSAII (Michael W. Deem and Ramdas Pophale) SiO2 
 PCOD9047060
Probable space group: P -1
;
_chemical_formula_sum "Si O2"
_cell_formula_units_Z 16
_cell_length_a 10.470622
_cell_length_b 9.872545
_cell_length_c 11.779616
_cell_angle_alpha 67.382493
_cell_angle_beta 142.173546
_cell_angle_gamma 104.609149
_cell_volume 686.473021
_symmetry_space_group_name_H-M "P -1"
_symmetry_group_IT_number 2
_symmetry_cell_setting 'triclinic'
loop_
_space_group_symop_operation_xyz
x,y,z
-x,-y,-z
loop_
_atom_site_type_symbol
_atom_site_label
_atom_site_fract_x
_atom_site_fract_y
_atom_site_fract_z
Si Si1 0.851422 0.634499 0.304765
Si Si2 0.822419 0.378578 0.753469
Si Si3 0.463052 0.000022 0.173148
Si Si4 0.989894 0.878091 0.162463
Si Si5 0.312336 0.084627 0.413429
Si Si6 0.439322 0.787559 0.030611
Si Si7 0.744749 0.503379 0.048627
Si Si8 0.597797 0.591126 0.690873
O O1 0.677443 0.713476 0.238880
O O2 0.714761 0.567688 0.131421
O O3 0.000000 0.500000 0.500000
O O4 0.980282 0.756698 0.295594
O O5 0.891954 0.206836 0.832816
O O6 0.739783 0.447022 0.792221
O O7 0.628437 0.414236 0.520988
O O8 0.022526 0.461473 0.833479
O O9 0.625677 0.947835 0.401491
O O10 0.385836 0.870102 0.083341
O O11 0.552979 0.103828 0.106783
O O12 0.251809 0.081520 0.050947
O O13 0.108928 0.010189 0.252901
O O14 0.309887 0.258901 0.332687
O O15 0.500000 0.000000 0.500000
O O16 0.287565 0.666011 0.931524
O O17 0.592444 0.587798 0.823213
#
# Coordination Sequence:
#
# PCOD9047060 Si02
#       8
#     2   2   2   2   2   2   2   2
#     4  10  24  43  71 102 135 177 230 286 339 404
#     4  10  24  44  67 101 140 179 229 282 333 406
#     4  10  26  48  65  99 145 173 231 280 342 405
#     4  10  24  45  68  98 133 184 224 275 340 406
#     4  12  27  42  73  98 137 187 224 279 339 414
#     4  10  24  46  70  99 137 185 220 290 340 404
#     4  11  25  41  73 100 136 179 230 280 346 406
#     4  11  26  44  66 103 142 179 230 285 339 399
#
# _framework density 23.307544
#
# number of rings (size 3 to 8) (size 9 to 14) (size 15 to 20)
#    0.000    1.500    1.250    0.750   15.750    1.500 
#    0.000    1.875    0.000    0.000    0.000    0.000 
#    0.000    0.000    0.000    0.000    0.000    0.000 
#
# Total GULP energy -89561.192035 kJ/mol
# GULP energy per Si atom -5597.574502 kJ/mol
# Density = 2.325449 g / cm^3
# Si number density = 23.307544 Si / 1000 Ang^3
#
#
#
# Elastic Constant Matrix: (Units=GPa)
#
#
# Indices 1 2 3 4 5 6 
#
# 1 34.3051 1.2721 20.3526 -4.6290 -10.3862 -12.0851
# 2 1.2721 81.3333 40.2038 8.2921 -24.1433 15.5027
# 3 20.3526 40.2038 89.7812 7.9471 -25.0690 8.8153
# 4 -4.6290 8.2921 7.9471 38.0135 5.6054 6.4312
# 5 -10.3862 -24.1433 -25.0690 5.6054 22.7999 1.2908
# 6 -12.0851 15.5027 8.8153 6.4312 1.2908 53.5334
#
#
#
# Elastic Compliance Matrix: (Units=1/GPa)
#
#
# Indices 1 2 3 4 5 6 
#
# 1 0.042286 0.006557 -0.009384 0.002030 0.014903 0.008589
# 2 0.006557 0.022952 -0.003822 -0.006340 0.024896 -0.004376
# 3 -0.009384 -0.003822 0.020324 -0.006209 0.015777 -0.003993
# 4 0.002030 -0.006340 -0.006209 0.032275 -0.020547 -0.000065
# 5 0.014903 0.024896 0.015777 -0.020547 0.099771 -0.006380
# 6 0.008589 -0.004376 -0.003993 -0.000065 -0.006380 0.022705
#
#
# Mechanical properties :
#
#
# Convention : Reuss Voigt Hill
#
# Bulk Modulus (GPa) = 13.83806 36.56405 25.20105
# Shear Modulus (GPa) = 18.00501 32.44212 25.22357
#
# Velocity S-wave (km/s) = 2.78240 3.73489 3.29326
# Velocity P-wave (km/s) = 4.03390 5.85840 5.02957
#
# Compressibility (1/GPa) = 0.07226449
#
# Stress axis : x y z
#
# Youngs Moduli (GPa) = 23.64840 43.56840 49.20329
#
# Poissons Ratio (x) = -0.28567 0.46171
# Poissons Ratio (y) = -0.15506 0.18806
# Poissons Ratio (z) = 0.22191 0.16652
#
# Static dielectric constant tensor:
#      x y z
#    x 1.906000 -0.005580 -0.005170 
#    y -0.005580 1.913260 -0.036590 
#    z -0.005170 -0.036590 1.838950 
# 
# From -- ./inp_files/417249.got.cif
#   From: 2010.05.17/outbox.cif.g08.bks.cpg/sg2_209_cif.got.tgz:417249.got - 2010.06.03 11:33:40.
