data_PCOD9047458
_publ_section_title
;
Structure prediction by ZEFSAII (Michael W. Deem and Ramdas Pophale) SiO2 
 PCOD9047458
Probable space group: P -1
;
_chemical_formula_sum "Si O2"
_cell_formula_units_Z 12
_cell_length_a 6.689403
_cell_length_b 14.354086
_cell_length_c 14.862815
_cell_angle_alpha 152.066385
_cell_angle_beta 46.958556
_cell_angle_gamma 121.617683
_cell_volume 475.503693
_symmetry_space_group_name_H-M "P -1"
_symmetry_group_IT_number 2
_symmetry_cell_setting 'triclinic'
loop_
_space_group_symop_operation_xyz
x,y,z
-x,-y,-z
loop_
_atom_site_type_symbol
_atom_site_label
_atom_site_fract_x
_atom_site_fract_y
_atom_site_fract_z
Si Si1 0.200207 0.170653 0.834945
Si Si2 0.769349 0.237853 0.634215
Si Si3 0.854195 0.570218 0.201554
Si Si4 0.110515 0.905132 0.979202
Si Si5 0.327250 0.288015 0.285009
Si Si6 0.281924 0.498997 0.295363
O O1 0.490713 0.218846 0.756201
O O2 0.154714 0.146936 0.934060
O O3 0.163598 0.967192 0.620875
O O4 0.954924 0.359988 0.044181
O O5 0.715093 0.440220 0.760059
O O6 0.008978 0.260899 0.650384
O O7 0.516881 0.631321 0.360600
O O8 0.000000 0.500000 0.000000
O O9 0.208198 0.084802 0.156360
O O10 0.398631 0.732717 0.754651
O O11 0.000000 0.000000 0.000000
O O12 0.377701 0.323465 0.193358
O O13 0.051177 0.452067 0.540969
#
# Coordination Sequence:
#
# PCOD9047458 Si02
#       6
#     2   2   2   2   2   2
#     4  11  24  50  72 109 148 191 252 301 376 434
#     4  11  26  47  74 107 151 190 247 315 365 440
#     4  12  26  45  75 111 145 197 246 304 378 440
#     4  11  24  44  72 105 143 195 250 303 367 438
#     4  10  24  44  67 103 149 191 246 302 360 446
#     4  11  23  45  70 106 151 190 248 303 367 443
#
# _framework density 25.236398000000001
#
# number of rings (size 3 to 8) (size 9 to 14) (size 15 to 20)
#    0.000    1.000    5.000    0.500    2.333    2.000 
#    0.000    3.333    0.000    0.000    0.000    0.000 
#    0.000    0.000    0.000    0.000    0.000    0.000 
#
# Total GULP energy -66913.960416 kJ/mol
# GULP energy per Si atom -5576.163368 kJ/mol
# Density = 2.517896 g / cm^3
# Si number density = 25.236398 Si / 1000 Ang^3
#
#
#
# Elastic Constant Matrix: (Units=GPa)
#
#
# Indices 1 2 3 4 5 6 
#
# 1 160.1246 62.7038 42.6401 -18.0052 -19.1186 8.7789
# 2 62.7038 181.5419 16.1561 -26.3578 5.0414 -7.8846
# 3 42.6401 16.1561 62.6043 4.6747 -3.5609 0.9672
# 4 -18.0052 -26.3578 4.6747 35.0073 1.8495 3.0339
# 5 -19.1186 5.0414 -3.5609 1.8495 31.6684 -2.3110
# 6 8.7789 -7.8846 0.9672 3.0339 -2.3110 55.3855
#
#
#
# Elastic Compliance Matrix: (Units=1/GPa)
#
#
# Indices 1 2 3 4 5 6 
#
# 1 0.010099 -0.002601 -0.006162 0.003931 0.005454 -0.001851
# 2 -0.002601 0.007202 -0.000587 0.004224 -0.002950 0.001093
# 3 -0.006162 -0.000587 0.020739 -0.006409 -0.000859 0.000846
# 4 0.003931 0.004224 -0.006409 0.034848 -0.001191 -0.001869
# 5 0.005454 -0.002950 -0.000859 -0.001191 0.035332 0.000270
# 6 -0.001851 0.001093 0.000846 -0.001869 0.000270 0.018603
#
#
# Mechanical properties :
#
#
# Convention : Reuss Voigt Hill
#
# Bulk Modulus (GPa) = 51.70875 71.91899 61.81387
# Shear Modulus (GPa) = 32.90128 43.26361 38.08244
#
# Velocity S-wave (km/s) = 3.61463 4.14494 3.88884
# Velocity P-wave (km/s) = 6.16076 7.17408 6.68664
#
# Compressibility (1/GPa) = 0.01933909
#
# Stress axis : x y z
#
# Youngs Moduli (GPa) = 99.01687 138.85728 48.21929
#
# Poissons Ratio (x) = 0.36116 0.29714
# Poissons Ratio (y) = 0.25754 0.02831
# Poissons Ratio (z) = 0.61016 0.08152
#
# Static dielectric constant tensor:
#      x y z
#    x 2.037020 -0.051610 0.000500 
#    y -0.051610 2.039900 0.018250 
#    z 0.000500 0.018250 2.144620 
# 
# From -- ./inp_files/130900.got.cif
#   From: 2010.05.17/outbox.cif.g08.bks.cpg/sg2_66_cif.got.tgz:130900.got - 2010.06.03 11:33:40.
