data_PCOD9047545
_publ_section_title
;
Structure prediction by ZEFSAII (Michael W. Deem and Ramdas Pophale) SiO2 
 PCOD9047545
Probable space group: P -1
;
_chemical_formula_sum "Si O2"
_cell_formula_units_Z 14
_cell_length_a 13.338680
_cell_length_b 9.717291
_cell_length_c 7.933031
_cell_angle_alpha 69.992130
_cell_angle_beta 124.465341
_cell_angle_gamma 73.687926
_cell_volume 629.693872
_symmetry_space_group_name_H-M "P -1"
_symmetry_group_IT_number 2
_symmetry_cell_setting 'triclinic'
loop_
_space_group_symop_operation_xyz
x,y,z
-x,-y,-z
loop_
_atom_site_type_symbol
_atom_site_label
_atom_site_fract_x
_atom_site_fract_y
_atom_site_fract_z
Si Si1 0.388766 0.452925 0.961271
Si Si2 0.779982 0.305801 0.599358
Si Si3 0.154771 0.913329 0.787466
Si Si4 0.413530 0.930230 0.853454
Si Si5 0.123051 0.078959 0.047687
Si Si6 0.312151 0.504507 0.236492
Si Si7 0.669642 0.846207 0.643749
O O1 0.241093 0.612574 0.642391
O O2 0.500000 0.500000 0.000000
O O3 0.447140 0.263327 0.012131
O O4 0.415040 0.419043 0.200408
O O5 0.658717 0.460208 0.558609
O O6 0.793846 0.118245 0.692695
O O7 0.945815 0.229400 0.865316
O O8 0.296646 0.901613 0.845172
O O9 0.206407 0.712924 0.976372
O O10 0.000000 0.000000 0.500000
O O11 0.119214 0.027643 0.874679
O O12 0.320891 0.070538 0.554400
O O13 0.500000 0.000000 0.000000
O O14 0.213266 0.162251 0.115684
O O15 0.279758 0.355240 0.273826
O O16 0.500000 0.000000 0.500000
#
# Coordination Sequence:
#
# PCOD9047545 Si02
#       7
#     2   2   2   2   2   2   2
#     4  12  23  43  70 100 139 182 239 293 350 424
#     4  10  24  44  68 102 137 184 240 289 351 427
#     4  11  25  47  74 103 142 191 241 290 356 434
#     4  12  26  45  72 105 143 185 238 297 360 420
#     4  10  24  44  70  99 143 184 234 292 359 417
#     4  11  25  44  69 104 140 185 235 287 362 421
#     4  12  25  45  69 102 148 182 232 302 357 419
#
# _framework density 22.233025999999999
#
# number of rings (size 3 to 8) (size 9 to 14) (size 15 to 20)
#    0.000    0.857    2.857    3.429    6.000    1.143 
#    2.571    1.429    0.000    0.000    0.000    0.000 
#    0.000    0.000    0.000    0.000    0.000    0.000 
#
# Total GULP energy -77964.576673 kJ/mol
# GULP energy per Si atom -5568.898334 kJ/mol
# Density = 2.218242 g / cm^3
# Si number density = 22.233026 Si / 1000 Ang^3
#
#
#
# Elastic Constant Matrix: (Units=GPa)
#
#
# Indices 1 2 3 4 5 6 
#
# 1 83.3254 21.2970 25.6229 -0.8377 -2.6319 1.9916
# 2 21.2970 154.4178 46.4960 6.0490 3.9569 14.0813
# 3 25.6229 46.4960 77.4579 0.7537 2.9265 22.8757
# 4 -0.8377 6.0490 0.7537 33.0102 7.2934 -5.5046
# 5 -2.6319 3.9569 2.9265 7.2934 26.0990 -4.7057
# 6 1.9916 14.0813 22.8757 -5.5046 -4.7057 27.5541
#
#
#
# Elastic Compliance Matrix: (Units=1/GPa)
#
#
# Indices 1 2 3 4 5 6 
#
# 1 0.013915 -0.000747 -0.005657 0.000790 0.002778 0.004704
# 2 -0.000747 0.008014 -0.004269 -0.001409 -0.000576 -0.000877
# 3 -0.005657 -0.004269 0.022718 -0.001655 -0.005160 -0.017482
# 4 0.000790 -0.001409 -0.001655 0.033518 -0.007546 0.007445
# 5 0.002778 -0.000576 -0.005160 -0.007546 0.043219 0.010251
# 6 0.004704 -0.000877 -0.017482 0.007445 0.010251 0.054152
#
#
# Mechanical properties :
#
#
# Convention : Reuss Voigt Hill
#
# Bulk Modulus (GPa) = 42.91505 55.78146 49.34825
# Shear Modulus (GPa) = 24.43205 32.11833 28.27519
#
# Velocity S-wave (km/s) = 3.31857 3.80494 3.57005
# Velocity P-wave (km/s) = 5.83337 6.66689 6.26401
#
# Compressibility (1/GPa) = 0.02330185
#
# Stress axis : x y z
#
# Youngs Moduli (GPa) = 71.86633 124.77549 44.01767
#
# Poissons Ratio (x) = 0.09321 0.24899
# Poissons Ratio (y) = 0.05368 0.18792
# Poissons Ratio (z) = 0.40652 0.53269
#
# Static dielectric constant tensor:
#      x y z
#    x 2.115760 -0.022850 -0.203590 
#    y -0.022850 1.971910 -0.082590 
#    z -0.203590 -0.082590 2.208960 
# 
# From -- ./inp_files/294971.got.cif
#   From: 2010.05.17/outbox.cif.g08.bks.cpg/sg2_148_cif.got.tgz:294971.got - 2010.06.03 11:33:40.
