data_PCOD9047001
_publ_section_title
;
Structure prediction by ZEFSAII (Michael W. Deem and Ramdas Pophale) SiO2 
 PCOD9047001
Probable space group: P -1
;
_chemical_formula_sum "Si O2"
_cell_formula_units_Z 14
_cell_length_a 8.273184
_cell_length_b 6.056496
_cell_length_c 16.102316
_cell_angle_alpha 67.774240
_cell_angle_beta 52.708920
_cell_angle_gamma 61.264392
_cell_volume 558.446557
_symmetry_space_group_name_H-M "P -1"
_symmetry_group_IT_number 2
_symmetry_cell_setting 'triclinic'
loop_
_space_group_symop_operation_xyz
x,y,z
-x,-y,-z
loop_
_atom_site_type_symbol
_atom_site_label
_atom_site_fract_x
_atom_site_fract_y
_atom_site_fract_z
Si Si1 0.670125 0.953784 0.105023
Si Si2 0.047866 0.272173 0.809849
Si Si3 0.714585 0.986667 0.382326
Si Si4 0.948819 0.230267 0.550183
Si Si5 0.170617 0.366610 0.038072
Si Si6 0.512660 0.516854 0.289123
Si Si7 0.590274 0.520201 0.854425
O O1 0.738588 0.904870 0.995081
O O2 0.609817 0.720233 0.193852
O O3 0.853715 0.943823 0.118503
O O4 0.458535 0.198736 0.135622
O O5 0.816987 0.310139 0.834276
O O6 0.964927 0.537862 0.850068
O O7 0.220822 0.204849 0.690442
O O8 0.664938 0.266811 0.321072
O O9 0.500000 0.000000 0.500000
O O10 0.919699 0.907051 0.390197
O O11 0.000000 0.500000 0.500000
O O12 0.690515 0.334428 0.614119
O O13 0.000000 0.000000 0.500000
O O14 0.375465 0.464329 0.958965
O O15 0.000000 0.500000 0.000000
O O16 0.418838 0.433508 0.247484
#
# Coordination Sequence:
#
# PCOD9047001 Si02
#       7
#     2   2   2   2   2   2   2
#     4  10  24  43  70 103 145 194 239 307 377 456
#     4  11  23  43  71 104 143 189 247 301 378 445
#     4  12  26  47  75 106 149 198 252 315 380 450
#     4  12  29  50  79 110 149 200 262 320 385 450
#     4   9  22  44  67 109 143 188 244 301 380 453
#     4  11  25  46  69 105 144 193 248 307 384 448
#     4  11  22  44  73 100 150 184 243 309 372 457
#
# _framework density 25.069544
#
# number of rings (size 3 to 8) (size 9 to 14) (size 15 to 20)
#    0.000    1.143    4.286    0.429    4.000    5.714 
#    2.571    0.000    0.000    0.000    0.000    0.000 
#    0.000    0.000    0.000    0.000    0.000    0.000 
#
# Total GULP energy -78052.358013 kJ/mol
# GULP energy per Si atom -5575.168430 kJ/mol
# Density = 2.501248 g / cm^3
# Si number density = 25.069544 Si / 1000 Ang^3
#
#
#
# Elastic Constant Matrix: (Units=GPa)
#
#
# Indices 1 2 3 4 5 6 
#
# 1 96.0224 43.7491 35.9439 -1.8797 10.6978 -22.4090
# 2 43.7491 154.1559 81.1395 13.9973 11.0034 -18.0894
# 3 35.9439 81.1395 139.8581 29.9802 4.8887 13.5923
# 4 -1.8797 13.9973 29.9802 62.7765 2.7686 11.6286
# 5 10.6978 11.0034 4.8887 2.7686 51.2870 8.5583
# 6 -22.4090 -18.0894 13.5923 11.6286 8.5583 46.8259
#
#
#
# Elastic Compliance Matrix: (Units=1/GPa)
#
#
# Indices 1 2 3 4 5 6 
#
# 1 0.014830 -0.000772 -0.004323 0.001289 -0.003998 0.008464
# 2 -0.000772 0.011286 -0.006810 -0.000383 -0.002684 0.006553
# 3 -0.004323 -0.006810 0.013725 -0.003757 0.002631 -0.008231
# 4 0.001289 -0.000383 -0.003757 0.018409 -0.000330 -0.002952
# 5 -0.003998 -0.002684 0.002631 -0.000330 0.021950 -0.007644
# 6 0.008464 0.006553 -0.008231 -0.002952 -0.007644 0.032457
#
#
# Mechanical properties :
#
#
# Convention : Reuss Voigt Hill
#
# Bulk Modulus (GPa) = 62.37674 79.07794 70.72734
# Shear Modulus (GPa) = 35.25829 47.45814 41.35822
#
# Velocity S-wave (km/s) = 3.75429 4.35565 4.06610
# Velocity P-wave (km/s) = 6.61275 7.54371 7.09352
#
# Compressibility (1/GPa) = 0.01603162
#
# Stress axis : x y z
#
# Youngs Moduli (GPa) = 67.43120 88.60733 72.85795
#
# Poissons Ratio (x) = 0.06840 0.31494
# Poissons Ratio (y) = 0.05206 0.49617
# Poissons Ratio (z) = 0.29148 0.60342
#
# Static dielectric constant tensor:
#      x y z
#    x 2.246370 0.113490 -0.041500 
#    y 0.113490 2.029850 0.046330 
#    z -0.041500 0.046330 2.080850 
# 
# From -- ./inp_files/553326.got.cif
#   From: 2010.05.17/outbox.cif.g08.bks.cpg/sg2_277_cif.got.tgz:553326.got - 2010.06.03 11:33:40.
