data_PCOD9047826
_publ_section_title
;
Structure prediction by ZEFSAII (Michael W. Deem and Ramdas Pophale) SiO2 
 PCOD9047826
Probable space group: P -1
;
_chemical_formula_sum "Si O2"
_cell_formula_units_Z 15
_cell_length_a 14.504167
_cell_length_b 9.507970
_cell_length_c 9.253594
_cell_angle_alpha 45.514902
_cell_angle_beta 71.683657
_cell_angle_gamma 98.790859
_cell_volume 721.384429
_symmetry_space_group_name_H-M "P -1"
_symmetry_group_IT_number 2
_symmetry_cell_setting 'triclinic'
loop_
_space_group_symop_operation_xyz
x,y,z
-x,-y,-z
loop_
_atom_site_type_symbol
_atom_site_label
_atom_site_fract_x
_atom_site_fract_y
_atom_site_fract_z
Si Si1 0.000000 0.500000 0.000000
Si Si2 0.669143 0.117444 0.434370
Si Si3 0.931251 0.664713 0.649056
Si Si4 0.410343 0.724714 0.918996
Si Si5 0.247006 0.191726 0.325808
Si Si6 0.168914 0.473134 0.726569
Si Si7 0.239442 0.721443 0.207479
Si Si8 0.182779 0.053881 0.130363
O O1 0.056373 0.458991 0.854976
O O2 0.941931 0.607376 0.849725
O O3 0.547935 0.892599 0.712552
O O4 0.756211 0.027705 0.441439
O O5 0.643525 0.209440 0.235843
O O6 0.725145 0.320683 0.378888
O O7 0.863764 0.798987 0.586818
O O8 0.852612 0.427969 0.765936
O O9 0.056021 0.832065 0.395802
O O10 0.356892 0.446549 0.134613
O O11 0.360687 0.769728 0.055089
O O12 0.246406 0.158216 0.177832
O O13 0.193741 0.557275 0.489283
O O14 0.167015 0.239013 0.920990
O O15 0.245460 0.956654 0.076236
#
# Coordination Sequence:
#
# PCOD9047826 Si02
#       8
#     1   2   2   2   2   2   2   2
#     4  12  22  42  70  92 132 178 212 260 320 384
#     4  11  22  44  72  95 126 171 223 271 323 386
#     4  11  24  42  66  98 133 172 219 265 321 386
#     4  10  24  44  70  97 126 168 222 277 325 382
#     4  11  21  41  68  99 125 168 224 267 320 390
#     4  12  25  39  65  96 133 173 218 261 326 388
#     4  11  25  45  61  96 138 165 213 278 324 377
#     4  12  23  40  63  96 134 174 212 263 319 397
#
# _framework density 20.793353
#
# number of rings (size 3 to 8) (size 9 to 14) (size 15 to 20)
#    0.000    0.800    5.333    2.000    1.867    3.200 
#    0.000    0.667    0.000    0.000    0.000    0.000 
#    0.000    0.000    0.000    0.000    0.000    0.000 
#
# Total GULP energy -83708.506199 kJ/mol
# GULP energy per Si atom -5580.567080 kJ/mol
# Density = 2.074603 g / cm^3
# Si number density = 20.793353 Si / 1000 Ang^3
#
#
#
# Elastic Constant Matrix: (Units=GPa)
#
#
# Indices 1 2 3 4 5 6 
#
# 1 50.8970 9.0690 -1.3636 3.5302 10.2307 -7.9644
# 2 9.0690 94.6312 7.6754 1.6052 -9.5205 -25.3619
# 3 -1.3636 7.6754 53.1910 6.5739 10.0299 -7.5657
# 4 3.5302 1.6052 6.5739 35.4774 -6.5387 3.6785
# 5 10.2307 -9.5205 10.0299 -6.5387 32.1718 -5.8480
# 6 -7.9644 -25.3619 -7.5657 3.6785 -5.8480 25.7466
#
#
#
# Elastic Compliance Matrix: (Units=1/GPa)
#
#
# Indices 1 2 3 4 5 6 
#
# 1 0.023138 -0.002090 0.004001 -0.005186 -0.009391 0.004882
# 2 -0.002090 0.016419 -0.001656 -0.000331 0.009091 0.017153
# 3 0.004001 -0.001656 0.022423 -0.006698 -0.009194 0.005064
# 4 -0.005186 -0.000331 -0.006698 0.032293 0.009028 -0.006462
# 5 -0.009391 0.009091 -0.009194 0.009028 0.043637 0.011970
# 6 0.004882 0.017153 0.005064 -0.006462 0.011970 0.062377
#
#
# Mechanical properties :
#
#
# Convention : Reuss Voigt Hill
#
# Bulk Modulus (GPa) = 16.00265 25.49786 20.75026
# Shear Modulus (GPa) = 22.66454 30.90173 26.78313
#
# Velocity S-wave (km/s) = 3.30508 3.85922 3.59285
# Velocity P-wave (km/s) = 4.71990 5.66986 5.21655
#
# Compressibility (1/GPa) = 0.06248967
#
# Stress axis : x y z
#
# Youngs Moduli (GPa) = 43.21810 60.90404 44.59618
#
# Poissons Ratio (x) = 0.12731 -0.17842
# Poissons Ratio (y) = 0.09034 0.07387
# Poissons Ratio (z) = -0.17291 0.10088
#
# Static dielectric constant tensor:
#      x y z
#    x 1.777990 0.029000 -0.017830 
#    y 0.029000 1.732000 -0.037480 
#    z -0.017830 -0.037480 1.729760 
# 
# From -- ./inp_files/177218.got.cif
#   From: 2010.05.17/outbox.cif.g08.bks.cpg/sg2_89_cif.got.tgz:177218.got - 2010.06.03 11:33:40.
