data_PCOD9047165
_publ_section_title
;
Structure prediction by ZEFSAII (Michael W. Deem and Ramdas Pophale) SiO2 
 PCOD9047165
Probable space group: P -1
;
_chemical_formula_sum "Si O2"
_cell_formula_units_Z 14
_cell_length_a 7.503540
_cell_length_b 10.709349
_cell_length_c 8.437354
_cell_angle_alpha 113.551261
_cell_angle_beta 80.275005
_cell_angle_gamma 124.041884
_cell_volume 513.680016
_symmetry_space_group_name_H-M "P -1"
_symmetry_group_IT_number 2
_symmetry_cell_setting 'triclinic'
loop_
_space_group_symop_operation_xyz
x,y,z
-x,-y,-z
loop_
_atom_site_type_symbol
_atom_site_label
_atom_site_fract_x
_atom_site_fract_y
_atom_site_fract_z
Si Si1 0.718041 0.927753 0.463514
Si Si2 0.836704 0.008169 0.141236
Si Si3 0.277029 0.770501 0.309131
Si Si4 0.336484 0.581162 0.731715
Si Si5 0.228733 0.813652 0.977692
Si Si6 0.746882 0.538578 0.969945
Si Si7 0.791460 0.719960 0.606592
O O1 0.462017 0.844767 0.453547
O O2 0.773668 0.835654 0.537516
O O3 0.754808 0.900837 0.258500
O O4 0.824076 0.119079 0.583489
O O5 0.985693 0.183702 0.288232
O O6 0.691884 0.017592 0.033991
O O7 0.000000 0.000000 0.000000
O O8 0.318074 0.815822 0.139284
O O9 0.230308 0.587770 0.208282
O O10 0.593216 0.662857 0.728668
O O11 0.244196 0.441424 0.545511
O O12 0.283768 0.716210 0.798088
O O13 0.226489 0.494083 0.868240
O O14 0.965849 0.711766 0.989918
O O15 0.500000 0.500000 0.000000
#
# Coordination Sequence:
#
# PCOD9047165 Si02
#       7
#     2   2   2   2   2   2   2
#     4  11  26  45  72  99 144 189 228 286 340 418
#     4  12  29  43  68 104 140 191 229 280 351 415
#     4  10  24  45  72 101 136 184 237 276 355 401
#     4  10  24  43  73 102 133 183 232 293 345 403
#     4  11  26  45  74 102 140 181 232 291 347 410
#     4  11  23  44  74 102 141 180 231 290 349 410
#     4  11  25  47  71 102 141 181 238 287 347 408
#
# _framework density 27.254321999999998
#
# number of rings (size 3 to 8) (size 9 to 14) (size 15 to 20)
#    0.000    1.143    0.000    4.714   16.000    2.286 
#    0.000    0.000    0.000    0.000    0.000    0.000 
#    0.000    0.000    0.000    0.000    0.000    0.000 
#
# Total GULP energy -78110.287137 kJ/mol
# GULP energy per Si atom -5579.306224 kJ/mol
# Density = 2.719229 g / cm^3
# Si number density = 27.254322 Si / 1000 Ang^3
#
#
#
# Elastic Constant Matrix: (Units=GPa)
#
#
# Indices 1 2 3 4 5 6 
#
# 1 91.0019 2.2550 20.3369 5.2950 4.5650 -12.8702
# 2 2.2550 74.9669 40.0340 -16.3245 -4.5848 -4.7163
# 3 20.3369 40.0340 99.8496 -6.8366 -31.1741 -13.8777
# 4 5.2950 -16.3245 -6.8366 47.3317 -9.4602 7.0179
# 5 4.5650 -4.5848 -31.1741 -9.4602 55.1586 0.4285
# 6 -12.8702 -4.7163 -13.8777 7.0179 0.4285 44.2601
#
#
#
# Elastic Compliance Matrix: (Units=1/GPa)
#
#
# Indices 1 2 3 4 5 6 
#
# 1 0.012612 0.001069 -0.003912 -0.002790 -0.003668 0.003033
# 2 0.001069 0.018509 -0.008189 0.004762 -0.002353 -0.001017
# 3 -0.003912 -0.008189 0.017760 0.001693 0.009946 0.003194
# 4 -0.002790 0.004762 0.001693 0.025073 0.005913 -0.003806
# 5 -0.003668 -0.002353 0.009946 0.005913 0.024868 0.000623
# 6 0.003033 -0.001017 0.003194 -0.003806 0.000623 0.024966
#
#
# Mechanical properties :
#
#
# Convention : Reuss Voigt Hill
#
# Bulk Modulus (GPa) = 37.28998 43.45223 40.37111
# Shear Modulus (GPa) = 32.30164 42.89625 37.59894
#
# Velocity S-wave (km/s) = 3.44640 3.97158 3.71827
# Velocity P-wave (km/s) = 5.43588 6.08351 5.76879
#
# Compressibility (1/GPa) = 0.02681685
#
# Stress axis : x y z
#
# Youngs Moduli (GPa) = 79.29122 54.02761 56.30577
#
# Poissons Ratio (x) = -0.05773 0.22026
# Poissons Ratio (y) = -0.08473 0.46107
# Poissons Ratio (z) = 0.31017 0.44242
#
# Static dielectric constant tensor:
#      x y z
#    x 2.237000 0.067440 -0.032920 
#    y 0.067440 2.225890 0.024140 
#    z -0.032920 0.024140 2.145890 
# 
# From -- ./inp_files/189953.got.cif
#   From: 2010.05.17/outbox.cif.g08.bks.cpg/sg2_95_cif.got.tgz:189953.got - 2010.06.03 11:33:40.
