data_PCOD9047486
_publ_section_title
;
Structure prediction by ZEFSAII (Michael W. Deem and Ramdas Pophale) SiO2 
 PCOD9047486
Probable space group: P -1
;
_chemical_formula_sum "Si O2"
_cell_formula_units_Z 12
_cell_length_a 4.885606
_cell_length_b 5.233821
_cell_length_c 18.791179
_cell_angle_alpha 90.241219
_cell_angle_beta 89.815531
_cell_angle_gamma 85.089223
_cell_volume 478.726586
_symmetry_space_group_name_H-M "P -1"
_symmetry_group_IT_number 2
_symmetry_cell_setting 'triclinic'
loop_
_space_group_symop_operation_xyz
x,y,z
-x,-y,-z
loop_
_atom_site_type_symbol
_atom_site_label
_atom_site_fract_x
_atom_site_fract_y
_atom_site_fract_z
Si Si1 0.376016 0.260018 0.685333
Si Si2 0.198207 0.918491 0.063911
Si Si3 0.156771 0.947380 0.572573
Si Si4 0.023560 0.389556 0.823903
Si Si5 0.343824 0.256179 0.357066
Si Si6 0.475755 0.400966 0.104266
O O1 0.176957 0.337798 0.750429
O O2 0.584305 0.471773 0.670300
O O3 0.541354 0.979489 0.694674
O O4 0.964699 0.787311 0.622744
O O5 0.415379 0.124972 0.076431
O O6 0.026087 0.875122 0.136020
O O7 0.347018 0.633431 0.054633
O O8 0.000000 0.000000 0.000000
O O9 0.201599 0.208647 0.614696
O O10 0.000000 0.000000 0.500000
O O11 0.460846 0.802293 0.573068
O O12 0.220786 0.542916 0.874517
O O13 0.724495 0.542699 0.826444
#
# Coordination Sequence:
#
# PCOD9047486 Si02
#       6
#     2   2   2   2   2   2
#     4  10  26  40  66  92 132 168 216 262 320 376
#     4  10  24  44  67  96 129 168 214 264 318 378
#     4  10  24  44  67  96 129 168 214 264 318 378
#     4  10  26  40  66  92 132 168 216 262 320 376
#     4  10  25  39  65  93 127 166 213 260 321 376
#     4  10  25  39  65  93 127 166 213 260 321 376
#
# _framework density 25.066496999999998
#
# number of rings (size 3 to 8) (size 9 to 14) (size 15 to 20)
#    2.000    0.000    0.000    1.000    9.333    4.000 
#    0.000    0.000    0.000    0.000    0.000    0.000 
#    0.000    0.000    0.000    0.000    0.000    0.000 
#
# Total GULP energy -67119.610962 kJ/mol
# GULP energy per Si atom -5593.300914 kJ/mol
# Density = 2.500944 g / cm^3
# Si number density = 25.066497 Si / 1000 Ang^3
#
#
#
# Elastic Constant Matrix: (Units=GPa)
#
#
# Indices 1 2 3 4 5 6 
#
# 1 118.4753 40.9728 4.9564 -1.5344 -2.7836 25.9385
# 2 40.9728 145.1778 26.4859 4.6359 -0.6227 40.9146
# 3 4.9564 26.4859 74.6226 4.3084 4.5655 11.2068
# 4 -1.5344 4.6359 4.3084 17.1978 -2.9125 0.7833
# 5 -2.7836 -0.6227 4.5655 -2.9125 40.2559 -5.4379
# 6 25.9385 40.9146 11.2068 0.7833 -5.4379 47.5435
#
#
#
# Elastic Compliance Matrix: (Units=1/GPa)
#
#
# Indices 1 2 3 4 5 6 
#
# 1 0.009944 -0.001820 0.000488 0.001466 0.000173 -0.003978
# 2 -0.001820 0.009837 -0.002143 -0.002098 -0.000832 -0.007028
# 3 0.000488 -0.002143 0.014773 -0.003357 -0.002201 -0.002101
# 4 0.001466 -0.002098 -0.003357 0.060470 0.005010 0.001374
# 5 0.000173 -0.000832 -0.002201 0.005010 0.025997 0.004031
# 6 -0.003978 -0.007028 -0.002101 0.001374 0.004031 0.030185
#
#
# Mechanical properties :
#
#
# Convention : Reuss Voigt Hill
#
# Bulk Modulus (GPa) = 36.22902 53.67844 44.95373
# Shear Modulus (GPa) = 29.87622 38.72349 34.29985
#
# Velocity S-wave (km/s) = 3.45610 3.93470 3.70314
# Velocity P-wave (km/s) = 5.51459 6.48871 6.02138
#
# Compressibility (1/GPa) = 0.02760219
#
# Stress axis : x y z
#
# Youngs Moduli (GPa) = 100.56668 101.65921 67.69117
#
# Poissons Ratio (x) = 0.18506 -0.03302
# Poissons Ratio (y) = 0.18307 0.14507
# Poissons Ratio (z) = -0.04906 0.21786
#
# Static dielectric constant tensor:
#      x y z
#    x 1.926480 -0.050560 -0.029510 
#    y -0.050560 1.970320 -0.006050 
#    z -0.029510 -0.006050 2.041590 
# 
# From -- ./inp_files/545699.got.cif
#   From: 2010.05.17/outbox.cif.g08.bks.cpg/sg2_273_cif.got.tgz:545699.got - 2010.06.03 11:33:40.
