data_PCOD9047113
_publ_section_title
;
Structure prediction by ZEFSAII (Michael W. Deem and Ramdas Pophale) SiO2 
 PCOD9047113
Probable space group: P -1
;
_chemical_formula_sum "Si O2"
_cell_formula_units_Z 16
_cell_length_a 17.697980
_cell_length_b 13.783522
_cell_length_c 11.428868
_cell_angle_alpha 32.054841
_cell_angle_beta 52.429420
_cell_angle_gamma 32.251828
_cell_volume 731.046713
_symmetry_space_group_name_H-M "P -1"
_symmetry_group_IT_number 2
_symmetry_cell_setting 'triclinic'
loop_
_space_group_symop_operation_xyz
x,y,z
-x,-y,-z
loop_
_atom_site_type_symbol
_atom_site_label
_atom_site_fract_x
_atom_site_fract_y
_atom_site_fract_z
Si Si1 0.269139 0.811636 0.268810
Si Si2 0.425276 0.771800 0.522921
Si Si3 0.249587 0.720820 0.851381
Si Si4 0.001760 0.213160 0.747251
Si Si5 0.140672 0.180618 0.246673
Si Si6 0.013769 0.004977 0.621986
Si Si7 0.210097 0.152309 0.759355
Si Si8 0.504708 0.206498 0.304794
O O1 0.430369 0.468477 0.451831
O O2 0.137174 0.858278 0.322405
O O3 0.233121 0.944342 0.295382
O O4 0.257411 0.997161 0.998207
O O5 0.364378 0.659690 0.723644
O O6 0.476749 0.775870 0.594358
O O7 0.272335 0.089657 0.286809
O O8 0.126300 0.034037 0.710654
O O9 0.348704 0.503655 0.088184
O O10 0.155922 0.720246 0.858122
O O11 0.071530 0.229300 0.769404
O O12 0.851889 0.546032 0.502699
O O13 0.000000 0.000000 0.000000
O O14 0.053634 0.159353 0.427661
O O15 0.000000 0.500000 0.000000
O O16 0.000000 0.000000 0.500000
O O17 0.353801 0.921862 0.771099
O O18 0.500000 0.000000 0.500000
#
# Coordination Sequence:
#
# PCOD9047113 Si02
#       8
#     2   2   2   2   2   2   2   2
#     4  11  22  43  69  99 136 177 233 281 353 416
#     4  11  23  44  68  93 139 184 222 283 353 412
#     4  11  21  41  66  90 136 177 219 276 348 402
#     4  11  23  39  64  98 136 186 231 279 347 410
#     4  10  24  43  72 100 134 180 230 287 346 417
#     4   9  22  41  66  97 129 176 224 278 343 412
#     4  11  24  40  64 102 141 176 235 293 336 416
#     4  12  25  42  65  99 138 182 232 284 347 415
#
# _framework density 21.886426
#
# number of rings (size 3 to 8) (size 9 to 14) (size 15 to 20)
#    0.000    1.250    2.500    3.000    3.500    4.000 
#    0.000    0.625    0.000    0.000    0.000    0.000 
#    0.000    0.000    0.000    0.000    0.000    0.000 
#
# Total GULP energy -89207.086533 kJ/mol
# GULP energy per Si atom -5575.442908 kJ/mol
# Density = 2.183661 g / cm^3
# Si number density = 21.886426 Si / 1000 Ang^3
#
#
#
# Elastic Constant Matrix: (Units=GPa)
#
#
# Indices 1 2 3 4 5 6 
#
# 1 107.2756 32.2812 46.9656 -12.3480 27.2097 -16.6766
# 2 32.2812 103.7456 30.9334 -11.0922 8.1244 -9.1677
# 3 46.9656 30.9334 101.5147 -15.2140 19.8995 -0.0578
# 4 -12.3480 -11.0922 -15.2140 37.3310 -12.0558 2.2786
# 5 27.2097 8.1244 19.8995 -12.0558 41.9469 1.5551
# 6 -16.6766 -9.1677 -0.0578 2.2786 1.5551 30.2708
#
#
#
# Elastic Compliance Matrix: (Units=1/GPa)
#
#
# Indices 1 2 3 4 5 6 
#
# 1 0.015272 -0.001983 -0.005051 -0.000550 -0.007589 0.008235
# 2 -0.001983 0.011299 -0.002384 0.001815 0.000670 0.002154
# 3 -0.005051 -0.002384 0.013692 0.002837 -0.001808 -0.003599
# 4 -0.000550 0.001815 0.002837 0.030918 0.007637 -0.002467
# 5 -0.007589 0.000670 -0.001808 0.007637 0.031915 -0.006196
# 6 0.008235 0.002154 -0.003599 -0.002467 -0.006196 0.038721
#
#
# Mechanical properties :
#
#
# Convention : Reuss Voigt Hill
#
# Bulk Modulus (GPa) = 46.67121 59.21070 52.94096
# Shear Modulus (GPa) = 29.79856 35.40013 32.59935
#
# Velocity S-wave (km/s) = 3.69387 4.02611 3.86356
# Velocity P-wave (km/s) = 6.28995 6.98034 6.64412
#
# Compressibility (1/GPa) = 0.02142649
#
# Stress axis : x y z
#
# Youngs Moduli (GPa) = 65.48098 88.50724 73.03700
#
# Poissons Ratio (x) = 0.17547 0.36893
# Poissons Ratio (y) = 0.12982 0.17411
# Poissons Ratio (z) = 0.33076 0.21099
#
# Static dielectric constant tensor:
#      x y z
#    x 1.879600 -0.016820 0.058280 
#    y -0.016820 1.793620 0.037030 
#    z 0.058280 0.037030 1.865960 
# 
# From -- ./inp_files/466023.got.cif
#   From: 2010.05.17/outbox.cif.g08.bks.cpg/sg2_234_cif.got.tgz:466023.got - 2010.06.03 11:33:40.
