data_PCOD9047521
_publ_section_title
;
Structure prediction by ZEFSAII (Michael W. Deem and Ramdas Pophale) SiO2 
 PCOD9047521
Probable space group: P -1
;
_chemical_formula_sum "Si O2"
_cell_formula_units_Z 14
_cell_length_a 8.828446
_cell_length_b 17.597526
_cell_length_c 9.127823
_cell_angle_alpha 117.881388
_cell_angle_beta 74.211057
_cell_angle_gamma 54.018461
_cell_volume 653.818316
_symmetry_space_group_name_H-M "P -1"
_symmetry_group_IT_number 2
_symmetry_cell_setting 'triclinic'
loop_
_space_group_symop_operation_xyz
x,y,z
-x,-y,-z
loop_
_atom_site_type_symbol
_atom_site_label
_atom_site_fract_x
_atom_site_fract_y
_atom_site_fract_z
Si Si1 0.696800 0.117290 0.761118
Si Si2 0.774217 0.802144 0.078558
Si Si3 0.044127 0.705443 0.234469
Si Si4 0.660725 0.514856 0.516778
Si Si5 0.522527 0.933403 0.787876
Si Si6 0.689206 0.150119 0.137912
Si Si7 0.435738 0.409641 0.049605
O O1 0.537281 0.101358 0.757199
O O2 0.734651 0.111397 0.919126
O O3 0.466326 0.294361 0.929042
O O4 0.000000 0.000000 0.500000
O O5 0.879205 0.761181 0.179132
O O6 0.729311 0.915776 0.117804
O O7 0.017241 0.639318 0.775100
O O8 0.253488 0.532917 0.076924
O O9 0.823761 0.815195 0.524192
O O10 0.245419 0.695072 0.144219
O O11 0.500000 0.500000 0.500000
O O12 0.478748 0.681310 0.656985
O O13 0.673604 0.515565 0.691004
O O14 0.496380 0.844660 0.746803
O O15 0.500000 0.000000 0.000000
O O16 0.000000 0.000000 0.000000
#
# Coordination Sequence:
#
# PCOD9047521 Si02
#       7
#     2   2   2   2   2   2   2
#     4  11  26  45  67 101 140 181 231 290 344 409
#     4  12  25  44  73 100 139 187 229 284 353 403
#     4  11  25  43  70 100 135 186 228 286 344 415
#     4  11  23  47  73 101 139 179 233 289 345 413
#     4  12  25  46  69 102 140 180 230 284 343 413
#     4  11  27  44  71 102 136 184 230 283 346 413
#     4  10  24  44  68 100 138 178 234 282 347 412
#
# _framework density 21.412675
#
# number of rings (size 3 to 8) (size 9 to 14) (size 15 to 20)
#    0.000    0.857    2.857    3.000    6.000    2.857 
#    0.000    0.000    0.000    0.000    0.000    0.000 
#    0.000    0.000    0.000    0.000    0.000    0.000 
#
# Total GULP energy -78323.308952 kJ/mol
# GULP energy per Si atom -5594.522068 kJ/mol
# Density = 2.136394 g / cm^3
# Si number density = 21.412675 Si / 1000 Ang^3
#
#
#
# Elastic Constant Matrix: (Units=GPa)
#
#
# Indices 1 2 3 4 5 6 
#
# 1 90.3899 48.7288 34.1370 7.6250 -1.4936 19.6990
# 2 48.7288 119.3398 23.1421 10.1127 8.5214 13.4715
# 3 34.1370 23.1421 104.8275 -16.5617 -22.4926 8.2009
# 4 7.6250 10.1127 -16.5617 35.1042 7.8067 0.2645
# 5 -1.4936 8.5214 -22.4926 7.8067 32.3869 6.1842
# 6 19.6990 13.4715 8.2009 0.2645 6.1842 36.4683
#
#
#
# Elastic Compliance Matrix: (Units=1/GPa)
#
#
# Indices 1 2 3 4 5 6 
#
# 1 0.017418 -0.005215 -0.004404 -0.004646 0.001519 -0.006716
# 2 -0.005215 0.011404 -0.002022 -0.002200 -0.004070 -0.000235
# 3 -0.004404 -0.002022 0.014543 0.006361 0.009231 -0.001756
# 4 -0.004646 -0.002200 0.006361 0.033968 -0.003845 0.002297
# 5 0.001519 -0.004070 0.009231 -0.003845 0.040942 -0.008308
# 6 -0.006716 -0.000235 -0.001756 0.002297 -0.008308 0.032923
#
#
# Mechanical properties :
#
#
# Convention : Reuss Voigt Hill
#
# Bulk Modulus (GPa) = 49.78910 58.50813 54.14861
# Shear Modulus (GPa) = 27.59775 34.69514 31.14645
#
# Velocity S-wave (km/s) = 3.59395 4.02967 3.81803
# Velocity P-wave (km/s) = 6.36590 7.00246 6.69175
#
# Compressibility (1/GPa) = 0.02008472
#
# Stress axis : x y z
#
# Youngs Moduli (GPa) = 57.41080 87.68500 68.76219
#
# Poissons Ratio (x) = 0.45728 0.30280
# Poissons Ratio (y) = 0.29940 0.13903
# Poissons Ratio (z) = 0.25281 0.17729
#
# Static dielectric constant tensor:
#      x y z
#    x 1.791370 0.030650 -0.000870 
#    y 0.030650 1.773650 0.038980 
#    z -0.000870 0.038980 1.785620 
# 
# From -- ./inp_files/153574.got.cif
#   From: 2010.05.17/outbox.cif.g08.bks.cpg/sg2_77_cif.got.tgz:153574.got - 2010.06.03 11:33:40.
