data_PCOD9047657
_publ_section_title
;
Structure prediction by ZEFSAII (Michael W. Deem and Ramdas Pophale) SiO2 
 PCOD9047657
Probable space group: P -1
;
_chemical_formula_sum "Si O2"
_cell_formula_units_Z 15
_cell_length_a 11.308293
_cell_length_b 8.934361
_cell_length_c 13.258251
_cell_angle_alpha 81.090319
_cell_angle_beta 124.338959
_cell_angle_gamma 55.899761
_cell_volume 663.752248
_symmetry_space_group_name_H-M "P -1"
_symmetry_group_IT_number 2
_symmetry_cell_setting 'triclinic'
loop_
_space_group_symop_operation_xyz
x,y,z
-x,-y,-z
loop_
_atom_site_type_symbol
_atom_site_label
_atom_site_fract_x
_atom_site_fract_y
_atom_site_fract_z
Si Si1 0.277090 0.413268 0.414450
Si Si2 0.391030 0.099432 0.048054
Si Si3 0.862556 0.971261 0.112350
Si Si4 0.500000 0.500000 0.000000
Si Si5 0.933961 0.615560 0.845399
Si Si6 0.797445 0.759421 0.433621
Si Si7 0.785289 0.086851 0.694784
Si Si8 0.980729 0.127322 0.383041
O O1 0.303328 0.265921 0.527469
O O2 0.504486 0.327632 0.539075
O O3 0.246783 0.347180 0.301150
O O4 0.035620 0.709667 0.282459
O O5 0.590305 0.977432 0.235131
O O6 0.176080 0.397540 0.920516
O O7 0.500000 0.000000 0.000000
O O8 0.281797 0.024700 0.027597
O O9 0.678595 0.220622 0.063428
O O10 0.052653 0.931106 0.163328
O O11 0.711805 0.366616 0.193890
O O12 0.854405 0.855675 0.779251
O O13 0.000000 0.500000 0.000000
O O14 0.000000 0.500000 0.500000
O O15 0.914180 0.802862 0.538246
O O16 0.865623 0.048341 0.622111
O O17 0.000000 0.000000 0.500000
#
# Coordination Sequence:
#
# PCOD9047657 Si02
#       8
#     2   2   2   1   2   2   2   2
#     4  11  24  47  69 106 149 190 249 304 371 444
#     4  11  26  43  70 104 148 192 247 311 369 444
#     4  10  24  44  69 101 140 191 234 303 373 430
#     4  10  24  46  70  98 152 182 242 300 370 438
#     4  11  24  44  72 106 141 197 245 299 380 446
#     4  12  25  43  73 105 144 194 249 303 372 442
#     4  11  24  46  72 102 148 190 247 307 370 447
#     4  11  27  45  73 112 145 195 246 307 375 437
#
# _framework density 22.598794000000002
#
# number of rings (size 3 to 8) (size 9 to 14) (size 15 to 20)
#    0.000    1.067    1.333    4.000   13.067    0.000 
#    0.000    6.000    0.000    0.000    0.000    0.000 
#    0.000    0.000    0.000    0.000    0.000    0.000 
#
# Total GULP energy -83665.895213 kJ/mol
# GULP energy per Si atom -5577.726348 kJ/mol
# Density = 2.254736 g / cm^3
# Si number density = 22.598794 Si / 1000 Ang^3
#
#
#
# Elastic Constant Matrix: (Units=GPa)
#
#
# Indices 1 2 3 4 5 6 
#
# 1 106.7333 8.2538 46.6068 9.8087 1.7014 2.2104
# 2 8.2538 46.8220 31.7860 5.2583 6.9833 7.9782
# 3 46.6068 31.7860 154.3415 10.4130 30.0719 4.5908
# 4 9.8087 5.2583 10.4130 44.8699 0.3515 8.6542
# 5 1.7014 6.9833 30.0719 0.3515 39.0212 6.8834
# 6 2.2104 7.9782 4.5908 8.6542 6.8834 36.8515
#
#
#
# Elastic Compliance Matrix: (Units=1/GPa)
#
#
# Indices 1 2 3 4 5 6 
#
# 1 0.011110 0.000511 -0.003822 -0.001544 0.002454 -0.000397
# 2 0.000511 0.025749 -0.005310 -0.000979 0.000313 -0.004772
# 3 -0.003822 -0.005310 0.010112 -0.001161 -0.006964 0.001693
# 4 -0.001544 -0.000979 -0.001161 0.024065 0.001901 -0.005557
# 5 0.002454 0.000313 -0.006964 0.001901 0.031826 -0.005738
# 6 -0.000397 -0.004772 0.001693 -0.005557 -0.005738 0.030359
#
#
# Mechanical properties :
#
#
# Convention : Reuss Voigt Hill
#
# Bulk Modulus (GPa) = 33.63814 53.46556 43.55185
# Shear Modulus (GPa) = 31.17756 38.89852 35.03804
#
# Velocity S-wave (km/s) = 3.71834 4.15331 3.94183
# Velocity P-wave (km/s) = 5.77512 6.83447 6.32700
#
# Compressibility (1/GPa) = 0.02972816
#
# Stress axis : x y z
#
# Youngs Moduli (GPa) = 90.01189 38.83687 98.89490
#
# Poissons Ratio (x) = -0.01986 0.37800
# Poissons Ratio (y) = -0.04603 0.52515
# Poissons Ratio (z) = 0.34404 0.20623
#
# Static dielectric constant tensor:
#      x y z
#    x 1.889170 0.031430 0.030740 
#    y 0.031430 1.889390 0.057830 
#    z 0.030740 0.057830 1.854640 
# 
# From -- ./inp_files/514324.got.cif
#   From: 2010.05.17/outbox.cif.g08.bks.cpg/sg2_258_cif.got.tgz:514324.got - 2010.06.03 11:33:40.
