data_PCOD9047310
_publ_section_title
;
Structure prediction by ZEFSAII (Michael W. Deem and Ramdas Pophale) SiO2 
 PCOD9047310
Probable space group: P -1
;
_chemical_formula_sum "Si O2"
_cell_formula_units_Z 13
_cell_length_a 18.278488
_cell_length_b 7.229845
_cell_length_c 6.608936
_cell_angle_alpha 68.038441
_cell_angle_beta 44.754397
_cell_angle_gamma 49.078184
_cell_volume 457.759487
_symmetry_space_group_name_H-M "P -1"
_symmetry_group_IT_number 2
_symmetry_cell_setting 'triclinic'
loop_
_space_group_symop_operation_xyz
x,y,z
-x,-y,-z
loop_
_atom_site_type_symbol
_atom_site_label
_atom_site_fract_x
_atom_site_fract_y
_atom_site_fract_z
Si Si1 0.520697 0.164118 0.120212
Si Si2 0.763394 0.927452 0.534630
Si Si3 0.597728 0.410421 0.157519
Si Si4 0.243513 0.355127 0.676039
Si Si5 0.024100 0.790746 0.685322
Si Si6 0.000000 0.500000 0.500000
Si Si7 0.808111 0.248491 0.124451
O O1 0.454174 0.374429 0.991716
O O2 0.642229 0.935001 0.853992
O O3 0.594505 0.206761 0.128196
O O4 0.398280 0.197842 0.448208
O O5 0.781412 0.825653 0.310859
O O6 0.880093 0.765029 0.524779
O O7 0.730937 0.200692 0.459849
O O8 0.500000 0.500000 0.500000
O O9 0.730779 0.318713 0.039219
O O10 0.165820 0.586223 0.577571
O O11 0.184956 0.523418 0.928407
O O12 0.989319 0.639391 0.681136
O O13 0.000000 0.000000 0.500000
O O14 0.938314 0.971098 0.965660
#
# Coordination Sequence:
#
# PCOD9047310 Si02
#       7
#     2   2   2   2   2   1   2
#     4  11  21  42  67  95 141 170 219 274 328 394
#     4  11  24  42  68  97 132 177 217 273 334 385
#     4  11  20  38  68  99 127 176 220 266 330 392
#     4  11  24  40  64  99 133 170 221 272 324 400
#     4  11  24  42  66  93 129 177 220 273 335 383
#     4  10  24  44  64  94 132 172 222 270 328 396
#     4  12  23  43  68  97 132 173 224 273 327 394
#
# _framework density 28.399193
#
# number of rings (size 3 to 8) (size 9 to 14) (size 15 to 20)
#    0.000    0.923    3.077    4.615    0.000    3.692 
#    0.000    4.615    0.000    0.000    0.000    0.000 
#    0.000    0.000    0.000    0.000    0.000    0.000 
#
# Total GULP energy -72537.905643 kJ/mol
# GULP energy per Si atom -5579.838896 kJ/mol
# Density = 2.833456 g / cm^3
# Si number density = 28.399193 Si / 1000 Ang^3
#
#
#
# Elastic Constant Matrix: (Units=GPa)
#
#
# Indices 1 2 3 4 5 6 
#
# 1 217.4482 50.9006 19.7129 18.1317 42.5880 -2.0359
# 2 50.9006 91.0035 6.5716 -0.7929 1.3652 -10.5295
# 3 19.7129 6.5716 92.2585 31.1035 19.0561 1.3396
# 4 18.1317 -0.7929 31.1035 30.9241 3.9069 8.7979
# 5 42.5880 1.3652 19.0561 3.9069 43.0578 9.5065
# 6 -2.0359 -10.5295 1.3396 8.7979 9.5065 63.3984
#
#
#
# Elastic Compliance Matrix: (Units=1/GPa)
#
#
# Indices 1 2 3 4 5 6 
#
# 1 0.007489 -0.004118 0.002545 -0.006487 -0.008174 0.001629
# 2 -0.004118 0.013554 -0.002444 0.004433 0.004116 0.000938
# 3 0.002545 -0.002444 0.019569 -0.021020 -0.010005 0.003680
# 4 -0.006487 0.004433 -0.021020 0.058400 0.012260 -0.008970
# 5 -0.008174 0.004116 -0.010005 0.012260 0.035920 -0.006455
# 6 0.001629 0.000938 0.003680 -0.008970 -0.006455 0.018116
#
#
# Mechanical properties :
#
#
# Convention : Reuss Voigt Hill
#
# Bulk Modulus (GPa) = 30.69550 61.67561 46.18555
# Shear Modulus (GPa) = 29.07957 49.04439 39.06198
#
# Velocity S-wave (km/s) = 3.20341 4.16018 3.71274
# Velocity P-wave (km/s) = 4.95121 6.69632 5.88877
#
# Compressibility (1/GPa) = 0.03257807
#
# Stress axis : x y z
#
# Youngs Moduli (GPa) = 133.52664 73.77978 51.10042
#
# Poissons Ratio (x) = 0.30383 -0.13004
# Poissons Ratio (y) = 0.54987 0.12488
# Poissons Ratio (z) = -0.33980 0.18030
#
# Static dielectric constant tensor:
#      x y z
#    x 2.181170 0.070260 -0.096680 
#    y 0.070260 2.092640 -0.003770 
#    z -0.096680 -0.003770 2.494500 
# 
# From -- ./inp_files/23582.got.cif
#   From: 2010.05.17/outbox.cif.g08.bks.cpg/sg2_12_cif.got.tgz:23582.got - 2010.06.03 11:33:40.
