data_PCOD9047494
_publ_section_title
;
Structure prediction by ZEFSAII (Michael W. Deem and Ramdas Pophale) SiO2 
 PCOD9047494
Probable space group: P -1
;
_chemical_formula_sum "Si O2"
_cell_formula_units_Z 16
_cell_length_a 17.378403
_cell_length_b 8.130848
_cell_length_c 8.120714
_cell_angle_alpha 50.899401
_cell_angle_beta 116.831350
_cell_angle_gamma 88.060306
_cell_volume 705.566042
_symmetry_space_group_name_H-M "P -1"
_symmetry_group_IT_number 2
_symmetry_cell_setting 'triclinic'
loop_
_space_group_symop_operation_xyz
x,y,z
-x,-y,-z
loop_
_atom_site_type_symbol
_atom_site_label
_atom_site_fract_x
_atom_site_fract_y
_atom_site_fract_z
Si Si1 0.597650 0.394830 0.276878
Si Si2 0.244554 0.424906 0.979229
Si Si3 0.044459 0.687615 0.424090
Si Si4 0.847463 0.728913 0.745917
Si Si5 0.424751 0.003109 0.292237
Si Si6 0.036237 0.781293 0.979380
Si Si7 0.506537 0.287210 0.759128
Si Si8 0.703570 0.189519 0.185010
O O1 0.604493 0.189176 0.537151
O O2 0.579026 0.603598 0.258448
O O3 0.682890 0.275531 0.302253
O O4 0.500000 0.500000 0.000000
O O5 0.142451 0.576059 0.694797
O O6 0.273487 0.604495 0.992828
O O7 0.228049 0.254444 0.198650
O O8 0.330664 0.257495 0.046059
O O9 0.067093 0.727512 0.233074
O O10 0.000000 0.500000 0.500000
O O11 0.974440 0.959911 0.245069
O O12 0.896043 0.454159 0.908883
O O13 0.790580 0.924801 0.428965
O O14 0.930250 0.791280 0.855032
O O15 0.481177 0.914608 0.231050
O O16 0.500000 0.000000 0.500000
O O17 0.500000 0.500000 0.500000
O O18 0.607997 0.199330 0.008339
#
# Coordination Sequence:
#
# PCOD9047494 Si02
#       8
#     2   2   2   2   2   2   2   2
#     4   9  18  38  63  86 129 175 213 274 334 389
#     4  12  24  40  66  99 131 179 222 276 340 396
#     4  11  23  43  68  98 135 177 220 277 341 405
#     4  11  23  43  67  99 131 174 224 283 336 405
#     4  11  22  40  65  97 135 170 228 278 333 405
#     4  10  24  44  67  97 135 171 225 276 343 409
#     4   9  20  39  65  93 127 179 222 276 336 398
#     4  11  22  42  65  95 136 174 225 279 335 403
#
# _framework density 22.676829999999999
#
# number of rings (size 3 to 8) (size 9 to 14) (size 15 to 20)
#    0.000    1.500    3.750    2.250    1.750    1.500 
#    0.000    8.125    2.750    0.000    0.000    0.000 
#    0.000    0.000    0.000    0.000    0.000    0.000 
#
# Total GULP energy -89333.645430 kJ/mol
# GULP energy per Si atom -5583.352839 kJ/mol
# Density = 2.262522 g / cm^3
# Si number density = 22.676830 Si / 1000 Ang^3
#
#
#
# Elastic Constant Matrix: (Units=GPa)
#
#
# Indices 1 2 3 4 5 6 
#
# 1 48.8672 26.6899 -5.6541 -12.3871 -1.1717 -2.4269
# 2 26.6899 136.3059 32.6366 -20.3835 0.6609 -5.0129
# 3 -5.6541 32.6366 76.6750 -29.2292 -3.5273 3.7230
# 4 -12.3871 -20.3835 -29.2292 46.3403 5.2657 -9.1846
# 5 -1.1717 0.6609 -3.5273 5.2657 26.4345 -3.6747
# 6 -2.4269 -5.0129 3.7230 -9.1846 -3.6747 27.7898
#
#
#
# Elastic Compliance Matrix: (Units=1/GPa)
#
#
# Indices 1 2 3 4 5 6 
#
# 1 0.027482 -0.005629 0.008411 0.010862 0.000868 0.003963
# 2 -0.005629 0.009646 -0.004515 0.000361 -0.000907 0.001853
# 3 0.008411 -0.004515 0.020714 0.013583 0.000786 0.001738
# 4 0.010862 0.000361 0.013583 0.035680 -0.003357 0.010542
# 5 0.000868 -0.000907 0.000786 -0.003357 0.039204 0.003881
# 6 0.003963 0.001853 0.001738 0.010542 0.003881 0.040429
#
#
# Mechanical properties :
#
#
# Convention : Reuss Voigt Hill
#
# Bulk Modulus (GPa) = 18.39078 41.02145 29.70612
# Shear Modulus (GPa) = 25.67426 33.99130 29.83278
#
# Velocity S-wave (km/s) = 3.36844 3.87582 3.63100
# Velocity P-wave (km/s) = 4.82245 6.17723 5.54140
#
# Compressibility (1/GPa) = 0.05437506
#
# Stress axis : x y z
#
# Youngs Moduli (GPa) = 36.38702 103.66687 48.27696
#
# Poissons Ratio (x) = 0.58357 -0.40605
# Poissons Ratio (y) = 0.20483 0.21798
# Poissons Ratio (z) = -0.30605 0.46809
#
# Static dielectric constant tensor:
#      x y z
#    x 1.863740 0.003830 -0.042830 
#    y 0.003830 1.888700 -0.055470 
#    z -0.042830 -0.055470 1.825630 
# 
# From -- ./inp_files/328483.got.cif
#   From: 2010.05.17/outbox.cif.g08.bks.cpg/sg2_165_cif.got.tgz:328483.got - 2010.06.03 11:33:40.
