data_PCOD9047678
_publ_section_title
;
Structure prediction by ZEFSAII (Michael W. Deem and Ramdas Pophale) SiO2 
 PCOD9047678
Probable space group: P -1
;
_chemical_formula_sum "Si O2"
_cell_formula_units_Z 16
_cell_length_a 15.170840
_cell_length_b 5.095959
_cell_length_c 9.476574
_cell_angle_alpha 91.301913
_cell_angle_beta 103.445552
_cell_angle_gamma 118.131672
_cell_volume 620.849937
_symmetry_space_group_name_H-M "P -1"
_symmetry_group_IT_number 2
_symmetry_cell_setting 'triclinic'
loop_
_space_group_symop_operation_xyz
x,y,z
-x,-y,-z
loop_
_atom_site_type_symbol
_atom_site_label
_atom_site_fract_x
_atom_site_fract_y
_atom_site_fract_z
Si Si1 0.171678 0.542557 0.441362
Si Si2 0.244952 0.174437 0.615630
Si Si3 0.533788 0.119844 0.670409
Si Si4 0.240041 0.784373 0.168086
Si Si5 0.950405 0.095079 0.278606
Si Si6 0.934171 0.570600 0.091891
Si Si7 0.373955 0.372484 0.108757
Si Si8 0.429514 0.657025 0.856310
O O1 0.238953 0.373421 0.486226
O O2 0.177036 0.670479 0.287673
O O3 0.051507 0.293020 0.413941
O O4 0.216007 0.839801 0.556289
O O5 0.352204 0.353742 0.740177
O O6 0.152358 0.142773 0.681978
O O7 0.645456 0.146571 0.744336
O O8 0.564881 0.460226 0.723759
O O9 0.500000 0.000000 0.500000
O O10 0.449038 0.913403 0.752918
O O11 0.264195 0.099108 0.109336
O O12 0.175128 0.532608 0.026428
O O13 0.922185 0.336861 0.205739
O O14 0.978085 0.904858 0.174113
O O15 0.000000 0.500000 0.000000
O O16 0.452182 0.269224 0.070856
O O17 0.377882 0.599431 0.991236
#
# Coordination Sequence:
#
# PCOD9047678 Si02
#       8
#     2   2   2   2   2   2   2   2
#     4  12  27  46  72 107 149 192 242 309 367 442
#     4  12  27  45  75 104 147 194 251 294 375 443
#     4  11  25  43  71 104 145 189 242 307 368 446
#     4  11  27  41  72 104 142 192 244 301 371 434
#     4  12  26  49  74 106 148 193 246 304 372 433
#     4  12  26  46  76 108 145 190 245 309 364 438
#     4  10  24  46  70  99 147 184 250 300 372 434
#     4  10  24  44  69 104 139 196 242 308 359 440
#
# _framework density 25.771121000000001
#
# number of rings (size 3 to 8) (size 9 to 14) (size 15 to 20)
#    0.000    0.750    1.250    4.500   10.500    1.000 
#    0.000    0.000    0.000    0.000    0.000    0.000 
#    0.000    0.000    0.000    0.000    0.000    0.000 
#
# Total GULP energy -89448.787898 kJ/mol
# GULP energy per Si atom -5590.549244 kJ/mol
# Density = 2.571246 g / cm^3
# Si number density = 25.771121 Si / 1000 Ang^3
#
#
#
# Elastic Constant Matrix: (Units=GPa)
#
#
# Indices 1 2 3 4 5 6 
#
# 1 76.6025 29.6230 10.7792 2.7909 12.9334 -2.1752
# 2 29.6230 136.3994 39.5713 21.6666 -2.2372 -0.4244
# 3 10.7792 39.5713 103.4721 15.0424 20.0402 -3.1053
# 4 2.7909 21.6666 15.0424 59.2484 12.7353 -4.4572
# 5 12.9334 -2.2372 20.0402 12.7353 35.1971 1.9508
# 6 -2.1752 -0.4244 -3.1053 -4.4572 1.9508 36.7838
#
#
#
# Elastic Compliance Matrix: (Units=1/GPa)
#
#
# Indices 1 2 3 4 5 6 
#
# 1 0.015793 -0.004258 0.001186 0.002286 -0.007669 0.001669
# 2 -0.004258 0.010146 -0.004075 -0.003859 0.005996 -0.001264
# 3 0.001186 -0.004075 0.012692 0.000052 -0.008024 0.001526
# 4 0.002286 -0.003859 0.000052 0.020244 -0.008606 0.003005
# 5 -0.007669 0.005996 -0.008024 -0.008606 0.039526 -0.004201
# 6 0.001669 -0.001264 0.001526 0.003005 -0.004201 0.027986
#
#
# Mechanical properties :
#
#
# Convention : Reuss Voigt Hill
#
# Bulk Modulus (GPa) = 41.08869 52.93567 47.01218
# Shear Modulus (GPa) = 33.60412 42.01254 37.80833
#
# Velocity S-wave (km/s) = 3.61494 4.04198 3.83441
# Velocity P-wave (km/s) = 5.77944 6.50913 6.15511
#
# Compressibility (1/GPa) = 0.02433760
#
# Stress axis : x y z
#
# Youngs Moduli (GPa) = 63.31978 98.56492 78.79216
#
# Poissons Ratio (x) = 0.41966 -0.09345
# Poissons Ratio (y) = 0.26959 0.32105
# Poissons Ratio (z) = -0.07510 0.40162
#
# Static dielectric constant tensor:
#      x y z
#    x 2.105410 -0.061390 -0.010810 
#    y -0.061390 2.055230 -0.051210 
#    z -0.010810 -0.051210 2.022480 
# 
# From -- ./inp_files/323726.got.cif
#   From: 2010.05.17/outbox.cif.g08.bks.cpg/sg2_162_cif.got.tgz:323726.got - 2010.06.03 11:33:40.
