data_PCOD9047027
_publ_section_title
;
Structure prediction by ZEFSAII (Michael W. Deem and Ramdas Pophale) SiO2 
 PCOD9047027
Probable space group: P -1
;
_chemical_formula_sum "Si O2"
_cell_formula_units_Z 12
_cell_length_a 8.824813
_cell_length_b 9.832744
_cell_length_c 7.874377
_cell_angle_alpha 106.952763
_cell_angle_beta 54.256425
_cell_angle_gamma 87.148050
_cell_volume 508.714141
_symmetry_space_group_name_H-M "P -1"
_symmetry_group_IT_number 2
_symmetry_cell_setting 'triclinic'
loop_
_space_group_symop_operation_xyz
x,y,z
-x,-y,-z
loop_
_atom_site_type_symbol
_atom_site_label
_atom_site_fract_x
_atom_site_fract_y
_atom_site_fract_z
Si Si1 0.912854 0.639196 0.987893
Si Si2 0.219845 0.662885 0.401558
Si Si3 0.480467 0.191597 0.875760
Si Si4 0.851213 0.600121 0.493093
Si Si5 0.564920 0.860100 0.720661
Si Si6 0.156664 0.843979 0.856776
O O1 0.996248 0.551349 0.727592
O O2 0.040786 0.746498 0.993269
O O3 0.695318 0.732941 0.111284
O O4 0.000000 0.500000 0.000000
O O5 0.366423 0.712880 0.198616
O O6 0.279698 0.486737 0.346044
O O7 0.217406 0.761977 0.607059
O O8 0.002191 0.692116 0.480764
O O9 0.585453 0.017306 0.703341
O O10 0.398687 0.173066 0.112378
O O11 0.709554 0.710795 0.494793
O O12 0.345909 0.862070 0.829860
O O13 0.000000 0.000000 0.000000
#
# Coordination Sequence:
#
# PCOD9047027 Si02
#       6
#     2   2   2   2   2   2
#     4  11  26  44  69 100 136 174 226 273 334 393
#     4  10  24  43  70  94 137 176 227 270 330 395
#     4  11  25  44  68 101 133 179 222 272 334 399
#     4  10  24  44  66  97 134 179 220 276 329 397
#     4  11  25  43  69  99 138 173 222 275 334 395
#     4  11  24  45  67  97 140 175 218 278 332 392
#
# _framework density 23.588885999999999
#
# number of rings (size 3 to 8) (size 9 to 14) (size 15 to 20)
#    0.000    1.333    1.667    3.000    9.333    5.333 
#    0.000    0.000    0.000    0.000    0.000    0.000 
#    0.000    0.000    0.000    0.000    0.000    0.000 
#
# Total GULP energy -66844.170352 kJ/mol
# GULP energy per Si atom -5570.347529 kJ/mol
# Density = 2.353520 g / cm^3
# Si number density = 23.588886 Si / 1000 Ang^3
#
#
#
# Elastic Constant Matrix: (Units=GPa)
#
#
# Indices 1 2 3 4 5 6 
#
# 1 117.9063 57.9547 10.0349 -7.9842 -28.8847 -9.8578
# 2 57.9547 210.0648 28.3144 -3.8079 -34.4985 -10.8660
# 3 10.0349 28.3144 32.1069 -0.5652 -18.8985 -9.8241
# 4 -7.9842 -3.8079 -0.5652 41.1082 -4.8901 -12.2157
# 5 -28.8847 -34.4985 -18.8985 -4.8901 38.7026 5.9190
# 6 -9.8578 -10.8660 -9.8241 -12.2157 5.9190 46.4179
#
#
#
# Elastic Compliance Matrix: (Units=1/GPa)
#
#
# Indices 1 2 3 4 5 6 
#
# 1 0.011967 -0.002165 0.004637 0.004167 0.009345 0.002921
# 2 -0.002165 0.006205 -0.003418 0.000404 0.002285 0.000084
# 3 0.004637 -0.003418 0.050033 0.006988 0.024272 0.009518
# 4 0.004167 0.000404 0.006988 0.029013 0.009183 0.008923
# 5 0.009345 0.002285 0.024272 0.009183 0.047242 0.004049
# 6 0.002921 0.000084 0.009518 0.008923 0.004049 0.026030
#
#
# Mechanical properties :
#
#
# Convention : Reuss Voigt Hill
#
# Bulk Modulus (GPa) = 15.08003 61.40956 38.24480
# Shear Modulus (GPa) = 25.70871 42.83066 34.26968
#
# Velocity S-wave (km/s) = 3.30489 4.26574 3.81568
# Velocity P-wave (km/s) = 4.57928 7.09590 5.97167
#
# Compressibility (1/GPa) = 0.06631285
#
# Stress axis : x y z
#
# Youngs Moduli (GPa) = 83.56573 161.15080 19.98670
#
# Poissons Ratio (x) = 0.34891 -0.09268
# Poissons Ratio (y) = 0.18093 0.06831
# Poissons Ratio (z) = -0.38749 0.55082
#
# Static dielectric constant tensor:
#      x y z
#    x 1.933950 -0.015730 0.196910 
#    y -0.015730 1.896500 0.002430 
#    z 0.196910 0.002430 2.387300 
# 
# From -- ./inp_files/155664.got.cif
#   From: 2010.05.17/outbox.cif.g08.bks.cpg/sg2_78_cif.got.tgz:155664.got - 2010.06.03 11:33:40.
