data_PCOD9047436
_publ_section_title
;
Structure prediction by ZEFSAII (Michael W. Deem and Ramdas Pophale) SiO2 
 PCOD9047436
Probable space group: P -1
;
_chemical_formula_sum "Si O2"
_cell_formula_units_Z 13
_cell_length_a 20.623819
_cell_length_b 5.785412
_cell_length_c 5.308392
_cell_angle_alpha 84.599639
_cell_angle_beta 78.583875
_cell_angle_gamma 119.041726
_cell_volume 529.252175
_symmetry_space_group_name_H-M "P -1"
_symmetry_group_IT_number 2
_symmetry_cell_setting 'triclinic'
loop_
_space_group_symop_operation_xyz
x,y,z
-x,-y,-z
loop_
_atom_site_type_symbol
_atom_site_label
_atom_site_fract_x
_atom_site_fract_y
_atom_site_fract_z
Si Si1 0.803329 0.540614 0.274726
Si Si2 0.933626 0.553685 0.989504
Si Si3 0.849585 0.026949 0.791270
Si Si4 0.346341 0.019571 0.629833
Si Si5 0.706221 0.669707 0.671875
Si Si6 0.411468 0.913305 0.073580
Si Si7 0.000000 0.000000 0.500000
O O1 0.736739 0.254793 0.247681
O O2 0.765767 0.582033 0.542758
O O3 0.883000 0.549079 0.262899
O O4 0.824454 0.786216 0.041528
O O5 0.878218 0.312248 0.872806
O O6 0.970969 0.834963 0.793042
O O7 0.000000 0.500000 0.000000
O O8 0.922099 0.054175 0.574219
O O9 0.767603 0.944945 0.733133
O O10 0.386951 0.976461 0.356806
O O11 0.331551 0.258436 0.536840
O O12 0.393166 0.055995 0.844624
O O13 0.640269 0.412591 0.895132
O O14 0.500000 0.000000 0.000000
#
# Coordination Sequence:
#
# PCOD9047436 Si02
#       7
#     2   2   2   2   2   2   1
#     4  10  24  44  67 100 142 183 246 297 359 428
#     4  11  26  44  67  96 138 187 244 301 365 421
#     4  11  24  44  68  98 139 186 245 299 363 426
#     4  11  25  44  78 107 147 193 241 293 367 436
#     4  11  26  44  74 103 146 189 243 295 366 434
#     4  11  26  49  75 113 152 187 237 300 363 444
#     4  10  26  42  62  94 132 178 238 294 354 418
#
# _framework density 24.562961000000001
#
# number of rings (size 3 to 8) (size 9 to 14) (size 15 to 20)
#    0.000    1.231    1.538    1.846   10.769    3.692 
#    0.000    0.000    0.000    0.000    0.000    0.000 
#    0.000    0.000    0.000    0.000    0.000    0.000 
#
# Total GULP energy -72528.421030 kJ/mol
# GULP energy per Si atom -5579.109310 kJ/mol
# Density = 2.450705 g / cm^3
# Si number density = 24.562961 Si / 1000 Ang^3
#
#
#
# Elastic Constant Matrix: (Units=GPa)
#
#
# Indices 1 2 3 4 5 6 
#
# 1 139.7407 31.0535 59.5485 -12.8950 -3.3968 12.4192
# 2 31.0535 46.0174 29.2875 5.5379 -9.1462 8.7456
# 3 59.5485 29.2875 106.3024 -8.0489 -8.7751 7.3850
# 4 -12.8950 5.5379 -8.0489 23.9949 -4.8713 0.3864
# 5 -3.3968 -9.1462 -8.7751 -4.8713 58.5354 -7.6865
# 6 12.4192 8.7456 7.3850 0.3864 -7.6865 27.8858
#
#
#
# Elastic Compliance Matrix: (Units=1/GPa)
#
#
# Indices 1 2 3 4 5 6 
#
# 1 0.010700 -0.004928 -0.004112 0.005419 -0.000627 -0.002379
# 2 -0.004928 0.031959 -0.006381 -0.011657 0.002071 -0.005406
# 3 -0.004112 -0.006381 0.013855 0.004156 0.001246 0.000449
# 4 0.005419 -0.011657 0.004156 0.049330 0.003268 0.000359
# 5 -0.000627 0.002071 0.001246 0.003268 0.018398 0.004325
# 6 -0.002379 -0.005406 0.000449 0.000359 0.004325 0.039684
#
#
# Mechanical properties :
#
#
# Convention : Reuss Voigt Hill
#
# Bulk Modulus (GPa) = 38.95254 59.09328 49.02291
# Shear Modulus (GPa) = 24.59122 33.56132 29.07627
#
# Velocity S-wave (km/s) = 3.16753 3.70041 3.44429
# Velocity P-wave (km/s) = 5.41021 6.50903 5.98489
#
# Compressibility (1/GPa) = 0.02567227
#
# Stress axis : x y z
#
# Youngs Moduli (GPa) = 93.45953 31.28988 72.17566
#
# Poissons Ratio (x) = 0.15419 0.29681
# Poissons Ratio (y) = 0.46056 0.46053
# Poissons Ratio (z) = 0.38434 0.19965
#
# Static dielectric constant tensor:
#      x y z
#    x 2.074870 0.050260 -0.009260 
#    y 0.050260 2.036710 0.069260 
#    z -0.009260 0.069260 1.930690 
# 
# From -- ./inp_files/4589.got.cif
#   From: 2010.05.17/outbox.cif.g08.bks.cpg/sg2_3_cif.got.tgz:4589.got - 2010.06.03 11:33:40.
