data_PCOD9047283
_publ_section_title
;
Structure prediction by ZEFSAII (Michael W. Deem and Ramdas Pophale) SiO2 
 PCOD9047283
Probable space group: P -1
;
_chemical_formula_sum "Si O2"
_cell_formula_units_Z 15
_cell_length_a 23.357767
_cell_length_b 9.415526
_cell_length_c 20.380871
_cell_angle_alpha 145.003970
_cell_angle_beta 162.721307
_cell_angle_gamma 41.644456
_cell_volume 747.307121
_symmetry_space_group_name_H-M "P -1"
_symmetry_group_IT_number 2
_symmetry_cell_setting 'triclinic'
loop_
_space_group_symop_operation_xyz
x,y,z
-x,-y,-z
loop_
_atom_site_type_symbol
_atom_site_label
_atom_site_fract_x
_atom_site_fract_y
_atom_site_fract_z
Si Si1 0.582803 0.113015 0.877746
Si Si2 0.483388 0.986153 0.080223
Si Si3 0.900451 0.325144 0.502893
Si Si4 0.037323 0.065983 0.786870
Si Si5 0.000000 0.000000 0.000000
Si Si6 0.785949 0.666578 0.260500
Si Si7 0.159020 0.586662 0.380980
Si Si8 0.828522 0.877318 0.620612
O O1 0.517439 0.095993 0.875629
O O2 0.387669 0.063908 0.601907
O O3 0.704641 0.391180 0.097521
O O4 0.730974 0.923902 0.958951
O O5 0.605447 0.808162 0.107669
O O6 0.614117 0.266133 0.321357
O O7 0.260037 0.919987 0.786979
O O8 0.922881 0.331342 0.607917
O O9 0.813974 0.574295 0.485025
O O10 0.095369 0.347901 0.681759
O O11 0.963974 0.307520 0.769959
O O12 0.931819 0.837895 0.536822
O O13 0.958703 0.000808 0.748808
O O14 0.126410 0.288394 0.232490
O O15 0.072619 0.031901 0.168474
#
# Coordination Sequence:
#
# PCOD9047283 Si02
#       8
#     2   2   2   2   1   2   2   2
#     4  12  20  36  62 101 135 165 207 252 313 391
#     4  11  21  35  63 101 133 165 213 250 318 390
#     4  11  21  38  62  97 143 169 202 250 319 389
#     4  11  22  37  64  99 132 165 210 255 317 383
#     4  10  26  50  72  80 120 174 226 276 326 358
#     4  11  20  33  62 101 142 171 190 248 319 391
#     4  10  24  44  63  94 123 176 217 266 316 369
#     4  11  22  42  68  92 124 173 216 263 314 379
#
# _framework density 20.072068999999999
#
# number of rings (size 3 to 8) (size 9 to 14) (size 15 to 20)
#    0.000    1.067    6.667    2.000    0.000    2.667 
#    2.400    1.333    0.000    0.000    0.000    0.000 
#    0.000    0.000    0.000    0.000    0.000    0.000 
#
# Total GULP energy -83602.077293 kJ/mol
# GULP energy per Si atom -5573.471820 kJ/mol
# Density = 2.002638 g / cm^3
# Si number density = 20.072069 Si / 1000 Ang^3
#
#
#
# Elastic Constant Matrix: (Units=GPa)
#
#
# Indices 1 2 3 4 5 6 
#
# 1 117.3437 18.1771 52.4079 0.8162 12.9560 29.6842
# 2 18.1771 43.4678 25.9762 14.8754 12.8927 22.0645
# 3 52.4079 25.9762 73.6884 21.9626 17.9888 0.4589
# 4 0.8162 14.8754 21.9626 32.7992 5.0240 10.2355
# 5 12.9560 12.8927 17.9888 5.0240 31.7830 -4.7593
# 6 29.6842 22.0645 0.4589 10.2355 -4.7593 27.1858
#
#
#
# Elastic Compliance Matrix: (Units=1/GPa)
#
#
# Indices 1 2 3 4 5 6 
#
# 1 -0.021837 -0.049147 0.034733 -0.028811 0.025481 0.078454
# 2 -0.049147 -0.030043 0.056373 -0.059145 0.025203 0.103776
# 3 0.034733 0.056373 -0.029958 0.031701 -0.040382 -0.102178
# 4 -0.028811 -0.059145 0.031701 0.006995 0.028870 0.081347
# 5 0.025481 0.025203 -0.040382 0.028870 0.020939 -0.054801
# 6 0.078454 0.103776 -0.102178 0.081347 -0.054801 -0.171602
#
#
# Mechanical properties :
#
#
# Convention : Reuss Voigt Hill
#
# Bulk Modulus (GPa) = 480.47053 47.51358 263.99205
# Shear Modulus (GPa) = -16.19523 27.54950 5.67713
#
# Velocity S-wave (km/s) = -2.84360 3.70879 1.68360
# Velocity P-wave (km/s) = 15.13641 6.48560 11.64418
#
# Compressibility (1/GPa) = 0.00208129
#
# Stress axis : x y z
#
# Youngs Moduli (GPa) = -45.79423 -33.28545 -33.37969
#
# Poissons Ratio (x) = -1.63588 1.15939
# Poissons Ratio (y) = -2.25064 1.88173
# Poissons Ratio (z) = 1.59058 1.87641
#
# Static dielectric constant tensor:
#      x y z
#    x 1.690740 0.010110 0.011150 
#    y 0.010110 1.740590 -0.022010 
#    z 0.011150 -0.022010 1.701120 
# 
# From -- ./inp_files/401073.got.cif
#   From: 2010.05.17/outbox.cif.g08.bks.cpg/sg2_201_cif.got.tgz:401073.got - 2010.06.03 11:33:40.
