data_PCOD9047993
_publ_section_title
;
Structure prediction by ZEFSAII (Michael W. Deem and Ramdas Pophale) SiO2 
 PCOD9047993
Probable space group: P -1
;
_chemical_formula_sum "Si O2"
_cell_formula_units_Z 14
_cell_length_a 12.294146
_cell_length_b 12.710636
_cell_length_c 5.806090
_cell_angle_alpha 108.534039
_cell_angle_beta 80.254911
_cell_angle_gamma 133.975456
_cell_volume 617.298469
_symmetry_space_group_name_H-M "P -1"
_symmetry_group_IT_number 2
_symmetry_cell_setting 'triclinic'
loop_
_space_group_symop_operation_xyz
x,y,z
-x,-y,-z
loop_
_atom_site_type_symbol
_atom_site_label
_atom_site_fract_x
_atom_site_fract_y
_atom_site_fract_z
Si Si1 0.293601 0.614398 0.458567
Si Si2 0.176120 0.351219 0.020008
Si Si3 0.091137 0.058021 0.755954
Si Si4 0.827556 0.093137 0.131409
Si Si5 0.445831 0.076790 0.197777
Si Si6 0.267976 0.822473 0.428317
Si Si7 0.051843 0.431754 0.784058
O O1 0.283701 0.485354 0.260905
O O2 0.426741 0.743414 0.673263
O O3 0.300346 0.714440 0.328761
O O4 0.133377 0.519275 0.579625
O O5 0.000676 0.229554 0.087947
O O6 0.199015 0.240198 0.858720
O O7 0.167302 0.428164 0.862691
O O8 0.171714 0.996023 0.723770
O O9 0.000000 0.000000 0.500000
O O10 0.000000 0.000000 0.000000
O O11 0.764842 0.167543 0.291650
O O12 0.702015 0.972711 0.906114
O O13 0.391226 0.987710 0.395909
O O14 0.500000 0.000000 0.000000
O O15 0.107480 0.738425 0.311821
O O16 0.000000 0.500000 0.000000
#
# Coordination Sequence:
#
# PCOD9047993 Si02
#       7
#     2   2   2   2   2   2   2
#     4  12  25  37  61 100 136 173 226 281 350 403
#     4  11  23  41  66  98 133 173 225 299 336 405
#     4  10  24  44  72 105 134 178 235 292 344 406
#     4  11  23  42  68  94 132 181 228 278 339 412
#     4  12  26  41  60  98 139 184 223 271 345 424
#     4  12  22  39  63  92 133 176 228 276 335 414
#     4  12  21  35  63  95 131 166 229 281 347 397
#
# _framework density 22.679466999999999
#
# number of rings (size 3 to 8) (size 9 to 14) (size 15 to 20)
#    0.000    0.571    5.714    3.429    4.000    0.000 
#    0.000    0.714    0.000    1.714    0.000    0.000 
#    0.000    0.000    0.000    0.000    0.000    0.000 
#
# Total GULP energy -78031.652720 kJ/mol
# GULP energy per Si atom -5573.689480 kJ/mol
# Density = 2.262785 g / cm^3
# Si number density = 22.679467 Si / 1000 Ang^3
#
#
#
# Elastic Constant Matrix: (Units=GPa)
#
#
# Indices 1 2 3 4 5 6 
#
# 1 43.5023 31.5237 25.0622 11.8993 17.1314 -12.7641
# 2 31.5237 117.6281 40.6778 32.5822 5.6600 -11.2366
# 3 25.0622 40.6778 84.5403 31.1087 15.4850 -5.0006
# 4 11.8993 32.5822 31.1087 50.7470 0.2160 2.0625
# 5 17.1314 5.6600 15.4850 0.2160 40.9909 2.7307
# 6 -12.7641 -11.2366 -5.0006 2.0625 2.7307 40.1214
#
#
#
# Elastic Compliance Matrix: (Units=1/GPa)
#
#
# Indices 1 2 3 4 5 6 
#
# 1 0.040499 -0.006723 -0.004190 -0.003021 -0.015176 0.011667
# 2 -0.006723 0.012579 -0.002499 -0.005025 0.001964 0.001197
# 3 -0.004190 -0.002499 0.018451 -0.008745 -0.004898 0.001050
# 4 -0.003021 -0.005025 -0.008745 0.029195 0.005461 -0.005331
# 5 -0.015176 0.001964 -0.004898 0.005461 0.032782 -0.007400
# 6 0.011667 0.001197 0.001050 -0.005331 -0.007400 0.029880
#
#
# Mechanical properties :
#
#
# Convention : Reuss Voigt Hill
#
# Bulk Modulus (GPa) = 22.36905 48.91089 35.63997
# Shear Modulus (GPa) = 24.37709 36.26565 30.32137
#
# Velocity S-wave (km/s) = 3.28205 4.00315 3.66040
# Velocity P-wave (km/s) = 4.92413 6.55591 5.79771
#
# Compressibility (1/GPa) = 0.04470462
#
# Stress axis : x y z
#
# Youngs Moduli (GPa) = 24.69196 79.49620 54.19900
#
# Poissons Ratio (x) = 0.53446 0.22707
# Poissons Ratio (y) = 0.16601 0.13547
# Poissons Ratio (z) = 0.10345 0.19870
#
# Static dielectric constant tensor:
#      x y z
#    x 1.923730 -0.004370 -0.017870 
#    y -0.004370 1.847400 0.022300 
#    z -0.017870 0.022300 2.065930 
# 
# From -- ./inp_files/28362.got.cif
#   From: 2010.05.17/outbox.cif.g08.bks.cpg/sg2_15_cif.got.tgz:28362.got - 2010.06.03 11:33:40.
