data_PCOD9047263
_publ_section_title
;
Structure prediction by ZEFSAII (Michael W. Deem and Ramdas Pophale) SiO2 
 PCOD9047263
Probable space group: P -1
;
_chemical_formula_sum "Si O2"
_cell_formula_units_Z 12
_cell_length_a 10.993924
_cell_length_b 6.897033
_cell_length_c 8.714747
_cell_angle_alpha 120.061771
_cell_angle_beta 98.691769
_cell_angle_gamma 57.705282
_cell_volume 477.273664
_symmetry_space_group_name_H-M "P -1"
_symmetry_group_IT_number 2
_symmetry_cell_setting 'triclinic'
loop_
_space_group_symop_operation_xyz
x,y,z
-x,-y,-z
loop_
_atom_site_type_symbol
_atom_site_label
_atom_site_fract_x
_atom_site_fract_y
_atom_site_fract_z
Si Si1 0.678442 0.714879 0.978484
Si Si2 0.599714 0.746647 0.313176
Si Si3 0.427599 0.735057 0.772460
Si Si4 0.792682 0.139451 0.460898
Si Si5 0.895412 0.418014 0.380502
Si Si6 0.065167 0.852675 0.213360
O O1 0.587296 0.675981 0.814064
O O2 0.830169 0.446590 0.936598
O O3 0.582195 0.788323 0.144592
O O4 0.680022 0.978642 0.053278
O O5 0.767592 0.639440 0.341367
O O6 0.500000 0.000000 0.500000
O O7 0.581608 0.502418 0.253584
O O8 0.361170 0.786785 0.607978
O O9 0.817111 0.366763 0.487604
O O10 0.831026 0.108381 0.633133
O O11 0.929606 0.888380 0.300899
O O12 0.000000 0.500000 0.500000
O O13 0.988332 0.122727 0.206652
#
# Coordination Sequence:
#
# PCOD9047263 Si02
#       6
#     2   2   2   2   2   2
#     4  11  25  41  64  93 127 164 203 261 306 363
#     4  11  26  44  64  89 125 167 209 256 306 367
#     4  10  24  44  60  97 123 166 209 248 312 365
#     4   8  19  40  61  89 124 160 202 245 304 372
#     4   9  20  38  61  97 115 162 207 251 306 366
#     4   9  20  40  62  92 123 157 204 253 308 362
#
# _framework density 25.142810999999998
#
# number of rings (size 3 to 8) (size 9 to 14) (size 15 to 20)
#    1.000    1.333    0.000    0.500    4.667    8.000 
#    3.000    0.000    0.000    0.000    0.000    0.000 
#    0.000    0.000    0.000    0.000    0.000    0.000 
#
# Total GULP energy -66999.441630 kJ/mol
# GULP energy per Si atom -5583.286803 kJ/mol
# Density = 2.508558 g / cm^3
# Si number density = 25.142811 Si / 1000 Ang^3
#
#
#
# Elastic Constant Matrix: (Units=GPa)
#
#
# Indices 1 2 3 4 5 6 
#
# 1 83.9088 42.1656 49.9193 13.4159 22.9534 -0.7496
# 2 42.1656 174.6853 54.7381 31.9455 0.9985 -21.2136
# 3 49.9193 54.7381 99.1688 16.8940 3.2917 -8.2450
# 4 13.4159 31.9455 16.8940 58.9944 -6.8958 9.5694
# 5 22.9534 0.9985 3.2917 -6.8958 33.3271 2.7145
# 6 -0.7496 -21.2136 -8.2450 9.5694 2.7145 42.1051
#
#
#
# Elastic Compliance Matrix: (Units=1/GPa)
#
#
# Indices 1 2 3 4 5 6 
#
# 1 0.023560 -0.002066 -0.009719 -0.003175 -0.015798 -0.000784
# 2 -0.002066 0.008287 -0.002478 -0.004021 0.000216 0.004553
# 3 -0.009719 -0.002478 0.016474 -0.000877 0.004822 0.001693
# 4 -0.003175 -0.004021 -0.000877 0.022260 0.007636 -0.007806
# 5 -0.015798 0.000216 0.004822 0.007636 0.042284 -0.003689
# 6 -0.000784 0.004553 0.001693 -0.007806 -0.003689 0.028373
#
#
# Mechanical properties :
#
#
# Convention : Reuss Voigt Hill
#
# Bulk Modulus (GPa) = 50.51710 72.37878 61.44794
# Shear Modulus (GPa) = 28.35072 40.94799 34.64935
#
# Velocity S-wave (km/s) = 3.36160 4.03999 3.71631
# Velocity P-wave (km/s) = 5.93320 7.11418 6.55036
#
# Compressibility (1/GPa) = 0.01979528
#
# Stress axis : x y z
#
# Youngs Moduli (GPa) = 42.44432 120.67584 60.70155
#
# Poissons Ratio (x) = 0.24927 0.58998
# Poissons Ratio (y) = 0.08767 0.15041
# Poissons Ratio (z) = 0.41253 0.29901
#
# Static dielectric constant tensor:
#      x y z
#    x 1.984920 0.004770 0.015050 
#    y 0.004770 2.061470 0.040560 
#    z 0.015050 0.040560 2.041860 
# 
# From -- ./inp_files/293262.got.cif
#   From: 2010.05.17/outbox.cif.g08.bks.cpg/sg2_147_cif.got.tgz:293262.got - 2010.06.03 11:33:40.
