data_PCOD9047792
_publ_section_title
;
Structure prediction by ZEFSAII (Michael W. Deem and Ramdas Pophale) SiO2 
 PCOD9047792
Probable space group: P -1
;
_chemical_formula_sum "Si O2"
_cell_formula_units_Z 11
_cell_length_a 9.422867
_cell_length_b 4.980390
_cell_length_c 10.454033
_cell_angle_alpha 87.836390
_cell_angle_beta 67.988757
_cell_angle_gamma 101.347469
_cell_volume 442.584441
_symmetry_space_group_name_H-M "P -1"
_symmetry_group_IT_number 2
_symmetry_cell_setting 'triclinic'
loop_
_space_group_symop_operation_xyz
x,y,z
-x,-y,-z
loop_
_atom_site_type_symbol
_atom_site_label
_atom_site_fract_x
_atom_site_fract_y
_atom_site_fract_z
Si Si1 0.476949 0.012811 0.711495
Si Si2 0.236430 0.003114 0.212220
Si Si3 0.044310 0.408372 0.348721
Si Si4 0.500000 0.500000 0.500000
Si Si5 0.183606 0.139334 0.942828
Si Si6 0.750737 0.440218 0.300636
O O1 0.595037 0.965043 0.780740
O O2 0.540452 0.296977 0.614236
O O3 0.304779 0.997191 0.828525
O O4 0.432618 0.748759 0.634355
O O5 0.152716 0.680289 0.240752
O O6 0.132359 0.162525 0.328421
O O7 0.238102 0.140846 0.070096
O O8 0.000000 0.500000 0.500000
O O9 0.887994 0.325747 0.316621
O O10 0.696819 0.653372 0.411443
O O11 0.205237 0.424272 0.853430
O O12 0.000000 0.000000 0.000000
#
# Coordination Sequence:
#
# PCOD9047792 Si02
#       6
#     2   2   2   1   2   2
#     4  11  26  45  76 110 148 200 249 314 372 453
#     4  12  28  48  75 111 156 192 253 313 375 445
#     4  12  28  48  75 108 153 202 249 311 375 448
#     4  10  24  44  70 104 148 186 252 298 378 428
#     4  11  24  47  75 108 151 198 251 306 377 447
#     4  11  25  44  78 103 149 199 253 300 381 444
#
# _framework density 24.854011
#
# number of rings (size 3 to 8) (size 9 to 14) (size 15 to 20)
#    0.000    0.727    1.818    3.818   12.727    2.182 
#    0.000    0.000    0.000    0.000    0.000    0.000 
#    0.000    0.000    0.000    0.000    0.000    0.000 
#
# Total GULP energy -61429.502289 kJ/mol
# GULP energy per Si atom -5584.500208 kJ/mol
# Density = 2.479744 g / cm^3
# Si number density = 24.854011 Si / 1000 Ang^3
#
#
#
# Elastic Constant Matrix: (Units=GPa)
#
#
# Indices 1 2 3 4 5 6 
#
# 1 203.2786 48.8070 63.1162 -11.9014 26.4307 -1.1876
# 2 48.8070 108.9400 27.9390 -11.2699 5.8575 -1.2020
# 3 63.1162 27.9390 158.2568 -18.2563 15.2102 6.9381
# 4 -11.9014 -11.2699 -18.2563 33.8561 -2.6817 -5.1325
# 5 26.4307 5.8575 15.2102 -2.6817 48.4259 0.4437
# 6 -1.1876 -1.2020 6.9381 -5.1325 0.4437 34.6397
#
#
#
# Elastic Compliance Matrix: (Units=1/GPa)
#
#
# Indices 1 2 3 4 5 6 
#
# 1 0.006401 -0.002194 -0.001897 0.000383 -0.002617 0.000613
# 2 -0.002194 0.010612 -0.000774 0.002490 0.000288 0.000813
# 3 -0.001897 -0.000774 0.007714 0.002967 -0.001119 -0.001183
# 4 0.000383 0.002490 0.002967 0.032787 0.000334 0.004359
# 5 -0.002617 0.000288 -0.001119 0.000334 0.022414 -0.000093
# 6 0.000613 0.000813 -0.001183 0.004359 -0.000093 0.029802
#
#
# Mechanical properties :
#
#
# Convention : Reuss Voigt Hill
#
# Bulk Modulus (GPa) = 66.68465 83.35553 75.02009
# Shear Modulus (GPa) = 40.17325 45.42520 42.79923
#
# Velocity S-wave (km/s) = 4.02477 4.27978 4.15423
# Velocity P-wave (km/s) = 6.96327 7.61793 7.29795
#
# Compressibility (1/GPa) = 0.01499595
#
# Stress axis : x y z
#
# Youngs Moduli (GPa) = 156.21434 94.23141 129.63928
#
# Poissons Ratio (x) = 0.20678 0.24591
# Poissons Ratio (y) = 0.34280 0.10040
# Poissons Ratio (z) = 0.29631 0.07298
#
# Static dielectric constant tensor:
#      x y z
#    x 1.986040 0.012590 -0.009500 
#    y 0.012590 2.539730 0.348510 
#    z -0.009500 0.348510 2.138360 
# 
# From -- ./inp_files/16966.got.cif
#   From: 2010.05.17/outbox.cif.g08.bks.cpg/sg2_9_cif.got.tgz:16966.got - 2010.06.03 11:33:40.
