data_PCOD9047654
_publ_section_title
;
Structure prediction by ZEFSAII (Michael W. Deem and Ramdas Pophale) SiO2 
 PCOD9047654
Probable space group: P -1
;
_chemical_formula_sum "Si O2"
_cell_formula_units_Z 14
_cell_length_a 19.455715
_cell_length_b 8.671247
_cell_length_c 7.657129
_cell_angle_alpha 114.197034
_cell_angle_beta 53.703688
_cell_angle_gamma 144.537717
_cell_volume 596.779227
_symmetry_space_group_name_H-M "P -1"
_symmetry_group_IT_number 2
_symmetry_cell_setting 'triclinic'
loop_
_space_group_symop_operation_xyz
x,y,z
-x,-y,-z
loop_
_atom_site_type_symbol
_atom_site_label
_atom_site_fract_x
_atom_site_fract_y
_atom_site_fract_z
Si Si1 0.650226 0.800160 0.948526
Si Si2 0.176870 0.442883 0.863074
Si Si3 0.112429 0.987445 0.849226
Si Si4 0.585238 0.052726 0.057244
Si Si5 0.853893 0.820278 0.717316
Si Si6 0.371157 0.184823 0.597175
Si Si7 0.325475 0.733372 0.423496
O O1 0.650897 0.846320 0.175041
O O2 0.658486 0.983995 0.907117
O O3 0.500000 0.500000 0.000000
O O4 0.765508 0.834321 0.764918
O O5 0.301659 0.647440 0.901881
O O6 0.232269 0.597589 0.670900
O O7 0.133386 0.181704 0.785974
O O8 0.039211 0.318897 0.077852
O O9 0.234216 0.050397 0.661703
O O10 0.127661 0.084396 0.068885
O O11 0.465310 0.845506 0.285623
O O12 0.500000 0.000000 0.000000
O O13 0.764124 0.511108 0.692184
O O14 0.000000 0.000000 0.500000
O O15 0.500000 0.500000 0.500000
O O16 0.376976 0.002263 0.439065
#
# Coordination Sequence:
#
# PCOD9047654 Si02
#       7
#     2   2   2   2   2   2   2
#     4  11  25  44  68 101 142 186 233 294 354 422
#     4  11  23  43  69 100 136 191 239 292 356 428
#     4  10  24  44  69 100 145 185 231 297 361 430
#     4  12  26  44  69 103 146 191 243 298 358 424
#     4  11  23  45  72 106 144 187 235 294 366 431
#     4  11  26  44  70 107 142 181 241 299 361 431
#     4  12  24  42  72 102 139 185 241 291 357 423
#
# _framework density 23.459263
#
# number of rings (size 3 to 8) (size 9 to 14) (size 15 to 20)
#    0.000    0.857    4.286    2.143    6.000    1.714 
#    0.000    0.000    0.000    4.286    0.000    0.000 
#    0.000    0.000    0.000    0.000    0.000    0.000 
#
# Total GULP energy -78251.330319 kJ/mol
# GULP energy per Si atom -5589.380737 kJ/mol
# Density = 2.340587 g / cm^3
# Si number density = 23.459263 Si / 1000 Ang^3
#
#
#
# Elastic Constant Matrix: (Units=GPa)
#
#
# Indices 1 2 3 4 5 6 
#
# 1 112.1681 33.3450 32.7033 -1.9986 -23.5714 2.7346
# 2 33.3450 130.4798 45.3544 -15.5756 -12.3077 17.1834
# 3 32.7033 45.3544 100.6188 -9.5587 -27.5118 -3.6581
# 4 -1.9986 -15.5756 -9.5587 40.9821 4.9247 -8.9306
# 5 -23.5714 -12.3077 -27.5118 4.9247 47.2718 -6.5428
# 6 2.7346 17.1834 -3.6581 -8.9306 -6.5428 43.8910
#
#
#
# Elastic Compliance Matrix: (Units=1/GPa)
#
#
# Indices 1 2 3 4 5 6 
#
# 1 0.010803 -0.002000 -0.001567 -0.001009 0.004113 0.000387
# 2 -0.002000 0.010347 -0.004418 0.002108 -0.001663 -0.004114
# 3 -0.001567 -0.004418 0.014702 0.001800 0.007056 0.004471
# 4 -0.001009 0.002108 0.001800 0.026715 -0.001044 0.004668
# 5 0.004113 -0.001663 0.007056 -0.001044 0.027665 0.004895
# 6 0.000387 -0.004114 0.004471 0.004668 0.004895 0.026422
#
#
# Mechanical properties :
#
#
# Convention : Reuss Voigt Hill
#
# Bulk Modulus (GPa) = 50.29445 62.89689 56.59567
# Shear Modulus (GPa) = 35.90585 41.88658 38.89621
#
# Velocity S-wave (km/s) = 3.91648 4.23011 4.07631
# Velocity P-wave (km/s) = 6.47591 7.12234 6.80680
#
# Compressibility (1/GPa) = 0.01988291
#
# Stress axis : x y z
#
# Youngs Moduli (GPa) = 92.56318 96.64369 68.01649
#
# Poissons Ratio (x) = 0.19324 0.10660
# Poissons Ratio (y) = 0.18508 0.30052
# Poissons Ratio (z) = 0.14507 0.42700
#
# Static dielectric constant tensor:
#      x y z
#    x 1.966990 -0.028590 0.054380 
#    y -0.028590 1.884310 -0.018050 
#    z 0.054380 -0.018050 1.976980 
# 
# From -- ./inp_files/222817.got.cif
#   From: 2010.05.17/outbox.cif.g08.bks.cpg/sg2_112_cif.got.tgz:222817.got - 2010.06.03 11:33:40.
