data_PCOD9047025
_publ_section_title
;
Structure prediction by ZEFSAII (Michael W. Deem and Ramdas Pophale) SiO2 
 PCOD9047025
Probable space group: P -1
;
_chemical_formula_sum "Si O2"
_cell_formula_units_Z 16
_cell_length_a 12.600006
_cell_length_b 12.289470
_cell_length_c 11.083971
_cell_angle_alpha 45.330236
_cell_angle_beta 32.961651
_cell_angle_gamma 63.222041
_cell_volume 619.555488
_symmetry_space_group_name_H-M "P -1"
_symmetry_group_IT_number 2
_symmetry_cell_setting 'triclinic'
loop_
_space_group_symop_operation_xyz
x,y,z
-x,-y,-z
loop_
_atom_site_type_symbol
_atom_site_label
_atom_site_fract_x
_atom_site_fract_y
_atom_site_fract_z
Si Si1 0.663922 0.712206 0.137823
Si Si2 0.875019 0.071885 0.735197
Si Si3 0.878303 0.427473 0.793453
Si Si4 0.317432 0.338001 0.117994
Si Si5 0.073675 0.364126 0.884109
Si Si6 0.261962 0.808901 0.470618
Si Si7 0.491711 0.094578 0.208531
Si Si8 0.141641 0.916028 0.864077
O O1 0.705982 0.600032 0.289815
O O2 0.457003 0.752193 0.316156
O O3 0.683895 0.652004 0.032627
O O4 0.843164 0.893501 0.849424
O O5 0.816817 0.163263 0.605938
O O6 0.102330 0.186861 0.473785
O O7 0.704231 0.060798 0.010075
O O8 0.698873 0.500429 0.933553
O O9 0.806517 0.231414 0.006317
O O10 0.000000 0.500000 0.500000
O O11 0.026513 0.470875 0.739376
O O12 0.502843 0.278883 0.029553
O O13 0.015163 0.191318 0.005384
O O14 0.906900 0.325014 0.181681
O O15 0.348298 0.981004 0.325921
O O16 0.354725 0.030747 0.508660
O O17 0.000000 0.000000 0.000000
#
# Coordination Sequence:
#
# PCOD9047025 Si02
#       8
#     2   2   2   2   2   2   2   2
#     4  11  19  32  60  93 124 158 197 237 299 360
#     4  11  19  32  59  97 131 155 197 238 295 371
#     4  10  24  42  62  86 117 160 211 253 304 354
#     4  12  21  34  64  92 125 164 191 243 307 362
#     4   9  21  37  58  86 122 156 196 251 296 355
#     4  10  17  34  56  92 128 155 195 245 285 362
#     4  10  19  34  61  91 120 159 200 243 294 349
#     4   9  19  39  67  84 109 159 210 251 294 347
#
# _framework density 25.824967999999998
#
# number of rings (size 3 to 8) (size 9 to 14) (size 15 to 20)
#    0.750    1.000    3.750    3.375    0.000    0.500 
#    0.000    1.875    2.750    6.000    0.000    0.000 
#    0.000    0.000    0.000    0.000    0.000    0.000 
#
# Total GULP energy -89583.864555 kJ/mol
# GULP energy per Si atom -5598.991535 kJ/mol
# Density = 2.576619 g / cm^3
# Si number density = 25.824968 Si / 1000 Ang^3
#
#
#
# Elastic Constant Matrix: (Units=GPa)
#
#
# Indices 1 2 3 4 5 6 
#
# 1 52.9360 18.5787 19.3909 -6.9679 17.0544 -9.7054
# 2 18.5787 158.1785 49.2337 16.3020 10.5456 12.3897
# 3 19.3909 49.2337 126.7062 18.8029 20.1821 3.3697
# 4 -6.9679 16.3020 18.8029 44.8596 -3.9341 2.1542
# 5 17.0544 10.5456 20.1821 -3.9341 38.7291 -0.7090
# 6 -9.7054 12.3897 3.3697 2.1542 -0.7090 43.1670
#
#
#
# Elastic Compliance Matrix: (Units=1/GPa)
#
#
# Indices 1 2 3 4 5 6 
#
# 1 0.025210 -0.002644 -0.002348 0.004811 -0.008555 0.006230
# 2 -0.002644 0.007747 -0.002203 -0.002186 -0.000066 -0.002538
# 3 -0.002348 -0.002203 0.010435 -0.004283 -0.004250 -0.000566
# 4 0.004811 -0.002186 -0.004283 0.025884 0.003353 0.000807
# 5 -0.008555 -0.000066 -0.004250 0.003353 0.032138 -0.001212
# 6 0.006230 -0.002538 -0.000566 0.000807 -0.001212 0.025279
#
#
# Mechanical properties :
#
#
# Convention : Reuss Voigt Hill
#
# Bulk Modulus (GPa) = 34.47932 56.91415 45.69673
# Shear Modulus (GPa) = 33.16733 42.05897 37.61315
#
# Velocity S-wave (km/s) = 3.58762 4.03999 3.82051
# Velocity P-wave (km/s) = 5.52644 6.62180 6.09876
#
# Compressibility (1/GPa) = 0.02900289
#
# Stress axis : x y z
#
# Youngs Moduli (GPa) = 39.66635 129.08736 95.82904
#
# Poissons Ratio (x) = 0.34127 0.22499
# Poissons Ratio (y) = 0.10487 0.21112
# Poissons Ratio (z) = 0.09313 0.28440
#
# Static dielectric constant tensor:
#      x y z
#    x 2.102680 -0.019380 -0.028940 
#    y -0.019380 2.015440 -0.058210 
#    z -0.028940 -0.058210 2.039520 
# 
# From -- ./inp_files/454480.got.cif
#   From: 2010.05.17/outbox.cif.g08.bks.cpg/sg2_228_cif.got.tgz:454480.got - 2010.06.03 11:33:40.
