data_PCOD9047365
_publ_section_title
;
Structure prediction by ZEFSAII (Michael W. Deem and Ramdas Pophale) SiO2 
 PCOD9047365
Probable space group: P -1
;
_chemical_formula_sum "Si O2"
_cell_formula_units_Z 15
_cell_length_a 8.832081
_cell_length_b 23.128597
_cell_length_c 11.707999
_cell_angle_alpha 148.822106
_cell_angle_beta 146.290438
_cell_angle_gamma 42.838711
_cell_volume 685.210972
_symmetry_space_group_name_H-M "P -1"
_symmetry_group_IT_number 2
_symmetry_cell_setting 'triclinic'
loop_
_space_group_symop_operation_xyz
x,y,z
-x,-y,-z
loop_
_atom_site_type_symbol
_atom_site_label
_atom_site_fract_x
_atom_site_fract_y
_atom_site_fract_z
Si Si1 0.687541 0.604287 0.782601
Si Si2 0.035834 0.610250 0.782343
Si Si3 0.549430 0.188492 0.897321
Si Si4 0.863887 0.864676 0.065120
Si Si5 0.379217 0.327858 0.797244
Si Si6 0.818287 0.873297 0.802796
Si Si7 0.000000 0.500000 0.000000
Si Si8 0.638467 0.977449 0.340413
O O1 0.500000 0.500000 0.500000
O O2 0.898139 0.594458 0.002148
O O3 0.856886 0.600345 0.766798
O O4 0.489433 0.714556 0.866821
O O5 0.000000 0.500000 0.500000
O O6 0.927311 0.731282 0.869226
O O7 0.360092 0.621078 0.011002
O O8 0.480333 0.249006 0.835897
O O9 0.357602 0.094667 0.663379
O O10 0.855780 0.133270 0.998270
O O11 0.717279 0.898549 0.911443
O O12 0.140445 0.930064 0.359721
O O13 0.709341 0.897741 0.141164
O O14 0.251316 0.248024 0.490747
O O15 0.169516 0.425186 0.878912
O O16 0.658071 0.961487 0.768240
#
# Coordination Sequence:
#
# PCOD9047365 Si02
#       8
#     2   2   2   2   2   2   1   2
#     4  11  24  46  68  99 136 176 225 288 348 408
#     4  12  24  46  75  98 137 185 227 285 357 412
#     4  11  23  42  70  98 140 182 225 284 346 405
#     4  11  25  47  68 103 139 181 229 293 345 404
#     4  11  25  46  68 106 140 182 233 287 344 416
#     4  12  23  42  70 103 140 177 238 280 344 414
#     4  10  24  44  66 100 136 178 220 280 340 412
#     4  11  24  46  71  99 141 184 233 283 345 410
#
# _framework density 21.891067
#
# number of rings (size 3 to 8) (size 9 to 14) (size 15 to 20)
#    0.000    0.800    4.000    3.200    1.867    3.733 
#    2.400    1.333    0.000    0.000    0.000    0.000 
#    0.000    0.000    0.000    0.000    0.000    0.000 
#
# Total GULP energy -83558.243307 kJ/mol
# GULP energy per Si atom -5570.549554 kJ/mol
# Density = 2.184124 g / cm^3
# Si number density = 21.891067 Si / 1000 Ang^3
#
#
#
# Elastic Constant Matrix: (Units=GPa)
#
#
# Indices 1 2 3 4 5 6 
#
# 1 142.8784 17.5564 47.2014 11.4308 -5.0005 -7.4907
# 2 17.5564 71.6792 18.8540 17.3432 5.1747 -15.6474
# 3 47.2014 18.8540 68.5111 18.3454 -3.9775 -1.3155
# 4 11.4308 17.3432 18.3454 29.3835 -0.9307 -5.4190
# 5 -5.0005 5.1747 -3.9775 -0.9307 33.9694 14.1276
# 6 -7.4907 -15.6474 -1.3155 -5.4190 14.1276 42.1384
#
#
#
# Elastic Compliance Matrix: (Units=1/GPa)
#
#
# Indices 1 2 3 4 5 6 
#
# 1 0.009175 -0.000528 -0.006406 0.000988 0.000165 0.001307
# 2 -0.000528 0.019079 -0.003026 -0.007871 -0.006974 0.008222
# 3 -0.006406 -0.003026 0.022815 -0.010613 0.003615 -0.004127
# 4 0.000988 -0.007871 -0.010613 0.045423 0.000229 0.002686
# 5 0.000165 -0.006974 0.003615 0.000229 0.037138 -0.014869
# 6 0.001307 0.008222 -0.004127 0.002686 -0.014869 0.032219
#
#
# Mechanical properties :
#
#
# Convention : Reuss Voigt Hill
#
# Bulk Modulus (GPa) = 32.10371 50.03250 41.06810
# Shear Modulus (GPa) = 25.49037 34.39539 29.94288
#
# Velocity S-wave (km/s) = 3.41606 3.96815 3.70241
# Velocity P-wave (km/s) = 5.50058 6.62569 6.08917
#
# Compressibility (1/GPa) = 0.03114905
#
# Stress axis : x y z
#
# Youngs Moduli (GPa) = 108.98716 52.41340 43.83088
#
# Poissons Ratio (x) = 0.02767 0.28079
# Poissons Ratio (y) = 0.05754 0.13264
# Poissons Ratio (z) = 0.69819 0.15861
#
# Static dielectric constant tensor:
#      x y z
#    x 1.827840 0.010520 0.015270 
#    y 0.010520 1.805260 0.011490 
#    z 0.015270 0.011490 1.837640 
# 
# From -- ./inp_files/406931.got.cif
#   From: 2010.05.17/outbox.cif.g08.bks.cpg/sg2_204_cif.got.tgz:406931.got - 2010.06.03 11:33:40.
