data_PCOD9047660
_publ_section_title
;
Structure prediction by ZEFSAII (Michael W. Deem and Ramdas Pophale) SiO2 
 PCOD9047660
Probable space group: P -1
;
_chemical_formula_sum "Si O2"
_cell_formula_units_Z 12
_cell_length_a 16.828445
_cell_length_b 19.796806
_cell_length_c 11.993721
_cell_angle_alpha 21.891175
_cell_angle_beta 150.791846
_cell_angle_gamma 159.963652
_cell_volume 510.402107
_symmetry_space_group_name_H-M "P -1"
_symmetry_group_IT_number 2
_symmetry_cell_setting 'triclinic'
loop_
_space_group_symop_operation_xyz
x,y,z
-x,-y,-z
loop_
_atom_site_type_symbol
_atom_site_label
_atom_site_fract_x
_atom_site_fract_y
_atom_site_fract_z
Si Si1 0.573992 0.401340 0.330685
Si Si2 0.135257 0.797334 0.730819
Si Si3 0.831718 0.818087 0.177242
Si Si4 0.661928 0.855390 0.140344
Si Si5 0.822724 0.620516 0.802888
Si Si6 0.063704 0.588884 0.316210
O O1 0.610675 0.540487 0.277736
O O2 0.822472 0.500891 0.458935
O O3 0.390012 0.089962 0.582410
O O4 0.500000 0.500000 0.000000
O O5 0.986466 0.805816 0.455730
O O6 0.069678 0.783647 0.798987
O O7 0.000000 0.500000 0.000000
O O8 0.748695 0.888836 0.066682
O O9 0.000000 0.000000 0.000000
O O10 0.763232 0.783817 0.458850
O O11 0.386153 0.628941 0.142950
O O12 0.740173 0.105369 0.900162
O O13 0.848839 0.522536 0.095826
O O14 0.000000 0.500000 0.500000
#
# Coordination Sequence:
#
# PCOD9047660 Si02
#       6
#     2   2   2   2   2   2
#     4  12  27  46  72 106 146 193 237 295 366 427
#     4  11  24  43  71 102 141 185 242 297 352 425
#     4  11  23  43  71 100 142 188 238 291 361 425
#     4  10  24  45  71 102 141 191 231 296 362 423
#     4  10  24  44  69 101 142 183 238 293 361 418
#     4  12  27  43  71 107 143 183 243 293 354 430
#
# _framework density 23.510874000000001
#
# number of rings (size 3 to 8) (size 9 to 14) (size 15 to 20)
#    0.000    1.000    1.667    3.500    4.667    7.333 
#    0.000    0.000    0.000    0.000    0.000    0.000 
#    0.000    0.000    0.000    0.000    0.000    0.000 
#
# Total GULP energy -66840.788960 kJ/mol
# GULP energy per Si atom -5570.065747 kJ/mol
# Density = 2.345736 g / cm^3
# Si number density = 23.510874 Si / 1000 Ang^3
#
#
#
# Elastic Constant Matrix: (Units=GPa)
#
#
# Indices 1 2 3 4 5 6 
#
# 1 61.1879 85.6243 38.9286 39.3962 3.0902 -19.1801
# 2 85.6243 14.4872 48.8515 -38.3994 8.5830 13.3386
# 3 38.9286 48.8515 101.1613 6.2456 0.7939 -5.5588
# 4 39.3962 -38.3994 6.2456 30.2626 -12.8037 3.2103
# 5 3.0902 8.5830 0.7939 -12.8037 39.7219 -3.0726
# 6 -19.1801 13.3386 -5.5588 3.2103 -3.0726 34.1159
#
#
#
# Elastic Compliance Matrix: (Units=1/GPa)
#
#
# Indices 1 2 3 4 5 6 
#
# 1 0.004912 0.008165 -0.006264 0.005267 -0.000477 -0.001990
# 2 0.008165 0.001355 -0.002891 -0.010410 -0.003899 0.004218
# 3 -0.006264 -0.002891 0.013516 0.002400 0.001594 -0.000271
# 4 0.005267 -0.010410 0.002400 0.014766 0.007067 0.006669
# 5 -0.000477 -0.003899 0.001594 0.007067 0.028566 0.003424
# 6 -0.001990 0.004218 -0.000271 0.006669 0.003424 0.026181
#
#
# Mechanical properties :
#
#
# Convention : Reuss Voigt Hill
#
# Bulk Modulus (GPa) = 56.17127 58.18279 57.17703
# Shear Modulus (GPa) = 51.43453 21.04889 36.24171
#
# Velocity S-wave (km/s) = 4.68235 2.99537 3.93044
# Velocity P-wave (km/s) = 7.29219 6.06333 6.70597
#
# Compressibility (1/GPa) = 0.01780270
#
# Stress axis : x y z
#
# Youngs Moduli (GPa) = 203.57649 737.96866 73.98502
#
# Poissons Ratio (x) = -6.02522 0.46343
# Poissons Ratio (y) = -1.66212 0.21391
# Poissons Ratio (z) = 1.27516 2.13361
#
# Static dielectric constant tensor:
#      x y z
#    x 1.930720 -0.114010 0.132660 
#    y -0.114010 1.663600 0.302580 
#    z 0.132660 0.302580 1.477170 
# 
# From -- ./inp_files/180139.got.cif
#   From: 2010.05.17/outbox.cif.g08.bks.cpg/sg2_91_cif.got.tgz:180139.got - 2010.06.03 11:33:40.
