data_PCOD9047764
_publ_section_title
;
Structure prediction by ZEFSAII (Michael W. Deem and Ramdas Pophale) SiO2 
 PCOD9047764
Probable space group: P -1
;
_chemical_formula_sum "Si O2"
_cell_formula_units_Z 16
_cell_length_a 17.794326
_cell_length_b 12.109571
_cell_length_c 6.150192
_cell_angle_alpha 48.134406
_cell_angle_beta 123.652548
_cell_angle_gamma 131.454750
_cell_volume 724.551136
_symmetry_space_group_name_H-M "P -1"
_symmetry_group_IT_number 2
_symmetry_cell_setting 'triclinic'
loop_
_space_group_symop_operation_xyz
x,y,z
-x,-y,-z
loop_
_atom_site_type_symbol
_atom_site_label
_atom_site_fract_x
_atom_site_fract_y
_atom_site_fract_z
Si Si1 0.230182 0.229255 0.198204
Si Si2 0.148978 0.909750 0.804829
Si Si3 0.081052 0.971573 0.024015
Si Si4 0.037931 0.640086 0.638019
Si Si5 0.528594 0.577715 0.692590
Si Si6 0.844052 0.500049 0.249657
Si Si7 0.678095 0.137964 0.596259
Si Si8 0.498447 0.112127 0.653806
O O1 0.349705 0.338668 0.229480
O O2 0.196986 0.068092 0.511792
O O3 0.184634 0.141688 0.009733
O O4 0.181933 0.349289 0.030256
O O5 0.082028 0.731992 0.813344
O O6 0.072966 0.940974 0.798047
O O7 0.241832 0.903444 0.091501
O O8 0.080348 0.803360 0.332945
O O9 0.000000 0.000000 0.000000
O O10 0.087936 0.525781 0.792389
O O11 0.917189 0.548141 0.517408
O O12 0.500000 0.500000 0.500000
O O13 0.491279 0.717172 0.459623
O O14 0.500000 0.500000 0.000000
O O15 0.744195 0.321072 0.354657
O O16 0.592979 0.145325 0.605768
O O17 0.609705 0.991483 0.509336
O O18 0.500000 0.000000 0.000000
#
# Coordination Sequence:
#
# PCOD9047764 Si02
#       8
#     2   2   2   2   2   2   2   2
#     4  11  26  44  75 102 146 195 246 303 372 444
#     4  11  25  45  74 104 140 200 244 296 374 448
#     4  11  22  47  67 101 142 191 237 300 363 447
#     4  10  24  44  70 102 146 184 239 303 364 441
#     4  12  30  50  76 115 158 195 251 322 386 447
#     4  11  23  48  67 104 147 183 238 307 363 437
#     4  11  25  45  76 103 145 188 249 301 368 452
#     4  11  27  48  77 105 145 196 251 306 378 451
#
# _framework density 22.082636999999998
#
# number of rings (size 3 to 8) (size 9 to 14) (size 15 to 20)
#    0.000    1.000    2.500    2.250   12.250    2.500 
#    2.250    0.000    0.000    0.000    0.000    0.000 
#    0.000    0.000    0.000    0.000    0.000    0.000 
#
# Total GULP energy -89356.628102 kJ/mol
# GULP energy per Si atom -5584.789256 kJ/mol
# Density = 2.203238 g / cm^3
# Si number density = 22.082637 Si / 1000 Ang^3
#
#
#
# Elastic Constant Matrix: (Units=GPa)
#
#
# Indices 1 2 3 4 5 6 
#
# 1 102.0206 59.0470 36.2628 10.8183 3.8107 -10.6191
# 2 59.0470 114.7303 29.7290 15.3916 -11.4866 -15.1003
# 3 36.2628 29.7290 91.3678 -5.2344 1.7950 -18.1581
# 4 10.8183 15.3916 -5.2344 43.9917 -5.3178 5.0679
# 5 3.8107 -11.4866 1.7950 -5.3178 31.7996 -6.3762
# 6 -10.6191 -15.1003 -18.1581 5.0679 -6.3762 48.4996
#
#
#
# Elastic Compliance Matrix: (Units=1/GPa)
#
#
# Indices 1 2 3 4 5 6 
#
# 1 0.015881 -0.007394 -0.004084 -0.002308 -0.004880 -0.000754
# 2 -0.007394 0.014369 -0.001342 -0.003004 0.006352 0.003501
# 3 -0.004084 -0.001342 0.013877 0.002754 0.000414 0.003650
# 4 -0.002308 -0.003004 0.002754 0.025318 0.002729 -0.002696
# 5 -0.004880 0.006352 0.000414 0.002729 0.035861 0.005493
# 6 -0.000754 0.003501 0.003650 -0.002696 0.005493 0.023914
#
#
# Mechanical properties :
#
#
# Convention : Reuss Voigt Hill
#
# Bulk Modulus (GPa) = 54.08572 62.02183 58.05377
# Shear Modulus (GPa) = 31.05177 37.06352 34.05764
#
# Velocity S-wave (km/s) = 3.75395 4.10127 3.93145
# Velocity P-wave (km/s) = 6.58294 7.11157 6.85236
#
# Compressibility (1/GPa) = 0.01848917
#
# Stress axis : x y z
#
# Youngs Moduli (GPa) = 62.96795 69.59545 72.06059
#
# Poissons Ratio (x) = 0.51456 0.29426
# Poissons Ratio (y) = 0.46555 0.09670
# Poissons Ratio (z) = 0.25713 0.09339
#
# Static dielectric constant tensor:
#      x y z
#    x 1.825600 -0.014090 -0.030120 
#    y -0.014090 1.816250 0.042470 
#    z -0.030120 0.042470 1.857900 
# 
# From -- ./inp_files/109522.got.cif
#   From: 2010.05.17/outbox.cif.g08.bks.cpg/sg2_55_cif.got.tgz:109522.got - 2010.06.03 11:33:40.
