data_PCOD9047687
_publ_section_title
;
Structure prediction by ZEFSAII (Michael W. Deem and Ramdas Pophale) SiO2 
 PCOD9047687
Probable space group: P -1
;
_chemical_formula_sum "Si O2"
_cell_formula_units_Z 14
_cell_length_a 9.184548
_cell_length_b 8.102719
_cell_length_c 23.994777
_cell_angle_alpha 134.668271
_cell_angle_beta 144.474758
_cell_angle_gamma 68.244473
_cell_volume 644.259292
_symmetry_space_group_name_H-M "P -1"
_symmetry_group_IT_number 2
_symmetry_cell_setting 'triclinic'
loop_
_space_group_symop_operation_xyz
x,y,z
-x,-y,-z
loop_
_atom_site_type_symbol
_atom_site_label
_atom_site_fract_x
_atom_site_fract_y
_atom_site_fract_z
Si Si1 0.674664 0.162313 0.144988
Si Si2 0.694327 0.564029 0.320530
Si Si3 0.387307 0.706159 0.031261
Si Si4 0.198885 0.311533 0.196570
Si Si5 0.204545 0.802605 0.113807
Si Si6 0.678271 0.096654 0.421393
Si Si7 0.686431 0.462301 0.596194
O O1 0.609257 0.393328 0.197293
O O2 0.998856 0.299505 0.260394
O O3 0.605343 0.976710 0.132600
O O4 0.500000 0.000000 0.000000
O O5 0.452655 0.402362 0.252090
O O6 0.033776 0.661041 0.459011
O O7 0.700772 0.835248 0.374383
O O8 0.376699 0.758805 0.106072
O O9 0.500000 0.500000 0.000000
O O10 0.067759 0.642993 0.894679
O O11 0.353443 0.498993 0.342762
O O12 0.084403 0.996209 0.098310
O O13 0.405626 0.990903 0.270907
O O14 0.000000 0.500000 0.000000
O O15 0.662412 0.190392 0.501469
O O16 0.500000 0.500000 0.500000
#
# Coordination Sequence:
#
# PCOD9047687 Si02
#       7
#     2   2   2   2   2   2   2
#     4  11  24  44  71 100 147 192 237 297 358 428
#     4  10  24  45  73 102 145 189 242 296 362 432
#     4  12  29  43  69 112 143 191 243 299 367 429
#     4  12  25  48  74 105 145 191 246 301 362 431
#     4  12  27  45  75 106 148 188 248 298 359 435
#     4  10  24  44  69 106 140 193 237 293 367 430
#     4  11  24  43  71 104 142 187 236 295 366 424
#
# _framework density 21.730381999999999
#
# number of rings (size 3 to 8) (size 9 to 14) (size 15 to 20)
#    0.000    0.857    4.286    1.286    6.000    4.571 
#    0.000    0.000    0.000    0.000    0.000    0.000 
#    0.000    0.000    0.000    0.000    0.000    0.000 
#
# Total GULP energy -78087.326082 kJ/mol
# GULP energy per Si atom -5577.666149 kJ/mol
# Density = 2.168092 g / cm^3
# Si number density = 21.730382 Si / 1000 Ang^3
#
#
#
# Elastic Constant Matrix: (Units=GPa)
#
#
# Indices 1 2 3 4 5 6 
#
# 1 120.1366 18.1846 48.3717 7.1866 -26.4007 -2.5860
# 2 18.1846 72.2004 29.8969 19.5145 -4.9254 -17.0496
# 3 48.3717 29.8969 144.3354 -0.0192 -22.4911 -7.3985
# 4 7.1866 19.5145 -0.0192 38.2796 -1.9516 -3.7359
# 5 -26.4007 -4.9254 -22.4911 -1.9516 32.2721 7.7468
# 6 -2.5860 -17.0496 -7.3985 -3.7359 7.7468 35.6017
#
#
#
# Elastic Compliance Matrix: (Units=1/GPa)
#
#
# Indices 1 2 3 4 5 6 
#
# 1 0.011233 -0.001543 -0.002346 -0.001144 0.007783 -0.002224
# 2 -0.001543 0.020069 -0.003736 -0.009288 -0.003402 0.008488
# 3 -0.002346 -0.003736 0.009103 0.002493 0.004177 -0.000715
# 4 -0.001144 -0.009288 0.002493 0.031046 0.001522 -0.001086
# 5 0.007783 -0.003402 0.004177 0.001522 0.042042 -0.009184
# 6 -0.002224 0.008488 -0.000715 -0.001086 -0.009184 0.033728
#
#
# Mechanical properties :
#
#
# Convention : Reuss Voigt Hill
#
# Bulk Modulus (GPa) = 39.75449 58.84208 49.29829
# Shear Modulus (GPa) = 29.26434 37.24527 33.25480
#
# Velocity S-wave (km/s) = 3.67372 4.14451 3.91620
# Velocity P-wave (km/s) = 6.02737 7.07387 6.57148
#
# Compressibility (1/GPa) = 0.02515439
#
# Stress axis : x y z
#
# Youngs Moduli (GPa) = 89.02245 49.82888 109.85286
#
# Poissons Ratio (x) = 0.07687 0.25775
# Poissons Ratio (y) = 0.13733 0.41043
# Poissons Ratio (z) = 0.20888 0.18617
#
# Static dielectric constant tensor:
#      x y z
#    x 1.898330 -0.104160 -0.001920 
#    y -0.104160 1.875360 -0.034510 
#    z -0.001920 -0.034510 1.823700 
# 
# From -- ./inp_files/204976.got.cif
#   From: 2010.05.17/outbox.cif.g08.bks.cpg/sg2_103_cif.got.tgz:204976.got - 2010.06.03 11:33:40.
