data_PCOD9047423
_publ_section_title
;
Structure prediction by ZEFSAII (Michael W. Deem and Ramdas Pophale) SiO2 
 PCOD9047423
Probable space group: P -1
;
_chemical_formula_sum "Si O2"
_cell_formula_units_Z 16
_cell_length_a 4.956036
_cell_length_b 22.253263
_cell_length_c 17.133652
_cell_angle_alpha 20.861843
_cell_angle_beta 96.546969
_cell_angle_gamma 86.480890
_cell_volume 588.436393
_symmetry_space_group_name_H-M "P -1"
_symmetry_group_IT_number 2
_symmetry_cell_setting 'triclinic'
loop_
_space_group_symop_operation_xyz
x,y,z
-x,-y,-z
loop_
_atom_site_type_symbol
_atom_site_label
_atom_site_fract_x
_atom_site_fract_y
_atom_site_fract_z
Si Si1 0.445781 0.984066 0.624612
Si Si2 0.013576 0.750313 0.813632
Si Si3 0.274136 0.170942 0.841036
Si Si4 0.584215 0.665253 0.716751
Si Si5 0.017660 0.696819 0.580030
Si Si6 0.316509 0.531362 0.372714
Si Si7 0.456681 0.374389 0.885171
Si Si8 0.865293 0.095370 0.027885
O O1 0.098651 0.083171 0.457941
O O2 0.479126 0.169947 0.422838
O O3 0.696517 0.843032 0.741233
O O4 0.497662 0.836983 0.875019
O O5 0.136846 0.552730 0.008276
O O6 0.280145 0.683831 0.968352
O O7 0.181242 0.383268 0.549067
O O8 0.506126 0.152632 0.940634
O O9 0.998870 0.134789 0.904469
O O10 0.500000 0.000000 0.000000
O O11 0.274655 0.649205 0.713176
O O12 0.694629 0.739938 0.553711
O O13 0.140652 0.519197 0.741152
O O14 0.018306 0.875603 0.320624
O O15 0.500000 0.500000 0.500000
O O16 0.500007 0.513096 0.322011
O O17 0.091584 0.759411 0.089577
#
# Coordination Sequence:
#
# PCOD9047423 Si02
#       8
#     2   2   2   2   2   2   2   2
#     4  11  23  43  73 100 143 187 231 290 353 417
#     4  10  24  45  65 109 138 184 237 288 349 426
#     4  11  23  43  64  95 126 178 220 289 352 406
#     4  11  24  44  68 106 144 186 231 286 354 415
#     4  11  24  44  67 105 140 183 235 292 343 427
#     4  10  24  44  66  99 133 180 236 289 349 419
#     4  11  23  45  69  98 140 186 233 293 354 413
#     4  11  23  42  64  95 133 172 229 283 341 416
#
# _framework density 27.190705000000001
#
# number of rings (size 3 to 8) (size 9 to 14) (size 15 to 20)
#    0.000    1.250    1.250    3.750    3.500    3.000 
#    4.500    1.875    0.000    0.000    0.000    0.000 
#    0.000    0.000    0.000    0.000    0.000    0.000 
#
# Total GULP energy -89420.194849 kJ/mol
# GULP energy per Si atom -5588.762178 kJ/mol
# Density = 2.712882 g / cm^3
# Si number density = 27.190705 Si / 1000 Ang^3
#
#
#
# Elastic Constant Matrix: (Units=GPa)
#
#
# Indices 1 2 3 4 5 6 
#
# 1 110.2451 26.0679 24.0787 14.0097 2.0339 1.1570
# 2 26.0679 100.7937 31.8001 -8.8737 2.7430 -2.3660
# 3 24.0787 31.8001 173.7624 -20.8868 -13.0585 -2.8192
# 4 14.0097 -8.8737 -20.8868 44.1073 1.1692 -6.0904
# 5 2.0339 2.7430 -13.0585 1.1692 27.9205 12.2698
# 6 1.1570 -2.3660 -2.8192 -6.0904 12.2698 38.5357
#
#
#
# Elastic Compliance Matrix: (Units=1/GPa)
#
#
# Indices 1 2 3 4 5 6 
#
# 1 0.010707 -0.002695 -0.001637 -0.004869 -0.000549 -0.001201
# 2 -0.002695 0.011471 -0.001560 0.002763 -0.002631 0.001945
# 3 -0.001637 -0.001560 0.006929 0.003384 0.003411 -0.000091
# 4 -0.004869 0.002763 0.003384 0.027180 -0.001869 0.005454
# 5 -0.000549 -0.002631 0.003411 -0.001869 0.044033 -0.014211
# 6 -0.001201 0.001945 -0.000091 0.005454 -0.014211 0.031486
#
#
# Mechanical properties :
#
#
# Convention : Reuss Voigt Hill
#
# Bulk Modulus (GPa) = 57.72197 60.96605 59.34401
# Shear Modulus (GPa) = 33.47562 42.30300 37.88931
#
# Velocity S-wave (km/s) = 3.51257 3.94863 3.73696
# Velocity P-wave (km/s) = 6.14211 6.57717 6.36336
#
# Compressibility (1/GPa) = 0.01732443
#
# Stress axis : x y z
#
# Youngs Moduli (GPa) = 93.39846 87.17752 144.32277
#
# Poissons Ratio (x) = 0.23492 0.23619
# Poissons Ratio (y) = 0.25168 0.22512
# Poissons Ratio (z) = 0.15285 0.13598
#
# Static dielectric constant tensor:
#      x y z
#    x 2.143560 0.074250 -0.032700 
#    y 0.074250 2.231970 0.026430 
#    z -0.032700 0.026430 2.212860 
# 
# From -- ./inp_files/547214.got.cif
#   From: 2010.05.17/outbox.cif.g08.bks.cpg/sg2_274_cif.got.tgz:547214.got - 2010.06.03 11:33:40.
