data_PCOD9047840
_publ_section_title
;
Structure prediction by ZEFSAII (Michael W. Deem and Ramdas Pophale) SiO2 
 PCOD9047840
Probable space group: P -1
;
_chemical_formula_sum "Si O2"
_cell_formula_units_Z 16
_cell_length_a 21.727635
_cell_length_b 8.597439
_cell_length_c 9.964102
_cell_angle_alpha 119.399509
_cell_angle_beta 152.358394
_cell_angle_gamma 63.634518
_cell_volume 752.133069
_symmetry_space_group_name_H-M "P -1"
_symmetry_group_IT_number 2
_symmetry_cell_setting 'triclinic'
loop_
_space_group_symop_operation_xyz
x,y,z
-x,-y,-z
loop_
_atom_site_type_symbol
_atom_site_label
_atom_site_fract_x
_atom_site_fract_y
_atom_site_fract_z
Si Si1 0.278600 0.306740 0.471669
Si Si2 0.082504 0.634385 0.812409
Si Si3 0.038007 0.034093 0.932695
Si Si4 0.700874 0.450324 0.132047
Si Si5 0.914339 0.508853 0.973377
Si Si6 0.057467 0.831521 0.456642
Si Si7 0.450534 0.197631 0.519706
Si Si8 0.348634 0.435269 0.197480
O O1 0.314950 0.411063 0.719033
O O2 0.382752 0.202830 0.536527
O O3 0.161703 0.167889 0.219616
O O4 0.232609 0.474469 0.357955
O O5 0.035921 0.622785 0.872569
O O6 0.000000 0.500000 0.500000
O O7 0.072306 0.842483 0.848403
O O8 0.237299 0.574735 0.096715
O O9 0.000000 0.000000 0.000000
O O10 0.926984 0.115446 0.648967
O O11 0.821301 0.301035 0.317479
O O12 0.572517 0.330658 0.819707
O O13 0.708409 0.576182 0.068390
O O14 0.935671 0.697827 0.165085
O O15 0.000000 0.500000 0.000000
O O16 0.000000 0.000000 0.500000
O O17 0.358977 0.270488 0.250272
O O18 0.500000 0.000000 0.500000
O O19 0.500000 0.500000 0.500000
#
# Coordination Sequence:
#
# PCOD9047840 Si02
#       8
#     2   2   2   2   2   2   2   2
#     4  11  24  46  66  96 138 179 226 272 345 412
#     4  12  24  41  70 101 132 181 230 282 340 404
#     4  11  27  41  65 103 143 175 222 283 345 400
#     4  11  24  45  72  95 137 181 229 274 342 420
#     4  11  21  39  66  94 132 174 216 273 342 404
#     4  11  23  40  66 102 136 173 227 281 335 400
#     4  11  26  46  73  99 131 178 231 288 339 402
#     4  10  24  44  70  98 138 178 230 276 350 407
#
# _framework density 21.272831
#
# number of rings (size 3 to 8) (size 9 to 14) (size 15 to 20)
#    0.000    1.000    2.500    4.125    8.750    1.000 
#    0.000    0.625    0.000    0.000    0.000    0.000 
#    0.000    0.000    0.000    0.000    0.000    0.000 
#
# Total GULP energy -89100.990633 kJ/mol
# GULP energy per Si atom -5568.811915 kJ/mol
# Density = 2.122441 g / cm^3
# Si number density = 21.272831 Si / 1000 Ang^3
#
#
#
# Elastic Constant Matrix: (Units=GPa)
#
#
# Indices 1 2 3 4 5 6 
#
# 1 131.3297 50.6113 53.3034 -7.5230 -25.3178 -10.4222
# 2 50.6113 159.4900 53.9301 2.2589 -18.4253 -14.4114
# 3 53.3034 53.9301 91.7947 -9.5860 -22.3367 -1.5749
# 4 -7.5230 2.2589 -9.5860 41.5716 2.1786 -4.7747
# 5 -25.3178 -18.4253 -22.3367 2.1786 42.8236 -5.4447
# 6 -10.4222 -14.4114 -1.5749 -4.7747 -5.4447 38.5344
#
#
#
# Elastic Compliance Matrix: (Units=1/GPa)
#
#
# Indices 1 2 3 4 5 6 
#
# 1 0.010994 -0.001250 -0.004522 0.001156 0.003929 0.003020
# 2 -0.001250 0.008426 -0.004033 -0.001372 0.001189 0.002647
# 3 -0.004522 -0.004033 0.017232 0.003029 0.004293 -0.001045
# 4 0.001156 -0.001372 0.003029 0.025361 0.000787 0.003177
# 5 0.003929 0.001189 0.004293 0.000787 0.029135 0.005897
# 6 0.003020 0.002647 -0.001045 0.003177 0.005897 0.028941
#
#
# Mechanical properties :
#
#
# Convention : Reuss Voigt Hill
#
# Bulk Modulus (GPa) = 58.67254 77.58934 68.13094
# Shear Modulus (GPa) = 34.39247 39.57057 36.98152
#
# Velocity S-wave (km/s) = 4.02522 4.31762 4.17398
# Velocity P-wave (km/s) = 7.01741 7.83635 7.43816
#
# Compressibility (1/GPa) = 0.01704375
#
# Stress axis : x y z
#
# Youngs Moduli (GPa) = 90.95474 118.67520 58.03118
#
# Poissons Ratio (x) = 0.14829 0.26239
# Poissons Ratio (y) = 0.11365 0.23407
# Poissons Ratio (z) = 0.41126 0.47868
#
# Static dielectric constant tensor:
#      x y z
#    x 1.945870 -0.014350 -0.048410 
#    y -0.014350 1.924050 -0.022590 
#    z -0.048410 -0.022590 1.841870 
# 
# From -- ./inp_files/329277.got.cif
#   From: 2010.05.17/outbox.cif.g08.bks.cpg/sg2_165_cif.got.tgz:329277.got - 2010.06.03 11:33:40.
