data_PCOD9047646
_publ_section_title
;
Structure prediction by ZEFSAII (Michael W. Deem and Ramdas Pophale) SiO2 
 PCOD9047646
Probable space group: P -1
;
_chemical_formula_sum "Si O2"
_cell_formula_units_Z 14
_cell_length_a 12.521063
_cell_length_b 23.955494
_cell_length_c 5.180042
_cell_angle_alpha 93.407732
_cell_angle_beta 102.424660
_cell_angle_gamma 151.999864
_cell_volume 597.729694
_symmetry_space_group_name_H-M "P -1"
_symmetry_group_IT_number 2
_symmetry_cell_setting 'triclinic'
loop_
_space_group_symop_operation_xyz
x,y,z
-x,-y,-z
loop_
_atom_site_type_symbol
_atom_site_label
_atom_site_fract_x
_atom_site_fract_y
_atom_site_fract_z
Si Si1 0.752743 0.160525 0.663359
Si Si2 0.910559 0.006406 0.156007
Si Si3 0.382445 0.785081 0.553529
Si Si4 0.890406 0.692084 0.617036
Si Si5 0.453181 0.237680 0.716632
Si Si6 0.447656 0.569468 0.418317
Si Si7 0.772262 0.479072 0.230616
O O1 0.665678 0.184515 0.648014
O O2 0.913351 0.228487 0.497682
O O3 0.500000 0.000000 0.500000
O O4 0.945171 0.232171 0.013311
O O5 0.725391 0.889109 0.241662
O O6 0.678881 0.936639 0.885996
O O7 0.207883 0.164510 0.469655
O O8 0.000000 0.000000 0.000000
O O9 0.416465 0.740855 0.424483
O O10 0.092580 0.641020 0.516744
O O11 0.736761 0.678891 0.509636
O O12 0.680317 0.541948 0.509122
O O13 0.684518 0.378042 0.039367
O O14 0.412807 0.599894 0.630108
O O15 0.292774 0.512690 0.054853
#
# Coordination Sequence:
#
# PCOD9047646 Si02
#       7
#     2   2   2   2   2   2   2
#     4  12  26  45  70 104 139 184 236 284 347 418
#     4   9  22  45  64  93 136 188 229 278 344 421
#     4  11  24  43  69  99 140 182 222 295 347 407
#     4  11  23  49  68  99 142 184 230 289 349 409
#     4  10  24  44  68  99 140 183 230 280 348 426
#     4  11  24  44  74 100 142 182 228 294 351 408
#     4  12  25  42  73 110 136 179 237 288 347 414
#
# _framework density 23.421958
#
# number of rings (size 3 to 8) (size 9 to 14) (size 15 to 20)
#    0.000    1.143    2.857    1.714    8.000    4.000 
#   12.857    0.000    0.000    0.000    0.000    0.000 
#    0.000    0.000    0.000    0.000    0.000    0.000 
#
# Total GULP energy -78164.945915 kJ/mol
# GULP energy per Si atom -5583.210422 kJ/mol
# Density = 2.336865 g / cm^3
# Si number density = 23.421958 Si / 1000 Ang^3
#
#
#
# Elastic Constant Matrix: (Units=GPa)
#
#
# Indices 1 2 3 4 5 6 
#
# 1 93.7525 25.6814 39.6386 3.8564 10.7431 10.7181
# 2 25.6814 84.1806 8.9713 -7.8481 7.5218 10.9776
# 3 39.6386 8.9713 97.0854 -6.6753 8.8608 18.6303
# 4 3.8564 -7.8481 -6.6753 37.9443 1.9497 -12.4132
# 5 10.7431 7.5218 8.8608 1.9497 35.7084 1.7970
# 6 10.7181 10.9776 18.6303 -12.4132 1.7970 31.4766
#
#
#
# Elastic Compliance Matrix: (Units=1/GPa)
#
#
# Indices 1 2 3 4 5 6 
#
# 1 0.014538 -0.003800 -0.005309 -0.003695 -0.001962 -0.001828
# 2 -0.003800 0.013731 0.001240 0.002530 -0.002038 -0.003115
# 3 -0.005309 0.001240 0.013795 0.001299 -0.001848 -0.006173
# 4 -0.003695 0.002530 0.001299 0.031572 -0.002080 0.012177
# 5 -0.001962 -0.002038 -0.001848 -0.002080 0.029598 -0.000038
# 6 -0.001828 -0.003115 -0.006173 0.012177 -0.000038 0.041936
#
#
# Mechanical properties :
#
#
# Convention : Reuss Voigt Hill
#
# Bulk Modulus (GPa) = 37.98361 47.06679 42.52520
# Shear Modulus (GPa) = 29.46694 34.40766 31.93730
#
# Velocity S-wave (km/s) = 3.55080 3.83696 3.69665
# Velocity P-wave (km/s) = 5.75007 6.30622 6.03455
#
# Compressibility (1/GPa) = 0.02632715
#
# Stress axis : x y z
#
# Youngs Moduli (GPa) = 68.78733 72.83056 72.48793
#
# Poissons Ratio (x) = 0.27676 0.38480
# Poissons Ratio (y) = 0.26139 -0.08991
# Poissons Ratio (z) = 0.36516 -0.09034
#
# Static dielectric constant tensor:
#      x y z
#    x 2.049880 0.078460 0.024380 
#    y 0.078460 2.024250 0.006630 
#    z 0.024380 0.006630 1.918180 
# 
# From -- ./inp_files/60637.got.cif
#   From: 2010.05.17/outbox.cif.g08.bks.cpg/sg2_31_cif.got.tgz:60637.got - 2010.06.03 11:33:40.
