data_PCOD9047409
_publ_section_title
;
Structure prediction by ZEFSAII (Michael W. Deem and Ramdas Pophale) SiO2 
 PCOD9047409
Probable space group: P -1
;
_chemical_formula_sum "Si O2"
_cell_formula_units_Z 15
_cell_length_a 19.238698
_cell_length_b 10.181960
_cell_length_c 12.394400
_cell_angle_alpha 23.950179
_cell_angle_beta 137.183945
_cell_angle_gamma 130.266730
_cell_volume 667.307349
_symmetry_space_group_name_H-M "P -1"
_symmetry_group_IT_number 2
_symmetry_cell_setting 'triclinic'
loop_
_space_group_symop_operation_xyz
x,y,z
-x,-y,-z
loop_
_atom_site_type_symbol
_atom_site_label
_atom_site_fract_x
_atom_site_fract_y
_atom_site_fract_z
Si Si1 0.090176 0.322876 0.805902
Si Si2 0.245674 0.468307 0.293372
Si Si3 0.951054 0.381911 0.786783
Si Si4 0.566261 0.793131 0.891911
Si Si5 0.317507 0.300801 0.106581
Si Si6 0.744469 0.773037 0.273873
Si Si7 0.369882 0.016185 0.603872
Si Si8 0.000000 0.500000 0.000000
O O1 0.000000 0.500000 0.500000
O O2 0.056308 0.422119 0.813933
O O3 0.204576 0.399927 0.857454
O O4 0.087491 0.943691 0.062004
O O5 0.271176 0.390367 0.505941
O O6 0.319282 0.247670 0.463899
O O7 0.125310 0.417304 0.178550
O O8 0.261039 0.841762 0.008022
O O9 0.860887 0.662870 0.451978
O O10 0.970010 0.372206 0.942113
O O11 0.615875 0.903818 0.753859
O O12 0.487788 0.040945 0.682244
O O13 0.500000 0.500000 0.000000
O O14 0.660855 0.685509 0.158003
O O15 0.311401 0.105382 0.357314
O O16 0.363530 0.646770 0.913700
#
# Coordination Sequence:
#
# PCOD9047409 Si02
#       8
#     2   2   2   2   2   2   2   1
#     4  11  25  40  70 102 137 182 229 284 349 409
#     4  11  26  44  71  99 139 185 232 280 343 414
#     4  10  25  43  67 102 141 182 228 283 343 418
#     4  10  25  45  72 101 138 178 236 288 357 402
#     4  11  25  41  72  97 143 173 231 284 351 411
#     4  11  26  45  70 100 137 184 229 285 345 415
#     4  11  25  46  68 104 132 184 229 294 337 409
#     4  10  24  44  66  96 142 182 228 272 346 414
#
# _framework density 22.478396
#
# number of rings (size 3 to 8) (size 9 to 14) (size 15 to 20)
#    0.000    1.333    0.000    2.800   16.800    5.333 
#    0.000    0.000    0.000    0.000    0.000    0.000 
#    0.000    0.000    0.000    0.000    0.000    0.000 
#
# Total GULP energy -83613.252981 kJ/mol
# GULP energy per Si atom -5574.216865 kJ/mol
# Density = 2.242723 g / cm^3
# Si number density = 22.478396 Si / 1000 Ang^3
#
#
#
# Elastic Constant Matrix: (Units=GPa)
#
#
# Indices 1 2 3 4 5 6 
#
# 1 106.6118 16.7006 -1.4835 -8.7532 48.5004 -27.0145
# 2 16.7006 58.3951 7.4147 15.3021 26.6719 -13.7671
# 3 -1.4835 7.4147 46.4494 -5.8553 20.5469 -1.5854
# 4 -8.7532 15.3021 -5.8553 36.8870 -2.9395 3.9661
# 5 48.5004 26.6719 20.5469 -2.9395 35.3955 -1.5187
# 6 -27.0145 -13.7671 -1.5854 3.9661 -1.5187 32.3208
#
#
#
# Elastic Compliance Matrix: (Units=1/GPa)
#
#
# Indices 1 2 3 4 5 6 
#
# 1 -0.016954 -0.026099 -0.019884 0.010661 0.054252 -0.025022
# 2 -0.026099 0.004812 -0.022408 -0.006314 0.043846 -0.018028
# 3 -0.019884 -0.022408 0.007544 0.011660 0.039632 -0.025363
# 4 0.010661 -0.006314 0.011660 0.032781 -0.013806 0.002122
# 5 0.054252 0.043846 0.039632 -0.013806 -0.100578 0.062933
# 6 -0.025022 -0.018028 -0.025363 0.002122 0.062933 0.003799
#
#
# Mechanical properties :
#
#
# Convention : Reuss Voigt Hill
#
# Bulk Modulus (GPa) = -7.07315 28.52443 10.72564
# Shear Modulus (GPa) = 237.43343 33.50896 135.47119
#
# Velocity S-wave (km/s) = 10.28867 3.86517 7.77162
# Velocity P-wave (km/s) = 11.74686 5.71285 9.23649
#
# Compressibility (1/GPa) = -0.14137978
#
# Stress axis : x y z
#
# Youngs Moduli (GPa) = -58.98276 207.82587 132.56220
#
# Poissons Ratio (x) = 5.42398 2.63585
# Poissons Ratio (y) = -1.53937 2.97045
# Poissons Ratio (z) = -1.17280 4.65696
#
# Static dielectric constant tensor:
#      x y z
#    x 1.845530 0.027640 -0.046720 
#    y 0.027640 1.780550 0.032150 
#    z -0.046720 0.032150 1.774440 
# 
# From -- ./inp_files/469736.got.cif
#   From: 2010.05.17/outbox.cif.g08.bks.cpg/sg2_235_cif.got.tgz:469736.got - 2010.06.03 11:33:40.
