data_PCOD9047692
_publ_section_title
;
Structure prediction by ZEFSAII (Michael W. Deem and Ramdas Pophale) SiO2 
 PCOD9047692
Probable space group: P -1
;
_chemical_formula_sum "Si O2"
_cell_formula_units_Z 14
_cell_length_a 10.113615
_cell_length_b 10.113226
_cell_length_c 13.616179
_cell_angle_alpha 53.321315
_cell_angle_beta 131.475794
_cell_angle_gamma 148.591646
_cell_volume 541.937998
_symmetry_space_group_name_H-M "P -1"
_symmetry_group_IT_number 2
_symmetry_cell_setting 'triclinic'
loop_
_space_group_symop_operation_xyz
x,y,z
-x,-y,-z
loop_
_atom_site_type_symbol
_atom_site_label
_atom_site_fract_x
_atom_site_fract_y
_atom_site_fract_z
Si Si1 0.126949 0.920207 0.559029
Si Si2 0.886951 0.693434 0.146949
Si Si3 0.716664 0.425184 0.701851
Si Si4 0.238963 0.621003 0.929276
Si Si5 0.227665 0.036831 0.968066
Si Si6 0.282397 0.354163 0.221788
Si Si7 0.295091 0.003363 0.384111
O O1 0.915740 0.632724 0.621818
O O2 0.441785 0.141332 0.655916
O O3 0.148463 0.927280 0.449645
O O4 0.000000 0.000000 0.500000
O O5 0.735370 0.426943 0.149697
O O6 0.719876 0.734229 0.078779
O O7 0.092623 0.808631 0.284418
O O8 0.054712 0.857374 0.057396
O O9 0.634130 0.522415 0.685719
O O10 0.944824 0.491147 0.850638
O O11 0.527533 0.916592 0.948517
O O12 0.304236 0.523945 0.083489
O O13 0.040365 0.911005 0.835057
O O14 0.414077 0.271186 0.297335
O O15 0.500000 0.000000 0.500000
#
# Coordination Sequence:
#
# PCOD9047692 Si02
#       7
#     2   2   2   2   2   2   2
#     4  12  28  54  77 107 153 204 252 306 368 441
#     4   9  20  41  61 101 140 189 240 304 369 437
#     4  12  28  47  79 108 151 199 253 306 370 446
#     4  11  23  40  72 107 144 189 244 312 378 444
#     4   9  20  39  66  98 144 187 237 305 376 437
#     4  10  24  44  69 107 145 192 241 307 375 444
#     4  11  24  46  75 103 147 196 257 308 368 444
#
# _framework density 25.833214000000002
#
# number of rings (size 3 to 8) (size 9 to 14) (size 15 to 20)
#    0.000    1.429    1.429    3.000    8.000    0.571 
#    2.571    1.429    0.000    0.000    0.000    0.000 
#    0.000    0.000    0.000    0.000    0.000    0.000 
#
# Total GULP energy -78158.951283 kJ/mol
# GULP energy per Si atom -5582.782235 kJ/mol
# Density = 2.577442 g / cm^3
# Si number density = 25.833214 Si / 1000 Ang^3
#
#
#
# Elastic Constant Matrix: (Units=GPa)
#
#
# Indices 1 2 3 4 5 6 
#
# 1 95.7197 13.9909 36.3263 11.0400 -7.7508 2.5337
# 2 13.9909 44.2406 19.8017 11.8000 7.3951 17.5006
# 3 36.3263 19.8017 135.5531 5.0712 3.5345 13.6464
# 4 11.0400 11.8000 5.0712 45.4806 -2.0217 -0.4007
# 5 -7.7508 7.3951 3.5345 -2.0217 53.1580 12.2257
# 6 2.5337 17.5006 13.6464 -0.4007 12.2257 33.2403
#
#
#
# Elastic Compliance Matrix: (Units=1/GPa)
#
#
# Indices 1 2 3 4 5 6 
#
# 1 0.012345 -0.002816 -0.002981 -0.001832 0.002097 0.000972
# 2 -0.002816 0.033080 -0.002147 -0.007867 -0.001523 -0.015855
# 3 -0.002981 -0.002147 0.008699 0.000283 -0.000213 -0.002132
# 4 -0.001832 -0.007867 0.000283 0.024513 0.000781 0.004174
# 5 0.002097 -0.001523 -0.000213 0.000781 0.020978 -0.006977
# 6 0.000972 -0.015855 -0.002132 0.004174 -0.006977 0.041849
#
#
# Mechanical properties :
#
#
# Convention : Reuss Voigt Hill
#
# Bulk Modulus (GPa) = 26.15400 46.19457 36.17429
# Shear Modulus (GPa) = 29.39459 40.06876 34.73167
#
# Velocity S-wave (km/s) = 3.37688 3.94262 3.67066
# Velocity P-wave (km/s) = 5.03493 6.21662 5.65672
#
# Compressibility (1/GPa) = 0.03823507
#
# Stress axis : x y z
#
# Youngs Moduli (GPa) = 81.00130 30.22967 114.95113
#
# Poissons Ratio (x) = 0.08514 0.34267
# Poissons Ratio (y) = 0.22814 0.24685
# Poissons Ratio (z) = 0.24147 0.06492
#
# Static dielectric constant tensor:
#      x y z
#    x 2.064180 0.017100 0.091350 
#    y 0.017100 2.299530 -0.057200 
#    z 0.091350 -0.057200 2.068060 
# 
# From -- ./inp_files/518777.got.cif
#   From: 2010.05.17/outbox.cif.g08.bks.cpg/sg2_260_cif.got.tgz:518777.got - 2010.06.03 11:33:40.
