data_PCOD9047012
_publ_section_title
;
Structure prediction by ZEFSAII (Michael W. Deem and Ramdas Pophale) SiO2 
 PCOD9047012
Probable space group: P -1
;
_chemical_formula_sum "Si O2"
_cell_formula_units_Z 14
_cell_length_a 21.029796
_cell_length_b 10.000493
_cell_length_c 7.229835
_cell_angle_alpha 46.934332
_cell_angle_beta 45.756339
_cell_angle_gamma 35.873972
_cell_volume 612.803956
_symmetry_space_group_name_H-M "P -1"
_symmetry_group_IT_number 2
_symmetry_cell_setting 'triclinic'
loop_
_space_group_symop_operation_xyz
x,y,z
-x,-y,-z
loop_
_atom_site_type_symbol
_atom_site_label
_atom_site_fract_x
_atom_site_fract_y
_atom_site_fract_z
Si Si1 0.216267 0.326893 0.634186
Si Si2 0.553829 0.767316 0.727557
Si Si3 0.893681 0.742975 0.386831
Si Si4 0.592413 0.510121 0.209393
Si Si5 0.963838 0.203158 0.233363
Si Si6 0.774439 0.214390 0.413335
Si Si7 0.353603 0.789100 0.978922
O O1 0.310681 0.363664 0.424340
O O2 0.183779 0.306766 0.512451
O O3 0.103808 0.549220 0.754199
O O4 0.272662 0.073852 0.850619
O O5 0.481066 0.699277 0.848180
O O6 0.500000 0.000000 0.500000
O O7 0.532496 0.761895 0.994479
O O8 0.000000 0.500000 0.500000
O O9 0.823768 0.962578 0.462440
O O10 0.939405 0.822945 0.059455
O O11 0.500000 0.500000 0.500000
O O12 0.690281 0.421743 0.241838
O O13 0.645809 0.325654 0.103642
O O14 0.877314 0.212678 0.262027
O O15 0.000000 0.000000 0.500000
O O16 0.700389 0.255365 0.703199
#
# Coordination Sequence:
#
# PCOD9047012 Si02
#       7
#     2   2   2   2   2   2   2
#     4  11  24  45  73 101 148 190 231 300 365 421
#     4  10  24  43  70 105 148 187 227 290 367 436
#     4  12  26  47  69 104 143 187 251 301 353 426
#     4  12  25  44  77 109 146 188 245 294 356 447
#     4  12  27  46  73 105 144 193 247 302 361 420
#     4  12  26  45  77 107 143 191 245 299 362 425
#     4  11  23  49  71 109 148 189 234 296 370 435
#
# _framework density 22.845806
#
# number of rings (size 3 to 8) (size 9 to 14) (size 15 to 20)
#    0.000    0.571    2.857    4.714    6.000    0.000 
#    0.000    3.571    0.000    0.000    0.000    0.000 
#    0.000    0.000    0.000    0.000    0.000    0.000 
#
# Total GULP energy -78284.165093 kJ/mol
# GULP energy per Si atom -5591.726078 kJ/mol
# Density = 2.279381 g / cm^3
# Si number density = 22.845806 Si / 1000 Ang^3
#
#
#
# Elastic Constant Matrix: (Units=GPa)
#
#
# Indices 1 2 3 4 5 6 
#
# 1 151.2226 31.3668 32.2640 -14.0959 3.4178 -2.8392
# 2 31.3668 98.6804 42.9514 2.0022 7.0766 12.4422
# 3 32.2640 42.9514 150.4683 -8.2381 6.9413 -5.8283
# 4 -14.0959 2.0022 -8.2381 51.1132 -9.3128 9.2874
# 5 3.4178 7.0766 6.9413 -9.3128 41.7434 -5.5659
# 6 -2.8392 12.4422 -5.8283 9.2874 -5.5659 39.7854
#
#
#
# Elastic Compliance Matrix: (Units=1/GPa)
#
#
# Indices 1 2 3 4 5 6 
#
# 1 0.007426 -0.002137 -0.000869 0.001946 0.000423 0.000676
# 2 -0.002137 0.013106 -0.003425 -0.001217 -0.002389 -0.004803
# 3 -0.000869 -0.003425 0.007939 0.000776 -0.000234 0.001958
# 4 0.001946 -0.001217 0.000776 0.021749 0.004257 -0.003848
# 5 0.000423 -0.002389 -0.000234 0.004257 0.025762 0.003353
# 6 0.000676 -0.004803 0.001958 -0.003848 0.003353 0.028339
#
#
# Mechanical properties :
#
#
# Convention : Reuss Voigt Hill
#
# Bulk Modulus (GPa) = 64.07095 68.17064 66.12080
# Shear Modulus (GPa) = 40.85431 46.11435 43.48433
#
# Velocity S-wave (km/s) = 4.23337 4.49765 4.36751
# Velocity P-wave (km/s) = 7.21118 7.54162 7.37825
#
# Compressibility (1/GPa) = 0.01560770
#
# Stress axis : x y z
#
# Youngs Moduli (GPa) = 134.66205 76.30375 125.95879
#
# Poissons Ratio (x) = 0.16308 0.10946
# Poissons Ratio (y) = 0.28781 0.43143
# Poissons Ratio (z) = 0.11703 0.26135
#
# Static dielectric constant tensor:
#      x y z
#    x 1.819770 -0.015970 0.007610 
#    y -0.015970 1.934940 -0.049120 
#    z 0.007610 -0.049120 1.861650 
# 
# From -- ./inp_files/106181.got.cif
#   From: 2010.05.17/outbox.cif.g08.bks.cpg/sg2_54_cif.got.tgz:106181.got - 2010.06.03 11:33:40.
