data_PCOD9047497
_publ_section_title
;
Structure prediction by ZEFSAII (Michael W. Deem and Ramdas Pophale) SiO2 
 PCOD9047497
Probable space group: P -1
;
_chemical_formula_sum "Si O2"
_cell_formula_units_Z 16
_cell_length_a 6.625895
_cell_length_b 11.016424
_cell_length_c 24.758856
_cell_angle_alpha 30.741873
_cell_angle_beta 123.285426
_cell_angle_gamma 110.312797
_cell_volume 738.725516
_symmetry_space_group_name_H-M "P -1"
_symmetry_group_IT_number 2
_symmetry_cell_setting 'triclinic'
loop_
_space_group_symop_operation_xyz
x,y,z
-x,-y,-z
loop_
_atom_site_type_symbol
_atom_site_label
_atom_site_fract_x
_atom_site_fract_y
_atom_site_fract_z
Si Si1 0.811368 0.654798 0.367011
Si Si2 0.083043 0.252912 0.477519
Si Si3 0.786281 0.844344 0.588937
Si Si4 0.533416 0.485116 0.073849
Si Si5 0.507642 0.952928 0.296495
Si Si6 0.982998 0.377587 0.868697
Si Si7 0.929743 0.065572 0.156921
Si Si8 0.788069 0.006374 0.043074
O O1 0.561020 0.769863 0.322054
O O2 0.000000 0.500000 0.500000
O O3 0.870437 0.473307 0.392967
O O4 0.854707 0.905894 0.254185
O O5 0.158980 0.275894 0.417387
O O6 0.336575 0.195994 0.573137
O O7 0.967559 0.021443 0.551368
O O8 0.848449 0.640631 0.722694
O O9 0.500000 0.000000 0.500000
O O10 0.753670 0.604895 0.075337
O O11 0.597833 0.199844 0.209618
O O12 0.500000 0.500000 0.000000
O O13 0.265083 0.664389 0.984798
O O14 0.209092 0.060742 0.215124
O O15 0.052300 0.189368 0.901042
O O16 0.820595 0.270198 0.927800
O O17 0.906364 0.938272 0.145224
O O18 0.500000 0.000000 0.000000
#
# Coordination Sequence:
#
# PCOD9047497 Si02
#       8
#     2   2   2   2   2   2   2   2
#     4  10  24  44  67  97 139 184 231 286 343 415
#     4  10  24  45  69 102 140 186 237 286 350 415
#     4  11  25  44  71 103 137 189 235 291 347 415
#     4  12  23  43  69 101 140 182 230 284 348 418
#     4  11  24  44  71 102 146 178 234 290 350 417
#     4  11  25  46  71 100 140 184 229 293 349 413
#     4  12  25  42  71 103 137 187 232 288 351 413
#     4  11  25  45  70 102 137 182 234 285 351 415
#
# _framework density 21.658923999999999
#
# number of rings (size 3 to 8) (size 9 to 14) (size 15 to 20)
#    0.000    1.000    3.750    1.875    0.000   11.000 
#    0.000    0.000    0.000    0.000    0.000    0.000 
#    0.000    0.000    0.000    0.000    0.000    0.000 
#
# Total GULP energy -89293.444850 kJ/mol
# GULP energy per Si atom -5580.840303 kJ/mol
# Density = 2.160963 g / cm^3
# Si number density = 21.658924 Si / 1000 Ang^3
#
#
#
# Elastic Constant Matrix: (Units=GPa)
#
#
# Indices 1 2 3 4 5 6 
#
# 1 74.8872 24.9747 29.3604 15.6729 10.5142 -2.4409
# 2 24.9747 84.4146 10.9311 12.4256 10.4871 -14.7579
# 3 29.3604 10.9311 86.6384 -1.1115 2.5134 1.8190
# 4 15.6729 12.4256 -1.1115 32.1207 -6.0076 6.9609
# 5 10.5142 10.4871 2.5134 -6.0076 31.4439 2.4691
# 6 -2.4409 -14.7579 1.8190 6.9609 2.4691 38.4321
#
#
#
# Elastic Compliance Matrix: (Units=1/GPa)
#
#
# Indices 1 2 3 4 5 6 
#
# 1 0.020265 -0.001768 -0.006633 -0.011738 -0.008180 0.003574
# 2 -0.001768 0.016087 -0.001509 -0.008463 -0.006908 0.008113
# 3 -0.006633 -0.001509 0.014027 0.005456 0.002865 -0.002837
# 4 -0.011738 -0.008463 0.005456 0.046325 0.016237 -0.013687
# 5 -0.008180 -0.006908 0.002865 0.016237 0.040409 -0.008845
# 6 0.003574 0.008113 -0.002837 -0.013687 -0.008845 0.032544
#
#
# Mechanical properties :
#
#
# Convention : Reuss Voigt Hill
#
# Bulk Modulus (GPa) = 32.72329 41.83028 37.27678
# Shear Modulus (GPa) = 25.04217 32.44428 28.74322
#
# Velocity S-wave (km/s) = 3.40399 3.87455 3.64687
# Velocity P-wave (km/s) = 5.53089 6.27466 5.91448
#
# Compressibility (1/GPa) = 0.03055927
#
# Stress axis : x y z
#
# Youngs Moduli (GPa) = 49.34631 62.16197 71.29212
#
# Poissons Ratio (x) = 0.10990 0.47286
# Poissons Ratio (y) = 0.08724 0.10759
# Poissons Ratio (z) = 0.32730 0.09381
#
# Static dielectric constant tensor:
#      x y z
#    x 1.795630 -0.053210 0.002010 
#    y -0.053210 1.855650 -0.075250 
#    z 0.002010 -0.075250 1.793950 
# 
# From -- ./inp_files/604424.got.cif
#   From: 2010.05.17/outbox.cif.g08.bks.cpg/sg2_303_cif.got.tgz:604424.got - 2010.06.03 11:33:40.
