data_PCOD9047007
_publ_section_title
;
Structure prediction by ZEFSAII (Michael W. Deem and Ramdas Pophale) SiO2 
 PCOD9047007
Probable space group: P -1
;
_chemical_formula_sum "Si O2"
_cell_formula_units_Z 16
_cell_length_a 15.991040
_cell_length_b 5.041991
_cell_length_c 8.221810
_cell_angle_alpha 92.478007
_cell_angle_beta 115.187686
_cell_angle_gamma 72.405916
_cell_volume 568.997606
_symmetry_space_group_name_H-M "P -1"
_symmetry_group_IT_number 2
_symmetry_cell_setting 'triclinic'
loop_
_space_group_symop_operation_xyz
x,y,z
-x,-y,-z
loop_
_atom_site_type_symbol
_atom_site_label
_atom_site_fract_x
_atom_site_fract_y
_atom_site_fract_z
Si Si1 0.265239 0.584022 0.296181
Si Si2 0.712100 0.526132 0.313738
Si Si3 0.565393 0.188616 0.495396
Si Si4 0.697003 0.856930 0.969410
Si Si5 0.881401 0.936670 0.956464
Si Si6 0.975459 0.506167 0.746084
Si Si7 0.089012 0.731388 0.613737
Si Si8 0.483758 0.143251 0.820645
O O1 0.268706 0.448375 0.474658
O O2 0.327424 0.798465 0.376871
O O3 0.308783 0.372131 0.178608
O O4 0.157912 0.764655 0.154791
O O5 0.802103 0.258697 0.323731
O O6 0.711037 0.730483 0.161337
O O7 0.597294 0.556106 0.227940
O O8 0.500000 0.500000 0.500000
O O9 0.569230 0.052711 0.319207
O O10 0.500000 0.000000 0.500000
O O11 0.790481 0.934339 0.992052
O O12 0.595007 0.107610 0.864489
O O13 0.909658 0.715953 0.826425
O O14 0.973471 0.801257 0.145303
O O15 0.917280 0.493580 0.534177
O O16 0.063801 0.618214 0.761234
O O17 0.000000 0.000000 0.500000
O O18 0.500000 0.000000 0.000000
#
# Coordination Sequence:
#
# PCOD9047007 Si02
#       8
#     2   2   2   2   2   2   2   2
#     4  12  27  43  76 110 149 200 263 321 400 474
#     4  11  25  48  74 112 153 204 266 329 401 482
#     4  12  25  48  78 112 159 211 271 332 403 480
#     4  11  24  50  73 109 154 204 257 324 398 476
#     4  11  24  45  72 104 148 196 254 323 395 479
#     4  10  24  43  70 104 142 195 252 318 401 472
#     4  11  23  44  71 105 147 192 255 324 395 471
#     4  10  24  47  74 108 155 207 259 327 395 485
#
# _framework density 28.119624999999999
#
# number of rings (size 3 to 8) (size 9 to 14) (size 15 to 20)
#    0.000    1.000    2.500    3.000    5.250    0.000 
#    6.750    5.000    0.000    0.000    0.000    0.000 
#    0.000    0.000    0.000    0.000    0.000    0.000 
#
# Total GULP energy -89367.840170 kJ/mol
# GULP energy per Si atom -5585.490011 kJ/mol
# Density = 2.805562 g / cm^3
# Si number density = 28.119625 Si / 1000 Ang^3
#
#
#
# Elastic Constant Matrix: (Units=GPa)
#
#
# Indices 1 2 3 4 5 6 
#
# 1 207.5480 61.4580 49.8632 -12.7292 -5.3615 -35.9837
# 2 61.4580 113.7652 45.4006 -19.6888 -0.9940 -17.1927
# 3 49.8632 45.4006 188.5434 -7.9552 -30.8736 -3.5114
# 4 -12.7292 -19.6888 -7.9552 59.7938 -12.3344 16.8227
# 5 -5.3615 -0.9940 -30.8736 -12.3344 40.4071 -10.3179
# 6 -35.9837 -17.1927 -3.5114 16.8227 -10.3179 54.1789
#
#
#
# Elastic Compliance Matrix: (Units=1/GPa)
#
#
# Indices 1 2 3 4 5 6 
#
# 1 0.006450 -0.002651 -0.000865 -0.000466 0.000935 0.003709
# 2 -0.002651 0.011628 -0.002076 0.002615 -0.000634 0.000862
# 3 -0.000865 -0.002076 0.006986 0.001232 0.005519 -0.000112
# 4 -0.000466 0.002615 0.001232 0.020148 0.005938 -0.004525
# 5 0.000935 -0.000634 0.005519 0.005938 0.032179 0.005062
# 6 0.003709 0.000862 -0.000112 -0.004525 0.005062 0.023556
#
#
# Mechanical properties :
#
#
# Convention : Reuss Voigt Hill
#
# Bulk Modulus (GPa) = 72.04832 91.47781 81.76306
# Shear Modulus (GPa) = 42.82391 54.41829 48.62110
#
# Velocity S-wave (km/s) = 3.90669 4.40391 4.16273
# Velocity P-wave (km/s) = 6.78435 7.64601 7.22803
#
# Compressibility (1/GPa) = 0.01387957
#
# Stress axis : x y z
#
# Youngs Moduli (GPa) = 155.04997 85.99926 143.13925
#
# Poissons Ratio (x) = 0.22798 0.12380
# Poissons Ratio (y) = 0.41103 0.29720
# Poissons Ratio (z) = 0.13410 0.17856
#
# Static dielectric constant tensor:
#      x y z
#    x 2.279190 -0.022760 0.045050 
#    y -0.022760 2.270070 -0.051870 
#    z 0.045050 -0.051870 1.717850 
# 
# From -- ./inp_files/322657.got.cif
#   From: 2010.05.17/outbox.cif.g08.bks.cpg/sg2_162_cif.got.tgz:322657.got - 2010.06.03 11:33:40.
