data_PCOD9047002
_publ_section_title
;
Structure prediction by ZEFSAII (Michael W. Deem and Ramdas Pophale) SiO2 
 PCOD9047002
Probable space group: P -1
;
_chemical_formula_sum "Si O2"
_cell_formula_units_Z 14
_cell_length_a 27.780208
_cell_length_b 6.781828
_cell_length_c 15.587388
_cell_angle_alpha 141.113597
_cell_angle_beta 160.863611
_cell_angle_gamma 40.898122
_cell_volume 601.353870
_symmetry_space_group_name_H-M "P -1"
_symmetry_group_IT_number 2
_symmetry_cell_setting 'triclinic'
loop_
_space_group_symop_operation_xyz
x,y,z
-x,-y,-z
loop_
_atom_site_type_symbol
_atom_site_label
_atom_site_fract_x
_atom_site_fract_y
_atom_site_fract_z
Si Si1 0.519476 0.143508 0.374971
Si Si2 0.046267 0.819245 0.645992
Si Si3 0.782529 0.337506 0.419452
Si Si4 0.447921 0.089525 0.039537
Si Si5 0.813290 0.846013 0.860253
Si Si6 0.006262 0.776174 0.015650
Si Si7 0.710943 0.332434 0.120626
O O1 0.500000 0.500000 0.500000
O O2 0.531821 0.120469 0.283417
O O3 0.663102 0.956838 0.597030
O O4 0.380116 0.962268 0.109726
O O5 0.124135 0.755243 0.664946
O O6 0.000000 0.500000 0.500000
O O7 0.902707 0.065481 0.494704
O O8 0.171479 0.967010 0.963173
O O9 0.872184 0.562995 0.702041
O O10 0.715431 0.510219 0.280075
O O11 0.661598 0.173533 0.211741
O O12 0.365888 0.437871 0.002435
O O13 0.500000 0.000000 0.000000
O O14 0.952876 0.941706 0.070104
O O15 0.849831 0.472542 0.816557
O O16 0.000000 0.000000 0.000000
#
# Coordination Sequence:
#
# PCOD9047002 Si02
#       7
#     2   2   2   2   2   2   2
#     4  11  27  48  71 107 147 187 244 293 356 433
#     4  11  22  43  72  99 138 180 232 292 347 426
#     4  10  24  43  70 104 135 180 240 289 353 426
#     4  11  26  45  72 104 141 192 236 292 357 426
#     4  10  25  44  67 103 143 178 241 289 352 429
#     4  10  24  44  70 102 137 187 231 293 360 414
#     4  11  25  43  73 101 139 189 232 290 361 413
#
# _framework density 23.280801
#
# number of rings (size 3 to 8) (size 9 to 14) (size 15 to 20)
#    0.000    1.429    1.429    1.286    8.000    8.000 
#    0.000    0.000    0.000    0.000    0.000    0.000 
#    0.000    0.000    0.000    0.000    0.000    0.000 
#
# Total GULP energy -78216.390649 kJ/mol
# GULP energy per Si atom -5586.885046 kJ/mol
# Density = 2.322781 g / cm^3
# Si number density = 23.280801 Si / 1000 Ang^3
#
#
#
# Elastic Constant Matrix: (Units=GPa)
#
#
# Indices 1 2 3 4 5 6 
#
# 1 152.4774 38.0826 29.6722 -4.4568 3.3626 20.2523
# 2 38.0826 93.5707 25.0854 -27.0213 -7.3271 11.0560
# 3 29.6722 25.0854 84.4900 -18.3519 -12.7172 9.4709
# 4 -4.4568 -27.0213 -18.3519 34.2125 0.4613 -9.4278
# 5 3.3626 -7.3271 -12.7172 0.4613 36.2179 -8.2664
# 6 20.2523 11.0560 9.4709 -9.4278 -8.2664 41.7831
#
#
#
# Elastic Compliance Matrix: (Units=1/GPa)
#
#
# Indices 1 2 3 4 5 6 
#
# 1 0.008582 -0.003803 -0.002932 -0.004573 -0.003499 -0.004213
# 2 -0.003803 0.016003 -0.000352 0.012225 0.003575 0.001154
# 3 -0.002932 -0.000352 0.015421 0.007785 0.005724 0.000908
# 4 -0.004573 0.012225 0.007785 0.044771 0.007050 0.008714
# 5 -0.003499 0.003575 0.005724 0.007050 0.032274 0.007429
# 6 -0.004213 0.001154 0.000908 0.008714 0.007429 0.028899
#
#
# Mechanical properties :
#
#
# Convention : Reuss Voigt Hill
#
# Bulk Modulus (GPa) = 38.71266 57.35762 48.03514
# Shear Modulus (GPa) = 29.63209 38.28923 33.96066
#
# Velocity S-wave (km/s) = 3.57152 4.05985 3.82349
# Velocity P-wave (km/s) = 5.80279 6.83135 6.33797
#
# Compressibility (1/GPa) = 0.02583134
#
# Stress axis : x y z
#
# Youngs Moduli (GPa) = 116.52359 62.48707 64.84806
#
# Poissons Ratio (x) = 0.23766 0.19016
# Poissons Ratio (y) = 0.44318 0.02280
# Poissons Ratio (z) = 0.34169 0.02197
#
# Static dielectric constant tensor:
#      x y z
#    x 1.916850 -0.033800 -0.031860 
#    y -0.033800 1.890810 -0.068070 
#    z -0.031860 -0.068070 1.922070 
# 
# From -- ./inp_files/365446.got.cif
#   From: 2010.05.17/outbox.cif.g08.bks.cpg/sg2_183_cif.got.tgz:365446.got - 2010.06.03 11:33:40.
