data_PCOD9047541
_publ_section_title
;
Structure prediction by ZEFSAII (Michael W. Deem and Ramdas Pophale) SiO2 
 PCOD9047541
Probable space group: P -1
;
_chemical_formula_sum "Si O2"
_cell_formula_units_Z 14
_cell_length_a 6.742090
_cell_length_b 20.179155
_cell_length_c 17.152869
_cell_angle_alpha 158.487779
_cell_angle_beta 133.998260
_cell_angle_gamma 43.296771
_cell_volume 585.424370
_symmetry_space_group_name_H-M "P -1"
_symmetry_group_IT_number 2
_symmetry_cell_setting 'triclinic'
loop_
_space_group_symop_operation_xyz
x,y,z
-x,-y,-z
loop_
_atom_site_type_symbol
_atom_site_label
_atom_site_fract_x
_atom_site_fract_y
_atom_site_fract_z
Si Si1 0.647868 0.616738 0.253184
Si Si2 0.311920 0.408623 0.180294
Si Si3 0.119093 0.851916 0.439911
Si Si4 0.618909 0.227912 0.331499
Si Si5 0.339974 0.930455 0.998594
Si Si6 0.813372 0.951270 0.620671
Si Si7 0.663796 0.645183 0.055786
O O1 0.464579 0.753849 0.422760
O O2 0.663178 0.786172 0.385513
O O3 0.977405 0.480851 0.197563
O O4 0.454223 0.475415 0.044761
O O5 0.449340 0.560469 0.422429
O O6 0.478166 0.197176 0.022135
O O7 0.322308 0.421320 0.103615
O O8 0.006247 0.952832 0.599834
O O9 0.956660 0.692983 0.208822
O O10 0.000000 0.000000 0.500000
O O11 0.584842 0.206916 0.207347
O O12 0.957817 0.122337 0.328207
O O13 0.439130 0.110543 0.198527
O O14 0.000000 0.000000 0.000000
O O15 0.581213 0.149516 0.788498
#
# Coordination Sequence:
#
# PCOD9047541 Si02
#       7
#     2   2   2   2   2   2   2
#     4  11  25  44  69  95 140 178 230 281 336 403
#     4  11  26  44  69 105 140 179 224 282 343 406
#     4  12  27  45  69 101 138 185 237 283 338 401
#     4  10  24  44  68 102 135 174 228 275 341 409
#     4  11  24  44  73 100 136 177 223 278 343 410
#     4  11  25  47  69  99 140 183 228 289 340 401
#     4  12  26  42  70 103 137 187 232 278 342 400
#
# _framework density 23.914276999999998
#
# number of rings (size 3 to 8) (size 9 to 14) (size 15 to 20)
#    0.000    0.857    1.429    4.714    4.000    8.571 
#    0.000    0.000    0.000    0.000    0.000    0.000 
#    0.000    0.000    0.000    0.000    0.000    0.000 
#
# Total GULP energy -78295.467274 kJ/mol
# GULP energy per Si atom -5592.533377 kJ/mol
# Density = 2.385985 g / cm^3
# Si number density = 23.914277 Si / 1000 Ang^3
#
#
#
# Elastic Constant Matrix: (Units=GPa)
#
#
# Indices 1 2 3 4 5 6 
#
# 1 159.8454 50.7772 54.9061 12.9404 14.1488 -13.5701
# 2 50.7772 63.2634 0.9579 22.8310 2.1896 1.9806
# 3 54.9061 0.9579 107.5370 0.8815 21.5785 -0.4422
# 4 12.9404 22.8310 0.8815 35.1614 3.1766 -6.4686
# 5 14.1488 2.1896 21.5785 3.1766 34.3872 4.3245
# 6 -13.5701 1.9806 -0.4422 -6.4686 4.3245 52.9494
#
#
#
# Elastic Compliance Matrix: (Units=1/GPa)
#
#
# Indices 1 2 3 4 5 6 
#
# 1 0.011778 -0.010758 -0.005640 0.003648 -0.001454 0.003938
# 2 -0.010758 0.030795 0.004992 -0.017446 0.001717 -0.006139
# 3 -0.005640 0.004992 0.013370 -0.001160 -0.006134 -0.001161
# 4 0.003648 -0.017446 -0.001160 0.040091 -0.004223 0.006820
# 5 -0.001454 0.001717 -0.006134 -0.004223 0.034287 -0.003804
# 6 0.003938 -0.006139 -0.001161 0.006820 -0.003804 0.021259
#
#
# Mechanical properties :
#
#
# Convention : Reuss Voigt Hill
#
# Bulk Modulus (GPa) = 30.18313 60.43645 45.30979
# Shear Modulus (GPa) = 26.96342 39.43323 33.19833
#
# Velocity S-wave (km/s) = 3.36147 4.06512 3.72993
# Velocity P-wave (km/s) = 5.26448 6.88190 6.12680
#
# Compressibility (1/GPa) = 0.03313109
#
# Stress axis : x y z
#
# Youngs Moduli (GPa) = 84.90080 32.47307 74.79535
#
# Poissons Ratio (x) = 0.34934 0.42183
# Poissons Ratio (y) = 0.91334 -0.37335
# Poissons Ratio (z) = 0.47883 -0.16209
#
# Static dielectric constant tensor:
#      x y z
#    x 1.888090 -0.011790 -0.004640 
#    y -0.011790 1.916240 0.007800 
#    z -0.004640 0.007800 1.997160 
# 
# From -- ./inp_files/550947.got.cif
#   From: 2010.05.17/outbox.cif.g08.bks.cpg/sg2_276_cif.got.tgz:550947.got - 2010.06.03 11:33:40.
