data_PCOD9047320
_publ_section_title
;
Structure prediction by ZEFSAII (Michael W. Deem and Ramdas Pophale) SiO2 
 PCOD9047320
Probable space group: P -1
;
_chemical_formula_sum "Si O2"
_cell_formula_units_Z 14
_cell_length_a 16.210342
_cell_length_b 22.313473
_cell_length_c 12.288199
_cell_angle_alpha 151.314825
_cell_angle_beta 34.654464
_cell_angle_gamma 164.924563
_cell_volume 544.119935
_symmetry_space_group_name_H-M "P -1"
_symmetry_group_IT_number 2
_symmetry_cell_setting 'triclinic'
loop_
_space_group_symop_operation_xyz
x,y,z
-x,-y,-z
loop_
_atom_site_type_symbol
_atom_site_label
_atom_site_fract_x
_atom_site_fract_y
_atom_site_fract_z
Si Si1 0.236843 0.272876 0.331600
Si Si2 0.973430 0.284185 0.499554
Si Si3 0.290975 0.699257 0.081648
Si Si4 0.699067 0.367942 0.618391
Si Si5 0.569002 0.907917 0.754963
Si Si6 0.729617 0.511114 0.040484
Si Si7 0.043908 0.864819 0.944577
O O1 0.500000 0.500000 0.500000
O O2 0.067578 0.267620 0.470078
O O3 0.435746 0.375764 0.174462
O O4 0.010152 0.986761 0.165826
O O5 0.279743 0.604403 0.638788
O O6 0.691547 0.158138 0.644783
O O7 0.897239 0.140192 0.249499
O O8 0.619862 0.912176 0.005931
O O9 0.217797 0.534469 0.983548
O O10 0.000000 0.500000 0.000000
O O11 0.457987 0.133766 0.413014
O O12 0.000000 0.500000 0.500000
O O13 0.783690 0.573859 0.813744
O O14 0.643254 0.355531 0.785721
O O15 0.924787 0.153252 0.808377
O O16 0.500000 0.000000 0.000000
#
# Coordination Sequence:
#
# PCOD9047320 Si02
#       7
#     2   2   2   2   2   2   2
#     4  11  26  47  65  95 134 182 227 272 340 399
#     4  11  22  43  67  94 132 181 220 275 334 398
#     4  11  23  40  68 100 129 176 225 276 337 394
#     4  11  23  41  72 102 137 174 220 282 340 396
#     4  11  22  41  70 104 135 172 224 282 338 395
#     4  11  24  45  68 102 136 176 226 279 337 402
#     4  10  24  44  64  98 133 168 225 282 330 400
#
# _framework density 25.729621000000002
#
# number of rings (size 3 to 8) (size 9 to 14) (size 15 to 20)
#    0.000    1.143    2.857    3.429    6.000    1.714 
#    7.714    1.429    0.000    0.000    0.000    0.000 
#    0.000    0.000    0.000    0.000    0.000    0.000 
#
# Total GULP energy -78464.935733 kJ/mol
# GULP energy per Si atom -5604.638267 kJ/mol
# Density = 2.567106 g / cm^3
# Si number density = 25.729621 Si / 1000 Ang^3
#
#
#
# Elastic Constant Matrix: (Units=GPa)
#
#
# Indices 1 2 3 4 5 6 
#
# 1 109.9836 21.0160 42.3190 3.6136 0.4700 5.5241
# 2 21.0160 87.4571 27.6435 2.3024 -2.0856 -1.7287
# 3 42.3190 27.6435 134.5125 13.1080 2.9611 -8.6516
# 4 3.6136 2.3024 13.1080 45.5209 -1.9112 2.8623
# 5 0.4700 -2.0856 2.9611 -1.9112 66.9354 -1.1993
# 6 5.5241 -1.7287 -8.6516 2.8623 -1.1993 35.8712
#
#
#
# Elastic Compliance Matrix: (Units=1/GPa)
#
#
# Indices 1 2 3 4 5 6 
#
# 1 0.010770 -0.001620 -0.003250 0.000322 -0.000019 -0.002547
# 2 -0.001620 0.012489 -0.002053 0.000086 0.000500 0.000366
# 3 -0.003250 -0.002053 0.009317 -0.002519 -0.000474 0.002834
# 4 0.000322 0.000086 -0.002519 0.022848 0.000720 -0.002452
# 5 -0.000019 0.000500 -0.000474 0.000720 0.015003 0.000357
# 6 -0.002547 0.000366 0.002834 -0.002452 0.000357 0.029178
#
#
# Mechanical properties :
#
#
# Convention : Reuss Voigt Hill
#
# Bulk Modulus (GPa) = 53.39041 57.10115 55.24578
# Shear Modulus (GPa) = 41.77289 45.73048 43.75168
#
# Velocity S-wave (km/s) = 4.03368 4.22043 4.12811
# Velocity P-wave (km/s) = 6.51841 6.78162 6.65132
#
# Compressibility (1/GPa) = 0.01872996
#
# Stress axis : x y z
#
# Youngs Moduli (GPa) = 92.85211 80.06903 107.33222
#
# Poissons Ratio (x) = 0.12971 0.34885
# Poissons Ratio (y) = 0.15042 0.22034
# Poissons Ratio (z) = 0.30179 0.16437
#
# Static dielectric constant tensor:
#      x y z
#    x 2.010900 -0.018150 0.045270 
#    y -0.018150 2.175920 0.032910 
#    z 0.045270 0.032910 2.022990 
# 
# From -- ./inp_files/398028.got.cif
#   From: 2010.05.17/outbox.cif.g08.bks.cpg/sg2_200_cif.got.tgz:398028.got - 2010.06.03 11:33:40.
