data_PCOD9047810
_publ_section_title
;
Structure prediction by ZEFSAII (Michael W. Deem and Ramdas Pophale) SiO2 
 PCOD9047810
Probable space group: P -1
;
_chemical_formula_sum "Si O2"
_cell_formula_units_Z 14
_cell_length_a 14.166800
_cell_length_b 8.983334
_cell_length_c 8.920038
_cell_angle_alpha 147.305597
_cell_angle_beta 66.264769
_cell_angle_gamma 100.988333
_cell_volume 535.546188
_symmetry_space_group_name_H-M "P -1"
_symmetry_group_IT_number 2
_symmetry_cell_setting 'triclinic'
loop_
_space_group_symop_operation_xyz
x,y,z
-x,-y,-z
loop_
_atom_site_type_symbol
_atom_site_label
_atom_site_fract_x
_atom_site_fract_y
_atom_site_fract_z
Si Si1 0.952562 0.288460 0.446209
Si Si2 0.609379 0.560605 0.541389
Si Si3 0.590593 0.426229 0.757525
Si Si4 0.170740 0.922196 0.916527
Si Si5 0.112624 0.749369 0.217521
Si Si6 0.708427 0.794287 0.122581
Si Si7 0.246052 0.184126 0.536230
O O1 0.000000 0.500000 0.500000
O O2 0.875599 0.190436 0.297296
O O3 0.898961 0.380601 0.719099
O O4 0.065970 0.028154 0.177890
O O5 0.500000 0.500000 0.500000
O O6 0.577455 0.632129 0.795976
O O7 0.721512 0.294125 0.264209
O O8 0.656047 0.776471 0.595209
O O9 0.612944 0.097886 0.412903
O O10 0.500000 0.500000 0.000000
O O11 0.683545 0.500831 0.854766
O O12 0.208855 0.177262 0.034943
O O13 0.204747 0.913295 0.292657
O O14 0.144614 0.481827 0.854330
O O15 0.000000 0.000000 0.500000
O O16 0.724087 0.829205 0.318814
#
# Coordination Sequence:
#
# PCOD9047810 Si02
#       7
#     2   2   2   2   2   2   2
#     4  11  24  42  78 106 142 194 246 311 366 438
#     4  11  27  49  75 108 152 200 245 308 373 443
#     4  11  25  46  75 104 140 189 252 301 362 433
#     4  10  24  44  70 109 142 190 252 299 366 443
#     4  12  27  45  73 110 152 196 242 312 383 440
#     4  11  23  45  73 102 145 187 244 310 357 440
#     4  12  26  47  72 106 153 192 251 304 377 449
#
# _framework density 26.141535999999999
#
# number of rings (size 3 to 8) (size 9 to 14) (size 15 to 20)
#    0.000    0.857    1.429    4.286   10.000    3.429 
#    0.000    4.286    0.000    0.000    0.000    0.000 
#    0.000    0.000    0.000    0.000    0.000    0.000 
#
# Total GULP energy -78222.486099 kJ/mol
# GULP energy per Si atom -5587.320436 kJ/mol
# Density = 2.608204 g / cm^3
# Si number density = 26.141536 Si / 1000 Ang^3
#
#
#
# Elastic Constant Matrix: (Units=GPa)
#
#
# Indices 1 2 3 4 5 6 
#
# 1 124.6407 30.5679 16.2534 0.0744 -15.2219 15.5620
# 2 30.5679 140.0633 33.9547 -18.8906 -12.7795 24.8455
# 3 16.2534 33.9547 103.3022 -25.8494 -17.2137 22.6398
# 4 0.0744 -18.8906 -25.8494 55.5844 10.2735 -8.7157
# 5 -15.2219 -12.7795 -17.2137 10.2735 34.1158 -8.1138
# 6 15.5620 24.8455 22.6398 -8.7157 -8.1138 49.5539
#
#
#
# Elastic Compliance Matrix: (Units=1/GPa)
#
#
# Indices 1 2 3 4 5 6 
#
# 1 0.009059 -0.001494 -0.000413 -0.001590 0.003364 -0.001636
# 2 -0.001494 0.008597 -0.001450 0.001694 0.000652 -0.002774
# 3 -0.000413 -0.001450 0.012646 0.004169 0.003540 -0.003608
# 4 -0.001590 0.001694 0.004169 0.021417 -0.004226 0.000821
# 5 0.003364 0.000652 0.003540 -0.004226 0.034572 0.001917
# 6 -0.001636 -0.002774 -0.003608 0.000821 0.001917 0.024191
#
#
# Mechanical properties :
#
#
# Convention : Reuss Voigt Hill
#
# Bulk Modulus (GPa) = 42.39635 58.83979 50.61807
# Shear Modulus (GPa) = 39.98086 46.99949 43.49018
#
# Velocity S-wave (km/s) = 3.91500 4.24475 4.08320
# Velocity P-wave (km/s) = 6.05718 6.82502 6.45253
#
# Compressibility (1/GPa) = 0.02358693
#
# Stress axis : x y z
#
# Youngs Moduli (GPa) = 110.38203 116.31441 79.07856
#
# Poissons Ratio (x) = 0.17382 0.03267
# Poissons Ratio (y) = 0.16495 0.11469
# Poissons Ratio (z) = 0.04560 0.16869
#
# Static dielectric constant tensor:
#      x y z
#    x 2.139110 -0.227890 -0.085640 
#    y -0.227890 1.978480 0.117360 
#    z -0.085640 0.117360 2.172770 
# 
# From -- ./inp_files/299804.got.cif
#   From: 2010.05.17/outbox.cif.g08.bks.cpg/sg2_150_cif.got.tgz:299804.got - 2010.06.03 11:33:40.
