data_PCOD9047421
_publ_section_title
;
Structure prediction by ZEFSAII (Michael W. Deem and Ramdas Pophale) SiO2 
 PCOD9047421
Probable space group: P -1
;
_chemical_formula_sum "Si O2"
_cell_formula_units_Z 16
_cell_length_a 10.679121
_cell_length_b 6.842659
_cell_length_c 20.384907
_cell_angle_alpha 50.510719
_cell_angle_beta 36.934018
_cell_angle_gamma 64.095937
_cell_volume 682.532053
_symmetry_space_group_name_H-M "P -1"
_symmetry_group_IT_number 2
_symmetry_cell_setting 'triclinic'
loop_
_space_group_symop_operation_xyz
x,y,z
-x,-y,-z
loop_
_atom_site_type_symbol
_atom_site_label
_atom_site_fract_x
_atom_site_fract_y
_atom_site_fract_z
Si Si1 0.078842 0.315432 0.224989
Si Si2 0.471927 0.816333 0.682601
Si Si3 0.743994 0.573151 0.536775
Si Si4 0.332871 0.795215 0.043839
Si Si5 0.996681 0.880007 0.842434
Si Si6 0.705752 0.385870 0.455575
Si Si7 0.908521 0.082494 0.591088
Si Si8 0.563271 0.651749 0.109237
O O1 0.865076 0.387636 0.328974
O O2 0.253551 0.556598 0.082166
O O3 0.017457 0.144437 0.224424
O O4 0.164028 0.165595 0.281850
O O5 0.532195 0.689081 0.615730
O O6 0.517097 0.603449 0.762476
O O7 0.229944 0.862639 0.772858
O O8 0.618614 0.088653 0.572206
O O9 0.805352 0.556415 0.438722
O O10 0.909401 0.745724 0.477944
O O11 0.736844 0.273188 0.619754
O O12 0.453755 0.697047 0.076162
O O13 0.112807 0.878807 0.142705
O O14 0.452006 0.069316 0.910079
O O15 0.814735 0.656952 0.993590
O O16 0.500000 0.500000 0.500000
O O17 0.000000 0.000000 0.500000
#
# Coordination Sequence:
#
# PCOD9047421 Si02
#       8
#     2   2   2   2   2   2   2   2
#     4  12  24  39  72  96 137 174 226 273 349 410
#     4  12  24  44  71  97 142 180 227 279 339 408
#     4  11  25  40  65 100 138 178 220 274 342 397
#     4   9  23  43  68  98 133 169 229 285 338 390
#     4  10  24  44  66  99 128 191 217 282 339 396
#     4  12  27  43  65 104 141 179 224 274 343 421
#     4  11  24  42  65 100 140 178 224 277 340 411
#     4   9  23  47  68  96 133 174 235 283 338 392
#
# _framework density 23.442124
#
# number of rings (size 3 to 8) (size 9 to 14) (size 15 to 20)
#    0.750    0.500    2.500    1.875    8.750    1.500 
#    2.250    0.625    0.000    0.000    0.000    0.000 
#    0.000    0.000    0.000    0.000    0.000    0.000 
#
# Total GULP energy -89253.471211 kJ/mol
# GULP energy per Si atom -5578.341951 kJ/mol
# Density = 2.338877 g / cm^3
# Si number density = 23.442124 Si / 1000 Ang^3
#
#
#
# Elastic Constant Matrix: (Units=GPa)
#
#
# Indices 1 2 3 4 5 6 
#
# 1 54.0389 35.6395 0.1216 -16.2166 0.9137 -4.2633
# 2 35.6395 138.7997 40.8248 -10.2754 0.4027 2.2199
# 3 0.1216 40.8248 77.0860 -18.0911 3.1022 1.2502
# 4 -16.2166 -10.2754 -18.0911 38.1329 1.9077 -8.6450
# 5 0.9137 0.4027 3.1022 1.9077 28.7255 11.8597
# 6 -4.2633 2.2199 1.2502 -8.6450 11.8597 37.9669
#
#
#
# Elastic Compliance Matrix: (Units=1/GPa)
#
#
# Indices 1 2 3 4 5 6 
#
# 1 0.030930 -0.009494 0.009232 0.017589 -0.007126 0.009955
# 2 -0.009494 0.011461 -0.007376 -0.005402 0.002779 -0.003591
# 3 0.009232 -0.007376 0.020037 0.012958 -0.005472 0.005468
# 4 0.017589 -0.005402 0.012958 0.042313 -0.010838 0.014884
# 5 -0.007126 0.002779 -0.005472 -0.010838 0.043228 -0.016753
# 6 0.009955 -0.003591 0.005468 0.014884 -0.016753 0.036109
#
#
# Mechanical properties :
#
#
# Convention : Reuss Voigt Hill
#
# Bulk Modulus (GPa) = 21.20774 47.01070 34.10922
# Shear Modulus (GPa) = 23.24822 33.85431 28.55126
#
# Velocity S-wave (km/s) = 3.15259 3.80434 3.49370
# Velocity P-wave (km/s) = 4.72422 6.27653 5.55487
#
# Compressibility (1/GPa) = 0.04715259
#
# Stress axis : x y z
#
# Youngs Moduli (GPa) = 32.33136 87.24957 49.90749
#
# Poissons Ratio (x) = 0.82832 -0.46076
# Poissons Ratio (y) = 0.30694 0.36813
# Poissons Ratio (z) = -0.29849 0.64358
#
# Static dielectric constant tensor:
#      x y z
#    x 1.903890 -0.012630 0.002190 
#    y -0.012630 1.897190 0.001230 
#    z 0.002190 0.001230 1.980680 
# 
# From -- ./inp_files/592440.got.cif
#   From: 2010.05.17/outbox.cif.g08.bks.cpg/sg2_297_cif.got.tgz:592440.got - 2010.06.03 11:33:40.
