data_PCOD9047035
_publ_section_title
;
Structure prediction by ZEFSAII (Michael W. Deem and Ramdas Pophale) SiO2 
 PCOD9047035
Probable space group: P -1
;
_chemical_formula_sum "Si O2"
_cell_formula_units_Z 10
_cell_length_a 5.194804
_cell_length_b 13.331128
_cell_length_c 10.329363
_cell_angle_alpha 144.836613
_cell_angle_beta 106.762033
_cell_angle_gamma 68.355421
_cell_volume 382.805328
_symmetry_space_group_name_H-M "P -1"
_symmetry_group_IT_number 2
_symmetry_cell_setting 'triclinic'
loop_
_space_group_symop_operation_xyz
x,y,z
-x,-y,-z
loop_
_atom_site_type_symbol
_atom_site_label
_atom_site_fract_x
_atom_site_fract_y
_atom_site_fract_z
Si Si1 0.741879 0.170387 0.222707
Si Si2 0.899083 0.411229 0.020114
Si Si3 0.319567 0.893185 0.439520
Si Si4 0.198348 0.374876 0.503188
Si Si5 0.634706 0.895029 0.099387
O O1 0.024750 0.225425 0.342865
O O2 0.494026 0.311778 0.409133
O O3 0.762044 0.971444 0.073345
O O4 0.627728 0.168808 0.058390
O O5 0.680962 0.299504 0.820896
O O6 0.161204 0.264623 0.963994
O O7 0.000000 0.500000 0.000000
O O8 0.792108 0.534271 0.259035
O O9 0.500000 0.000000 0.500000
O O10 0.416399 0.927335 0.632283
O O11 0.000000 0.000000 0.500000
O O12 0.000000 0.500000 0.500000
#
# Coordination Sequence:
#
# PCOD9047035 Si02
#       5
#     2   2   2   2   2
#     4  11  26  45  75 106 142 193 235 299 356 433
#     4  11  25  47  76 109 148 191 242 304 362 426
#     4  10  24  43  70  97 141 188 234 288 351 428
#     4  12  26  47  74 108 148 183 241 298 366 421
#     4  10  24  46  72 104 145 187 246 288 359 430
#
# _framework density 26.122937
#
# number of rings (size 3 to 8) (size 9 to 14) (size 15 to 20)
#    0.000    1.200    2.000    1.800    2.800   11.200 
#    0.000    6.000    0.000    0.000    0.000    0.000 
#    0.000    0.000    0.000    0.000    0.000    0.000 
#
# Total GULP energy -56005.248929 kJ/mol
# GULP energy per Si atom -5600.524893 kJ/mol
# Density = 2.606348 g / cm^3
# Si number density = 26.122937 Si / 1000 Ang^3
#
#
#
# Elastic Constant Matrix: (Units=GPa)
#
#
# Indices 1 2 3 4 5 6 
#
# 1 164.9570 39.3743 86.5985 -8.2893 3.3887 3.3169
# 2 39.3743 141.5298 42.7986 -11.6035 7.5164 -18.5555
# 3 86.5985 42.7986 277.1685 -38.8288 8.0271 5.2930
# 4 -8.2893 -11.6035 -38.8288 52.3082 0.7746 8.5186
# 5 3.3887 7.5164 8.0271 0.7746 58.0789 3.7501
# 6 3.3169 -18.5555 5.2930 8.5186 3.7501 37.4861
#
#
#
# Elastic Compliance Matrix: (Units=1/GPa)
#
#
# Indices 1 2 3 4 5 6 
#
# 1 0.007591 -0.001647 -0.002188 -0.000617 0.000149 -0.001052
# 2 -0.001647 0.008441 -0.000797 0.000307 -0.001180 0.004485
# 3 -0.002188 -0.000797 0.004935 0.003412 -0.000391 -0.001634
# 4 -0.000617 0.000307 0.003412 0.022497 -0.000430 -0.005345
# 5 0.000149 -0.001180 -0.000391 -0.000430 0.017564 -0.002201
# 6 -0.001052 0.004485 -0.001634 -0.005345 -0.002201 0.030655
#
#
# Mechanical properties :
#
#
# Convention : Reuss Voigt Hill
#
# Bulk Modulus (GPa) = 85.45229 102.35534 93.90382
# Shear Modulus (GPa) = 47.68804 57.23358 52.46081
#
# Velocity S-wave (km/s) = 4.27725 4.68582 4.48619
# Velocity P-wave (km/s) = 7.56147 8.27907 7.92839
#
# Compressibility (1/GPa) = 0.01170244
#
# Stress axis : x y z
#
# Youngs Moduli (GPa) = 131.73392 118.47415 202.62590
#
# Poissons Ratio (x) = 0.19509 0.44338
# Poissons Ratio (y) = 0.21692 0.16157
# Poissons Ratio (z) = 0.28826 0.09447
#
# Static dielectric constant tensor:
#      x y z
#    x 2.098480 0.099080 -0.145400 
#    y 0.099080 2.318470 -0.133570 
#    z -0.145400 -0.133570 2.189940 
# 
# From -- ./inp_files/60186.got.cif
#   From: 2010.05.17/outbox.cif.g08.bks.cpg/sg2_31_cif.got.tgz:60186.got - 2010.06.03 11:33:40.
