data_PCOD9047632
_publ_section_title
;
Structure prediction by ZEFSAII (Michael W. Deem and Ramdas Pophale) SiO2 
 PCOD9047632
Probable space group: P -1
;
_chemical_formula_sum "Si O2"
_cell_formula_units_Z 12
_cell_length_a 9.432783
_cell_length_b 5.061597
_cell_length_c 11.129814
_cell_angle_alpha 74.596879
_cell_angle_beta 97.330868
_cell_angle_gamma 111.348916
_cell_volume 476.868555
_symmetry_space_group_name_H-M "P -1"
_symmetry_group_IT_number 2
_symmetry_cell_setting 'triclinic'
loop_
_space_group_symop_operation_xyz
x,y,z
-x,-y,-z
loop_
_atom_site_type_symbol
_atom_site_label
_atom_site_fract_x
_atom_site_fract_y
_atom_site_fract_z
Si Si1 0.840832 0.289464 0.729672
Si Si2 0.119366 0.649892 0.601377
Si Si3 0.561519 0.326914 0.303912
Si Si4 0.110744 0.823999 0.997840
Si Si5 0.416166 0.070681 0.866471
Si Si6 0.263408 0.200730 0.413652
O O1 0.794972 0.193078 0.870447
O O2 0.467239 0.411967 0.802207
O O3 0.014979 0.512643 0.720073
O O4 0.819831 0.001631 0.684432
O O5 0.270691 0.571820 0.634323
O O6 0.000000 0.500000 0.500000
O O7 0.181090 0.997173 0.540869
O O8 0.247801 0.514300 0.362014
O O9 0.562825 0.770086 0.592359
O O10 0.556088 0.086213 0.232292
O O11 0.000000 0.500000 0.000000
O O12 0.235635 0.960668 0.892738
O O13 0.000000 0.000000 0.000000
O O14 0.500000 0.000000 0.000000
#
# Coordination Sequence:
#
# PCOD9047632 Si02
#       6
#     2   2   2   2   2   2
#     4  11  23  42  64  93 128 169 216 268 323 383
#     4  10  24  44  68  98 132 172 219 272 326 386
#     4  12  25  44  68  98 134 174 217 268 326 390
#     4  12  24  41  65  95 128 169 216 268 323 384
#     4  12  26  45  68  99 134 173 218 270 326 388
#     4  11  23  42  66  93 127 171 215 264 322 387
#
# _framework density 25.164164
#
# number of rings (size 3 to 8) (size 9 to 14) (size 15 to 20)
#    0.000    0.667    0.000    8.500    0.000    6.667 
#    0.000    5.833    0.000    0.000    0.000    0.000 
#    0.000    0.000    0.000    0.000    0.000    0.000 
#
# Total GULP energy -67229.974419 kJ/mol
# GULP energy per Si atom -5602.497868 kJ/mol
# Density = 2.510689 g / cm^3
# Si number density = 25.164164 Si / 1000 Ang^3
#
#
#
# Elastic Constant Matrix: (Units=GPa)
#
#
# Indices 1 2 3 4 5 6 
#
# 1 145.6324 26.6878 11.8124 -4.6658 -13.1401 11.7662
# 2 26.6878 89.3043 16.5118 -1.6435 -13.8543 -12.9732
# 3 11.8124 16.5118 62.4123 4.0231 -0.5219 2.1056
# 4 -4.6658 -1.6435 4.0231 44.0975 5.2202 -10.0908
# 5 -13.1401 -13.8543 -0.5219 5.2202 54.8257 -11.9339
# 6 11.7662 -12.9732 2.1056 -10.0908 -11.9339 53.8941
#
#
#
# Elastic Compliance Matrix: (Units=1/GPa)
#
#
# Indices 1 2 3 4 5 6 
#
# 1 0.007584 -0.002281 -0.000776 0.000248 0.000785 -0.001954
# 2 -0.002281 0.013890 -0.003465 0.001293 0.003914 0.005086
# 3 -0.000776 -0.003465 0.017279 -0.002108 -0.001128 -0.001984
# 4 0.000248 0.001293 -0.002108 0.024117 -0.000918 0.004652
# 5 0.000785 0.003914 -0.001128 -0.000918 0.020628 0.005211
# 6 -0.001954 0.005086 -0.001984 0.004652 0.005211 0.022308
#
#
# Mechanical properties :
#
#
# Convention : Reuss Voigt Hill
#
# Bulk Modulus (GPa) = 38.89455 45.26369 42.07912
# Shear Modulus (GPa) = 39.24073 46.71926 42.97999
#
# Velocity S-wave (km/s) = 3.95319 4.31348 4.13726
# Velocity P-wave (km/s) = 6.02718 6.54481 6.29132
#
# Compressibility (1/GPa) = 0.02571055
#
# Stress axis : x y z
#
# Youngs Moduli (GPa) = 131.85487 71.99592 57.87233
#
# Poissons Ratio (x) = 0.16419 0.04488
# Poissons Ratio (y) = 0.30070 0.20054
# Poissons Ratio (z) = 0.10226 0.24948
#
# Static dielectric constant tensor:
#      x y z
#    x 2.025660 0.037970 -0.015980 
#    y 0.037970 1.941510 -0.005870 
#    z -0.015980 -0.005870 2.008520 
# 
# From -- ./inp_files/39562.got.cif
#   From: 2010.05.17/outbox.cif.g08.bks.cpg/sg2_20_cif.got.tgz:39562.got - 2010.06.03 11:33:40.
