data_PCOD9047009
_publ_section_title
;
Structure prediction by ZEFSAII (Michael W. Deem and Ramdas Pophale) SiO2 
 PCOD9047009
Probable space group: P -1
;
_chemical_formula_sum "Si O2"
_cell_formula_units_Z 14
_cell_length_a 6.541970
_cell_length_b 10.624371
_cell_length_c 10.434431
_cell_angle_alpha 66.551528
_cell_angle_beta 68.576157
_cell_angle_gamma 96.894952
_cell_volume 588.707816
_symmetry_space_group_name_H-M "P -1"
_symmetry_group_IT_number 2
_symmetry_cell_setting 'triclinic'
loop_
_space_group_symop_operation_xyz
x,y,z
-x,-y,-z
loop_
_atom_site_type_symbol
_atom_site_label
_atom_site_fract_x
_atom_site_fract_y
_atom_site_fract_z
Si Si1 0.581371 0.441449 0.879130
Si Si2 0.329972 0.789952 0.882441
Si Si3 0.056746 0.504617 0.635124
Si Si4 0.438511 0.796240 0.457132
Si Si5 0.381661 0.071825 0.890579
Si Si6 0.141815 0.304170 0.894726
Si Si7 0.736996 0.942713 0.535904
O O1 0.382263 0.420482 0.830925
O O2 0.833653 0.531258 0.740643
O O3 0.500000 0.500000 0.000000
O O4 0.591666 0.284808 0.984007
O O5 0.544736 0.834754 0.717831
O O6 0.282487 0.935923 0.875129
O O7 0.063868 0.692129 0.960843
O O8 0.284047 0.632188 0.572132
O O9 0.074980 0.355302 0.751605
O O10 0.000000 0.500000 0.500000
O O11 0.446855 0.820512 0.292314
O O12 0.687032 0.854148 0.448936
O O13 0.322432 0.906140 0.507066
O O14 0.204959 0.155350 0.938612
O O15 0.500000 0.000000 0.000000
O O16 0.000000 0.000000 0.500000
#
# Coordination Sequence:
#
# PCOD9047009 Si02
#       7
#     2   2   2   2   2   2   2
#     4  11  26  42  70 108 144 196 242 297 366 435
#     4  10  24  43  70 105 141 184 247 294 366 432
#     4  11  27  47  72 109 150 192 252 297 365 447
#     4  10  25  44  69 104 143 183 243 296 365 430
#     4  11  22  46  73 104 142 187 245 299 357 433
#     4  11  25  45  74 103 146 193 236 304 365 428
#     4  10  24  45  71 102 139 188 240 300 364 427
#
# _framework density 23.780895000000001
#
# number of rings (size 3 to 8) (size 9 to 14) (size 15 to 20)
#    0.000    1.429    1.429    1.286    8.000    6.857 
#    2.571    0.000    0.000    0.000    0.000    0.000 
#    0.000    0.000    0.000    0.000    0.000    0.000 
#
# Total GULP energy -78044.797203 kJ/mol
# GULP energy per Si atom -5574.628372 kJ/mol
# Density = 2.372677 g / cm^3
# Si number density = 23.780895 Si / 1000 Ang^3
#
#
#
# Elastic Constant Matrix: (Units=GPa)
#
#
# Indices 1 2 3 4 5 6 
#
# 1 148.2122 33.3795 74.0319 2.1527 1.8001 5.7306
# 2 33.3795 61.6365 33.8024 2.7603 -5.9822 2.2065
# 3 74.0319 33.8024 133.8778 -0.7583 7.8845 1.2950
# 4 2.1527 2.7603 -0.7583 33.1774 2.6128 -0.2454
# 5 1.8001 -5.9822 7.8845 2.6128 30.2134 1.0189
# 6 5.7306 2.2065 1.2950 -0.2454 1.0189 28.2606
#
#
#
# Elastic Compliance Matrix: (Units=1/GPa)
#
#
# Indices 1 2 3 4 5 6 
#
# 1 0.009768 -0.002577 -0.004753 -0.000559 0.000250 -0.001575
# 2 -0.002577 0.020525 -0.004082 -0.002075 0.005500 -0.001109
# 3 -0.004753 -0.004082 0.011340 0.001199 -0.003618 0.000904
# 4 -0.000559 -0.002075 0.001199 0.030646 -0.003361 0.000608
# 5 0.000250 0.005500 -0.003618 -0.003361 0.035462 -0.001622
# 6 -0.001575 -0.001109 0.000904 0.000608 -0.001622 0.035813
#
#
# Mechanical properties :
#
#
# Convention : Reuss Voigt Hill
#
# Bulk Modulus (GPa) = 53.17084 69.57270 61.37177
# Shear Modulus (GPa) = 28.96062 31.83113 30.39588
#
# Velocity S-wave (km/s) = 3.49350 3.66254 3.57902
# Velocity P-wave (km/s) = 6.21932 6.87058 6.55304
#
# Compressibility (1/GPa) = 0.01880730
#
# Stress axis : x y z
#
# Youngs Moduli (GPa) = 102.37700 48.72120 88.18516
#
# Poissons Ratio (x) = 0.12557 0.41917
# Poissons Ratio (y) = 0.26386 0.35997
# Poissons Ratio (z) = 0.48663 0.19888
#
# Static dielectric constant tensor:
#      x y z
#    x 2.032120 0.071690 -0.081060 
#    y 0.071690 2.337370 -0.280290 
#    z -0.081060 -0.280290 2.231910 
# 
# From -- ./inp_files/363811.got.cif
#   From: 2010.05.17/outbox.cif.g08.bks.cpg/sg2_182_cif.got.tgz:363811.got - 2010.06.03 11:33:40.
