data_PCOD9047064
_publ_section_title
;
Structure prediction by ZEFSAII (Michael W. Deem and Ramdas Pophale) SiO2 
 PCOD9047064
Probable space group: P -1
;
_chemical_formula_sum "Si O2"
_cell_formula_units_Z 12
_cell_length_a 20.369643
_cell_length_b 9.752399
_cell_length_c 9.353447
_cell_angle_alpha 31.540596
_cell_angle_beta 36.835664
_cell_angle_gamma 35.909487
_cell_volume 532.119034
_symmetry_space_group_name_H-M "P -1"
_symmetry_group_IT_number 2
_symmetry_cell_setting 'triclinic'
loop_
_space_group_symop_operation_xyz
x,y,z
-x,-y,-z
loop_
_atom_site_type_symbol
_atom_site_label
_atom_site_fract_x
_atom_site_fract_y
_atom_site_fract_z
Si Si1 0.113891 0.918637 0.974512
Si Si2 0.702937 0.631707 0.978103
Si Si3 0.638251 0.159081 0.465767
Si Si4 0.069065 0.160740 0.154134
Si Si5 0.544337 0.536487 0.732109
Si Si6 0.303220 0.116925 0.941874
O O1 0.192592 0.576597 0.123254
O O2 0.075986 0.053811 0.074961
O O3 0.218077 0.009966 0.657496
O O4 0.000000 0.000000 0.000000
O O5 0.613299 0.913838 0.804079
O O6 0.631517 0.436384 0.318993
O O7 0.750310 0.708837 0.973564
O O8 0.568163 0.281459 0.333815
O O9 0.202020 0.083230 0.051327
O O10 0.000000 0.000000 0.500000
O O11 0.000000 0.500000 0.000000
O O12 0.629348 0.711725 0.411923
O O13 0.500000 0.500000 0.000000
O O14 0.611824 0.202375 0.870200
#
# Coordination Sequence:
#
# PCOD9047064 Si02
#       6
#     2   2   2   2   2   2
#     4  10  25  46  73 101 144 186 238 297 355 422
#     4  10  24  43  72 104 143 182 244 287 367 416
#     4  10  24  43  71 103 141 184 242 284 365 418
#     4  12  28  46  74 106 145 186 240 293 361 427
#     4  12  26  46  73 105 147 192 239 295 361 430
#     4  12  26  46  75 105 147 187 242 299 359 428
#
# _framework density 22.551344
#
# number of rings (size 3 to 8) (size 9 to 14) (size 15 to 20)
#    1.000    0.000    0.000    5.500    4.667    6.000 
#    0.000    0.000    0.000    0.000    0.000    0.000 
#    0.000    0.000    0.000    0.000    0.000    0.000 
#
# Total GULP energy -66985.426576 kJ/mol
# GULP energy per Si atom -5582.118881 kJ/mol
# Density = 2.250002 g / cm^3
# Si number density = 22.551344 Si / 1000 Ang^3
#
#
#
# Elastic Constant Matrix: (Units=GPa)
#
#
# Indices 1 2 3 4 5 6 
#
# 1 171.1390 61.7687 47.8002 -4.0412 -7.5481 11.6902
# 2 61.7687 121.8760 70.7249 -23.0184 -0.0787 16.3922
# 3 47.8002 70.7249 170.5611 -32.5562 -3.6581 -3.5794
# 4 -4.0412 -23.0184 -32.5562 36.7099 -10.8900 0.9035
# 5 -7.5481 -0.0787 -3.6581 -10.8900 35.1785 2.9424
# 6 11.6902 16.3922 -3.5794 0.9035 2.9424 44.7221
#
#
#
# Elastic Compliance Matrix: (Units=1/GPa)
#
#
# Indices 1 2 3 4 5 6 
#
# 1 0.007414 -0.003423 -0.001025 -0.001940 0.000942 -0.000788
# 2 -0.003423 0.013776 -0.003829 0.005250 0.000910 -0.004627
# 3 -0.001025 -0.003829 0.009007 0.006145 0.002434 0.002108
# 4 -0.001940 0.005250 0.006145 0.039601 0.012708 -0.002561
# 5 0.000942 0.000910 0.002434 0.012708 0.033053 -0.002816
# 6 -0.000788 -0.004627 0.002108 -0.002561 -0.002816 0.024668
#
#
# Mechanical properties :
#
#
# Convention : Reuss Voigt Hill
#
# Bulk Modulus (GPa) = 73.29062 91.57373 82.43218
# Shear Modulus (GPa) = 33.64262 42.20759 37.92510
#
# Velocity S-wave (km/s) = 3.86660 4.33092 4.10533
# Velocity P-wave (km/s) = 7.24598 8.10580 7.68792
#
# Compressibility (1/GPa) = 0.01364431
#
# Stress axis : x y z
#
# Youngs Moduli (GPa) = 134.87113 72.59084 111.02115
#
# Poissons Ratio (x) = 0.24844 0.11385
# Poissons Ratio (y) = 0.46160 0.42506
# Poissons Ratio (z) = 0.13831 0.27793
#
# Static dielectric constant tensor:
#      x y z
#    x 1.821920 -0.001260 -0.005590 
#    y -0.001260 1.817670 -0.083120 
#    z -0.005590 -0.083120 1.724940 
# 
# From -- ./inp_files/343161.got.cif
#   From: 2010.05.17/outbox.cif.g08.bks.cpg/sg2_172_cif.got.tgz:343161.got - 2010.06.03 11:33:40.
