data_PCOD9047729
_publ_section_title
;
Structure prediction by ZEFSAII (Michael W. Deem and Ramdas Pophale) SiO2 
 PCOD9047729
Probable space group: P -1
;
_chemical_formula_sum "Si O2"
_cell_formula_units_Z 16
_cell_length_a 15.873045
_cell_length_b 15.970756
_cell_length_c 9.205270
_cell_angle_alpha 114.920201
_cell_angle_beta 95.665569
_cell_angle_gamma 28.393060
_cell_volume 781.022827
_symmetry_space_group_name_H-M "P -1"
_symmetry_group_IT_number 2
_symmetry_cell_setting 'triclinic'
loop_
_space_group_symop_operation_xyz
x,y,z
-x,-y,-z
loop_
_atom_site_type_symbol
_atom_site_label
_atom_site_fract_x
_atom_site_fract_y
_atom_site_fract_z
Si Si1 0.475861 0.936658 0.053664
Si Si2 0.666884 0.569751 0.238273
Si Si3 0.619915 0.966547 0.571106
Si Si4 0.454875 0.683133 0.548491
Si Si5 0.853139 0.864788 0.030940
Si Si6 0.203140 0.748704 0.500534
Si Si7 0.272244 0.672444 0.127046
Si Si8 0.984660 0.413180 0.864086
O O1 0.349373 0.086179 0.293004
O O2 0.330110 0.010044 0.994213
O O3 0.730401 0.650581 0.938081
O O4 0.500000 0.000000 0.000000
O O5 0.512135 0.692881 0.434398
O O6 0.911831 0.359099 0.178198
O O7 0.538610 0.782508 0.290647
O O8 0.719436 0.427215 0.043485
O O9 0.848483 0.756070 0.368395
O O10 0.500000 0.000000 0.500000
O O11 0.352839 0.690861 0.479699
O O12 0.683168 0.431299 0.492783
O O13 0.267601 0.917135 0.792209
O O14 0.928578 0.741637 0.106388
O O15 0.236601 0.676158 0.291015
O O16 0.948166 0.036978 0.712620
O O17 0.500000 0.500000 0.000000
O O18 0.000000 0.500000 0.000000
#
# Coordination Sequence:
#
# PCOD9047729 Si02
#       8
#     2   2   2   2   2   2   2   2
#     4  12  27  45  72 105 137 192 239 292 358 421
#     4  12  25  44  72 101 141 189 236 294 355 418
#     4  12  25  46  74 103 140 192 239 288 362 424
#     4  11  24  44  69 100 136 186 230 292 354 427
#     4  12  25  46  68 104 146 180 240 294 355 425
#     4  10  24  44  70 100 139 181 233 291 358 422
#     4  11  23  44  70 102 139 185 234 288 357 426
#     4  12  23  48  72  95 145 187 229 302 354 414
#
# _framework density 20.485954
#
# number of rings (size 3 to 8) (size 9 to 14) (size 15 to 20)
#    0.000    0.500    7.500    0.000    1.750    3.000 
#    2.250    0.000    0.000    0.000    0.000    0.000 
#    0.000    0.000    0.000    0.000    0.000    0.000 
#
# Total GULP energy -89435.192761 kJ/mol
# GULP energy per Si atom -5589.699548 kJ/mol
# Density = 2.043933 g / cm^3
# Si number density = 20.485954 Si / 1000 Ang^3
#
#
#
# Elastic Constant Matrix: (Units=GPa)
#
#
# Indices 1 2 3 4 5 6 
#
# 1 57.4302 23.0618 7.5718 2.6335 -5.4082 -2.5304
# 2 23.0618 108.3172 30.7257 4.2648 -4.8663 -6.7714
# 3 7.5718 30.7257 101.6057 11.9276 -15.3852 -3.8915
# 4 2.6335 4.2648 11.9276 32.0405 -1.5137 -6.2782
# 5 -5.4082 -4.8663 -15.3852 -1.5137 30.4942 -0.7640
# 6 -2.5304 -6.7714 -3.8915 -6.2782 -0.7640 36.3550
#
#
#
# Elastic Compliance Matrix: (Units=1/GPa)
#
#
# Indices 1 2 3 4 5 6 
#
# 1 0.019319 -0.004010 0.000347 -0.000940 0.002928 0.000534
# 2 -0.004010 0.011020 -0.003078 0.000278 -0.000455 0.001482
# 3 0.000347 -0.003078 0.012026 -0.003800 0.005454 0.000197
# 4 -0.000940 0.000278 -0.003800 0.033712 -0.000231 0.005396
# 5 0.002928 -0.000455 0.005454 -0.000231 0.036016 0.001420
# 6 0.000534 0.001482 0.000197 0.005396 0.001420 0.028803
#
#
# Mechanical properties :
#
#
# Convention : Reuss Voigt Hill
#
# Bulk Modulus (GPa) = 34.62129 43.34129 38.98129
# Shear Modulus (GPa) = 30.48659 33.51087 31.99873
#
# Velocity S-wave (km/s) = 3.86187 4.04889 3.95648
# Velocity P-wave (km/s) = 6.06812 6.56205 6.31991
#
# Compressibility (1/GPa) = 0.02888396
#
# Stress axis : x y z
#
# Youngs Moduli (GPa) = 51.76188 90.74067 83.14974
#
# Poissons Ratio (x) = 0.36385 -0.02886
# Poissons Ratio (y) = 0.20755 0.25597
# Poissons Ratio (z) = -0.01797 0.27934
#
# Static dielectric constant tensor:
#      x y z
#    x 1.722700 0.012990 -0.002490 
#    y 0.012990 2.212490 -0.109560 
#    z -0.002490 -0.109560 1.758950 
# 
# From -- ./inp_files/315603.got.cif
#   From: 2010.05.17/outbox.cif.g08.bks.cpg/sg2_158_cif.got.tgz:315603.got - 2010.06.03 11:33:40.
