data_PCOD9047823
_publ_section_title
;
Structure prediction by ZEFSAII (Michael W. Deem and Ramdas Pophale) SiO2 
 PCOD9047823
Probable space group: P -1
;
_chemical_formula_sum "Si O2"
_cell_formula_units_Z 14
_cell_length_a 21.926087
_cell_length_b 21.528346
_cell_length_c 12.846698
_cell_angle_alpha 159.069973
_cell_angle_beta 31.395070
_cell_angle_gamma 161.027090
_cell_volume 680.909594
_symmetry_space_group_name_H-M "P -1"
_symmetry_group_IT_number 2
_symmetry_cell_setting 'triclinic'
loop_
_space_group_symop_operation_xyz
x,y,z
-x,-y,-z
loop_
_atom_site_type_symbol
_atom_site_label
_atom_site_fract_x
_atom_site_fract_y
_atom_site_fract_z
Si Si1 0.852836 0.241789 0.728180
Si Si2 0.830794 0.737269 0.259778
Si Si3 0.496981 0.608452 0.353006
Si Si4 0.869726 0.676465 0.679901
Si Si5 0.412288 0.842888 0.172211
Si Si6 0.449718 0.310140 0.372191
Si Si7 0.326651 0.561881 0.190899
O O1 0.723144 0.215229 0.802859
O O2 0.996200 0.304618 0.542351
O O3 0.694812 0.941343 0.552181
O O4 0.000000 0.500000 0.000000
O O5 0.732688 0.809303 0.500230
O O6 0.713642 0.452699 0.049260
O O7 0.819195 0.639881 0.009451
O O8 0.000000 0.000000 0.500000
O O9 0.328310 0.502933 0.369403
O O10 0.422358 0.536118 0.468908
O O11 0.543099 0.460874 0.027980
O O12 0.804477 0.557531 0.705080
O O13 0.000000 0.000000 0.000000
O O14 0.519367 0.097501 0.495220
O O15 0.565201 0.902397 0.979629
O O16 0.500000 0.500000 0.500000
#
# Coordination Sequence:
#
# PCOD9047823 Si02
#       7
#     2   2   2   2   2   2   2
#     4  12  27  40  68 104 137 180 230 280 337 409
#     4  10  24  44  70  96 133 175 229 285 340 416
#     4  11  23  45  66  96 144 181 222 282 344 402
#     4  12  24  41  66  98 136 182 227 272 345 404
#     4  11  23  43  67 100 134 174 234 279 339 404
#     4   9  22  42  67  91 129 182 218 271 348 395
#     4  11  23  43  69  96 137 181 224 283 345 402
#
# _framework density 20.560732999999999
#
# number of rings (size 3 to 8) (size 9 to 14) (size 15 to 20)
#    0.000    1.143    2.857    2.571    6.000    3.429 
#    0.000    4.286    0.000    0.000    0.000    0.000 
#    0.000    0.000    0.000    0.000    0.000    0.000 
#
# Total GULP energy -77942.981974 kJ/mol
# GULP energy per Si atom -5567.355855 kJ/mol
# Density = 2.051394 g / cm^3
# Si number density = 20.560733 Si / 1000 Ang^3
#
#
#
# Elastic Constant Matrix: (Units=GPa)
#
#
# Indices 1 2 3 4 5 6 
#
# 1 124.8071 46.7356 69.9306 -3.3830 25.1135 -10.0720
# 2 46.7356 73.8554 59.8827 12.3592 9.1944 -5.1774
# 3 69.9306 59.8827 169.1842 -3.8730 11.8851 10.3589
# 4 -3.3830 12.3592 -3.8730 38.4066 2.6549 8.6268
# 5 25.1135 9.1944 11.8851 2.6549 39.8455 1.7441
# 6 -10.0720 -5.1774 10.3589 8.6268 1.7441 24.3336
#
#
#
# Elastic Compliance Matrix: (Units=1/GPa)
#
#
# Indices 1 2 3 4 5 6 
#
# 1 0.013893 -0.004341 -0.004101 0.001192 -0.006902 0.006645
# 2 -0.004341 0.025970 -0.008356 -0.012163 -0.000463 0.011631
# 3 -0.004101 -0.008356 0.011242 0.005706 0.001233 -0.010373
# 4 0.001192 -0.012163 0.005706 0.034456 -0.001213 -0.016652
# 5 -0.006902 -0.000463 0.001233 -0.001213 0.029493 -0.005164
# 6 0.006645 0.011631 -0.010373 -0.016652 -0.005164 0.057010
#
#
# Mechanical properties :
#
#
# Convention : Reuss Voigt Hill
#
# Bulk Modulus (GPa) = 57.10896 80.10495 68.60696
# Shear Modulus (GPa) = 23.64111 33.27034 28.45572
#
# Velocity S-wave (km/s) = 3.39458 4.02699 3.72423
# Velocity P-wave (km/s) = 6.57269 7.78890 7.20650
#
# Compressibility (1/GPa) = 0.01751039
#
# Stress axis : x y z
#
# Youngs Moduli (GPa) = 71.97974 38.50534 88.94871
#
# Poissons Ratio (x) = 0.16715 0.36476
# Poissons Ratio (y) = 0.31245 0.74326
# Poissons Ratio (z) = 0.29517 0.32175
#
# Static dielectric constant tensor:
#      x y z
#    x 2.128330 0.038740 0.192820 
#    y 0.038740 1.737830 0.033110 
#    z 0.192820 0.033110 1.818540 
# 
# From -- ./inp_files/333149.got.cif
#   From: 2010.05.17/outbox.cif.g08.bks.cpg/sg2_167_cif.got.tgz:333149.got - 2010.06.03 11:33:40.
