data_PCOD9047738
_publ_section_title
;
Structure prediction by ZEFSAII (Michael W. Deem and Ramdas Pophale) SiO2 
 PCOD9047738
Probable space group: P -1
;
_chemical_formula_sum "Si O2"
_cell_formula_units_Z 16
_cell_length_a 9.079254
_cell_length_b 23.442833
_cell_length_c 9.514670
_cell_angle_alpha 38.360677
_cell_angle_beta 45.001299
_cell_angle_gamma 41.670614
_cell_volume 798.625125
_symmetry_space_group_name_H-M "P -1"
_symmetry_group_IT_number 2
_symmetry_cell_setting 'triclinic'
loop_
_space_group_symop_operation_xyz
x,y,z
-x,-y,-z
loop_
_atom_site_type_symbol
_atom_site_label
_atom_site_fract_x
_atom_site_fract_y
_atom_site_fract_z
Si Si1 0.871915 0.791135 0.474685
Si Si2 0.380487 0.102464 0.289985
Si Si3 0.008524 0.108046 0.303846
Si Si4 0.465441 0.736651 0.530433
Si Si5 0.610755 0.243290 0.781420
Si Si6 0.685643 0.889621 0.136432
Si Si7 0.815179 0.594288 0.781257
Si Si8 0.671738 0.552142 0.257425
O O1 0.785567 0.815080 0.644821
O O2 0.713087 0.880439 0.302625
O O3 0.854691 0.690283 0.627222
O O4 0.127536 0.782129 0.308161
O O5 0.218802 0.093303 0.294577
O O6 0.500000 0.000000 0.500000
O O7 0.553649 0.146577 0.028300
O O8 0.773942 0.195479 0.357181
O O9 0.073243 0.135660 0.054564
O O10 0.000000 0.000000 0.500000
O O11 0.423674 0.721271 0.426375
O O12 0.600449 0.807212 0.303551
O O13 0.628499 0.636054 0.701882
O O14 0.445797 0.335670 0.813141
O O15 0.500000 0.000000 0.000000
O O16 0.071556 0.510836 0.729126
O O17 0.717233 0.555827 0.053186
O O18 0.500000 0.500000 0.500000
#
# Coordination Sequence:
#
# PCOD9047738 Si02
#       8
#     2   2   2   2   2   2   2   2
#     4  11  24  41  68  97 132 175 223 270 334 393
#     4  12  27  42  64  99 138 179 224 274 325 389
#     4  12  25  40  63  92 133 180 224 272 326 388
#     4  11  25  42  63  96 136 174 220 272 331 395
#     4  12  25  44  68  99 137 175 220 280 332 398
#     4  11  23  40  63  93 130 177 226 270 323 389
#     4  10  24  44  70 101 130 170 220 279 331 406
#     4  11  23  44  75 101 130 169 222 273 344 397
#
# _framework density 20.03443
#
# number of rings (size 3 to 8) (size 9 to 14) (size 15 to 20)
#    0.000    0.750    6.250    0.750    5.250    1.000 
#    0.000    0.625    0.000    0.000    0.000    0.000 
#    0.000    0.000    0.000    0.000    0.000    0.000 
#
# Total GULP energy -89442.229588 kJ/mol
# GULP energy per Si atom -5590.139349 kJ/mol
# Density = 1.998883 g / cm^3
# Si number density = 20.034430 Si / 1000 Ang^3
#
#
#
# Elastic Constant Matrix: (Units=GPa)
#
#
# Indices 1 2 3 4 5 6 
#
# 1 82.8898 1.6471 25.5523 -7.9754 2.4715 -8.4889
# 2 1.6471 47.9687 7.8508 6.7495 -4.3203 -18.6340
# 3 25.5523 7.8508 109.0888 6.3779 -12.4078 -15.3328
# 4 -7.9754 6.7495 6.3779 34.5588 -1.9809 4.7512
# 5 2.4715 -4.3203 -12.4078 -1.9809 34.2433 -0.9482
# 6 -8.4889 -18.6340 -15.3328 4.7512 -0.9482 33.4783
#
#
#
# Elastic Compliance Matrix: (Units=1/GPa)
#
#
# Indices 1 2 3 4 5 6 
#
# 1 0.013657 -0.000081 -0.003446 0.003512 -0.002006 0.001285
# 2 -0.000081 0.029226 0.001438 -0.008250 0.004241 0.018196
# 3 -0.003446 0.001438 0.011419 -0.003724 0.004513 0.005812
# 4 0.003512 -0.008250 -0.003724 0.033387 -0.000994 -0.010174
# 5 -0.002006 0.004241 0.004513 -0.000994 0.031598 0.004955
# 6 0.001285 0.018196 0.005812 -0.010174 0.004955 0.044570
#
#
# Mechanical properties :
#
#
# Convention : Reuss Voigt Hill
#
# Bulk Modulus (GPa) = 19.95074 34.44974 27.20024
# Shear Modulus (GPa) = 27.06477 34.11590 30.59034
#
# Velocity S-wave (km/s) = 3.67946 4.13105 3.91178
# Velocity P-wave (km/s) = 5.29444 6.32351 5.83172
#
# Compressibility (1/GPa) = 0.05012345
#
# Stress axis : x y z
#
# Youngs Moduli (GPa) = 73.22018 34.21658 87.57660
#
# Poissons Ratio (x) = 0.00276 0.30180
# Poissons Ratio (y) = 0.00591 -0.12592
# Poissons Ratio (z) = 0.25233 -0.04920
#
# Static dielectric constant tensor:
#      x y z
#    x 1.651910 -0.104430 -0.011710 
#    y -0.104430 1.417120 -0.072410 
#    z -0.011710 -0.072410 1.689620 
# 
# From -- ./inp_files/46756.got.cif
#   From: 2010.05.17/outbox.cif.g08.bks.cpg/sg2_24_cif.got.tgz:46756.got - 2010.06.03 11:33:40.
