data_PCOD9047719
_publ_section_title
;
Structure prediction by ZEFSAII (Michael W. Deem and Ramdas Pophale) SiO2 
 PCOD9047719
Probable space group: P -1
;
_chemical_formula_sum "Si O2"
_cell_formula_units_Z 12
_cell_length_a 8.676352
_cell_length_b 5.318847
_cell_length_c 18.926170
_cell_angle_alpha 71.524072
_cell_angle_beta 44.982164
_cell_angle_gamma 59.759654
_cell_volume 532.278162
_symmetry_space_group_name_H-M "P -1"
_symmetry_group_IT_number 2
_symmetry_cell_setting 'triclinic'
loop_
_space_group_symop_operation_xyz
x,y,z
-x,-y,-z
loop_
_atom_site_type_symbol
_atom_site_label
_atom_site_fract_x
_atom_site_fract_y
_atom_site_fract_z
Si Si1 0.369242 0.488712 0.228621
Si Si2 0.061521 0.776395 0.935947
Si Si3 0.365571 0.786814 0.565446
Si Si4 0.936993 0.807505 0.616960
Si Si5 0.649564 0.194432 0.934794
Si Si6 0.678574 0.408730 0.601323
O O1 0.217276 0.306176 0.273917
O O2 0.315674 0.724724 0.163727
O O3 0.294206 0.553162 0.328733
O O4 0.655195 0.335704 0.154948
O O5 0.899707 0.979511 0.907971
O O6 0.000000 0.500000 0.000000
O O7 0.000000 0.000000 0.000000
O O8 0.500000 0.500000 0.500000
O O9 0.421186 0.640454 0.637860
O O10 0.102678 0.904012 0.606375
O O11 0.500000 0.000000 0.500000
O O12 0.122095 0.586903 0.519350
O O13 0.742889 0.063913 0.609418
O O14 0.500000 0.500000 0.000000
O O15 0.500000 0.000000 0.000000
#
# Coordination Sequence:
#
# PCOD9047719 Si02
#       6
#     2   2   2   2   2   2
#     4  12  27  43  79 108 148 197 256 298 387 443
#     4  12  26  51  76 106 148 192 246 317 378 441
#     4  10  24  44  69  98 144 197 242 298 355 416
#     4  10  25  45  72 107 154 198 249 299 367 438
#     4  12  26  51  77 107 149 194 249 320 380 446
#     4  10  25  45  71 105 154 196 244 303 365 439
#
# _framework density 22.544602999999999
#
# number of rings (size 3 to 8) (size 9 to 14) (size 15 to 20)
#    0.000    1.000    3.333    0.500   16.333    2.667 
#    0.000    0.000    0.000    0.000    0.000    0.000 
#    0.000    0.000    0.000    0.000    0.000    0.000 
#
# Total GULP energy -66890.186926 kJ/mol
# GULP energy per Si atom -5574.182244 kJ/mol
# Density = 2.249329 g / cm^3
# Si number density = 22.544603 Si / 1000 Ang^3
#
#
#
# Elastic Constant Matrix: (Units=GPa)
#
#
# Indices 1 2 3 4 5 6 
#
# 1 176.5996 73.5632 85.6369 -20.9765 0.1010 -28.2826
# 2 73.5632 129.8687 56.8918 -20.1143 -8.1379 -14.3267
# 3 85.6369 56.8918 135.8834 -29.4919 -17.8750 -7.8786
# 4 -20.9765 -20.1143 -29.4919 36.3702 -2.8341 5.8660
# 5 0.1010 -8.1379 -17.8750 -2.8341 46.8171 -11.3435
# 6 -28.2826 -14.3267 -7.8786 5.8660 -11.3435 59.2769
#
#
#
# Elastic Compliance Matrix: (Units=1/GPa)
#
#
# Indices 1 2 3 4 5 6 
#
# 1 0.009886 -0.003284 -0.005126 -0.000896 -0.001884 0.002970
# 2 -0.003284 0.010907 -0.001614 0.002815 0.001675 0.000897
# 3 -0.005126 -0.001614 0.013569 0.007687 0.005183 -0.000801
# 4 -0.000896 0.002815 0.007687 0.035376 0.005273 -0.001217
# 5 -0.001884 0.001675 0.005183 0.005273 0.025034 0.004464
# 6 0.002970 0.000897 -0.000801 -0.001217 0.004464 0.019372
#
#
# Mechanical properties :
#
#
# Convention : Reuss Voigt Hill
#
# Bulk Modulus (GPa) = 69.85383 97.17062 83.51222
# Shear Modulus (GPa) = 35.98079 43.57680 39.77880
#
# Velocity S-wave (km/s) = 3.99931 4.40126 4.20509
# Velocity P-wave (km/s) = 7.23726 8.30802 7.79106
#
# Compressibility (1/GPa) = 0.01431561
#
# Stress axis : x y z
#
# Youngs Moduli (GPa) = 101.14959 91.68441 73.69711
#
# Poissons Ratio (x) = 0.30107 0.37777
# Poissons Ratio (y) = 0.33215 0.11893
# Poissons Ratio (z) = 0.51849 0.14795
#
# Static dielectric constant tensor:
#      x y z
#    x 2.047790 -0.071000 -0.125500 
#    y -0.071000 2.003460 0.066600 
#    z -0.125500 0.066600 1.882710 
# 
# From -- ./inp_files/553206.got.cif
#   From: 2010.05.17/outbox.cif.g08.bks.cpg/sg2_277_cif.got.tgz:553206.got - 2010.06.03 11:33:40.
