data_PCOD9047331
_publ_section_title
;
Structure prediction by ZEFSAII (Michael W. Deem and Ramdas Pophale) SiO2 
 PCOD9047331
Probable space group: P -1
;
_chemical_formula_sum "Si O2"
_cell_formula_units_Z 14
_cell_length_a 8.224648
_cell_length_b 14.445731
_cell_length_c 11.538687
_cell_angle_alpha 48.286197
_cell_angle_beta 109.633975
_cell_angle_gamma 72.046624
_cell_volume 630.439987
_symmetry_space_group_name_H-M "P -1"
_symmetry_group_IT_number 2
_symmetry_cell_setting 'triclinic'
loop_
_space_group_symop_operation_xyz
x,y,z
-x,-y,-z
loop_
_atom_site_type_symbol
_atom_site_label
_atom_site_fract_x
_atom_site_fract_y
_atom_site_fract_z
Si Si1 0.343634 0.007715 0.082079
Si Si2 0.128523 0.420253 0.968474
Si Si3 0.893563 0.776989 0.472000
Si Si4 0.104100 0.147121 0.143122
Si Si5 0.831248 0.352082 0.578622
Si Si6 0.248115 0.957463 0.580944
Si Si7 0.338838 0.749283 0.188670
O O1 0.640302 0.887141 0.239591
O O2 0.278364 0.922110 0.062734
O O3 0.316870 0.994892 0.223346
O O4 0.103294 0.229734 0.813164
O O5 0.064092 0.316660 0.994449
O O6 0.450593 0.257122 0.175666
O O7 0.000000 0.500000 0.000000
O O8 0.001166 0.596625 0.712162
O O9 0.789845 0.930510 0.413049
O O10 0.113798 0.705195 0.494629
O O11 0.199999 0.056389 0.367614
O O12 0.847767 0.210880 0.985874
O O13 0.634582 0.572684 0.362863
O O14 0.702145 0.308428 0.655387
O O15 0.000000 0.000000 0.500000
#
# Coordination Sequence:
#
# PCOD9047331 Si02
#       7
#     2   2   2   2   2   2   2
#     4  11  24  45  71  99 141 188 232 285 351 426
#     4  12  26  49  73 103 147 194 239 286 357 434
#     4  12  27  44  73 105 140 186 237 296 357 414
#     4  11  23  49  72 100 144 186 236 283 361 430
#     4  10  24  44  65 103 141 178 237 281 355 414
#     4  12  29  47  73 108 142 184 241 306 357 415
#     4  10  25  44  70 103 137 189 232 287 351 424
#
# _framework density 22.206713000000001
#
# number of rings (size 3 to 8) (size 9 to 14) (size 15 to 20)
#    0.000    0.857    2.857    3.429   12.000    2.286 
#    0.000    0.000    0.000    0.000    0.000    0.000 
#    0.000    0.000    0.000    0.000    0.000    0.000 
#
# Total GULP energy -78261.682966 kJ/mol
# GULP energy per Si atom -5590.120212 kJ/mol
# Density = 2.215617 g / cm^3
# Si number density = 22.206713 Si / 1000 Ang^3
#
#
#
# Elastic Constant Matrix: (Units=GPa)
#
#
# Indices 1 2 3 4 5 6 
#
# 1 74.7979 42.3093 41.6679 -5.0384 23.6119 -3.4780
# 2 42.3093 124.5659 41.9041 -6.3856 22.1520 -11.9188
# 3 41.6679 41.9041 81.2166 -19.6571 23.5027 -1.1708
# 4 -5.0384 -6.3856 -19.6571 34.0940 -8.5133 1.2284
# 5 23.6119 22.1520 23.5027 -8.5133 26.4804 3.0208
# 6 -3.4780 -11.9188 -1.1708 1.2284 3.0208 53.3230
#
#
#
# Elastic Compliance Matrix: (Units=1/GPa)
#
#
# Indices 1 2 3 4 5 6 
#
# 1 0.023296 -0.003091 -0.007744 -0.004919 -0.013067 0.001512
# 2 -0.003091 0.011099 -0.003151 -0.001400 -0.004467 0.002495
# 3 -0.007744 -0.003151 0.022221 0.009317 -0.007125 -0.000533
# 4 -0.004919 -0.001400 0.009317 0.036044 0.009078 -0.001774
# 5 -0.013067 -0.004467 -0.007125 0.009078 0.063054 -0.005788
# 6 0.001512 0.002495 -0.000533 -0.001774 -0.005788 0.019767
#
#
# Mechanical properties :
#
#
# Convention : Reuss Voigt Hill
#
# Bulk Modulus (GPa) = 34.91282 59.14924 47.03103
# Shear Modulus (GPa) = 23.47405 33.09275 28.28340
#
# Velocity S-wave (km/s) = 3.25479 3.86452 3.57268
# Velocity P-wave (km/s) = 5.46633 6.82688 6.18413
#
# Compressibility (1/GPa) = 0.02864277
#
# Stress axis : x y z
#
# Youngs Moduli (GPa) = 42.92620 90.09722 45.00270
#
# Poissons Ratio (x) = 0.27850 0.34852
# Poissons Ratio (y) = 0.13269 0.14181
# Poissons Ratio (z) = 0.33244 0.28391
#
# Static dielectric constant tensor:
#      x y z
#    x 1.895680 -0.024570 0.007200 
#    y -0.024570 1.791780 0.007260 
#    z 0.007200 0.007260 1.821870 
# 
# From -- ./inp_files/308747.got.cif
#   From: 2010.05.17/outbox.cif.g08.bks.cpg/sg2_155_cif.got.tgz:308747.got - 2010.06.03 11:33:40.
