data_PCOD9047844
_publ_section_title
;
Structure prediction by ZEFSAII (Michael W. Deem and Ramdas Pophale) SiO2 
 PCOD9047844
Probable space group: P -1
;
_chemical_formula_sum "Si O2"
_cell_formula_units_Z 11
_cell_length_a 6.500590
_cell_length_b 7.694135
_cell_length_c 13.675633
_cell_angle_alpha 133.958877
_cell_angle_beta 79.632108
_cell_angle_gamma 118.950168
_cell_volume 417.419373
_symmetry_space_group_name_H-M "P -1"
_symmetry_group_IT_number 2
_symmetry_cell_setting 'triclinic'
loop_
_space_group_symop_operation_xyz
x,y,z
-x,-y,-z
loop_
_atom_site_type_symbol
_atom_site_label
_atom_site_fract_x
_atom_site_fract_y
_atom_site_fract_z
Si Si1 0.964474 0.701859 0.794746
Si Si2 0.037296 0.820964 0.507884
Si Si3 0.546802 0.979275 0.208599
Si Si4 0.500000 0.500000 0.500000
Si Si5 0.821712 0.330672 0.037454
Si Si6 0.544783 0.638677 0.236584
O O1 0.961507 0.429625 0.645799
O O2 0.679866 0.592965 0.772249
O O3 0.175923 0.942013 0.805905
O O4 0.061995 0.755691 0.918896
O O5 0.802863 0.694075 0.547934
O O6 0.300419 0.043449 0.613661
O O7 0.000000 0.000000 0.500000
O O8 0.521247 0.223207 0.357758
O O9 0.438369 0.694624 0.169190
O O10 0.410912 0.919936 0.093774
O O11 0.731048 0.531943 0.166843
O O12 0.000000 0.500000 0.000000
#
# Coordination Sequence:
#
# PCOD9047844 Si02
#       6
#     2   2   2   1   2   2
#     4  11  25  44  69 103 136 184 226 278 342 401
#     4  11  22  43  69 100 136 180 226 278 340 400
#     4  11  25  45  70 104 137 181 230 277 339 409
#     4  10  24  44  70  98 140 176 222 284 340 388
#     4  12  24  47  71  99 143 181 222 284 347 399
#     4  12  25  45  73 101 137 181 228 284 335 407
#
# _framework density 26.352395000000001
#
# number of rings (size 3 to 8) (size 9 to 14) (size 15 to 20)
#    0.000    0.727    3.636    3.818    0.000    5.091 
#    3.273    0.000    0.000    0.000    0.000    0.000 
#    0.000    0.000    0.000    0.000    0.000    0.000 
#
# Total GULP energy -61361.632741 kJ/mol
# GULP energy per Si atom -5578.330249 kJ/mol
# Density = 2.629242 g / cm^3
# Si number density = 26.352395 Si / 1000 Ang^3
#
#
#
# Elastic Constant Matrix: (Units=GPa)
#
#
# Indices 1 2 3 4 5 6 
#
# 1 85.2643 29.1072 18.1674 -9.7473 10.3245 28.7749
# 2 29.1072 82.9877 9.7086 1.8742 0.9847 26.8204
# 3 18.1674 9.7086 63.8739 9.6251 1.8540 4.1882
# 4 -9.7473 1.8742 9.6251 31.4692 11.9497 -1.1387
# 5 10.3245 0.9847 1.8540 11.9497 43.7080 0.1311
# 6 28.7749 26.8204 4.1882 -1.1387 0.1311 61.8236
#
#
#
# Elastic Compliance Matrix: (Units=1/GPa)
#
#
# Indices 1 2 3 4 5 6 
#
# 1 0.018274 -0.003891 -0.005492 0.009882 -0.006679 -0.006249
# 2 -0.003891 0.015048 -0.000514 -0.002622 0.001333 -0.004733
# 3 -0.005492 -0.000514 0.018376 -0.008302 0.002795 0.001375
# 4 0.009882 -0.002622 -0.008302 0.042609 -0.013566 -0.002086
# 5 -0.006679 0.001333 0.002795 -0.013566 0.028011 0.002032
# 6 -0.006249 -0.004733 0.001375 -0.002086 0.002032 0.021001
#
#
# Mechanical properties :
#
#
# Convention : Reuss Voigt Hill
#
# Bulk Modulus (GPa) = 31.34353 38.45472 34.89912
# Shear Modulus (GPa) = 28.77743 39.07634 33.92689
#
# Velocity S-wave (km/s) = 3.30816 3.85494 3.59197
# Velocity P-wave (km/s) = 5.14895 5.86841 5.52042
#
# Compressibility (1/GPa) = 0.03190452
#
# Stress axis : x y z
#
# Youngs Moduli (GPa) = 54.72237 66.45373 54.41982
#
# Poissons Ratio (x) = 0.25859 0.29885
# Poissons Ratio (y) = 0.21294 0.02796
# Poissons Ratio (z) = 0.30051 0.03414
#
# Static dielectric constant tensor:
#      x y z
#    x 2.223110 0.006520 0.157140 
#    y 0.006520 2.037220 -0.072300 
#    z 0.157140 -0.072300 2.140470 
# 
# From -- ./inp_files/20917.got.cif
#   From: 2010.05.17/outbox.cif.g08.bks.cpg/sg2_11_cif.got.tgz:20917.got - 2010.06.03 11:33:40.
