data_PCOD9047504
_publ_section_title
;
Structure prediction by ZEFSAII (Michael W. Deem and Ramdas Pophale) SiO2 
 PCOD9047504
Probable space group: P -1
;
_chemical_formula_sum "Si O2"
_cell_formula_units_Z 16
_cell_length_a 15.259709
_cell_length_b 13.446665
_cell_length_c 8.492929
_cell_angle_alpha 67.057066
_cell_angle_beta 59.616656
_cell_angle_gamma 26.450534
_cell_volume 660.558737
_symmetry_space_group_name_H-M "P -1"
_symmetry_group_IT_number 2
_symmetry_cell_setting 'triclinic'
loop_
_space_group_symop_operation_xyz
x,y,z
-x,-y,-z
loop_
_atom_site_type_symbol
_atom_site_label
_atom_site_fract_x
_atom_site_fract_y
_atom_site_fract_z
Si Si1 0.020472 0.795411 0.644932
Si Si2 0.211285 0.103075 0.474814
Si Si3 0.902823 0.958314 0.190160
Si Si4 0.469781 0.477150 0.368233
Si Si5 0.008218 0.608696 0.009875
Si Si6 0.413539 0.970467 0.665783
Si Si7 0.649928 0.802480 0.852541
Si Si8 0.204708 0.845716 0.141314
O O1 0.835647 0.932751 0.604989
O O2 0.256610 0.601203 0.486273
O O3 0.947440 0.969819 0.696128
O O4 0.022627 0.690827 0.822263
O O5 0.402979 0.914157 0.545847
O O6 0.219794 0.217060 0.330806
O O7 0.039296 0.212481 0.684001
O O8 0.695248 0.209531 0.299535
O O9 0.820533 0.033599 0.037901
O O10 0.100389 0.847869 0.130993
O O11 0.500000 0.500000 0.500000
O O12 0.414399 0.611115 0.189768
O O13 0.220831 0.404606 0.040542
O O14 0.813812 0.796399 0.191200
O O15 0.000000 0.500000 0.000000
O O16 0.500000 0.000000 0.500000
O O17 0.552049 0.825191 0.784642
O O18 0.500000 0.000000 0.000000
#
# Coordination Sequence:
#
# PCOD9047504 Si02
#       8
#     2   2   2   2   2   2   2   2
#     4  12  24  44  71  96 140 181 226 279 344 405
#     4  11  23  43  68  98 137 180 223 277 343 397
#     4  11  24  43  70  99 134 174 226 282 338 405
#     4  12  24  44  70 102 129 180 229 279 337 410
#     4  12  24  45  69 102 137 180 229 279 341 407
#     4  10  24  44  67  98 136 178 228 281 335 400
#     4  11  23  44  70  96 138 181 224 283 337 404
#     4  11  24  47  67  95 139 175 219 288 344 395
#
# _framework density 24.221919
#
# number of rings (size 3 to 8) (size 9 to 14) (size 15 to 20)
#    0.000    0.750    5.000    2.250    1.750    2.000 
#    6.750    0.000    0.000    0.000    0.000    0.000 
#    0.000    0.000    0.000    0.000    0.000    0.000 
#
# Total GULP energy -89068.776529 kJ/mol
# GULP energy per Si atom -5566.798533 kJ/mol
# Density = 2.416679 g / cm^3
# Si number density = 24.221919 Si / 1000 Ang^3
#
#
#
# Elastic Constant Matrix: (Units=GPa)
#
#
# Indices 1 2 3 4 5 6 
#
# 1 115.3564 12.3281 30.0096 -11.7495 31.7405 -21.8804
# 2 12.3281 77.1250 40.7056 -12.3634 16.6078 -13.3859
# 3 30.0096 40.7056 148.3585 -27.1569 19.4241 -1.5622
# 4 -11.7495 -12.3634 -27.1569 45.2377 -17.2874 11.5514
# 5 31.7405 16.6078 19.4241 -17.2874 50.0360 -18.2011
# 6 -21.8804 -13.3859 -1.5622 11.5514 -18.2011 30.0511
#
#
#
# Elastic Compliance Matrix: (Units=1/GPa)
#
#
# Indices 1 2 3 4 5 6 
#
# 1 0.011576 0.001296 -0.002248 -0.001578 -0.005120 0.006395
# 2 0.001296 0.016806 -0.004595 -0.000472 -0.002224 0.007025
# 3 -0.002248 -0.004595 0.009432 0.004860 -0.001118 -0.005739
# 4 -0.001578 -0.000472 0.004860 0.029028 0.006206 -0.008506
# 5 -0.005120 -0.002224 -0.001118 0.006206 0.030711 0.011438
# 6 0.006395 0.007025 -0.005739 -0.008506 0.011438 0.050961
#
#
# Mechanical properties :
#
#
# Convention : Reuss Voigt Hill
#
# Bulk Modulus (GPa) = 37.42609 56.32516 46.87562
# Shear Modulus (GPa) = 29.67096 42.25140 35.96118
#
# Velocity S-wave (km/s) = 3.50374 4.18107 3.85730
# Velocity P-wave (km/s) = 5.64386 6.82735 6.26362
#
# Compressibility (1/GPa) = 0.02671933
#
# Stress axis : x y z
#
# Youngs Moduli (GPa) = 86.38507 59.50136 106.02752
#
# Poissons Ratio (x) = -0.07709 0.23838
# Poissons Ratio (y) = -0.11192 0.48715
# Poissons Ratio (z) = 0.19422 0.27338
#
# Static dielectric constant tensor:
#      x y z
#    x 2.168830 -0.097530 -0.014190 
#    y -0.097530 1.962750 -0.026220 
#    z -0.014190 -0.026220 2.005220 
# 
# From -- ./inp_files/314773.got.cif
#   From: 2010.05.17/outbox.cif.g08.bks.cpg/sg2_158_cif.got.tgz:314773.got - 2010.06.03 11:33:40.
