data_PCOD9047985
_publ_section_title
;
Structure prediction by ZEFSAII (Michael W. Deem and Ramdas Pophale) SiO2 
 PCOD9047985
Probable space group: P -1
;
_chemical_formula_sum "Si O2"
_cell_formula_units_Z 15
_cell_length_a 17.611130
_cell_length_b 10.696422
_cell_length_c 9.032180
_cell_angle_alpha 80.322417
_cell_angle_beta 130.510665
_cell_angle_gamma 138.500838
_cell_volume 664.211757
_symmetry_space_group_name_H-M "P -1"
_symmetry_group_IT_number 2
_symmetry_cell_setting 'triclinic'
loop_
_space_group_symop_operation_xyz
x,y,z
-x,-y,-z
loop_
_atom_site_type_symbol
_atom_site_label
_atom_site_fract_x
_atom_site_fract_y
_atom_site_fract_z
Si Si1 0.000000 0.500000 0.500000
Si Si2 0.944341 0.592619 0.698432
Si Si3 0.742120 0.949094 0.802828
Si Si4 0.476119 0.856756 0.609553
Si Si5 0.093092 0.930442 0.561805
Si Si6 0.250985 0.278392 0.927628
Si Si7 0.381096 0.832197 0.024676
Si Si8 0.380842 0.155073 0.654990
O O1 0.043955 0.515218 0.373441
O O2 0.168025 0.582582 0.748032
O O3 0.735937 0.378324 0.547568
O O4 0.995780 0.759800 0.614122
O O5 0.095417 0.777279 0.986666
O O6 0.545005 0.800970 0.637179
O O7 0.730470 0.923670 0.617375
O O8 0.765454 0.841742 0.937814
O O9 0.500000 0.000000 0.500000
O O10 0.612314 0.042102 0.881881
O O11 0.930062 0.822185 0.280927
O O12 0.229211 0.183050 0.761250
O O13 0.226080 0.976948 0.628319
O O14 0.453104 0.567790 0.141620
O O15 0.499365 0.841455 0.232211
O O16 0.500000 0.000000 0.000000
#
# Coordination Sequence:
#
# PCOD9047985 Si02
#       8
#     1   2   2   2   2   2   2   2
#     4  12  22  40  70  96 136 176 226 286 338 398
#     4  11  25  43  70  98 141 184 229 291 344 407
#     4  11  26  46  69 105 144 188 233 281 350 421
#     4  12  26  48  68 101 144 186 229 283 352 422
#     4  10  24  45  71 108 136 178 240 291 347 410
#     4  10  24  44  72 104 140 183 233 292 349 404
#     4  12  25  43  69 105 137 180 236 285 346 415
#     4  12  25  45  73 104 142 186 234 286 349 415
#
# _framework density 22.583159999999999
#
# number of rings (size 3 to 8) (size 9 to 14) (size 15 to 20)
#    0.000    0.800    4.000    2.400    1.867    5.333 
#    4.800    0.000    0.000    0.000    0.000    0.000 
#    0.000    0.000    0.000    0.000    0.000    0.000 
#
# Total GULP energy -83611.090366 kJ/mol
# GULP energy per Si atom -5574.072691 kJ/mol
# Density = 2.253176 g / cm^3
# Si number density = 22.583160 Si / 1000 Ang^3
#
#
#
# Elastic Constant Matrix: (Units=GPa)
#
#
# Indices 1 2 3 4 5 6 
#
# 1 82.3521 27.6615 31.4781 6.5786 10.7454 13.9836
# 2 27.6615 71.5566 43.3911 2.9372 0.1789 13.8673
# 3 31.4781 43.3911 135.1391 -0.8574 2.5029 17.1309
# 4 6.5786 2.9372 -0.8574 44.7626 -6.0338 4.5710
# 5 10.7454 0.1789 2.5029 -6.0338 37.3988 -3.5749
# 6 13.9836 13.8673 17.1309 4.5710 -3.5749 30.5598
#
#
#
# Elastic Compliance Matrix: (Units=1/GPa)
#
#
# Indices 1 2 3 4 5 6 
#
# 1 0.015827 -0.004065 -0.001702 -0.002317 -0.005238 -0.004710
# 2 -0.004065 0.019204 -0.004724 -0.000208 0.000971 -0.004062
# 3 -0.001702 -0.004724 0.009662 0.000987 -0.000231 -0.002668
# 4 -0.002317 -0.000208 0.000987 0.023523 0.004163 -0.002430
# 5 -0.005238 0.000971 -0.000231 0.004163 0.029395 0.004902
# 6 -0.004710 -0.004062 -0.002668 -0.002430 0.004902 0.039154
#
#
# Mechanical properties :
#
#
# Convention : Reuss Voigt Hill
#
# Bulk Modulus (GPa) = 42.17426 54.90102 48.53764
# Shear Modulus (GPa) = 30.18417 34.97870 32.58144
#
# Velocity S-wave (km/s) = 3.65989 3.93986 3.80245
# Velocity P-wave (km/s) = 6.04776 6.71267 6.38887
#
# Compressibility (1/GPa) = 0.02371114
#
# Stress axis : x y z
#
# Youngs Moduli (GPa) = 63.18172 52.07238 103.50144
#
# Poissons Ratio (x) = 0.21169 0.17616
# Poissons Ratio (y) = 0.25686 0.48890
# Poissons Ratio (z) = 0.10754 0.24597
#
# Static dielectric constant tensor:
#      x y z
#    x 8.372350 -0.552930 2.739590 
#    y -0.552930 1.906090 -0.169140 
#    z 2.739590 -0.169140 3.065210 
# 
# From -- ./inp_files/333290.got.cif
#   From: 2010.05.17/outbox.cif.g08.bks.cpg/sg2_167_cif.got.tgz:333290.got - 2010.06.03 11:33:40.
