data_PCOD9047798
_publ_section_title
;
Structure prediction by ZEFSAII (Michael W. Deem and Ramdas Pophale) SiO2 
 PCOD9047798
Probable space group: P -1
;
_chemical_formula_sum "Si O2"
_cell_formula_units_Z 12
_cell_length_a 5.621736
_cell_length_b 8.523823
_cell_length_c 14.232202
_cell_angle_alpha 51.877916
_cell_angle_beta 79.393918
_cell_angle_gamma 101.558057
_cell_volume 481.919999
_symmetry_space_group_name_H-M "P -1"
_symmetry_group_IT_number 2
_symmetry_cell_setting 'triclinic'
loop_
_space_group_symop_operation_xyz
x,y,z
-x,-y,-z
loop_
_atom_site_type_symbol
_atom_site_label
_atom_site_fract_x
_atom_site_fract_y
_atom_site_fract_z
Si Si1 0.259913 0.452374 0.818703
Si Si2 0.283158 0.335966 0.648425
Si Si3 0.929611 0.169777 0.099705
Si Si4 0.202360 0.846118 0.607241
Si Si5 0.071775 0.844395 0.417599
Si Si6 0.554196 0.738328 0.841873
O O1 0.327475 0.436853 0.711506
O O2 0.162176 0.648397 0.751355
O O3 0.506430 0.553787 0.834613
O O4 0.047044 0.236002 0.961313
O O5 0.500000 0.500000 0.500000
O O6 0.025068 0.293644 0.618407
O O7 0.234519 0.085943 0.770006
O O8 0.724482 0.285842 0.083720
O O9 0.202060 0.239574 0.116080
O O10 0.069362 0.739613 0.556872
O O11 0.500000 0.000000 0.500000
O O12 0.095083 0.011466 0.599959
O O13 0.353395 0.032188 0.304190
#
# Coordination Sequence:
#
# PCOD9047798 Si02
#       6
#     2   2   2   2   2   2
#     4  12  24  44  76 107 145 193 240 302 369 431
#     4  11  26  47  70 106 152 190 244 299 372 431
#     4  11  27  52  73 108 148 193 245 303 361 435
#     4  11  22  42  74 102 143 188 251 293 360 430
#     4  10  24  44  70 106 142 191 242 306 354 432
#     4  11  24  48  79 104 143 189 253 299 357 430
#
# _framework density 24.900397000000002
#
# number of rings (size 3 to 8) (size 9 to 14) (size 15 to 20)
#    0.000    1.000    1.667    4.500    4.667    2.000 
#    3.000    4.167    0.000    0.000    0.000    0.000 
#    0.000    0.000    0.000    0.000    0.000    0.000 
#
# Total GULP energy -66949.843311 kJ/mol
# GULP energy per Si atom -5579.153609 kJ/mol
# Density = 2.484372 g / cm^3
# Si number density = 24.900397 Si / 1000 Ang^3
#
#
#
# Elastic Constant Matrix: (Units=GPa)
#
#
# Indices 1 2 3 4 5 6 
#
# 1 102.3361 45.9240 39.2289 0.9358 -6.9984 -8.9031
# 2 45.9240 124.1068 45.0466 11.3766 -11.9958 15.5639
# 3 39.2289 45.0466 202.7389 4.1350 -6.3732 2.1575
# 4 0.9358 11.3766 4.1350 45.3716 -9.7970 -1.1944
# 5 -6.9984 -11.9958 -6.3732 -9.7970 40.8459 -7.7855
# 6 -8.9031 15.5639 2.1575 -1.1944 -7.7855 20.2899
#
#
#
# Elastic Compliance Matrix: (Units=1/GPa)
#
#
# Indices 1 2 3 4 5 6 
#
# 1 0.014519 -0.006346 -0.001479 0.002510 0.003447 0.012866
# 2 -0.006346 0.012788 -0.001432 -0.003473 -0.000861 -0.012976
# 3 -0.001479 -0.001432 0.005544 -0.000085 0.000155 -0.000086
# 4 0.002510 -0.003473 -0.000085 0.024535 0.006772 0.007817
# 5 0.003447 -0.000861 0.000155 0.006772 0.029082 0.013715
# 6 0.012866 -0.012976 -0.000086 0.007817 0.013715 0.070617
#
#
# Mechanical properties :
#
#
# Convention : Reuss Voigt Hill
#
# Bulk Modulus (GPa) = 69.74662 76.62008 73.18335
# Shear Modulus (GPa) = 27.71970 41.23363 34.47667
#
# Velocity S-wave (km/s) = 3.34012 4.07374 3.72504
# Velocity P-wave (km/s) = 6.55334 7.27768 6.92499
#
# Compressibility (1/GPa) = 0.01433761
#
# Stress axis : x y z
#
# Youngs Moduli (GPa) = 68.87715 78.19933 180.36814
#
# Poissons Ratio (x) = 0.49625 0.26676
# Poissons Ratio (y) = 0.43709 0.25821
# Poissons Ratio (z) = 0.10187 0.11195
#
# Static dielectric constant tensor:
#      x y z
#    x 2.032140 0.018340 0.011830 
#    y 0.018340 2.047260 -0.006260 
#    z 0.011830 -0.006260 2.000120 
# 
# From -- ./inp_files/479555.got.cif
#   From: 2010.05.17/outbox.cif.g08.bks.cpg/sg2_240_cif.got.tgz:479555.got - 2010.06.03 11:33:40.
