data_PCOD9047356
_publ_section_title
;
Structure prediction by ZEFSAII (Michael W. Deem and Ramdas Pophale) SiO2 
 PCOD9047356
Probable space group: P -1
;
_chemical_formula_sum "Si O2"
_cell_formula_units_Z 16
_cell_length_a 19.424513
_cell_length_b 18.261406
_cell_length_c 6.213667
_cell_angle_alpha 66.180118
_cell_angle_beta 75.460180
_cell_angle_gamma 19.932204
_cell_volume 626.214472
_symmetry_space_group_name_H-M "P -1"
_symmetry_group_IT_number 2
_symmetry_cell_setting 'triclinic'
loop_
_space_group_symop_operation_xyz
x,y,z
-x,-y,-z
loop_
_atom_site_type_symbol
_atom_site_label
_atom_site_fract_x
_atom_site_fract_y
_atom_site_fract_z
Si Si1 0.348792 0.699306 0.066365
Si Si2 0.374394 0.870745 0.499490
Si Si3 0.028076 0.604132 0.421882
Si Si4 0.206365 0.542317 0.048215
Si Si5 0.707162 0.818985 0.434375
Si Si6 0.558762 0.802938 0.117546
Si Si7 0.009061 0.161265 0.509714
Si Si8 0.582323 0.529483 0.468574
O O1 0.481825 0.620559 0.204611
O O2 0.306782 0.670550 0.297624
O O3 0.500000 0.500000 0.000000
O O4 0.145979 0.954248 0.796473
O O5 0.579150 0.656909 0.754205
O O6 0.408596 0.901753 0.257677
O O7 0.391608 0.764854 0.495538
O O8 0.130972 0.116962 0.500747
O O9 0.043302 0.666065 0.185152
O O10 0.106004 0.448025 0.387418
O O11 0.239259 0.384356 0.672124
O O12 0.808060 0.796555 0.464497
O O13 0.321057 0.365334 0.983945
O O14 0.059666 0.765894 0.777106
O O15 0.500000 0.000000 0.500000
O O16 0.604298 0.955121 0.125800
O O17 0.760591 0.409940 0.492426
#
# Coordination Sequence:
#
# PCOD9047356 Si02
#       8
#     2   2   2   2   2   2   2   2
#     4  11  25  47  68  97 135 168 220 275 320 392
#     4  11  25  45  67  95 137 169 218 274 320 392
#     4  10  24  44  65  97 133 171 222 265 326 388
#     4  11  24  45  65 100 133 170 224 267 325 394
#     4  11  22  43  69  94 132 175 216 272 323 382
#     4  11  23  44  66  96 134 172 216 274 322 384
#     4  12  24  43  71  94 130 178 210 270 333 381
#     4  11  25  47  66  99 131 171 220 268 327 393
#
# _framework density 25.550352
#
# number of rings (size 3 to 8) (size 9 to 14) (size 15 to 20)
#    0.000    1.000    3.750    2.250    0.000    3.000 
#    2.250    0.000    0.000    0.000    0.000    0.000 
#    0.000    0.000    0.000    0.000    0.000    0.000 
#
# Total GULP energy -89361.922008 kJ/mol
# GULP energy per Si atom -5585.120125 kJ/mol
# Density = 2.549220 g / cm^3
# Si number density = 25.550352 Si / 1000 Ang^3
#
#
#
# Elastic Constant Matrix: (Units=GPa)
#
#
# Indices 1 2 3 4 5 6 
#
# 1 83.2205 21.5102 30.8195 0.7718 5.3374 -30.3838
# 2 21.5102 65.2478 35.9370 -10.8114 -0.4767 -33.6891
# 3 30.8195 35.9370 163.9718 -15.3965 -19.0927 -6.8270
# 4 0.7718 -10.8114 -15.3965 46.3442 -2.0428 -1.4468
# 5 5.3374 -0.4767 -19.0927 -2.0428 60.4472 1.4150
# 6 -30.3838 -33.6891 -6.8270 -1.4468 1.4150 52.9936
#
#
#
# Elastic Compliance Matrix: (Units=1/GPa)
#
#
# Indices 1 2 3 4 5 6 
#
# 1 0.016834 0.001446 -0.003473 -0.000904 -0.002841 0.010175
# 2 0.001446 0.028040 -0.005388 0.005212 -0.001857 0.018152
# 3 -0.003473 -0.005388 0.008246 0.001536 0.003023 -0.004393
# 4 -0.000904 0.005212 0.001536 0.023489 0.001316 0.003599
# 5 -0.002841 -0.001857 0.003023 0.001316 0.017846 -0.002861
# 6 0.010175 0.018152 -0.004393 0.003599 -0.002861 0.035852
#
#
# Mechanical properties :
#
#
# Convention : Reuss Voigt Hill
#
# Bulk Modulus (GPa) = 26.11708 54.33039 40.22373
# Shear Modulus (GPa) = 31.66550 46.90189 39.28369
#
# Velocity S-wave (km/s) = 3.52424 4.28911 3.92535
# Velocity P-wave (km/s) = 5.17729 6.77044 6.02674
#
# Compressibility (1/GPa) = 0.03828912
#
# Stress axis : x y z
#
# Youngs Moduli (GPa) = 59.40311 35.66381 121.27522
#
# Poissons Ratio (x) = -0.05158 0.42120
# Poissons Ratio (y) = -0.08591 0.65346
# Poissons Ratio (z) = 0.20631 0.19217
#
# Static dielectric constant tensor:
#      x y z
#    x 2.133320 0.011740 0.014450 
#    y 0.011740 2.088510 0.041270 
#    z 0.014450 0.041270 1.955460 
# 
# From -- ./inp_files/120372.got.cif
#   From: 2010.05.17/outbox.cif.g08.bks.cpg/sg2_61_cif.got.tgz:120372.got - 2010.06.03 11:33:40.
