data_PCOD9047644
_publ_section_title
;
Structure prediction by ZEFSAII (Michael W. Deem and Ramdas Pophale) SiO2 
 PCOD9047644
Probable space group: P -1
;
_chemical_formula_sum "Si O2"
_cell_formula_units_Z 16
_cell_length_a 19.706181
_cell_length_b 12.427911
_cell_length_c 22.218572
_cell_angle_alpha 33.030705
_cell_angle_beta 17.787634
_cell_angle_gamma 26.759590
_cell_volume 745.675936
_symmetry_space_group_name_H-M "P -1"
_symmetry_group_IT_number 2
_symmetry_cell_setting 'triclinic'
loop_
_space_group_symop_operation_xyz
x,y,z
-x,-y,-z
loop_
_atom_site_type_symbol
_atom_site_label
_atom_site_fract_x
_atom_site_fract_y
_atom_site_fract_z
Si Si1 0.485501 0.280998 0.454963
Si Si2 0.326103 0.203000 0.412952
Si Si3 0.497226 0.922325 0.913963
Si Si4 0.298412 0.416721 0.210935
Si Si5 0.280812 0.770208 0.846333
Si Si6 0.874796 0.604096 0.844702
Si Si7 0.946483 0.255239 0.253607
Si Si8 0.423590 0.380989 0.701433
O O1 0.639856 0.183043 0.307623
O O2 0.568363 0.442495 0.341262
O O3 0.162823 0.445386 0.641899
O O4 0.553545 0.067638 0.542253
O O5 0.368208 0.236774 0.291996
O O6 0.485480 0.285391 0.278825
O O7 0.010115 0.364497 0.620244
O O8 0.660774 0.716376 0.823623
O O9 0.667338 0.835091 0.872176
O O10 0.439377 0.168654 0.822155
O O11 0.193895 0.994304 0.145981
O O12 0.500000 0.500000 0.000000
O O13 0.245883 0.553141 0.972620
O O14 0.000000 0.000000 0.000000
O O15 0.941679 0.669418 0.821314
O O16 0.694188 0.260810 0.489090
O O17 0.824500 0.454417 0.211017
#
# Coordination Sequence:
#
# PCOD9047644 Si02
#       8
#     2   2   2   2   2   2   2   2
#     4  11  25  44  73  98 142 182 236 284 347 411
#     4  11  26  46  69 101 142 184 234 284 346 418
#     4  12  25  42  71  99 141 176 230 286 345 414
#     4  11  28  45  70 102 141 186 230 287 355 408
#     4  12  25  41  71 100 138 184 229 286 342 411
#     4  11  25  44  68 106 139 182 232 285 351 412
#     4  10  24  44  68  99 137 181 232 280 344 410
#     4  10  25  44  70  99 135 184 230 283 348 405
#
# _framework density 21.457042000000001
#
# number of rings (size 3 to 8) (size 9 to 14) (size 15 to 20)
#    0.000    1.000    1.250    3.375   10.500    5.000 
#    0.000    0.000    0.000    0.000    0.000    0.000 
#    0.000    0.000    0.000    0.000    0.000    0.000 
#
# Total GULP energy -89576.451502 kJ/mol
# GULP energy per Si atom -5598.528219 kJ/mol
# Density = 2.140820 g / cm^3
# Si number density = 21.457042 Si / 1000 Ang^3
#
#
#
# Elastic Constant Matrix: (Units=GPa)
#
#
# Indices 1 2 3 4 5 6 
#
# 1 75.7956 11.5136 33.0882 2.4079 -11.2401 -17.2435
# 2 11.5136 58.0370 24.3263 7.4628 -9.7254 -20.4602
# 3 33.0882 24.3263 110.6031 14.9008 0.8208 -13.1481
# 4 2.4079 7.4628 14.9008 30.7782 5.9805 -8.8513
# 5 -11.2401 -9.7254 0.8208 5.9805 39.4711 6.6345
# 6 -17.2435 -20.4602 -13.1481 -8.8513 6.6345 34.8063
#
#
#
# Elastic Compliance Matrix: (Units=1/GPa)
#
#
# Indices 1 2 3 4 5 6 
#
# 1 0.017315 0.001663 -0.004962 0.002035 0.003882 0.007459
# 2 0.001663 0.023835 -0.004164 -0.001325 0.004609 0.012047
# 3 -0.004962 -0.004164 0.011902 -0.004343 -0.001832 -0.001165
# 4 0.002035 -0.001325 -0.004343 0.039002 -0.007228 0.009885
# 5 0.003882 0.004609 -0.001832 -0.007228 0.029294 -0.003482
# 6 0.007459 0.012047 -0.001165 0.009885 -0.003482 0.042244
#
#
# Mechanical properties :
#
#
# Convention : Reuss Voigt Hill
#
# Bulk Modulus (GPa) = 26.22823 42.47686 34.35254
# Shear Modulus (GPa) = 26.14699 32.71165 29.42932
#
# Velocity S-wave (km/s) = 3.49459 3.90874 3.70746
# Velocity P-wave (km/s) = 5.34163 6.34115 5.86273
#
# Compressibility (1/GPa) = 0.03812686
#
# Stress axis : x y z
#
# Youngs Moduli (GPa) = 57.75428 41.95476 84.02111
#
# Poissons Ratio (x) = -0.06978 0.41691
# Poissons Ratio (y) = -0.09605 0.34983
# Poissons Ratio (z) = 0.28658 0.17468
#
# Static dielectric constant tensor:
#      x y z
#    x 1.755870 0.009570 0.014190 
#    y 0.009570 1.742290 0.007140 
#    z 0.014190 0.007140 1.782180 
# 
# From -- ./inp_files/600060.got.cif
#   From: 2010.05.17/outbox.cif.g08.bks.cpg/sg2_301_cif.got.tgz:600060.got - 2010.06.03 11:33:40.
