data_PCOD9047631
_publ_section_title
;
Structure prediction by ZEFSAII (Michael W. Deem and Ramdas Pophale) SiO2 
 PCOD9047631
Probable space group: P -1
;
_chemical_formula_sum "Si O2"
_cell_formula_units_Z 14
_cell_length_a 15.585874
_cell_length_b 13.534886
_cell_length_c 7.802957
_cell_angle_alpha 95.184856
_cell_angle_beta 64.952421
_cell_angle_gamma 146.085904
_cell_volume 712.572961
_symmetry_space_group_name_H-M "P -1"
_symmetry_group_IT_number 2
_symmetry_cell_setting 'triclinic'
loop_
_space_group_symop_operation_xyz
x,y,z
-x,-y,-z
loop_
_atom_site_type_symbol
_atom_site_label
_atom_site_fract_x
_atom_site_fract_y
_atom_site_fract_z
Si Si1 0.363130 0.688425 0.317679
Si Si2 0.300513 0.763065 0.692788
Si Si3 0.707899 0.610936 0.672191
Si Si4 0.826555 0.181087 0.003827
Si Si5 0.033688 0.164127 0.837406
Si Si6 0.295674 0.761175 0.080776
Si Si7 0.275427 0.292941 0.949095
O O1 0.273880 0.653847 0.560125
O O2 0.337949 0.548263 0.309436
O O3 0.258515 0.646721 0.239083
O O4 0.598720 0.931900 0.154766
O O5 0.153497 0.721874 0.839757
O O6 0.500000 0.000000 0.500000
O O7 0.323145 0.742968 0.863399
O O8 0.873603 0.778911 0.415158
O O9 0.763791 0.697885 0.828468
O O10 0.507572 0.484199 0.769853
O O11 0.843613 0.271473 0.841105
O O12 0.964861 0.214421 0.901192
O O13 0.193437 0.288200 0.868817
O O14 0.846355 0.921549 0.994583
O O15 0.500000 0.000000 0.000000
#
# Coordination Sequence:
#
# PCOD9047631 Si02
#       7
#     2   2   2   2   2   2   2
#     4  10  17  34  57  85 120 157 193 237 295 348
#     4   8  15  28  51  81 115 155 192 227 280 356
#     4  11  23  40  65  91 117 157 201 249 301 358
#     4   8  17  34  56  85 120 152 194 238 284 353
#     4  11  21  43  64  88 120 158 195 252 306 350
#     4   8  15  28  50  81 119 150 189 237 275 347
#     4  10  24  43  63  86 122 153 203 252 301 357
#
# _framework density 19.647110999999999
#
# number of rings (size 3 to 8) (size 9 to 14) (size 15 to 20)
#    0.857    1.714    2.857    0.857    0.000    1.143 
#    2.571    1.429    0.000    0.000    0.000    0.000 
#    0.000    0.000    0.000    0.000    0.000    0.000 
#
# Total GULP energy -77998.491246 kJ/mol
# GULP energy per Si atom -5571.320803 kJ/mol
# Density = 1.960239 g / cm^3
# Si number density = 19.647111 Si / 1000 Ang^3
#
#
#
# Elastic Constant Matrix: (Units=GPa)
#
#
# Indices 1 2 3 4 5 6 
#
# 1 136.2826 25.3779 45.5246 27.4872 -2.2113 -11.9633
# 2 25.3779 47.3093 9.7500 9.5663 -4.0217 -2.3910
# 3 45.5246 9.7500 80.0927 28.2584 -1.2237 4.9114
# 4 27.4872 9.5663 28.2584 38.5144 0.2310 1.3856
# 5 -2.2113 -4.0217 -1.2237 0.2310 29.1152 6.8785
# 6 -11.9633 -2.3910 4.9114 1.3856 6.8785 13.9214
#
#
#
# Elastic Compliance Matrix: (Units=1/GPa)
#
#
# Indices 1 2 3 4 5 6 
#
# 1 0.011922 -0.004021 -0.005865 -0.003674 -0.003057 0.013500
# 2 -0.004021 0.024118 0.000740 -0.003653 0.003283 -0.000833
# 3 -0.005865 0.000740 0.020243 -0.010411 0.003615 -0.012805
# 4 -0.003674 -0.003653 -0.010411 0.037262 -0.000696 -0.003477
# 5 -0.003057 0.003283 0.003615 -0.000696 0.040189 -0.023126
# 6 0.013500 -0.000833 -0.012805 -0.003477 -0.023126 0.099580
#
#
# Mechanical properties :
#
#
# Convention : Reuss Voigt Hill
#
# Bulk Modulus (GPa) = 26.32309 47.22107 36.77208
# Shear Modulus (GPa) = 18.91997 28.51233 23.71615
#
# Velocity S-wave (km/s) = 3.10657 3.81362 3.47811
# Velocity P-wave (km/s) = 5.12784 6.59382 5.90649
#
# Compressibility (1/GPa) = 0.03798945
#
# Stress axis : x y z
#
# Youngs Moduli (GPa) = 83.87627 41.46317 49.39939
#
# Poissons Ratio (x) = 0.16674 0.28975
# Poissons Ratio (y) = 0.33729 -0.03655
# Poissons Ratio (z) = 0.49197 -0.03068
#
# Static dielectric constant tensor:
#      x y z
#    x 1.675740 0.023950 -0.006750 
#    y 0.023950 1.706260 -0.022870 
#    z -0.006750 -0.022870 1.698860 
# 
# From -- ./inp_files/305352.got.cif
#   From: 2010.05.17/outbox.cif.g08.bks.cpg/sg2_153_cif.got.tgz:305352.got - 2010.06.03 11:33:40.
