data_PCOD9047639
_publ_section_title
;
Structure prediction by ZEFSAII (Michael W. Deem and Ramdas Pophale) SiO2 
 PCOD9047639
Probable space group: P -1
;
_chemical_formula_sum "Si O2"
_cell_formula_units_Z 14
_cell_length_a 8.912841
_cell_length_b 17.203222
_cell_length_c 5.200596
_cell_angle_alpha 63.524215
_cell_angle_beta 63.804040
_cell_angle_gamma 52.084969
_cell_volume 547.046385
_symmetry_space_group_name_H-M "P -1"
_symmetry_group_IT_number 2
_symmetry_cell_setting 'triclinic'
loop_
_space_group_symop_operation_xyz
x,y,z
-x,-y,-z
loop_
_atom_site_type_symbol
_atom_site_label
_atom_site_fract_x
_atom_site_fract_y
_atom_site_fract_z
Si Si1 0.994865 0.910939 0.990338
Si Si2 0.568063 0.184483 0.258691
Si Si3 0.314220 0.536024 0.267962
Si Si4 0.561443 0.655982 0.257783
Si Si5 0.867916 0.276072 0.528851
Si Si6 0.403463 0.935482 0.110812
Si Si7 0.979474 0.590750 0.066443
O O1 0.977475 0.836109 0.316081
O O2 0.211191 0.843148 0.820294
O O3 0.000000 0.000000 0.000000
O O4 0.824209 0.974665 0.825569
O O5 0.516696 0.149272 0.606103
O O6 0.446823 0.299955 0.084515
O O7 0.566279 0.118408 0.111145
O O8 0.379999 0.459112 0.570862
O O9 0.223995 0.649155 0.268709
O O10 0.500000 0.500000 0.000000
O O11 0.139308 0.537412 0.245953
O O12 0.331774 0.718606 0.431344
O O13 0.752281 0.653020 0.232184
O O14 0.963314 0.329680 0.217027
O O15 0.500000 0.000000 0.000000
O O16 0.000000 0.500000 0.000000
#
# Coordination Sequence:
#
# PCOD9047639 Si02
#       7
#     2   2   2   2   2   2   2
#     4   9  22  46  71  97 137 183 238 290 362 424
#     4  10  24  44  68  98 136 186 232 288 364 427
#     4  12  24  44  69 102 141 187 231 292 351 429
#     4  11  24  44  67 101 138 183 234 287 356 426
#     4  11  24  46  68 103 137 186 234 291 355 425
#     4  11  23  43  68 102 137 178 236 301 355 421
#     4  12  25  42  69  97 144 183 236 288 353 426
#
# _framework density 25.59198
#
# number of rings (size 3 to 8) (size 9 to 14) (size 15 to 20)
#    0.000    1.143    2.857    2.571    2.000    4.571 
#   10.286    0.000    0.000    0.000    0.000    0.000 
#    0.000    0.000    0.000    0.000    0.000    0.000 
#
# Total GULP energy -78223.298324 kJ/mol
# GULP energy per Si atom -5587.378452 kJ/mol
# Density = 2.553373 g / cm^3
# Si number density = 25.591980 Si / 1000 Ang^3
#
#
#
# Elastic Constant Matrix: (Units=GPa)
#
#
# Indices 1 2 3 4 5 6 
#
# 1 162.0687 45.3458 63.6521 0.7216 -6.3359 1.9508
# 2 45.3458 114.6950 75.8593 -22.0745 16.8457 8.1454
# 3 63.6521 75.8593 165.6348 -42.8887 -3.6722 3.8002
# 4 0.7216 -22.0745 -42.8887 50.5576 -3.4820 6.8761
# 5 -6.3359 16.8457 -3.6722 -3.4820 48.5958 -5.2801
# 6 1.9508 8.1454 3.8002 6.8761 -5.2801 25.9252
#
#
#
# Elastic Compliance Matrix: (Units=1/GPa)
#
#
# Indices 1 2 3 4 5 6 
#
# 1 0.008063 -0.002256 -0.003074 -0.003859 0.001530 0.001888
# 2 -0.002256 0.014955 -0.005393 0.002318 -0.006333 -0.005643
# 3 -0.003074 -0.005393 0.011898 0.008168 0.002799 -0.001415
# 4 -0.003859 0.002318 0.008168 0.029062 0.000386 -0.009265
# 5 0.001530 -0.006333 0.002799 0.000386 0.023888 0.006227
# 6 0.001888 -0.005643 -0.001415 -0.009265 0.006227 0.044136
#
#
# Mechanical properties :
#
#
# Convention : Reuss Voigt Hill
#
# Bulk Modulus (GPa) = 74.23985 90.23476 82.23731
# Shear Modulus (GPa) = 31.65809 42.18514 36.92162
#
# Velocity S-wave (km/s) = 3.52096 4.06442 3.80241
# Velocity P-wave (km/s) = 6.75289 7.57374 7.17507
#
# Compressibility (1/GPa) = 0.01346985
#
# Stress axis : x y z
#
# Youngs Moduli (GPa) = 124.02279 66.86946 84.04874
#
# Poissons Ratio (x) = 0.15087 0.25836
# Poissons Ratio (y) = 0.27982 0.45324
# Poissons Ratio (z) = 0.38124 0.36060
#
# Static dielectric constant tensor:
#      x y z
#    x 1.969970 0.075390 -0.037280 
#    y 0.075390 2.077540 0.009280 
#    z -0.037280 0.009280 2.072780 
# 
# From -- ./inp_files/46156.got.cif
#   From: 2010.05.17/outbox.cif.g08.bks.cpg/sg2_24_cif.got.tgz:46156.got - 2010.06.03 11:33:40.
