data_PCOD9047749
_publ_section_title
;
Structure prediction by ZEFSAII (Michael W. Deem and Ramdas Pophale) SiO2 
 PCOD9047749
Probable space group: P -1
;
_chemical_formula_sum "Si O2"
_cell_formula_units_Z 16
_cell_length_a 8.028213
_cell_length_b 14.756719
_cell_length_c 19.929529
_cell_angle_alpha 158.392764
_cell_angle_beta 57.690325
_cell_angle_gamma 112.512302
_cell_volume 683.704304
_symmetry_space_group_name_H-M "P -1"
_symmetry_group_IT_number 2
_symmetry_cell_setting 'triclinic'
loop_
_space_group_symop_operation_xyz
x,y,z
-x,-y,-z
loop_
_atom_site_type_symbol
_atom_site_label
_atom_site_fract_x
_atom_site_fract_y
_atom_site_fract_z
Si Si1 0.333152 0.634160 0.570844
Si Si2 0.677575 0.903576 0.837127
Si Si3 0.503670 0.638977 0.164030
Si Si4 0.286465 0.874634 0.157514
Si Si5 0.005805 0.160326 0.993846
Si Si6 0.708874 0.858337 0.405573
Si Si7 0.072190 0.315229 0.940832
Si Si8 0.323110 0.294451 0.542041
O O1 0.500000 0.500000 0.500000
O O2 0.248004 0.410293 0.409078
O O3 0.458731 0.692759 0.521889
O O4 0.181851 0.919329 0.826720
O O5 0.621036 0.033677 0.864859
O O6 0.854286 0.012926 0.898507
O O7 0.500000 0.000000 0.000000
O O8 0.700183 0.734349 0.172596
O O9 0.277206 0.866530 0.383550
O O10 0.500000 0.500000 0.000000
O O11 0.569384 0.424227 0.060489
O O12 0.056776 0.860803 0.181032
O O13 0.283659 0.061957 0.349606
O O14 0.096310 0.256945 0.975051
O O15 0.863522 0.428001 0.245124
O O16 0.664077 0.738225 0.402873
O O17 0.500000 0.000000 0.500000
O O18 0.918321 0.623128 0.174098
#
# Coordination Sequence:
#
# PCOD9047749 Si02
#       8
#     2   2   2   2   2   2   2   2
#     4  12  24  44  72  97 141 175 233 291 351 405
#     4  11  23  45  71 100 136 183 230 290 343 412
#     4  12  24  43  71  98 141 183 228 288 349 400
#     4  11  23  43  68 102 139 180 237 283 342 417
#     4  10  24  44  70 101 137 182 231 282 352 414
#     4  11  23  41  69 101 139 183 228 278 344 412
#     4  10  24  45  67 101 140 179 234 285 342 420
#     4  11  23  45  67 103 144 179 231 292 337 419
#
# _framework density 23.401928999999999
#
# number of rings (size 3 to 8) (size 9 to 14) (size 15 to 20)
#    0.000    1.000    5.000    1.500    0.000    1.000 
#    0.000    1.250    2.750    0.000    0.000    0.000 
#    0.000    0.000    0.000    0.000    0.000    0.000 
#
# Total GULP energy -89330.107983 kJ/mol
# GULP energy per Si atom -5583.131749 kJ/mol
# Density = 2.334866 g / cm^3
# Si number density = 23.401929 Si / 1000 Ang^3
#
#
#
# Elastic Constant Matrix: (Units=GPa)
#
#
# Indices 1 2 3 4 5 6 
#
# 1 51.2703 21.3042 23.8428 3.3214 -2.2888 -2.3555
# 2 21.3042 90.5186 15.9483 0.4940 -6.7262 9.5655
# 3 23.8428 15.9483 159.1329 12.2524 -15.8338 16.0711
# 4 3.3214 0.4940 12.2524 35.0949 -5.6879 1.5594
# 5 -2.2888 -6.7262 -15.8338 -5.6879 36.6556 9.3551
# 6 -2.3555 9.5655 16.0711 1.5594 9.3551 26.6521
#
#
#
# Elastic Compliance Matrix: (Units=1/GPa)
#
#
# Indices 1 2 3 4 5 6 
#
# 1 0.024281 -0.006133 -0.004093 -0.001757 -0.003752 0.008235
# 2 -0.006133 0.013482 0.000668 0.001210 0.004461 -0.007420
# 3 -0.004093 0.000668 0.008161 -0.001337 0.005024 -0.007208
# 4 -0.001757 0.001210 -0.001337 0.030075 0.005048 -0.003315
# 5 -0.003752 0.004461 0.005024 0.005048 0.035325 -0.017657
# 6 0.008235 -0.007420 -0.007208 -0.003315 -0.017657 0.051650
#
#
# Mechanical properties :
#
#
# Convention : Reuss Voigt Hill
#
# Bulk Modulus (GPa) = 37.30231 47.01249 42.15740
# Shear Modulus (GPa) = 26.17430 35.66896 30.92163
#
# Velocity S-wave (km/s) = 3.34798 3.90832 3.63895
# Velocity P-wave (km/s) = 5.56055 6.36391 5.97575
#
# Compressibility (1/GPa) = 0.02680799
#
# Stress axis : x y z
#
# Youngs Moduli (GPa) = 41.18458 74.17171 122.53115
#
# Poissons Ratio (x) = 0.45489 0.50152
# Poissons Ratio (y) = 0.25258 -0.08182
# Poissons Ratio (z) = 0.16857 -0.04953
#
# Static dielectric constant tensor:
#      x y z
#    x 2.059740 -0.054690 0.078420 
#    y -0.054690 1.905550 -0.017130 
#    z 0.078420 -0.017130 2.083710 
# 
# From -- ./inp_files/590523.got.cif
#   From: 2010.05.17/outbox.cif.g08.bks.cpg/sg2_296_cif.got.tgz:590523.got - 2010.06.03 11:33:40.
