data_PCOD9047607
_publ_section_title
;
Structure prediction by ZEFSAII (Michael W. Deem and Ramdas Pophale) SiO2 
 PCOD9047607
Probable space group: P -1
;
_chemical_formula_sum "Si O2"
_cell_formula_units_Z 16
_cell_length_a 8.741316
_cell_length_b 11.906012
_cell_length_c 9.945812
_cell_angle_alpha 67.606697
_cell_angle_beta 66.905821
_cell_angle_gamma 108.928456
_cell_volume 731.077871
_symmetry_space_group_name_H-M "P -1"
_symmetry_group_IT_number 2
_symmetry_cell_setting 'triclinic'
loop_
_space_group_symop_operation_xyz
x,y,z
-x,-y,-z
loop_
_atom_site_type_symbol
_atom_site_label
_atom_site_fract_x
_atom_site_fract_y
_atom_site_fract_z
Si Si1 0.673456 0.690432 0.970097
Si Si2 0.905382 0.317284 0.851441
Si Si3 0.626752 0.234156 0.442835
Si Si4 0.772422 0.515347 0.847399
Si Si5 0.638533 0.522865 0.318654
Si Si6 0.404577 0.916430 0.744005
Si Si7 0.065090 0.702722 0.454348
Si Si8 0.167207 0.011751 0.337557
O O1 0.461268 0.611447 0.002611
O O2 0.615826 0.608650 0.167603
O O3 0.809589 0.646337 0.867585
O O4 0.775432 0.861833 0.847370
O O5 0.883730 0.437191 0.879596
O O6 0.877560 0.324419 0.698220
O O7 0.130689 0.368447 0.768950
O O8 0.738275 0.163278 0.043623
O O9 0.596113 0.364404 0.367647
O O10 0.687384 0.189672 0.305094
O O11 0.786188 0.285044 0.485886
O O12 0.441206 0.073488 0.628117
O O13 0.846841 0.581654 0.642513
O O14 0.500000 0.500000 0.500000
O O15 0.624447 0.945465 0.681523
O O16 0.084046 0.855349 0.372788
O O17 0.000000 0.000000 0.500000
#
# Coordination Sequence:
#
# PCOD9047607 Si02
#       8
#     2   2   2   2   2   2   2   2
#     4  11  25  41  68 102 135 174 224 282 334 397
#     4  12  25  43  69  98 137 177 228 274 335 404
#     4  10  24  44  68  95 133 172 224 278 327 401
#     4  11  22  42  68  97 132 175 225 272 330 404
#     4  12  28  42  65 101 141 176 221 281 342 390
#     4  10  24  44  69  99 127 176 230 274 330 403
#     4  11  24  41  70  97 128 182 225 274 332 399
#     4  11  23  43  69  97 135 175 225 278 333 398
#
# _framework density 21.885493
#
# number of rings (size 3 to 8) (size 9 to 14) (size 15 to 20)
#    0.000    1.000    3.750    1.875    5.250    6.000 
#    0.000    1.250    0.000    0.000    0.000    0.000 
#    0.000    0.000    0.000    0.000    0.000    0.000 
#
# Total GULP energy -89411.077362 kJ/mol
# GULP energy per Si atom -5588.192335 kJ/mol
# Density = 2.183568 g / cm^3
# Si number density = 21.885493 Si / 1000 Ang^3
#
#
#
# Elastic Constant Matrix: (Units=GPa)
#
#
# Indices 1 2 3 4 5 6 
#
# 1 57.8588 0.5863 8.1763 -3.5574 -13.5590 1.1453
# 2 0.5863 65.5868 14.3099 -24.1138 0.9152 -12.8487
# 3 8.1763 14.3099 132.9795 -20.2354 -4.1419 -8.2227
# 4 -3.5574 -24.1138 -20.2354 43.8564 -5.5667 13.1971
# 5 -13.5590 0.9152 -4.1419 -5.5667 37.2592 -5.4426
# 6 1.1453 -12.8487 -8.2227 13.1971 -5.4426 28.0235
#
#
#
# Elastic Compliance Matrix: (Units=1/GPa)
#
#
# Indices 1 2 3 4 5 6 
#
# 1 0.019247 0.000786 -0.000653 0.002767 0.007251 -0.000512
# 2 0.000786 0.019741 -0.000365 0.009551 0.001886 0.004781
# 3 -0.000653 -0.000365 0.008220 0.003433 0.001331 0.000913
# 4 0.002767 0.009551 0.003433 0.033322 0.004745 -0.009497
# 5 0.007251 0.001886 0.001331 0.004745 0.030981 0.004741
# 6 -0.000512 0.004781 0.000913 -0.009497 0.004741 0.043559
#
#
# Mechanical properties :
#
#
# Convention : Reuss Voigt Hill
#
# Bulk Modulus (GPa) = 21.39288 33.61888 27.50588
# Shear Modulus (GPa) = 29.22024 37.38468 33.30246
#
# Velocity S-wave (km/s) = 3.65792 4.13752 3.90509
# Velocity P-wave (km/s) = 5.25706 6.18223 5.73832
#
# Compressibility (1/GPa) = 0.04674452
#
# Stress axis : x y z
#
# Youngs Moduli (GPa) = 51.95553 50.65548 121.65857
#
# Poissons Ratio (x) = -0.03982 0.07942
# Poissons Ratio (y) = -0.04084 0.04441
# Poissons Ratio (z) = 0.03392 0.01849
#
# Static dielectric constant tensor:
#      x y z
#    x 1.887850 0.019320 0.010040 
#    y 0.019320 1.797520 -0.014110 
#    z 0.010040 -0.014110 1.807110 
# 
# From -- ./inp_files/185795.got.cif
#   From: 2010.05.17/outbox.cif.g08.bks.cpg/sg2_93_cif.got.tgz:185795.got - 2010.06.03 11:33:40.
