data_PCOD9047233
_publ_section_title
;
Structure prediction by ZEFSAII (Michael W. Deem and Ramdas Pophale) SiO2 
 PCOD9047233
Probable space group: P -1
;
_chemical_formula_sum "Si O2"
_cell_formula_units_Z 12
_cell_length_a 4.871706
_cell_length_b 9.682986
_cell_length_c 11.420706
_cell_angle_alpha 70.230543
_cell_angle_beta 95.641233
_cell_angle_gamma 81.024112
_cell_volume 494.125561
_symmetry_space_group_name_H-M "P -1"
_symmetry_group_IT_number 2
_symmetry_cell_setting 'triclinic'
loop_
_space_group_symop_operation_xyz
x,y,z
-x,-y,-z
loop_
_atom_site_type_symbol
_atom_site_label
_atom_site_fract_x
_atom_site_fract_y
_atom_site_fract_z
Si Si1 0.772037 0.252199 0.774036
Si Si2 0.806537 0.656774 0.405722
Si Si3 0.284350 0.152221 0.420807
Si Si4 0.274521 0.848543 0.732588
Si Si5 0.427189 0.666066 0.997486
Si Si6 0.629460 0.948574 0.894528
O O1 0.517273 0.324384 0.654674
O O2 0.686570 0.317006 0.880777
O O3 0.044905 0.293382 0.717219
O O4 0.818792 0.070087 0.840279
O O5 0.804254 0.758866 0.490762
O O6 0.000000 0.500000 0.500000
O O7 0.470766 0.233267 0.317431
O O8 0.011337 0.112553 0.360360
O O9 0.500000 0.000000 0.500000
O O10 0.412238 0.972177 0.768944
O O11 0.210119 0.751157 0.867448
O O12 0.500000 0.500000 0.000000
O O13 0.669151 0.767614 0.964208
O O14 0.500000 0.000000 0.000000
#
# Coordination Sequence:
#
# PCOD9047233 Si02
#       6
#     2   2   2   2   2   2
#     4  11  24  49  72 106 150 191 244 306 375 443
#     4  12  29  45  75 105 150 200 249 302 370 442
#     4  12  26  47  72 106 148 197 248 304 364 443
#     4  10  24  43  75 107 147 182 251 304 367 439
#     4   9  22  44  79 109 146 191 243 313 382 433
#     4   8  19  42  67 108 139 183 233 296 370 438
#
# _framework density 24.285326999999999
#
# number of rings (size 3 to 8) (size 9 to 14) (size 15 to 20)
#    1.000    0.667    0.000    3.000    4.667    5.333 
#    0.000    5.000    0.000    0.000    0.000    0.000 
#    0.000    0.000    0.000    0.000    0.000    0.000 
#
# Total GULP energy -66988.805205 kJ/mol
# GULP energy per Si atom -5582.400434 kJ/mol
# Density = 2.423005 g / cm^3
# Si number density = 24.285327 Si / 1000 Ang^3
#
#
#
# Elastic Constant Matrix: (Units=GPa)
#
#
# Indices 1 2 3 4 5 6 
#
# 1 84.1278 1.6135 11.0968 13.5340 -16.8591 2.9395
# 2 1.6135 160.9508 36.7284 12.4472 -12.7958 -3.9398
# 3 11.0968 36.7284 134.3334 27.7389 -8.0215 -1.9380
# 4 13.5340 12.4472 27.7389 41.3607 2.0232 -3.3602
# 5 -16.8591 -12.7958 -8.0215 2.0232 48.3170 1.8648
# 6 2.9395 -3.9398 -1.9380 -3.3602 1.8648 13.7345
#
#
#
# Elastic Compliance Matrix: (Units=1/GPa)
#
#
# Indices 1 2 3 4 5 6 
#
# 1 0.014016 0.000582 0.000070 -0.005474 0.005475 -0.004906
# 2 0.000582 0.006819 -0.001543 -0.001207 0.001762 0.001079
# 3 0.000070 -0.001543 0.009134 -0.005817 0.001406 -0.000783
# 4 -0.005474 -0.001207 -0.005817 0.031141 -0.004819 0.008278
# 5 0.005475 0.001762 0.001406 -0.004819 0.023696 -0.004864
# 6 -0.004906 0.001079 -0.000783 0.008278 -0.004864 0.076744
#
#
# Mechanical properties :
#
#
# Convention : Reuss Voigt Hill
#
# Bulk Modulus (GPa) = 35.47747 53.14327 44.31037
# Shear Modulus (GPa) = 28.94729 42.68066 35.81398
#
# Velocity S-wave (km/s) = 3.45623 4.19676 3.84437
# Velocity P-wave (km/s) = 5.52881 6.73900 6.16368
#
# Compressibility (1/GPa) = 0.02818691
#
# Stress axis : x y z
#
# Youngs Moduli (GPa) = 71.34937 146.64800 109.48184
#
# Poissons Ratio (x) = -0.08537 -0.00762
# Poissons Ratio (y) = -0.04154 0.16888
# Poissons Ratio (z) = -0.00497 0.22622
#
# Static dielectric constant tensor:
#      x y z
#    x 3.363690 -1.598900 0.543420 
#    y -1.598900 3.814990 -0.724760 
#    z 0.543420 -0.724760 2.233450 
# 
# From -- ./inp_files/360678.got.cif
#   From: 2010.05.17/outbox.cif.g08.bks.cpg/sg2_181_cif.got.tgz:360678.got - 2010.06.03 11:33:40.
