data_PCOD9047377
_publ_section_title
;
Structure prediction by ZEFSAII (Michael W. Deem and Ramdas Pophale) SiO2 
 PCOD9047377
Probable space group: P -1
;
_chemical_formula_sum "Si O2"
_cell_formula_units_Z 14
_cell_length_a 19.403495
_cell_length_b 5.051228
_cell_length_c 9.834775
_cell_angle_alpha 66.351598
_cell_angle_beta 130.457524
_cell_angle_gamma 117.116492
_cell_volume 644.868808
_symmetry_space_group_name_H-M "P -1"
_symmetry_group_IT_number 2
_symmetry_cell_setting 'triclinic'
loop_
_space_group_symop_operation_xyz
x,y,z
-x,-y,-z
loop_
_atom_site_type_symbol
_atom_site_label
_atom_site_fract_x
_atom_site_fract_y
_atom_site_fract_z
Si Si1 0.140181 0.977197 0.169186
Si Si2 0.746761 0.468263 0.616582
Si Si3 0.985015 0.734464 0.232964
Si Si4 0.763130 0.492805 0.304956
Si Si5 0.115185 0.867737 0.619488
Si Si6 0.547734 0.357530 0.973889
Si Si7 0.470834 0.646296 0.564340
O O1 0.189181 0.243834 0.281368
O O2 0.214785 0.815815 0.239912
O O3 0.060534 0.746728 0.206265
O O4 0.088343 0.107056 0.957804
O O5 0.753844 0.477387 0.459900
O O6 0.640065 0.441921 0.526269
O O7 0.039620 0.899465 0.402533
O O8 0.934621 0.398359 0.287178
O O9 0.809644 0.251958 0.347736
O O10 0.832811 0.824839 0.302769
O O11 0.659518 0.436470 0.122458
O O12 0.522902 0.515967 0.775932
O O13 0.500000 0.500000 0.000000
O O14 0.500000 0.000000 0.000000
O O15 0.500000 0.500000 0.500000
O O16 0.500000 0.000000 0.500000
#
# Coordination Sequence:
#
# PCOD9047377 Si02
#       7
#     2   2   2   2   2   2   2
#     4  11  25  42  70  99 137 188 229 283 345 423
#     4  12  24  45  71  98 140 180 235 281 356 419
#     4  10  24  44  66 102 140 182 235 283 351 407
#     4  12  24  44  71 101 136 181 240 280 350 414
#     4  11  25  42  68  99 141 181 228 297 339 404
#     4  12  26  46  77 104 138 187 242 291 350 442
#     4  12  28  48  73 107 146 182 232 304 368 420
#
# _framework density 21.709841000000001
#
# number of rings (size 3 to 8) (size 9 to 14) (size 15 to 20)
#    0.000    0.571    4.286    2.571    2.000   11.429 
#    0.000    0.000    0.000    0.000    0.000    0.000 
#    0.000    0.000    0.000    0.000    0.000    0.000 
#
# Total GULP energy -78413.658865 kJ/mol
# GULP energy per Si atom -5600.975633 kJ/mol
# Density = 2.166043 g / cm^3
# Si number density = 21.709841 Si / 1000 Ang^3
#
#
#
# Elastic Constant Matrix: (Units=GPa)
#
#
# Indices 1 2 3 4 5 6 
#
# 1 101.8428 26.6580 72.0903 -3.1463 11.5089 -17.6880
# 2 26.6580 109.4189 68.5331 -7.3477 6.0543 -7.2231
# 3 72.0903 68.5331 195.6073 -18.7402 24.2400 13.5509
# 4 -3.1463 -7.3477 -18.7402 27.7536 7.3570 0.2450
# 5 11.5089 6.0543 24.2400 7.3570 43.0380 -3.5145
# 6 -17.6880 -7.2231 13.5509 0.2450 -3.5145 44.8899
#
#
#
# Elastic Compliance Matrix: (Units=1/GPa)
#
#
# Indices 1 2 3 4 5 6 
#
# 1 0.016031 0.000962 -0.007270 -0.003160 0.000927 0.008756
# 2 0.000962 0.012289 -0.005152 -0.000504 0.001330 0.004018
# 3 -0.007270 -0.005152 0.011514 0.007156 -0.005664 -0.007652
# 4 -0.003160 -0.000504 0.007156 0.043299 -0.010890 -0.004575
# 5 0.000927 0.001330 -0.005664 -0.010890 0.028224 0.004558
# 6 0.008756 0.004018 -0.007652 -0.004575 0.004558 0.029065
#
#
# Mechanical properties :
#
#
# Convention : Reuss Voigt Hill
#
# Bulk Modulus (GPa) = 59.11513 82.38132 70.74822
# Shear Modulus (GPa) = 29.58933 39.10879 34.34906
#
# Velocity S-wave (km/s) = 3.69581 4.24893 3.98199
# Velocity P-wave (km/s) = 6.74543 7.88036 7.33488
#
# Compressibility (1/GPa) = 0.01691614
#
# Stress axis : x y z
#
# Youngs Moduli (GPa) = 62.37767 81.37104 86.85126
#
# Poissons Ratio (x) = -0.07827 0.63137
# Poissons Ratio (y) = -0.06000 0.44743
# Poissons Ratio (z) = 0.45345 0.41920
#
# Static dielectric constant tensor:
#      x y z
#    x 1.769000 0.018270 0.007180 
#    y 0.018270 1.770280 0.007850 
#    z 0.007180 0.007850 1.756290 
# 
# From -- ./inp_files/321663.got.cif
#   From: 2010.05.17/outbox.cif.g08.bks.cpg/sg2_161_cif.got.tgz:321663.got - 2010.06.03 11:33:40.
