data_PCOD9047335
_publ_section_title
;
Structure prediction by ZEFSAII (Michael W. Deem and Ramdas Pophale) SiO2 
 PCOD9047335
Probable space group: P -1
;
_chemical_formula_sum "Si O2"
_cell_formula_units_Z 16
_cell_length_a 21.744517
_cell_length_b 11.747037
_cell_length_c 9.925342
_cell_angle_alpha 70.295739
_cell_angle_beta 38.244005
_cell_angle_gamma 39.329149
_cell_volume 720.772388
_symmetry_space_group_name_H-M "P -1"
_symmetry_group_IT_number 2
_symmetry_cell_setting 'triclinic'
loop_
_space_group_symop_operation_xyz
x,y,z
-x,-y,-z
loop_
_atom_site_type_symbol
_atom_site_label
_atom_site_fract_x
_atom_site_fract_y
_atom_site_fract_z
Si Si1 0.994635 0.386029 0.146806
Si Si2 0.511850 0.734061 0.280034
Si Si3 0.848032 0.232315 0.008987
Si Si4 0.924564 0.884127 0.118918
Si Si5 0.393549 0.231997 0.147998
Si Si6 0.552367 0.085108 0.389426
Si Si7 0.487830 0.317517 0.161632
Si Si8 0.168121 0.850276 0.384034
O O1 0.803410 0.587404 0.494684
O O2 0.002102 0.266598 0.077504
O O3 0.000000 0.500000 0.000000
O O4 0.206036 0.157632 0.953809
O O5 0.490112 0.832081 0.416364
O O6 0.281269 0.960601 0.536267
O O7 0.631979 0.485712 0.211626
O O8 0.646683 0.649748 0.965221
O O9 0.901046 0.279664 0.006868
O O10 0.034599 0.038784 0.662287
O O11 0.854271 0.093299 0.116765
O O12 0.531137 0.169255 0.033912
O O13 0.500000 0.000000 0.000000
O O14 0.451644 0.281558 0.375523
O O15 0.500000 0.000000 0.500000
O O16 0.299918 0.595518 0.312428
O O17 0.668806 0.221451 0.910860
O O18 0.000000 0.000000 0.500000
#
# Coordination Sequence:
#
# PCOD9047335 Si02
#       8
#     2   2   2   2   2   2   2   2
#     4  11  25  46  77 101 144 197 243 299 371 442
#     4  11  25  43  68 102 147 178 235 297 363 422
#     4  11  24  39  72 100 143 180 242 286 358 428
#     4  10  24  44  65 105 139 190 232 291 355 432
#     4  12  25  48  73 106 147 189 245 314 363 437
#     4  11  26  47  72 107 144 196 247 303 370 451
#     4  11  26  46  75 105 153 193 247 304 377 445
#     4  11  26  45  73 110 148 198 247 308 374 448
#
# _framework density 22.198409999999999
#
# number of rings (size 3 to 8) (size 9 to 14) (size 15 to 20)
#    0.000    1.000    0.000    5.625   14.000    1.000 
#    0.000    1.250    0.000    0.000    0.000    0.000 
#    0.000    0.000    0.000    0.000    0.000    0.000 
#
# Total GULP energy -89490.171929 kJ/mol
# GULP energy per Si atom -5593.135746 kJ/mol
# Density = 2.214789 g / cm^3
# Si number density = 22.198410 Si / 1000 Ang^3
#
#
#
# Elastic Constant Matrix: (Units=GPa)
#
#
# Indices 1 2 3 4 5 6 
#
# 1 135.7468 49.7169 58.4531 -1.5101 -2.3980 7.8539
# 2 49.7169 89.0163 46.0636 -8.0886 -14.5793 -8.3747
# 3 58.4531 46.0636 148.2988 -3.3465 5.0655 -0.0560
# 4 -1.5101 -8.0886 -3.3465 43.2998 -4.7206 1.3851
# 5 -2.3980 -14.5793 5.0655 -4.7206 36.7648 3.0045
# 6 7.8539 -8.3747 -0.0560 1.3851 3.0045 34.7912
#
#
#
# Elastic Compliance Matrix: (Units=1/GPa)
#
#
# Indices 1 2 3 4 5 6 
#
# 1 0.010505 -0.005069 -0.002557 -0.000752 -0.000783 -0.003498
# 2 -0.005069 0.017984 -0.003759 0.003548 0.007391 0.004688
# 3 -0.002557 -0.003759 0.009010 -0.000415 -0.002949 -0.000042
# 4 -0.000752 0.003548 -0.000415 0.024206 0.004551 -0.000334
# 5 -0.000783 0.007391 -0.002949 0.004551 0.031146 -0.000920
# 6 -0.003498 0.004688 -0.000042 -0.000334 -0.000920 0.030754
#
#
# Mechanical properties :
#
#
# Convention : Reuss Voigt Hill
#
# Bulk Modulus (GPa) = 67.89760 75.72546 71.81153
# Shear Modulus (GPa) = 33.05028 37.55971 35.30499
#
# Velocity S-wave (km/s) = 3.86276 4.11786 3.99234
# Velocity P-wave (km/s) = 7.10969 7.53631 7.32611
#
# Compressibility (1/GPa) = 0.01472806
#
# Stress axis : x y z
#
# Youngs Moduli (GPa) = 95.19517 55.60422 110.98785
#
# Poissons Ratio (x) = 0.28188 0.28384
# Poissons Ratio (y) = 0.48258 0.41716
# Poissons Ratio (z) = 0.24346 0.20900
#
# Static dielectric constant tensor:
#      x y z
#    x 1.831530 -0.004780 -0.021540 
#    y -0.004780 1.862650 -0.011820 
#    z -0.021540 -0.011820 1.821780 
# 
# From -- ./inp_files/346074.got.cif
#   From: 2010.05.17/outbox.cif.g08.bks.cpg/sg2_174_cif.got.tgz:346074.got - 2010.06.03 11:33:40.
