data_PCOD9047580
_publ_section_title
;
Structure prediction by ZEFSAII (Michael W. Deem and Ramdas Pophale) SiO2 
 PCOD9047580
Probable space group: P -1
;
_chemical_formula_sum "Si O2"
_cell_formula_units_Z 13
_cell_length_a 8.254083
_cell_length_b 15.625548
_cell_length_c 9.332117
_cell_angle_alpha 133.387227
_cell_angle_beta 97.785511
_cell_angle_gamma 47.688284
_cell_volume 513.355588
_symmetry_space_group_name_H-M "P -1"
_symmetry_group_IT_number 2
_symmetry_cell_setting 'triclinic'
loop_
_space_group_symop_operation_xyz
x,y,z
-x,-y,-z
loop_
_atom_site_type_symbol
_atom_site_label
_atom_site_fract_x
_atom_site_fract_y
_atom_site_fract_z
Si Si1 0.751341 0.434723 0.897211
Si Si2 0.173543 0.052950 0.325712
Si Si3 0.652561 0.547705 0.439398
Si Si4 0.436233 0.677213 0.869078
Si Si5 0.318595 0.316428 0.636447
Si Si6 0.500000 0.000000 0.500000
Si Si7 0.192708 0.204366 0.253735
O O1 0.654469 0.557621 0.885065
O O2 0.000609 0.208023 0.615839
O O3 0.500000 0.500000 0.000000
O O4 0.842789 0.484715 0.072909
O O5 0.084425 0.155466 0.278394
O O6 0.463674 0.944399 0.279057
O O7 0.189502 0.904432 0.149043
O O8 0.535625 0.659302 0.704818
O O9 0.610325 0.434275 0.278860
O O10 0.504707 0.703226 0.472674
O O11 0.983519 0.361047 0.283698
O O12 0.183995 0.311581 0.495362
O O13 0.452738 0.152008 0.577749
O O14 0.500000 0.000000 0.000000
#
# Coordination Sequence:
#
# PCOD9047580 Si02
#       7
#     2   2   2   2   2   1   2
#     4  12  25  47  73 107 145 192 239 300 370 425
#     4  11  25  45  72 104 146 192 240 298 358 435
#     4  11  24  46  73 107 145 195 238 303 360 431
#     4  11  24  47  74 104 150 188 242 302 362 426
#     4  11  24  44  73 104 146 186 245 297 358 432
#     4  10  24  44  68 106 138 188 232 298 358 420
#     4  11  25  44  71 108 145 193 241 294 363 431
#
# _framework density 25.323578000000001
#
# number of rings (size 3 to 8) (size 9 to 14) (size 15 to 20)
#    0.000    0.923    4.615    1.385    0.000    8.615 
#    0.000    0.000    0.000    0.000    0.000    0.000 
#    0.000    0.000    0.000    0.000    0.000    0.000 
#
# Total GULP energy -72382.337890 kJ/mol
# GULP energy per Si atom -5567.872145 kJ/mol
# Density = 2.526594 g / cm^3
# Si number density = 25.323578 Si / 1000 Ang^3
#
#
#
# Elastic Constant Matrix: (Units=GPa)
#
#
# Indices 1 2 3 4 5 6 
#
# 1 50.8462 16.3249 54.0863 6.0012 11.4010 12.6039
# 2 16.3249 130.3088 40.7089 -9.7950 3.6027 24.9853
# 3 54.0863 40.7089 163.7635 -2.1861 11.7770 5.4501
# 4 6.0012 -9.7950 -2.1861 35.8347 1.9586 7.6199
# 5 11.4010 3.6027 11.7770 1.9586 30.6546 -0.9489
# 6 12.6039 24.9853 5.4501 7.6199 -0.9489 48.3012
#
#
#
# Elastic Compliance Matrix: (Units=1/GPa)
#
#
# Indices 1 2 3 4 5 6 
#
# 1 0.035795 0.000381 -0.011065 -0.004418 -0.009065 -0.007770
# 2 0.000381 0.009665 -0.002240 0.003642 -0.000818 -0.005437
# 3 -0.011065 -0.002240 0.010212 0.001264 0.000458 0.002703
# 4 -0.004418 0.003642 0.001264 0.031029 -0.001433 -0.005797
# 5 -0.009065 -0.000818 0.000458 -0.001433 0.036118 0.003672
# 6 -0.007770 -0.005437 0.002703 -0.005797 0.003672 0.026225
#
#
# Mechanical properties :
#
#
# Convention : Reuss Voigt Hill
#
# Bulk Modulus (GPa) = 33.53104 63.01764 48.27434
# Shear Modulus (GPa) = 27.05125 38.54466 32.79796
#
# Velocity S-wave (km/s) = 3.27192 3.90562 3.60273
# Velocity P-wave (km/s) = 5.24821 6.72886 6.03412
#
# Compressibility (1/GPa) = 0.02982311
#
# Stress axis : x y z
#
# Youngs Moduli (GPa) = 27.93658 103.46646 97.92718
#
# Poissons Ratio (x) = -0.03940 1.08360
# Poissons Ratio (y) = -0.01064 0.21935
# Poissons Ratio (z) = 0.30913 0.23176
#
# Static dielectric constant tensor:
#      x y z
#    x 2.122070 0.041600 -0.045610 
#    y 0.041600 1.967780 -0.015760 
#    z -0.045610 -0.015760 1.999770 
# 
# From -- ./inp_files/75648.got.cif
#   From: 2010.05.17/outbox.cif.g08.bks.cpg/sg2_38_cif.got.tgz:75648.got - 2010.06.03 11:33:40.
