data_PCOD9047315
_publ_section_title
;
Structure prediction by ZEFSAII (Michael W. Deem and Ramdas Pophale) SiO2 
 PCOD9047315
Probable space group: P -1
;
_chemical_formula_sum "Si O2"
_cell_formula_units_Z 13
_cell_length_a 15.897496
_cell_length_b 8.761776
_cell_length_c 11.985584
_cell_angle_alpha 82.364485
_cell_angle_beta 25.777077
_cell_angle_gamma 68.390142
_cell_volume 587.774954
_symmetry_space_group_name_H-M "P -1"
_symmetry_group_IT_number 2
_symmetry_cell_setting 'triclinic'
loop_
_space_group_symop_operation_xyz
x,y,z
-x,-y,-z
loop_
_atom_site_type_symbol
_atom_site_label
_atom_site_fract_x
_atom_site_fract_y
_atom_site_fract_z
Si Si1 0.556483 0.969920 0.194665
Si Si2 0.992321 0.026852 0.371960
Si Si3 0.500000 0.000000 0.000000
Si Si4 0.522950 0.644944 0.031843
Si Si5 0.752355 0.375250 0.969930
Si Si6 0.702445 0.623162 0.455759
Si Si7 0.231360 0.392928 0.885078
O O1 0.592734 0.805974 0.245323
O O2 0.352021 0.176965 0.461668
O O3 0.534646 0.935608 0.094991
O O4 0.796511 0.960647 0.916725
O O5 0.742260 0.209592 0.617968
O O6 0.000000 0.000000 0.500000
O O7 0.032071 0.838230 0.293453
O O8 0.440374 0.210319 0.089445
O O9 0.724531 0.515650 0.893681
O O10 0.500000 0.500000 0.000000
O O11 0.512741 0.384488 0.246339
O O12 0.763464 0.451072 0.067757
O O13 0.707798 0.614382 0.316040
O O14 0.960131 0.458078 0.208027
#
# Coordination Sequence:
#
# PCOD9047315 Si02
#       7
#     2   2   1   2   2   2   2
#     4  11  23  42  62  93 132 170 214 277 327 391
#     4  11  22  40  60  90 131 175 216 262 328 397
#     4  12  24  38  66  98 132 170 226 262 322 420
#     4  12  23  43  62  93 138 176 214 273 327 395
#     4  11  23  41  66  93 131 173 217 274 334 390
#     4  10  24  44  64  96 129 165 226 282 321 397
#     4  11  23  42  69  93 124 175 222 270 342 388
#
# _framework density 22.117308999999999
#
# number of rings (size 3 to 8) (size 9 to 14) (size 15 to 20)
#    0.000    0.923    4.615    2.769    2.154    0.000 
#    0.000    3.077    0.000   10.154    0.000    0.000 
#    0.000    0.000    0.000    0.000    0.000    0.000 
#
# Total GULP energy -72468.583332 kJ/mol
# GULP energy per Si atom -5574.506410 kJ/mol
# Density = 2.206697 g / cm^3
# Si number density = 22.117309 Si / 1000 Ang^3
#
#
#
# Elastic Constant Matrix: (Units=GPa)
#
#
# Indices 1 2 3 4 5 6 
#
# 1 108.9961 25.8699 3.4753 27.9432 16.8291 9.2524
# 2 25.8699 114.5932 26.0071 29.0090 8.4756 10.6739
# 3 3.4753 26.0071 46.3910 23.6737 -0.5304 -2.8820
# 4 27.9432 29.0090 23.6737 33.4350 12.2707 -2.3863
# 5 16.8291 8.4756 -0.5304 12.2707 29.0281 10.0879
# 6 9.2524 10.6739 -2.8820 -2.3863 10.0879 32.1739
#
#
#
# Elastic Compliance Matrix: (Units=1/GPa)
#
#
# Indices 1 2 3 4 5 6 
#
# 1 0.013712 0.000032 0.007814 -0.017942 0.001528 -0.005064
# 2 0.000032 0.012210 -0.001479 -0.011181 0.003211 -0.006028
# 3 0.007814 -0.001479 0.043326 -0.042574 0.016890 -0.006329
# 4 -0.017942 -0.011181 -0.042574 0.100469 -0.038077 0.024446
# 5 0.001528 0.003211 0.016890 -0.038077 0.056124 -0.020413
# 6 -0.005064 -0.006028 -0.006329 0.024446 -0.020413 0.042184
#
#
# Mechanical properties :
#
#
# Convention : Reuss Voigt Hill
#
# Bulk Modulus (GPa) = 12.19813 42.29831 27.24822
# Shear Modulus (GPa) = 17.69180 33.23593 25.46386
#
# Velocity S-wave (km/s) = 2.83133 3.88069 3.39678
# Velocity P-wave (km/s) = 4.02688 6.26464 5.26600
#
# Compressibility (1/GPa) = 0.08197980
#
# Stress axis : x y z
#
# Youngs Moduli (GPa) = 72.93123 81.90293 23.08105
#
# Poissons Ratio (x) = -0.00260 -0.18035
# Poissons Ratio (y) = -0.00231 0.03414
# Poissons Ratio (z) = -0.56987 0.12113
#
# Static dielectric constant tensor:
#      x y z
#    x 1.766510 0.051530 -0.027990 
#    y 0.051530 1.838750 -0.025290 
#    z -0.027990 -0.025290 1.836790 
# 
# From -- ./inp_files/105806.got.cif
#   From: 2010.05.17/outbox.cif.g08.bks.cpg/sg2_53_cif.got.tgz:105806.got - 2010.06.03 11:33:40.
