data_PCOD9047221
_publ_section_title
;
Structure prediction by ZEFSAII (Michael W. Deem and Ramdas Pophale) SiO2 
 PCOD9047221
Probable space group: P -1
;
_chemical_formula_sum "Si O2"
_cell_formula_units_Z 14
_cell_length_a 8.551404
_cell_length_b 8.183479
_cell_length_c 11.586353
_cell_angle_alpha 67.546233
_cell_angle_beta 56.092811
_cell_angle_gamma 91.513899
_cell_volume 590.823599
_symmetry_space_group_name_H-M "P -1"
_symmetry_group_IT_number 2
_symmetry_cell_setting 'triclinic'
loop_
_space_group_symop_operation_xyz
x,y,z
-x,-y,-z
loop_
_atom_site_type_symbol
_atom_site_label
_atom_site_fract_x
_atom_site_fract_y
_atom_site_fract_z
Si Si1 0.542818 0.964949 0.622795
Si Si2 0.319370 0.188835 0.073224
Si Si3 0.004564 0.789261 0.622878
Si Si4 0.149072 0.384910 0.496887
Si Si5 0.316414 0.925928 0.937181
Si Si6 0.066857 0.403358 0.781292
Si Si7 0.572642 0.477342 0.220648
O O1 0.769930 0.083002 0.516644
O O2 0.402810 0.024372 0.755523
O O3 0.483501 0.742060 0.720828
O O4 0.500000 0.000000 0.500000
O O5 0.379401 0.400510 0.947219
O O6 0.270196 0.063061 0.012415
O O7 0.136283 0.150517 0.245807
O O8 0.505688 0.142667 0.065724
O O9 0.908056 0.764039 0.542195
O O10 0.013012 0.589197 0.719528
O O11 0.375976 0.504628 0.350588
O O12 0.000000 0.500000 0.500000
O O13 0.120739 0.326489 0.657348
O O14 0.122122 0.751302 0.047196
O O15 0.246102 0.459640 0.782194
#
# Coordination Sequence:
#
# PCOD9047221 Si02
#       7
#     2   2   2   2   2   2   2
#     4  12  28  48  77 112 149 191 246 308 369 438
#     4  11  27  49  75 110 148 195 249 303 366 440
#     4  11  25  48  77 106 150 195 247 302 368 437
#     4  10  24  43  74 109 144 192 247 300 360 435
#     4  11  28  48  75 108 150 194 247 305 366 438
#     4  11  25  46  75 108 150 194 243 306 368 436
#     4  12  26  46  77 106 153 192 247 297 376 431
#
# _framework density 23.695736
#
# number of rings (size 3 to 8) (size 9 to 14) (size 15 to 20)
#    0.000    0.857    1.429    3.857   12.000    5.714 
#    0.000    0.000    0.000    0.000    0.000    0.000 
#    0.000    0.000    0.000    0.000    0.000    0.000 
#
# Total GULP energy -78460.603625 kJ/mol
# GULP energy per Si atom -5604.328830 kJ/mol
# Density = 2.364180 g / cm^3
# Si number density = 23.695736 Si / 1000 Ang^3
#
#
#
# Elastic Constant Matrix: (Units=GPa)
#
#
# Indices 1 2 3 4 5 6 
#
# 1 100.4298 29.7366 42.9333 15.2219 -22.0911 30.9518
# 2 29.7366 104.8470 62.4689 10.5848 -5.5578 15.4857
# 3 42.9333 62.4689 184.7840 22.9309 -22.6523 20.4766
# 4 15.2219 10.5848 22.9309 51.2620 2.9046 5.2531
# 5 -22.0911 -5.5578 -22.6523 2.9046 52.7961 -7.0073
# 6 30.9518 15.4857 20.4766 5.2531 -7.0073 30.5485
#
#
#
# Elastic Compliance Matrix: (Units=1/GPa)
#
#
# Indices 1 2 3 4 5 6 
#
# 1 0.016535 -0.001612 -0.000807 -0.003073 0.004743 -0.013779
# 2 -0.001612 0.012527 -0.003727 -0.000113 -0.001280 -0.002493
# 3 -0.000807 -0.003727 0.007618 -0.002394 0.002482 -0.001418
# 4 -0.003073 -0.000113 -0.002394 0.021686 -0.003485 0.000246
# 5 0.004743 -0.001280 0.002482 -0.003485 0.022025 -0.000169
# 6 -0.013779 -0.002493 -0.001418 0.000246 -0.000169 0.048829
#
#
# Mechanical properties :
#
#
# Convention : Reuss Voigt Hill
#
# Bulk Modulus (GPa) = 41.00465 73.37096 57.18781
# Shear Modulus (GPa) = 33.41317 43.91614 38.66466
#
# Velocity S-wave (km/s) = 3.75919 4.30971 4.04383
# Velocity P-wave (km/s) = 6.01534 7.46966 6.78159
#
# Compressibility (1/GPa) = 0.02438748
#
# Stress axis : x y z
#
# Youngs Moduli (GPa) = 60.47717 79.82564 131.27343
#
# Poissons Ratio (x) = 0.12868 0.10597
# Poissons Ratio (y) = 0.09749 0.48927
# Poissons Ratio (z) = 0.04882 0.29752
#
# Static dielectric constant tensor:
#      x y z
#    x 1.860180 -0.008120 0.015670 
#    y -0.008120 1.985340 0.023340 
#    z 0.015670 0.023340 1.870950 
# 
# From -- ./inp_files/381211.got.cif
#   From: 2010.05.17/outbox.cif.g08.bks.cpg/sg2_191_cif.got.tgz:381211.got - 2010.06.03 11:33:40.
