data_PCOD9047648
_publ_section_title
;
Structure prediction by ZEFSAII (Michael W. Deem and Ramdas Pophale) SiO2 
 PCOD9047648
Probable space group: P -1
;
_chemical_formula_sum "Si O2"
_cell_formula_units_Z 16
_cell_length_a 10.357052
_cell_length_b 13.077352
_cell_length_c 6.436328
_cell_angle_alpha 78.686726
_cell_angle_beta 68.800081
_cell_angle_gamma 117.905227
_cell_volume 643.747245
_symmetry_space_group_name_H-M "P -1"
_symmetry_group_IT_number 2
_symmetry_cell_setting 'triclinic'
loop_
_space_group_symop_operation_xyz
x,y,z
-x,-y,-z
loop_
_atom_site_type_symbol
_atom_site_label
_atom_site_fract_x
_atom_site_fract_y
_atom_site_fract_z
Si Si1 0.735305 0.060622 0.794398
Si Si2 0.902464 0.211096 0.031584
Si Si3 0.052670 0.490912 0.716571
Si Si4 0.400233 0.228842 0.081553
Si Si5 0.906338 0.763676 0.720473
Si Si6 0.548264 0.332920 0.533858
Si Si7 0.370611 0.521852 0.960253
Si Si8 0.405198 0.867207 0.487975
O O1 0.777590 0.094973 0.995874
O O2 0.629010 0.108370 0.735846
O O3 0.924985 0.149279 0.547919
O O4 0.646392 0.912160 0.848567
O O5 0.006790 0.347966 0.802788
O O6 0.780487 0.215850 0.264241
O O7 0.027437 0.193108 0.098918
O O8 0.255040 0.600607 0.545750
O O9 0.000000 0.500000 0.500000
O O10 0.000000 0.500000 0.000000
O O11 0.424018 0.289827 0.815477
O O12 0.238413 0.218979 0.273271
O O13 0.582010 0.342870 0.032411
O O14 0.815642 0.608783 0.839447
O O15 0.568744 0.437843 0.326359
O O16 0.497900 0.198478 0.521008
O O17 0.500000 0.500000 0.000000
O O18 0.500000 0.000000 0.500000
#
# Coordination Sequence:
#
# PCOD9047648 Si02
#       8
#     2   2   2   2   2   2   2   2
#     4  11  25  44  70 101 137 193 242 305 378 455
#     4  11  24  42  69  98 142 184 243 301 375 445
#     4  12  27  45  72 109 153 196 252 312 385 459
#     4  11  26  44  69 102 141 191 244 310 379 450
#     4  10  24  45  69 100 138 187 250 308 374 448
#     4  12  25  41  71 103 144 185 245 303 384 449
#     4  10  24  44  68  99 140 184 245 307 375 441
#     4  11  24  43  66  99 140 180 237 303 373 455
#
# _framework density 24.854475999999998
#
# number of rings (size 3 to 8) (size 9 to 14) (size 15 to 20)
#    0.000    1.000    2.500    2.625    5.250    9.500 
#    0.000    0.000    0.000    0.000    0.000    0.000 
#    0.000    0.000    0.000    0.000    0.000    0.000 
#
# Total GULP energy -89273.631604 kJ/mol
# GULP energy per Si atom -5579.601975 kJ/mol
# Density = 2.479791 g / cm^3
# Si number density = 24.854476 Si / 1000 Ang^3
#
#
#
# Elastic Constant Matrix: (Units=GPa)
#
#
# Indices 1 2 3 4 5 6 
#
# 1 54.0048 7.9259 26.8388 4.1377 8.7726 4.9546
# 2 7.9259 148.1330 23.7438 -13.6144 1.7123 5.1259
# 3 26.8388 23.7438 128.5618 -14.6723 2.8095 0.6283
# 4 4.1377 -13.6144 -14.6723 42.5530 7.4402 6.8857
# 5 8.7726 1.7123 2.8095 7.4402 42.9894 -0.8220
# 6 4.9546 5.1259 0.6283 6.8857 -0.8220 31.6936
#
#
#
# Elastic Compliance Matrix: (Units=1/GPa)
#
#
# Indices 1 2 3 4 5 6 
#
# 1 0.022020 -0.000545 -0.004727 -0.002852 -0.003722 -0.002737
# 2 -0.000545 0.007210 -0.000924 0.002398 -0.000561 -0.001598
# 3 -0.004727 -0.000924 0.009331 0.003424 -0.000202 -0.000046
# 4 -0.002852 0.002398 0.003424 0.027521 -0.004617 -0.006109
# 5 -0.003722 -0.000561 -0.000202 -0.004617 0.024900 0.002325
# 6 -0.002737 -0.001598 -0.000046 -0.006109 0.002325 0.033627
#
#
# Mechanical properties :
#
#
# Convention : Reuss Voigt Hill
#
# Bulk Modulus (GPa) = 38.21249 49.74629 43.97939
# Shear Modulus (GPa) = 34.31119 41.59328 37.95224
#
# Velocity S-wave (km/s) = 3.71952 4.09525 3.91190
# Velocity P-wave (km/s) = 5.81844 6.51305 6.17552
#
# Compressibility (1/GPa) = 0.02616945
#
# Stress axis : x y z
#
# Youngs Moduli (GPa) = 45.41276 138.69358 107.16632
#
# Poissons Ratio (x) = 0.07557 0.50659
# Poissons Ratio (y) = 0.02474 0.09904
# Poissons Ratio (z) = 0.21467 0.12817
#
# Static dielectric constant tensor:
#      x y z
#    x 1.972670 0.013820 0.015530 
#    y 0.013820 2.055010 0.067730 
#    z 0.015530 0.067730 2.087140 
# 
# From -- ./inp_files/77602.got.cif
#   From: 2010.05.17/outbox.cif.g08.bks.cpg/sg2_39_cif.got.tgz:77602.got - 2010.06.03 11:33:40.
