data_PCOD9047467
_publ_section_title
;
Structure prediction by ZEFSAII (Michael W. Deem and Ramdas Pophale) SiO2 
 PCOD9047467
Probable space group: P -1
;
_chemical_formula_sum "Si O2"
_cell_formula_units_Z 12
_cell_length_a 14.193148
_cell_length_b 5.158150
_cell_length_c 12.980678
_cell_angle_alpha 110.742856
_cell_angle_beta 30.700128
_cell_angle_gamma 108.393588
_cell_volume 453.610897
_symmetry_space_group_name_H-M "P -1"
_symmetry_group_IT_number 2
_symmetry_cell_setting 'triclinic'
loop_
_space_group_symop_operation_xyz
x,y,z
-x,-y,-z
loop_
_atom_site_type_symbol
_atom_site_label
_atom_site_fract_x
_atom_site_fract_y
_atom_site_fract_z
Si Si1 0.116178 0.725411 0.855807
Si Si2 0.367389 0.545083 0.932719
Si Si3 0.169003 0.231109 0.611422
Si Si4 0.260034 0.328295 0.309359
Si Si5 0.442610 0.917240 0.715766
Si Si6 0.950844 0.747795 0.698316
O O1 0.139043 0.553403 0.705317
O O2 0.313395 0.799090 0.730624
O O3 0.000000 0.500000 0.000000
O O4 0.000000 0.000000 0.000000
O O5 0.521041 0.622204 0.885110
O O6 0.381277 0.761841 0.857330
O O7 0.421713 0.245331 0.793783
O O8 0.170656 0.484218 0.160488
O O9 0.217444 0.192506 0.440667
O O10 0.342355 0.149891 0.506682
O O11 0.000945 0.016725 0.756497
O O12 0.176523 0.170653 0.267669
O O13 0.139661 0.607203 0.464491
#
# Coordination Sequence:
#
# PCOD9047467 Si02
#       6
#     2   2   2   2   2   2
#     4  12  28  45  74 108 139 185 245 295 363 433
#     4  11  24  45  72 106 147 192 236 295 354 425
#     4  11  25  46  71 102 148 193 236 302 359 425
#     4  10  24  44  67 107 144 191 244 289 359 423
#     4  11  25  47  71 106 145 188 241 292 361 432
#     4  11  23  43  72 103 145 194 238 296 352 428
#
# _framework density 26.454388999999999
#
# number of rings (size 3 to 8) (size 9 to 14) (size 15 to 20)
#    0.000    1.000    1.667    3.500    9.333    0.000 
#    0.000    6.667    0.000    0.000    0.000    0.000 
#    0.000    0.000    0.000    0.000    0.000    0.000 
#
# Total GULP energy -67357.682802 kJ/mol
# GULP energy per Si atom -5613.140234 kJ/mol
# Density = 2.639418 g / cm^3
# Si number density = 26.454389 Si / 1000 Ang^3
#
#
#
# Elastic Constant Matrix: (Units=GPa)
#
#
# Indices 1 2 3 4 5 6 
#
# 1 150.8729 56.2928 46.2807 -18.7035 -38.1221 36.2121
# 2 56.2928 143.5492 45.6312 5.4350 -23.3954 14.4501
# 3 46.2807 45.6312 90.8337 -6.2929 -30.7444 15.1970
# 4 -18.7035 5.4350 -6.2929 39.3799 4.7349 -5.3672
# 5 -38.1221 -23.3954 -30.7444 4.7349 53.1271 -14.6774
# 6 36.2121 14.4501 15.1970 -5.3672 -14.6774 46.1022
#
#
#
# Elastic Compliance Matrix: (Units=1/GPa)
#
#
# Indices 1 2 3 4 5 6 
#
# 1 0.010963 -0.002736 -0.001728 0.004104 0.003775 -0.005504
# 2 -0.002736 0.009291 -0.003341 -0.003159 0.000513 0.000134
# 3 -0.001728 -0.003341 0.015862 0.001339 0.006153 -0.000709
# 4 0.004104 -0.003159 0.001339 0.028075 -0.000011 0.000590
# 5 0.003775 0.000513 0.006153 -0.000011 0.026199 0.003185
# 6 -0.005504 0.000134 -0.000709 0.000590 0.003185 0.027289
#
#
# Mechanical properties :
#
#
# Convention : Reuss Voigt Hill
#
# Bulk Modulus (GPa) = 48.76711 75.74056 62.25384
# Shear Modulus (GPa) = 35.68280 43.52526 39.60403
#
# Velocity S-wave (km/s) = 3.67664 4.06062 3.87339
# Velocity P-wave (km/s) = 6.04136 7.11882 6.60211
#
# Compressibility (1/GPa) = 0.02050562
#
# Stress axis : x y z
#
# Youngs Moduli (GPa) = 91.21797 107.63233 63.04392
#
# Poissons Ratio (x) = 0.29445 0.10896
# Poissons Ratio (y) = 0.24954 0.21063
# Poissons Ratio (z) = 0.15766 0.35959
#
# Static dielectric constant tensor:
#      x y z
#    x 2.100580 -0.006960 0.050220 
#    y -0.006960 2.019810 0.003060 
#    z 0.050220 0.003060 2.122260 
# 
# From -- ./inp_files/103695.got.cif
#   From: 2010.05.17/outbox.cif.g08.bks.cpg/sg2_52_cif.got.tgz:103695.got - 2010.06.03 11:33:40.
