data_PCOD9047057
_publ_section_title
;
Structure prediction by ZEFSAII (Michael W. Deem and Ramdas Pophale) SiO2 
 PCOD9047057
Probable space group: P -1
;
_chemical_formula_sum "Si O2"
_cell_formula_units_Z 14
_cell_length_a 11.613223
_cell_length_b 19.097510
_cell_length_c 5.289093
_cell_angle_alpha 124.492457
_cell_angle_beta 54.865064
_cell_angle_gamma 142.440657
_cell_volume 570.341002
_symmetry_space_group_name_H-M "P -1"
_symmetry_group_IT_number 2
_symmetry_cell_setting 'triclinic'
loop_
_space_group_symop_operation_xyz
x,y,z
-x,-y,-z
loop_
_atom_site_type_symbol
_atom_site_label
_atom_site_fract_x
_atom_site_fract_y
_atom_site_fract_z
Si Si1 0.527147 0.269010 0.568688
Si Si2 0.323323 0.361527 0.914196
Si Si3 0.195094 0.028161 0.764340
Si Si4 0.794521 0.154117 0.848971
Si Si5 0.394963 0.016874 0.867593
Si Si6 0.767034 0.409653 0.052294
Si Si7 0.166721 0.368416 0.618946
O O1 0.350418 0.131332 0.583571
O O2 0.650594 0.323785 0.264452
O O3 0.404149 0.304924 0.775331
O O4 0.680653 0.334329 0.746020
O O5 0.174753 0.331419 0.256130
O O6 0.500000 0.500000 0.000000
O O7 0.253314 0.343014 0.675965
O O8 0.312517 0.067298 0.956669
O O9 0.161177 0.915557 0.499318
O O10 0.000000 0.000000 0.000000
O O11 0.579343 0.104461 0.996843
O O12 0.947525 0.285654 0.830016
O O13 0.782558 0.111190 0.055873
O O14 0.500000 0.000000 0.500000
O O15 0.733037 0.497622 0.245755
O O16 0.000000 0.500000 0.000000
#
# Coordination Sequence:
#
# PCOD9047057 Si02
#       7
#     2   2   2   2   2   2   2
#     4  12  27  46  73 100 148 185 230 297 355 418
#     4  12  23  46  68 103 135 181 230 283 351 415
#     4  11  26  45  68 105 143 187 233 297 359 428
#     4  10  24  43  71 102 131 191 232 298 344 427
#     4   9  22  45  66  96 136 180 243 280 357 408
#     4  12  27  47  69 108 139 191 234 289 354 423
#     4  12  25  43  76 100 140 178 240 288 347 428
#
# _framework density 24.546716
#
# number of rings (size 3 to 8) (size 9 to 14) (size 15 to 20)
#    0.000    0.857    2.857    2.571   10.000    2.857 
#    0.000    0.000    0.000    0.000    0.000    0.000 
#    0.000    0.000    0.000    0.000    0.000    0.000 
#
# Total GULP energy -78207.251751 kJ/mol
# GULP energy per Si atom -5586.232268 kJ/mol
# Density = 2.449085 g / cm^3
# Si number density = 24.546716 Si / 1000 Ang^3
#
#
#
# Elastic Constant Matrix: (Units=GPa)
#
#
# Indices 1 2 3 4 5 6 
#
# 1 138.8362 36.7155 48.1190 -17.1274 2.1514 -3.4296
# 2 36.7155 146.9177 40.9255 -38.4744 10.4368 -9.5600
# 3 48.1190 40.9255 106.8747 -37.3944 6.2368 -3.8357
# 4 -17.1274 -38.4744 -37.3944 43.5394 -8.7141 2.4885
# 5 2.1514 10.4368 6.2368 -8.7141 50.1037 -8.3552
# 6 -3.4296 -9.5600 -3.8357 2.4885 -8.3552 37.8418
#
#
#
# Elastic Compliance Matrix: (Units=1/GPa)
#
#
# Indices 1 2 3 4 5 6 
#
# 1 0.008755 -0.001405 -0.003757 -0.000986 0.000242 0.000176
# 2 -0.001405 0.009261 -0.000316 0.007205 -0.000303 0.001639
# 3 -0.003757 -0.000316 0.015105 0.011267 0.000382 0.000454
# 4 -0.000986 0.007205 0.011267 0.039393 0.004192 0.001208
# 5 0.000242 -0.000303 0.000382 0.004192 0.021433 0.004441
# 6 0.000176 0.001639 0.000454 0.001208 0.004441 0.027803
#
#
# Mechanical properties :
#
#
# Convention : Reuss Voigt Hill
#
# Bulk Modulus (GPa) = 45.11538 71.57208 58.34373
# Shear Modulus (GPa) = 35.68992 44.08822 39.88907
#
# Velocity S-wave (km/s) = 3.81722 4.24263 4.03554
# Velocity P-wave (km/s) = 6.15203 7.29525 6.74790
#
# Compressibility (1/GPa) = 0.02216539
#
# Stress axis : x y z
#
# Youngs Moduli (GPa) = 114.21565 107.98230 66.20206
#
# Poissons Ratio (x) = 0.15177 0.24869
# Poissons Ratio (y) = 0.16053 0.02092
# Poissons Ratio (z) = 0.42905 0.03412
#
# Static dielectric constant tensor:
#      x y z
#    x 1.668550 0.487430 0.104660 
#    y 0.487430 1.630800 0.068020 
#    z 0.104660 0.068020 2.003080 
# 
# From -- ./inp_files/81562.got.cif
#   From: 2010.05.17/outbox.cif.g08.bks.cpg/sg2_41_cif.got.tgz:81562.got - 2010.06.03 11:33:40.
