data_PCOD9047894
_publ_section_title
;
Structure prediction by ZEFSAII (Michael W. Deem and Ramdas Pophale) SiO2 
 PCOD9047894
Probable space group: P -1
;
_chemical_formula_sum "Si O2"
_cell_formula_units_Z 16
_cell_length_a 11.328207
_cell_length_b 11.965652
_cell_length_c 5.245927
_cell_angle_alpha 111.814281
_cell_angle_beta 103.849579
_cell_angle_gamma 90.280800
_cell_volume 637.487575
_symmetry_space_group_name_H-M "P -1"
_symmetry_group_IT_number 2
_symmetry_cell_setting 'triclinic'
loop_
_space_group_symop_operation_xyz
x,y,z
-x,-y,-z
loop_
_atom_site_type_symbol
_atom_site_label
_atom_site_fract_x
_atom_site_fract_y
_atom_site_fract_z
Si Si1 0.969315 0.799908 0.912721
Si Si2 0.764349 0.145616 0.758219
Si Si3 0.188283 0.072550 0.727231
Si Si4 0.390677 0.020454 0.152090
Si Si5 0.280508 0.236410 0.535954
Si Si6 0.069963 0.470802 0.259361
Si Si7 0.377283 0.516836 0.796562
Si Si8 0.304443 0.632191 0.376708
O O1 0.864413 0.804523 0.645008
O O2 0.921866 0.669443 0.883762
O O3 0.935480 0.897100 0.184195
O O4 0.116473 0.800605 0.967566
O O5 0.634173 0.094611 0.771100
O O6 0.731439 0.234181 0.588004
O O7 0.810971 0.022675 0.576000
O O8 0.272046 0.195736 0.792273
O O9 0.264931 0.010589 0.924532
O O10 0.378031 0.151550 0.390503
O O11 0.500000 0.000000 0.000000
O O12 0.314639 0.377686 0.614256
O O13 0.194001 0.554738 0.392987
O O14 0.000000 0.500000 0.500000
O O15 0.000000 0.500000 0.000000
O O16 0.401582 0.598393 0.617521
O O17 0.500000 0.500000 0.000000
O O18 0.310596 0.583710 0.047075
#
# Coordination Sequence:
#
# PCOD9047894 Si02
#       8
#     2   2   2   2   2   2   2   2
#     4  11  23  42  72 107 154 195 251 311 383 458
#     4  11  26  44  73 113 152 196 256 318 385 455
#     4  10  24  44  71 104 146 200 256 313 382 452
#     4  10  25  48  74 103 147 201 260 319 378 449
#     4  10  24  45  74 107 144 201 257 311 386 459
#     4  12  25  43  73 110 155 205 244 305 387 460
#     4  12  28  51  78 112 154 201 261 319 383 454
#     4  12  27  49  75 116 154 200 254 316 389 456
#
# _framework density 25.098526
#
# number of rings (size 3 to 8) (size 9 to 14) (size 15 to 20)
#    0.000    1.000    2.500    2.250    5.250    9.500 
#    0.000    0.000    0.000    0.000    0.000    0.000 
#    0.000    0.000    0.000    0.000    0.000    0.000 
#
# Total GULP energy -89165.828417 kJ/mol
# GULP energy per Si atom -5572.864276 kJ/mol
# Density = 2.504140 g / cm^3
# Si number density = 25.098526 Si / 1000 Ang^3
#
#
#
# Elastic Constant Matrix: (Units=GPa)
#
#
# Indices 1 2 3 4 5 6 
#
# 1 90.1950 19.5234 17.7264 4.1784 -13.4936 -9.8396
# 2 19.5234 166.6255 28.4257 -6.7573 8.5245 -10.5300
# 3 17.7264 28.4257 80.8662 -3.4794 -8.5665 -7.0088
# 4 4.1784 -6.7573 -3.4794 32.3509 -6.5778 2.9037
# 5 -13.4936 8.5245 -8.5665 -6.5778 31.9598 -2.3257
# 6 -9.8396 -10.5300 -7.0088 2.9037 -2.3257 29.3795
#
#
#
# Elastic Compliance Matrix: (Units=1/GPa)
#
#
# Indices 1 2 3 4 5 6 
#
# 1 0.012999 -0.001344 -0.001505 -0.001378 0.005457 0.004081
# 2 -0.001344 0.006785 -0.002253 0.000684 -0.002756 0.001159
# 3 -0.001505 -0.002253 0.014224 0.001935 0.004339 0.002234
# 4 -0.001378 0.000684 0.001935 0.032957 0.006355 -0.002509
# 5 0.005457 -0.002756 0.004339 0.006355 0.037104 0.004184
# 6 0.004081 0.001159 0.002234 -0.002509 0.004184 0.036932
#
#
# Mechanical properties :
#
#
# Convention : Reuss Voigt Hill
#
# Bulk Modulus (GPa) = 42.00481 52.11530 47.06005
# Shear Modulus (GPa) = 31.41914 36.87212 34.14563
#
# Velocity S-wave (km/s) = 3.54196 3.83704 3.69245
# Velocity P-wave (km/s) = 5.78789 6.35923 6.08027
#
# Compressibility (1/GPa) = 0.02380680
#
# Stress axis : x y z
#
# Youngs Moduli (GPa) = 76.92874 147.38081 70.30192
#
# Poissons Ratio (x) = 0.19801 0.10579
# Poissons Ratio (y) = 0.10336 0.15836
# Poissons Ratio (z) = 0.11576 0.33199
#
# Static dielectric constant tensor:
#      x y z
#    x 1.938450 -0.078000 0.211380 
#    y -0.078000 2.022470 0.070880 
#    z 0.211380 0.070880 2.129360 
# 
# From -- ./inp_files/72010.got.cif
#   From: 2010.05.17/outbox.cif.g08.bks.cpg/sg2_37_cif.got.tgz:72010.got - 2010.06.03 11:33:40.
