data_PCOD9047262
_publ_section_title
;
Structure prediction by ZEFSAII (Michael W. Deem and Ramdas Pophale) SiO2 
 PCOD9047262
Probable space group: P -1
;
_chemical_formula_sum "Si O2"
_cell_formula_units_Z 12
_cell_length_a 6.967884
_cell_length_b 13.785425
_cell_length_c 8.567766
_cell_angle_alpha 36.226538
_cell_angle_beta 75.004985
_cell_angle_gamma 92.052765
_cell_volume 424.514513
_symmetry_space_group_name_H-M "P -1"
_symmetry_group_IT_number 2
_symmetry_cell_setting 'triclinic'
loop_
_space_group_symop_operation_xyz
x,y,z
-x,-y,-z
loop_
_atom_site_type_symbol
_atom_site_label
_atom_site_fract_x
_atom_site_fract_y
_atom_site_fract_z
Si Si1 0.389558 0.934862 0.829836
Si Si2 0.513333 0.274172 0.174173
Si Si3 0.688155 0.656175 0.361965
Si Si4 0.046503 0.693845 0.468856
Si Si5 0.103254 0.980958 0.337534
Si Si6 0.678732 0.454235 0.216922
O O1 0.355501 0.780463 0.910371
O O2 0.843557 0.832535 0.006985
O O3 0.243638 0.844487 0.127902
O O4 0.652330 0.012497 0.700304
O O5 0.358899 0.091339 0.537100
O O6 0.671779 0.403528 0.104568
O O7 0.375273 0.371902 0.998331
O O8 0.500000 0.500000 0.500000
O O9 0.537811 0.703077 0.454387
O O10 0.847870 0.606804 0.501432
O O11 0.128949 0.553868 0.711186
O O12 0.997507 0.805798 0.473147
O O13 0.000000 0.000000 0.500000
#
# Coordination Sequence:
#
# PCOD9047262 Si02
#       6
#     2   2   2   2   2   2
#     4  11  23  48  85 123 167 226 288 341 428 512
#     4  10  24  43  82 116 172 215 272 358 406 506
#     4  12  29  53  79 124 174 224 284 356 431 510
#     4  12  27  51  90 122 166 233 286 347 436 514
#     4  12  27  50  87 131 167 220 295 354 422 515
#     4  11  24  51  76 121 172 218 276 349 431 496
#
# _framework density 28.267586000000001
#
# number of rings (size 3 to 8) (size 9 to 14) (size 15 to 20)
#    0.000    0.667    3.333    3.000    7.000    0.667 
#    0.000    5.000    0.000    0.000    0.000    0.000 
#    0.000    0.000    0.000    0.000    0.000    0.000 
#
# Total GULP energy -67338.396536 kJ/mol
# GULP energy per Si atom -5611.533045 kJ/mol
# Density = 2.820325 g / cm^3
# Si number density = 28.267586 Si / 1000 Ang^3
#
#
#
# Elastic Constant Matrix: (Units=GPa)
#
#
# Indices 1 2 3 4 5 6 
#
# 1 208.2893 67.6249 90.9970 2.0741 43.2834 9.7891
# 2 67.6249 159.1268 66.8030 14.1623 10.9385 1.7888
# 3 90.9970 66.8030 186.1480 10.8237 26.3503 -6.9065
# 4 2.0741 14.1623 10.8237 59.7523 -9.9860 -10.2707
# 5 43.2834 10.9385 26.3503 -9.9860 75.7598 10.0633
# 6 9.7891 1.7888 -6.9065 -10.2707 10.0633 58.9236
#
#
#
# Elastic Compliance Matrix: (Units=1/GPa)
#
#
# Indices 1 2 3 4 5 6 
#
# 1 0.007079 -0.001771 -0.002461 -0.000010 -0.002810 -0.000933
# 2 -0.001771 0.007982 -0.001991 -0.001487 0.000424 -0.000513
# 3 -0.002461 -0.001991 0.007562 -0.000772 -0.001228 0.001431
# 4 -0.000010 -0.001487 -0.000772 0.018111 0.002520 0.002683
# 5 -0.002810 0.000424 -0.001228 0.002520 0.015761 -0.001943
# 6 -0.000933 -0.000513 0.001431 0.002683 -0.001943 0.018109
#
#
# Mechanical properties :
#
#
# Convention : Reuss Voigt Hill
#
# Bulk Modulus (GPa) = 98.27259 111.60154 104.93707
# Shear Modulus (GPa) = 55.28411 60.76308 58.02359
#
# Velocity S-wave (km/s) = 4.42718 4.64137 4.53554
# Velocity P-wave (km/s) = 7.80857 8.26373 8.03937
#
# Compressibility (1/GPa) = 0.01017578
#
# Stress axis : x y z
#
# Youngs Moduli (GPa) = 141.26134 125.28583 132.24414
#
# Poissons Ratio (x) = 0.22183 0.32550
# Poissons Ratio (y) = 0.25011 0.26336
# Poissons Ratio (z) = 0.34770 0.24950
#
# Static dielectric constant tensor:
#      x y z
#    x 2.267080 0.017550 -0.055640 
#    y 0.017550 2.220110 -0.036210 
#    z -0.055640 -0.036210 2.267550 
# 
# From -- ./inp_files/35876.got.cif
#   From: 2010.05.17/outbox.cif.g08.bks.cpg/sg2_18_cif.got.tgz:35876.got - 2010.06.03 11:33:40.
