data_PCOD9047086
_publ_section_title
;
Structure prediction by ZEFSAII (Michael W. Deem and Ramdas Pophale) SiO2 
 PCOD9047086
Probable space group: P -1
;
_chemical_formula_sum "Si O2"
_cell_formula_units_Z 15
_cell_length_a 5.047674
_cell_length_b 23.924842
_cell_length_c 15.555005
_cell_angle_alpha 160.500368
_cell_angle_beta 112.128874
_cell_angle_gamma 68.773835
_cell_volume 580.707754
_symmetry_space_group_name_H-M "P -1"
_symmetry_group_IT_number 2
_symmetry_cell_setting 'triclinic'
loop_
_space_group_symop_operation_xyz
x,y,z
-x,-y,-z
loop_
_atom_site_type_symbol
_atom_site_label
_atom_site_fract_x
_atom_site_fract_y
_atom_site_fract_z
Si Si1 0.931469 0.575469 0.008363
Si Si2 0.520101 0.226584 0.663404
Si Si3 0.899792 0.233083 0.085286
Si Si4 0.727676 0.311971 0.464434
Si Si5 0.500000 0.000000 0.000000
Si Si6 0.562936 0.907676 0.286216
Si Si7 0.683809 0.601945 0.753053
Si Si8 0.210006 0.065309 0.234619
O O1 0.239492 0.635487 0.102907
O O2 0.709333 0.724592 0.220768
O O3 0.000000 0.500000 0.000000
O O4 0.787313 0.438907 0.732899
O O5 0.350845 0.193516 0.505549
O O6 0.682951 0.051628 0.448450
O O7 0.652217 0.375180 0.275590
O O8 0.158958 0.318318 0.193141
O O9 0.751461 0.126964 0.838383
O O10 0.900731 0.098107 0.966142
O O11 0.437523 0.211104 0.288836
O O12 0.764035 0.422458 0.543868
O O13 0.933535 0.148314 0.273112
O O14 0.439140 0.013864 0.116851
O O15 0.500000 0.000000 0.500000
O O16 0.725843 0.733742 0.030705
#
# Coordination Sequence:
#
# PCOD9047086 Si02
#       8
#     2   2   2   2   1   2   2   2
#     4  12  25  41  70 112 150 195 239 308 370 445
#     4  11  25  42  72 110 150 196 239 296 375 449
#     4   9  24  44  71 103 146 193 242 300 378 439
#     4  12  28  47  78 108 155 191 265 311 380 440
#     4  12  30  52  78 108 144 206 256 326 378 444
#     4   9  21  37  65 102 150 195 230 287 364 451
#     4  10  24  43  71 108 148 193 242 318 360 447
#     4  11  26  49  80 106 150 202 258 306 377 466
#
# _framework density 25.830552000000001
#
# number of rings (size 3 to 8) (size 9 to 14) (size 15 to 20)
#    0.800    0.533    1.333    2.400   11.200    0.533 
#    0.000    1.333    0.000    0.000    0.000    0.000 
#    0.000    0.000    0.000    0.000    0.000    0.000 
#
# Total GULP energy -83572.708851 kJ/mol
# GULP energy per Si atom -5571.513923 kJ/mol
# Density = 2.577176 g / cm^3
# Si number density = 25.830552 Si / 1000 Ang^3
#
#
#
# Elastic Constant Matrix: (Units=GPa)
#
#
# Indices 1 2 3 4 5 6 
#
# 1 85.4875 32.8611 21.4964 -2.4565 -14.8764 20.4805
# 2 32.8611 125.6011 69.3482 27.9526 -12.1043 19.0896
# 3 21.4964 69.3482 158.1296 -3.7203 13.4062 0.4087
# 4 -2.4565 27.9526 -3.7203 68.3631 -3.3959 -2.2603
# 5 -14.8764 -12.1043 13.4062 -3.3959 32.6427 8.0729
# 6 20.4805 19.0896 0.4087 -2.2603 8.0729 30.7067
#
#
#
# Elastic Compliance Matrix: (Units=1/GPa)
#
#
# Indices 1 2 3 4 5 6 
#
# 1 0.019293 0.001938 -0.004783 -0.000169 0.015964 -0.018218
# 2 0.001938 0.018976 -0.010050 -0.008046 0.015573 -0.017642
# 3 -0.004783 -0.010050 0.012630 0.004371 -0.013915 0.013250
# 4 -0.000169 -0.008046 0.004371 0.018162 -0.004864 0.007672
# 5 0.015964 0.015573 -0.013915 -0.004864 0.057716 -0.035675
# 6 -0.018218 -0.017642 0.013250 0.007672 -0.035675 0.065453
#
#
# Mechanical properties :
#
#
# Convention : Reuss Voigt Hill
#
# Bulk Modulus (GPa) = 39.82450 68.51440 54.16945
# Shear Modulus (GPa) = 22.08594 42.70999 32.39797
#
# Velocity S-wave (km/s) = 2.92726 4.07070 3.54538
# Velocity P-wave (km/s) = 5.18423 6.97684 6.14624
#
# Compressibility (1/GPa) = 0.02511017
#
# Stress axis : x y z
#
# Youngs Moduli (GPa) = 51.83214 52.69773 79.17847
#
# Poissons Ratio (x) = -0.10213 0.37871
# Poissons Ratio (y) = -0.10046 0.79570
# Poissons Ratio (z) = 0.24791 0.52959
#
# Static dielectric constant tensor:
#      x y z
#    x 1.544230 0.026250 -0.243060 
#    y 0.026250 2.091630 0.050350 
#    z -0.243060 0.050350 1.974440 
# 
# From -- ./inp_files/485867.got.cif
#   From: 2010.05.17/outbox.cif.g08.bks.cpg/sg2_243_cif.got.tgz:485867.got - 2010.06.03 11:33:40.
