data_PCOD9047745
_publ_section_title
;
Structure prediction by ZEFSAII (Michael W. Deem and Ramdas Pophale) SiO2 
 PCOD9047745
Probable space group: P -1
;
_chemical_formula_sum "Si O2"
_cell_formula_units_Z 12
_cell_length_a 12.737645
_cell_length_b 9.110028
_cell_length_c 9.891978
_cell_angle_alpha 97.783512
_cell_angle_beta 37.859213
_cell_angle_gamma 118.011755
_cell_volume 560.198074
_symmetry_space_group_name_H-M "P -1"
_symmetry_group_IT_number 2
_symmetry_cell_setting 'triclinic'
loop_
_space_group_symop_operation_xyz
x,y,z
-x,-y,-z
loop_
_atom_site_type_symbol
_atom_site_label
_atom_site_fract_x
_atom_site_fract_y
_atom_site_fract_z
Si Si1 0.167284 0.814273 0.712827
Si Si2 0.413141 0.808261 0.707376
Si Si3 0.336976 0.437946 0.780451
Si Si4 0.632660 0.664071 0.990274
Si Si5 0.329284 0.973105 0.062630
Si Si6 0.955458 0.311873 0.471777
O O1 0.271111 0.759081 0.711764
O O2 0.177759 0.752987 0.541508
O O3 0.336094 0.038798 0.564294
O O4 0.920191 0.721564 0.993612
O O5 0.361076 0.626090 0.808569
O O6 0.351737 0.904093 0.888427
O O7 0.500000 0.500000 0.500000
O O8 0.435459 0.387710 0.792314
O O9 0.500000 0.500000 0.000000
O O10 0.651200 0.842035 0.949702
O O11 0.851492 0.687997 0.773624
O O12 0.120346 0.815259 0.334607
O O13 0.500000 0.000000 0.000000
O O14 0.000000 0.500000 0.500000
#
# Coordination Sequence:
#
# PCOD9047745 Si02
#       6
#     2   2   2   2   2   2
#     4  10  24  44  70 101 137 176 238 278 353 413
#     4  11  24  44  72  99 139 183 231 287 354 416
#     4  11  26  45  68  99 141 179 234 289 350 413
#     4  11  26  43  64 101 137 178 234 284 344 414
#     4  12  23  43  69  98 135 180 229 284 349 408
#     4  11  23  44  72 100 139 180 227 287 348 416
#
# _framework density 21.420995999999999
#
# number of rings (size 3 to 8) (size 9 to 14) (size 15 to 20)
#    0.000    1.000    1.667    5.000    4.667    2.000 
#    3.000    0.000    0.000    0.000    0.000    0.000 
#    0.000    0.000    0.000    0.000    0.000    0.000 
#
# Total GULP energy -66951.923693 kJ/mol
# GULP energy per Si atom -5579.326974 kJ/mol
# Density = 2.137224 g / cm^3
# Si number density = 21.420996 Si / 1000 Ang^3
#
#
#
# Elastic Constant Matrix: (Units=GPa)
#
#
# Indices 1 2 3 4 5 6 
#
# 1 142.3903 77.8278 35.0134 -6.9958 24.4414 -6.6044
# 2 77.8278 130.9165 27.6198 -0.6003 13.0717 -18.9916
# 3 35.0134 27.6198 110.5601 -7.2874 22.1117 10.9371
# 4 -6.9958 -0.6003 -7.2874 36.0835 -3.5529 4.0584
# 5 24.4414 13.0717 22.1117 -3.5529 32.8796 -9.2935
# 6 -6.6044 -18.9916 10.9371 4.0584 -9.2935 38.9897
#
#
#
# Elastic Compliance Matrix: (Units=1/GPa)
#
#
# Indices 1 2 3 4 5 6 
#
# 1 0.011873 -0.006745 -0.000362 0.001802 -0.006531 -0.002917
# 2 -0.006745 0.012834 -0.002548 -0.002049 0.003334 0.006832
# 3 -0.000362 -0.002548 0.012423 0.002329 -0.008838 -0.007136
# 4 0.001802 -0.002049 0.002329 0.028975 -0.000207 -0.004411
# 5 -0.006531 0.003334 -0.008838 -0.000207 0.043659 0.013425
# 6 -0.002917 0.006832 -0.007136 -0.004411 0.013425 0.034142
#
#
# Mechanical properties :
#
#
# Convention : Reuss Voigt Hill
#
# Bulk Modulus (GPa) = 56.11209 73.86543 64.98876
# Shear Modulus (GPa) = 29.55871 37.81763 33.68817
#
# Velocity S-wave (km/s) = 3.71872 4.20628 3.96999
# Velocity P-wave (km/s) = 6.68508 7.62548 7.17071
#
# Compressibility (1/GPa) = 0.01782147
#
# Stress axis : x y z
#
# Youngs Moduli (GPa) = 84.22783 77.91621 80.49623
#
# Poissons Ratio (x) = 0.52551 0.02910
# Poissons Ratio (y) = 0.56808 0.20511
# Poissons Ratio (z) = 0.03045 0.19853
#
# Static dielectric constant tensor:
#      x y z
#    x 3.061450 -0.308170 2.013650 
#    y -0.308170 1.814060 -0.435210 
#    z 2.013650 -0.435210 4.517120 
# 
# From -- ./inp_files/162677.got.cif
#   From: 2010.05.17/outbox.cif.g08.bks.cpg/sg2_82_cif.got.tgz:162677.got - 2010.06.03 11:33:40.
