data_PCOD9047948
_publ_section_title
;
Structure prediction by ZEFSAII (Michael W. Deem and Ramdas Pophale) SiO2 
 PCOD9047948
Probable space group: P -1
;
_chemical_formula_sum "Si O2"
_cell_formula_units_Z 14
_cell_length_a 6.949001
_cell_length_b 11.570890
_cell_length_c 15.236312
_cell_angle_alpha 45.103898
_cell_angle_beta 52.876687
_cell_angle_gamma 84.259614
_cell_volume 565.102730
_symmetry_space_group_name_H-M "P -1"
_symmetry_group_IT_number 2
_symmetry_cell_setting 'triclinic'
loop_
_space_group_symop_operation_xyz
x,y,z
-x,-y,-z
loop_
_atom_site_type_symbol
_atom_site_label
_atom_site_fract_x
_atom_site_fract_y
_atom_site_fract_z
Si Si1 0.759863 0.541339 0.315972
Si Si2 0.648116 0.854264 0.175971
Si Si3 0.789947 0.415522 0.688184
Si Si4 0.283758 0.832861 0.886793
Si Si5 0.158337 0.718913 0.797782
Si Si6 0.331665 0.256569 0.458008
Si Si7 0.130972 0.112147 0.310076
O O1 0.005011 0.575056 0.297650
O O2 0.603335 0.650163 0.327124
O O3 0.499374 0.324970 0.468179
O O4 0.972051 0.662681 0.107726
O O5 0.488085 0.798645 0.155345
O O6 0.567615 0.966245 0.204160
O O7 0.000000 0.000000 0.000000
O O8 0.685787 0.558244 0.662172
O O9 0.000000 0.500000 0.500000
O O10 0.226363 0.858247 0.788544
O O11 0.519070 0.777874 0.847665
O O12 0.459245 0.771219 0.645597
O O13 0.972652 0.747099 0.762531
O O14 0.000000 0.500000 0.000000
O O15 0.011352 0.058648 0.634589
O O16 0.000000 0.000000 0.500000
#
# Coordination Sequence:
#
# PCOD9047948 Si02
#       7
#     2   2   2   2   2   2   2
#     4  10  24  44  72 100 142 189 237 293 354 430
#     4   9  22  43  66 101 135 178 234 288 354 415
#     4  11  25  44  69 102 139 185 239 294 355 421
#     4  11  24  43  73 102 143 189 235 296 356 429
#     4  12  27  47  74 104 146 192 238 290 363 428
#     4  11  25  45  71 103 144 183 234 295 358 423
#     4  12  28  44  70 108 144 187 241 296 352 420
#
# _framework density 24.774253999999999
#
# number of rings (size 3 to 8) (size 9 to 14) (size 15 to 20)
#    0.000    1.143    2.857    1.286    4.000    8.571 
#    0.000    0.000    0.000    0.000    0.000    0.000 
#    0.000    0.000    0.000    0.000    0.000    0.000 
#
# Total GULP energy -78317.986461 kJ/mol
# GULP energy per Si atom -5594.141890 kJ/mol
# Density = 2.471787 g / cm^3
# Si number density = 24.774254 Si / 1000 Ang^3
#
#
#
# Elastic Constant Matrix: (Units=GPa)
#
#
# Indices 1 2 3 4 5 6 
#
# 1 193.4011 48.4127 27.0908 3.5965 -5.7994 2.7625
# 2 48.4127 113.9032 10.7394 -4.8296 4.2652 10.2440
# 3 27.0908 10.7394 50.3182 -4.9495 -7.8664 -3.4086
# 4 3.5965 -4.8296 -4.9495 46.8903 4.1371 -14.2109
# 5 -5.7994 4.2652 -7.8664 4.1371 42.5780 -3.0842
# 6 2.7625 10.2440 -3.4086 -14.2109 -3.0842 56.6260
#
#
#
# Elastic Compliance Matrix: (Units=1/GPa)
#
#
# Indices 1 2 3 4 5 6 
#
# 1 0.006225 -0.002423 -0.002868 -0.001178 0.000654 -0.000298
# 2 -0.002423 0.010172 -0.001184 0.000748 -0.001764 -0.001701
# 3 -0.002868 -0.001184 0.022744 0.002972 0.003835 0.002678
# 4 -0.001178 0.000748 0.002972 0.023757 -0.001562 0.005978
# 5 0.000654 -0.001764 0.003835 -0.001562 0.024719 0.001472
# 6 -0.000298 -0.001701 0.002678 0.005978 0.001472 0.019724
#
#
# Mechanical properties :
#
#
# Convention : Reuss Voigt Hill
#
# Bulk Modulus (GPa) = 38.18196 58.90093 48.54144
# Shear Modulus (GPa) = 38.75405 47.31083 43.03244
#
# Velocity S-wave (km/s) = 3.95940 4.37473 4.17223
# Velocity P-wave (km/s) = 6.02892 7.02455 6.54569
#
# Compressibility (1/GPa) = 0.02619038
#
# Stress axis : x y z
#
# Youngs Moduli (GPa) = 160.65316 98.31304 43.96853
#
# Poissons Ratio (x) = 0.23820 0.12610
# Poissons Ratio (y) = 0.38924 0.05205
# Poissons Ratio (z) = 0.46075 0.11638
#
# Static dielectric constant tensor:
#      x y z
#    x 1.953970 0.032360 0.039040 
#    y 0.032360 2.039000 -0.041210 
#    z 0.039040 -0.041210 2.016260 
# 
# From -- ./inp_files/28268.got.cif
#   From: 2010.05.17/outbox.cif.g08.bks.cpg/sg2_15_cif.got.tgz:28268.got - 2010.06.03 11:33:40.
