data_PCOD9047593
_publ_section_title
;
Structure prediction by ZEFSAII (Michael W. Deem and Ramdas Pophale) SiO2 
 PCOD9047593
Probable space group: P -1
;
_chemical_formula_sum "Si O2"
_cell_formula_units_Z 15
_cell_length_a 7.969349
_cell_length_b 11.708238
_cell_length_c 9.382505
_cell_angle_alpha 94.243411
_cell_angle_beta 47.686941
_cell_angle_gamma 105.174944
_cell_volume 618.362906
_symmetry_space_group_name_H-M "P -1"
_symmetry_group_IT_number 2
_symmetry_cell_setting 'triclinic'
loop_
_space_group_symop_operation_xyz
x,y,z
-x,-y,-z
loop_
_atom_site_type_symbol
_atom_site_label
_atom_site_fract_x
_atom_site_fract_y
_atom_site_fract_z
Si Si1 0.548914 0.527403 0.142014
Si Si2 0.000000 0.500000 0.500000
Si Si3 0.423994 0.120370 0.545318
Si Si4 0.851174 0.789508 0.065044
Si Si5 0.999887 0.246047 0.520453
Si Si6 0.729153 0.146547 0.936853
Si Si7 0.055135 0.050890 0.249561
Si Si8 0.478482 0.711936 0.730215
O O1 0.293635 0.529056 0.347171
O O2 0.741678 0.654398 0.064607
O O3 0.636042 0.421352 0.157470
O O4 0.500000 0.500000 0.000000
O O5 0.979317 0.360687 0.458666
O O6 0.359516 0.168472 0.735703
O O7 0.589258 0.226681 0.366440
O O8 0.500000 0.000000 0.500000
O O9 0.168222 0.065571 0.612269
O O10 0.056465 0.802259 0.066195
O O11 0.950159 0.880311 0.888470
O O12 0.017066 0.138910 0.400724
O O13 0.254766 0.289308 0.455314
O O14 0.798569 0.209519 0.751260
O O15 0.732157 0.009774 0.897908
O O16 0.529069 0.194975 0.130111
#
# Coordination Sequence:
#
# PCOD9047593 Si02
#       8
#     2   1   2   2   2   2   2   2
#     4  11  25  47  67 101 133 178 235 278 339 407
#     4  10  24  44  68  90 136 174 220 280 334 390
#     4  11  23  42  65 104 138 176 231 277 338 411
#     4  11  23  43  69  97 138 180 223 283 337 401
#     4  11  23  44  64 100 132 179 228 280 331 405
#     4  11  23  43  65  99 138 176 222 282 338 400
#     4  11  23  41  68  97 142 176 225 280 338 401
#     4  11  23  43  68  95 140 179 228 279 336 405
#
# _framework density 24.257603
#
# number of rings (size 3 to 8) (size 9 to 14) (size 15 to 20)
#    0.000    1.067    2.667    6.000    1.867    1.600 
#    2.400    0.000    0.000    0.000    0.000    0.000 
#    0.000    0.000    0.000    0.000    0.000    0.000 
#
# Total GULP energy -83528.765059 kJ/mol
# GULP energy per Si atom -5568.584337 kJ/mol
# Density = 2.420239 g / cm^3
# Si number density = 24.257603 Si / 1000 Ang^3
#
#
#
# Elastic Constant Matrix: (Units=GPa)
#
#
# Indices 1 2 3 4 5 6 
#
# 1 39.5063 23.8575 9.2259 0.9222 -1.3711 -10.2674
# 2 23.8575 154.0147 22.5188 -15.8108 10.0981 -14.0531
# 3 9.2259 22.5188 111.0515 0.1892 12.0382 -13.9294
# 4 0.9222 -15.8108 0.1892 29.1096 -7.1849 -4.8869
# 5 -1.3711 10.0981 12.0382 -7.1849 29.8396 13.6612
# 6 -10.2674 -14.0531 -13.9294 -4.8869 13.6612 29.1316
#
#
#
# Elastic Compliance Matrix: (Units=1/GPa)
#
#
# Indices 1 2 3 4 5 6 
#
# 1 0.030071 -0.003861 -0.000384 -0.001965 -0.001776 0.009056
# 2 -0.003861 0.008351 -0.000258 0.004502 -0.004235 0.005285
# 3 -0.000384 -0.000258 0.011182 -0.000850 -0.008799 0.009071
# 4 -0.001965 0.004502 -0.000850 0.039145 0.005930 0.004858
# 5 -0.001776 -0.004235 -0.008799 0.005930 0.054163 -0.031281
# 6 0.009056 0.005285 0.009071 0.004858 -0.031281 0.059889
#
#
# Mechanical properties :
#
#
# Convention : Reuss Voigt Hill
#
# Bulk Modulus (GPa) = 24.63147 46.19746 35.41447
# Shear Modulus (GPa) = 22.18868 34.21418 28.20143
#
# Velocity S-wave (km/s) = 3.02770 3.75967 3.41336
# Velocity P-wave (km/s) = 4.73273 6.15895 5.49234
#
# Compressibility (1/GPa) = 0.04059847
#
# Stress axis : x y z
#
# Youngs Moduli (GPa) = 33.25413 119.74885 89.42918
#
# Poissons Ratio (x) = 0.46237 0.03430
# Poissons Ratio (y) = 0.12840 0.02309
# Poissons Ratio (z) = 0.01275 0.03092
#
# Static dielectric constant tensor:
#      x y z
#    x 2.075870 -0.038500 -0.059060 
#    y -0.038500 1.913990 -0.001230 
#    z -0.059060 -0.001230 1.931500 
# 
# From -- ./inp_files/178625.got.cif
#   From: 2010.05.17/outbox.cif.g08.bks.cpg/sg2_90_cif.got.tgz:178625.got - 2010.06.03 11:33:40.
