data_PCOD9047880
_publ_section_title
;
Structure prediction by ZEFSAII (Michael W. Deem and Ramdas Pophale) SiO2 
 PCOD9047880
Probable space group: P -1
;
_chemical_formula_sum "Si O2"
_cell_formula_units_Z 16
_cell_length_a 13.665848
_cell_length_b 8.777392
_cell_length_c 9.298191
_cell_angle_alpha 130.094619
_cell_angle_beta 66.866240
_cell_angle_gamma 82.495227
_cell_volume 657.650548
_symmetry_space_group_name_H-M "P -1"
_symmetry_group_IT_number 2
_symmetry_cell_setting 'triclinic'
loop_
_space_group_symop_operation_xyz
x,y,z
-x,-y,-z
loop_
_atom_site_type_symbol
_atom_site_label
_atom_site_fract_x
_atom_site_fract_y
_atom_site_fract_z
Si Si1 0.445003 0.816127 0.616231
Si Si2 0.894125 0.803477 0.319201
Si Si3 0.737565 0.567690 0.241940
Si Si4 0.319909 0.331782 0.088312
Si Si5 0.303049 0.692732 0.136541
Si Si6 0.019820 0.654786 0.467068
Si Si7 0.942189 0.124654 0.957627
Si Si8 0.515261 0.641041 0.790264
O O1 0.587054 0.742576 0.449395
O O2 0.456259 0.738753 0.727794
O O3 0.418216 0.645977 0.434940
O O4 0.350695 0.098788 0.843891
O O5 0.807281 0.704484 0.270759
O O6 0.970889 0.675256 0.344396
O O7 0.977461 0.795219 0.132097
O O8 0.800897 0.077545 0.580749
O O9 0.760513 0.398453 0.991850
O O10 0.805064 0.368406 0.206932
O O11 0.378522 0.464478 0.055941
O O12 0.171442 0.522848 0.299168
O O13 0.390434 0.279496 0.168402
O O14 0.394921 0.741886 0.025313
O O15 0.000000 0.500000 0.500000
O O16 0.947027 0.921374 0.734016
O O17 0.000000 0.000000 0.000000
#
# Coordination Sequence:
#
# PCOD9047880 Si02
#       8
#     2   2   2   2   2   2   2   2
#     4  10  25  45  70 106 144 185 244 302 360 437
#     4  12  25  50  74 106 151 199 243 308 374 432
#     4  11  25  45  76 105 147 194 244 302 373 430
#     4  12  25  45  69 101 146 184 244 298 362 437
#     4  11  24  45  74 105 145 191 243 304 364 445
#     4  12  28  46  75 112 147 196 247 306 371 444
#     4  12  26  48  72 109 149 194 251 304 369 446
#     4  10  24  44  71 103 141 194 236 302 364 426
#
# _framework density 24.329028999999998
#
# number of rings (size 3 to 8) (size 9 to 14) (size 15 to 20)
#    0.000    0.750    2.500    3.750    5.250    5.000 
#    2.250    0.000    0.000    0.000    0.000    0.000 
#    0.000    0.000    0.000    0.000    0.000    0.000 
#
# Total GULP energy -89585.168972 kJ/mol
# GULP energy per Si atom -5599.073061 kJ/mol
# Density = 2.427366 g / cm^3
# Si number density = 24.329029 Si / 1000 Ang^3
#
#
#
# Elastic Constant Matrix: (Units=GPa)
#
#
# Indices 1 2 3 4 5 6 
#
# 1 95.5010 21.9655 15.6713 -1.5524 14.3457 8.2056
# 2 21.9655 102.4950 21.0815 -2.5059 -1.2031 5.2811
# 3 15.6713 21.0815 98.6287 14.8030 0.8791 6.3482
# 4 -1.5524 -2.5059 14.8030 45.0490 2.5131 4.0781
# 5 14.3457 -1.2031 0.8791 2.5131 20.1454 -4.4749
# 6 8.2056 5.2811 6.3482 4.0781 -4.4749 37.1095
#
#
#
# Elastic Compliance Matrix: (Units=1/GPa)
#
#
# Indices 1 2 3 4 5 6 
#
# 1 0.013209 -0.002407 -0.001509 0.001748 -0.010543 -0.003784
# 2 -0.002407 0.010779 -0.002077 0.001122 0.002196 -0.000505
# 3 -0.001509 -0.002077 0.011454 -0.003900 0.000758 -0.000810
# 4 0.001748 0.001122 -0.003900 0.024146 -0.004708 -0.003100
# 5 -0.010543 0.002196 0.000758 -0.004708 0.059973 0.009638
# 6 -0.003784 -0.000505 -0.000810 -0.003100 0.009638 0.029497
#
#
# Mechanical properties :
#
#
# Convention : Reuss Voigt Hill
#
# Bulk Modulus (GPa) = 42.63307 46.00680 44.31994
# Shear Modulus (GPa) = 29.60992 36.32123 32.96557
#
# Velocity S-wave (km/s) = 3.49243 3.86802 3.68501
# Velocity P-wave (km/s) = 5.81587 6.23699 6.03011
#
# Compressibility (1/GPa) = 0.02345597
#
# Stress axis : x y z
#
# Youngs Moduli (GPa) = 75.70314 92.77497 87.30905
#
# Poissons Ratio (x) = 0.22326 0.13178
# Poissons Ratio (y) = 0.18218 0.18135
# Poissons Ratio (z) = 0.11426 0.19270
#
# Static dielectric constant tensor:
#      x y z
#    x 1.993320 -0.091270 0.030690 
#    y -0.091270 2.093910 -0.053700 
#    z 0.030690 -0.053700 1.939490 
# 
# From -- ./inp_files/299620.got.cif
#   From: 2010.05.17/outbox.cif.g08.bks.cpg/sg2_150_cif.got.tgz:299620.got - 2010.06.03 11:33:40.
