data_PCOD9047132
_publ_section_title
;
Structure prediction by ZEFSAII (Michael W. Deem and Ramdas Pophale) SiO2 
 PCOD9047132
Probable space group: P -1
;
_chemical_formula_sum "Si O2"
_cell_formula_units_Z 12
_cell_length_a 11.451818
_cell_length_b 14.329692
_cell_length_c 14.320603
_cell_angle_alpha 152.368554
_cell_angle_beta 47.008127
_cell_angle_gamma 149.967343
_cell_volume 507.499322
_symmetry_space_group_name_H-M "P -1"
_symmetry_group_IT_number 2
_symmetry_cell_setting 'triclinic'
loop_
_space_group_symop_operation_xyz
x,y,z
-x,-y,-z
loop_
_atom_site_type_symbol
_atom_site_label
_atom_site_fract_x
_atom_site_fract_y
_atom_site_fract_z
Si Si1 0.639118 0.300251 0.626644
Si Si2 0.464264 0.965329 0.229661
Si Si3 0.105069 0.683329 0.830722
Si Si4 0.402539 0.434941 0.787260
Si Si5 0.987706 0.249464 0.655325
Si Si6 0.542815 0.659325 0.713720
O O1 0.514009 0.399124 0.774467
O O2 0.918139 0.588009 0.770523
O O3 0.500000 0.000000 0.500000
O O4 0.609469 0.187602 0.438305
O O5 0.206423 0.838131 0.244874
O O6 0.650381 0.167073 0.220583
O O7 0.408975 0.675562 0.020051
O O8 0.966464 0.376048 0.690554
O O9 0.217729 0.963123 0.085016
O O10 0.561545 0.560573 0.715043
O O11 0.127767 0.079306 0.598433
O O12 0.281316 0.523215 0.755429
O O13 0.500000 0.500000 0.500000
#
# Coordination Sequence:
#
# PCOD9047132 Si02
#       6
#     2   2   2   2   2   2
#     4  11  22  46  72 105 141 179 235 289 356 409
#     4  10  24  43  72 105 140 183 229 288 350 414
#     4  11  24  47  70 104 138 190 230 287 353 408
#     4  10  24  46  72 105 137 188 230 287 353 409
#     4  11  24  46  70 100 146 183 231 283 349 410
#     4  11  27  45  72 107 141 186 239 284 343 421
#
# _framework density 23.645351000000002
#
# number of rings (size 3 to 8) (size 9 to 14) (size 15 to 20)
#    0.000    1.333    3.333    1.500    7.000    6.000 
#    3.000    0.000    0.000    0.000    0.000    0.000 
#    0.000    0.000    0.000    0.000    0.000    0.000 
#
# Total GULP energy -67102.684794 kJ/mol
# GULP energy per Si atom -5591.890400 kJ/mol
# Density = 2.359153 g / cm^3
# Si number density = 23.645351 Si / 1000 Ang^3
#
#
#
# Elastic Constant Matrix: (Units=GPa)
#
#
# Indices 1 2 3 4 5 6 
#
# 1 92.7502 8.9940 20.2019 -3.5194 0.8770 15.1728
# 2 8.9940 74.9948 16.5537 -0.1888 2.1680 16.6667
# 3 20.2019 16.5537 146.2739 1.5664 6.7115 12.5315
# 4 -3.5194 -0.1888 1.5664 34.8875 -1.2728 -0.3290
# 5 0.8770 2.1680 6.7115 -1.2728 41.8494 8.8924
# 6 15.1728 16.6667 12.5315 -0.3290 8.8924 39.1094
#
#
#
# Elastic Compliance Matrix: (Units=1/GPa)
#
#
# Indices 1 2 3 4 5 6 
#
# 1 0.011823 -0.000203 -0.001298 0.001243 0.000919 -0.004283
# 2 -0.000203 0.014948 -0.001177 0.000082 0.000712 -0.006076
# 3 -0.001298 -0.001177 0.007291 -0.000507 -0.000854 -0.001141
# 4 0.001243 0.000082 -0.000507 0.028845 0.001000 -0.000340
# 5 0.000919 0.000712 -0.000854 0.001000 0.025310 -0.006132
# 6 -0.004283 -0.006076 -0.001141 -0.000340 -0.006132 0.031577
#
#
# Mechanical properties :
#
#
# Convention : Reuss Voigt Hill
#
# Bulk Modulus (GPa) = 34.83527 45.05757 39.94642
# Shear Modulus (GPa) = 37.11400 41.05389 39.08394
#
# Velocity S-wave (km/s) = 3.96613 4.17134 4.07003
# Velocity P-wave (km/s) = 5.97812 6.50361 6.24640
#
# Compressibility (1/GPa) = 0.02870654
#
# Stress axis : x y z
#
# Youngs Moduli (GPa) = 84.57910 66.89774 137.14845
#
# Poissons Ratio (x) = 0.01358 0.17809
# Poissons Ratio (y) = 0.01717 0.16138
# Poissons Ratio (z) = 0.10983 0.07872
#
# Static dielectric constant tensor:
#      x y z
#    x 1.975260 -0.003650 -0.004060 
#    y -0.003650 1.887980 -0.026490 
#    z -0.004060 -0.026490 1.927400 
# 
# From -- ./inp_files/258163.got.cif
#   From: 2010.05.17/outbox.cif.g08.bks.cpg/sg2_130_cif.got.tgz:258163.got - 2010.06.03 11:33:40.
