data_PCOD9047301
_publ_section_title
;
Structure prediction by ZEFSAII (Michael W. Deem and Ramdas Pophale) SiO2 
 PCOD9047301
Probable space group: P -1
;
_chemical_formula_sum "Si O2"
_cell_formula_units_Z 14
_cell_length_a 6.047756
_cell_length_b 14.079794
_cell_length_c 14.256950
_cell_angle_alpha 142.228005
_cell_angle_beta 114.340164
_cell_angle_gamma 56.541543
_cell_volume 619.708226
_symmetry_space_group_name_H-M "P -1"
_symmetry_group_IT_number 2
_symmetry_cell_setting 'triclinic'
loop_
_space_group_symop_operation_xyz
x,y,z
-x,-y,-z
loop_
_atom_site_type_symbol
_atom_site_label
_atom_site_fract_x
_atom_site_fract_y
_atom_site_fract_z
Si Si1 0.892962 0.876692 0.684644
Si Si2 0.279284 0.926020 0.929791
Si Si3 0.361327 0.738471 0.112773
Si Si4 0.101111 0.512454 0.923834
Si Si5 0.158638 0.345368 0.339949
Si Si6 0.798426 0.438716 0.637506
Si Si7 0.630416 0.384315 0.186092
O O1 0.757813 0.813363 0.698016
O O2 0.156148 0.889379 0.784278
O O3 0.003227 0.733554 0.511779
O O4 0.711187 0.064946 0.764421
O O5 0.435326 0.760971 0.889412
O O6 0.500000 0.000000 0.000000
O O7 0.000000 0.000000 0.000000
O O8 0.606483 0.641621 0.147747
O O9 0.116007 0.695645 0.068357
O O10 0.427748 0.632580 0.944220
O O11 0.949104 0.486054 0.786391
O O12 0.000000 0.500000 0.000000
O O13 0.309855 0.424072 0.359477
O O14 0.000000 0.500000 0.500000
O O15 0.938816 0.334327 0.220836
O O16 0.540134 0.444467 0.653525
#
# Coordination Sequence:
#
# PCOD9047301 Si02
#       7
#     2   2   2   2   2   2   2
#     4  10  24  44  64 105 140 173 231 284 356 413
#     4  11  25  41  67 106 145 185 231 288 350 427
#     4  11  23  43  67  97 129 174 237 292 344 418
#     4  11  24  43  71  92 126 180 237 286 350 420
#     4   9  21  40  62  95 140 173 214 270 349 421
#     4  11  23  43  67  99 135 182 226 286 351 424
#     4  11  22  37  67  94 131 178 226 278 344 418
#
# _framework density 22.591275
#
# number of rings (size 3 to 8) (size 9 to 14) (size 15 to 20)
#    0.000    1.429    4.286    0.000    6.000    5.714 
#    2.571    0.714    0.000    0.000    0.000    0.000 
#    0.000    0.000    0.000    0.000    0.000    0.000 
#
# Total GULP energy -77945.650601 kJ/mol
# GULP energy per Si atom -5567.546472 kJ/mol
# Density = 2.253986 g / cm^3
# Si number density = 22.591275 Si / 1000 Ang^3
#
#
#
# Elastic Constant Matrix: (Units=GPa)
#
#
# Indices 1 2 3 4 5 6 
#
# 1 89.5798 26.7755 46.4337 -2.6971 -10.9344 15.1498
# 2 26.7755 118.7994 35.3732 15.1868 1.6689 9.4579
# 3 46.4337 35.3732 87.9541 0.9351 -13.2100 9.8139
# 4 -2.6971 15.1868 0.9351 32.7660 -0.2616 3.8806
# 5 -10.9344 1.6689 -13.2100 -0.2616 44.9196 -6.0359
# 6 15.1498 9.4579 9.8139 3.8806 -6.0359 42.7102
#
#
#
# Elastic Compliance Matrix: (Units=1/GPa)
#
#
# Indices 1 2 3 4 5 6 
#
# 1 0.016363 -0.001545 -0.007416 0.002737 0.001363 -0.003814
# 2 -0.001545 0.010539 -0.003576 -0.004831 -0.001955 -0.000802
# 3 -0.007416 -0.003576 0.017238 0.000596 0.003385 -0.000114
# 4 0.002737 -0.004831 0.000596 0.033323 0.000819 -0.002950
# 5 0.001363 -0.001955 0.003385 0.000819 0.024001 0.002489
# 6 -0.003814 -0.000802 -0.000114 -0.002950 0.002489 0.025590
#
#
# Mechanical properties :
#
#
# Convention : Reuss Voigt Hill
#
# Bulk Modulus (GPa) = 52.44916 57.05536 54.75226
# Shear Modulus (GPa) = 31.54916 36.59589 34.07253
#
# Velocity S-wave (km/s) = 3.74106 4.02918 3.88779
# Velocity P-wave (km/s) = 6.47516 6.85245 6.66647
#
# Compressibility (1/GPa) = 0.01906608
#
# Stress axis : x y z
#
# Youngs Moduli (GPa) = 61.11367 94.88249 58.01297
#
# Poissons Ratio (x) = 0.14662 0.43022
# Poissons Ratio (y) = 0.09444 0.20744
# Poissons Ratio (z) = 0.45321 0.33928
#
# Static dielectric constant tensor:
#      x y z
#    x 2.144310 0.018960 0.111720 
#    y 0.018960 1.834750 0.122610 
#    z 0.111720 0.122610 2.153700 
# 
# From -- ./inp_files/484521.got.cif
#   From: 2010.05.17/outbox.cif.g08.bks.cpg/sg2_243_cif.got.tgz:484521.got - 2010.06.03 11:33:40.
