data_PCOD9047199
_publ_section_title
;
Structure prediction by ZEFSAII (Michael W. Deem and Ramdas Pophale) SiO2 
 PCOD9047199
Probable space group: P -1
;
_chemical_formula_sum "Si O2"
_cell_formula_units_Z 13
_cell_length_a 13.649814
_cell_length_b 8.511169
_cell_length_c 9.957025
_cell_angle_alpha 35.486288
_cell_angle_beta 131.902037
_cell_angle_gamma 127.662578
_cell_volume 493.715591
_symmetry_space_group_name_H-M "P -1"
_symmetry_group_IT_number 2
_symmetry_cell_setting 'triclinic'
loop_
_space_group_symop_operation_xyz
x,y,z
-x,-y,-z
loop_
_atom_site_type_symbol
_atom_site_label
_atom_site_fract_x
_atom_site_fract_y
_atom_site_fract_z
Si Si1 0.685412 0.369128 0.221510
Si Si2 0.938669 0.782011 0.209663
Si Si3 0.565414 0.310073 0.858372
Si Si4 0.067181 0.440537 0.240639
Si Si5 0.343298 0.691431 0.343914
Si Si6 0.500000 0.000000 0.500000
Si Si7 0.893872 0.073959 0.509049
O O1 0.785657 0.650561 0.142601
O O2 0.592972 0.273112 0.329591
O O3 0.768212 0.111406 0.457465
O O4 0.624171 0.389057 0.003465
O O5 0.000000 0.500000 0.500000
O O6 0.980925 0.956275 0.261298
O O7 0.000000 0.000000 0.000000
O O8 0.446063 0.479479 0.607555
O O9 0.669633 0.329397 0.816854
O O10 0.500000 0.000000 0.000000
O O11 0.189976 0.628745 0.291688
O O12 0.941624 0.359548 0.278811
O O13 0.129246 0.163304 0.455499
O O14 0.000000 0.500000 0.000000
O O15 0.421432 0.948485 0.316516
#
# Coordination Sequence:
#
# PCOD9047199 Si02
#       7
#     2   2   2   2   2   1   2
#     4  11  24  47  76 109 157 200 257 313 400 468
#     4  10  24  43  73 111 150 201 251 317 394 462
#     4  11  23  46  73 105 141 208 250 310 387 464
#     4  11  24  44  74 106 141 199 261 322 385 460
#     4  11  26  44  73 107 151 190 262 315 382 470
#     4  12  26  48  70 120 156 200 250 318 384 468
#     4  10  24  45  69 108 146 194 257 322 387 459
#
# _framework density 26.330949
#
# number of rings (size 3 to 8) (size 9 to 14) (size 15 to 20)
#    0.000    1.231    1.538    2.769    8.615    3.077 
#    2.769    0.000    0.000    0.000    0.000    0.000 
#    0.000    0.000    0.000    0.000    0.000    0.000 
#
# Total GULP energy -72398.076967 kJ/mol
# GULP energy per Si atom -5569.082844 kJ/mol
# Density = 2.627102 g / cm^3
# Si number density = 26.330949 Si / 1000 Ang^3
#
#
#
# Elastic Constant Matrix: (Units=GPa)
#
#
# Indices 1 2 3 4 5 6 
#
# 1 81.1419 39.5938 32.2504 -6.0770 -11.8687 -4.1788
# 2 39.5938 127.8023 39.0730 19.4439 -0.7241 20.4678
# 3 32.2504 39.0730 103.7865 20.5119 -28.1762 12.9526
# 4 -6.0770 19.4439 20.5119 49.8493 -4.7389 -7.7527
# 5 -11.8687 -0.7241 -28.1762 -4.7389 57.2046 -3.7948
# 6 -4.1788 20.4678 12.9526 -7.7527 -3.7948 41.4861
#
#
#
# Elastic Compliance Matrix: (Units=1/GPa)
#
#
# Indices 1 2 3 4 5 6 
#
# 1 0.019652 -0.007232 -0.005669 0.009237 0.002575 0.009279
# 2 -0.007232 0.012728 -0.000909 -0.007042 -0.002922 -0.008308
# 3 -0.005669 -0.000909 0.015301 -0.007009 0.005389 -0.005716
# 4 0.009237 -0.007042 -0.007009 0.028853 0.001570 0.012128
# 5 0.002575 -0.002922 0.005389 0.001570 0.020910 0.002224
# 6 0.009279 -0.008308 -0.005716 0.012128 0.002224 0.033392
#
#
# Mechanical properties :
#
#
# Convention : Reuss Voigt Hill
#
# Bulk Modulus (GPa) = 49.84768 59.39611 54.62190
# Shear Modulus (GPa) = 30.27657 43.16223 36.71940
#
# Velocity S-wave (km/s) = 3.39462 4.05312 3.73840
# Velocity P-wave (km/s) = 5.85977 6.67160 6.27882
#
# Compressibility (1/GPa) = 0.02006111
#
# Stress axis : x y z
#
# Youngs Moduli (GPa) = 50.88439 78.56426 65.35702
#
# Poissons Ratio (x) = 0.56819 0.37049
# Poissons Ratio (y) = 0.36800 0.05943
# Poissons Ratio (z) = 0.28845 0.07144
#
# Static dielectric constant tensor:
#      x y z
#    x 2.453150 -0.014100 -0.004280 
#    y -0.014100 2.084260 -0.050050 
#    z -0.004280 -0.050050 2.174180 
# 
# From -- ./inp_files/25557.got.cif
#   From: 2010.05.17/outbox.cif.g08.bks.cpg/sg2_13_cif.got.tgz:25557.got - 2010.06.03 11:33:40.
