data_PCOD9047685
_publ_section_title
;
Structure prediction by ZEFSAII (Michael W. Deem and Ramdas Pophale) SiO2 
 PCOD9047685
Probable space group: P -1
;
_chemical_formula_sum "Si O2"
_cell_formula_units_Z 14
_cell_length_a 11.635078
_cell_length_b 5.329627
_cell_length_c 12.790579
_cell_angle_alpha 109.278382
_cell_angle_beta 102.585054
_cell_angle_gamma 53.514168
_cell_volume 601.695529
_symmetry_space_group_name_H-M "P -1"
_symmetry_group_IT_number 2
_symmetry_cell_setting 'triclinic'
loop_
_space_group_symop_operation_xyz
x,y,z
-x,-y,-z
loop_
_atom_site_type_symbol
_atom_site_label
_atom_site_fract_x
_atom_site_fract_y
_atom_site_fract_z
Si Si1 0.632450 0.157691 0.110085
Si Si2 0.592040 0.647406 0.523979
Si Si3 0.660526 0.377061 0.929677
Si Si4 0.861809 0.506909 0.949409
Si Si5 0.008446 0.565062 0.632503
Si Si6 0.741599 0.780331 0.742740
Si Si7 0.813018 0.150493 0.332885
O O1 0.466625 0.287140 0.100876
O O2 0.698738 0.190670 0.232035
O O3 0.635592 0.370206 0.046406
O O4 0.738060 0.800098 0.036257
O O5 0.500000 0.500000 0.500000
O O6 0.649616 0.681557 0.650273
O O7 0.726719 0.398927 0.444205
O O8 0.500000 0.000000 0.500000
O O9 0.827253 0.246986 0.934091
O O10 0.646152 0.125974 0.826126
O O11 0.831827 0.556853 0.827421
O O12 0.000000 0.500000 0.000000
O O13 0.085816 0.751023 0.682377
O O14 0.000000 0.500000 0.500000
O O15 0.851273 0.765316 0.679049
O O16 0.097721 0.215617 0.658148
#
# Coordination Sequence:
#
# PCOD9047685 Si02
#       7
#     2   2   2   2   2   2   2
#     4  10  24  44  69 105 140 195 245 302 374 435
#     4  12  28  48  75 111 147 193 251 304 374 447
#     4  10  24  46  71 100 149 188 249 306 370 442
#     4  11  25  43  70 106 142 192 245 306 368 442
#     4  12  27  48  72 106 148 192 248 300 379 435
#     4  11  27  43  74 103 143 195 242 310 367 443
#     4  12  27  46  76 106 147 196 243 310 366 450
#
# _framework density 23.267582000000001
#
# number of rings (size 3 to 8) (size 9 to 14) (size 15 to 20)
#    0.000    0.857    1.429    3.429   12.000    1.143 
#    0.000    0.000    0.000    0.000    0.000    0.000 
#    0.000    0.000    0.000    0.000    0.000    0.000 
#
# Total GULP energy -78303.807606 kJ/mol
# GULP energy per Si atom -5593.129115 kJ/mol
# Density = 2.321462 g / cm^3
# Si number density = 23.267582 Si / 1000 Ang^3
#
#
#
# Elastic Constant Matrix: (Units=GPa)
#
#
# Indices 1 2 3 4 5 6 
#
# 1 147.3035 28.5668 37.1266 1.5416 31.5946 8.7342
# 2 28.5668 92.9133 26.8290 -1.5131 10.2054 8.0999
# 3 37.1266 26.8290 159.4803 -4.4341 32.1251 -3.4806
# 4 1.5416 -1.5131 -4.4341 28.6812 -9.7374 -3.9134
# 5 31.5946 10.2054 32.1251 -9.7374 51.5146 1.4226
# 6 8.7342 8.0999 -3.4806 -3.9134 1.4226 30.8594
#
#
#
# Elastic Compliance Matrix: (Units=1/GPa)
#
#
# Indices 1 2 3 4 5 6 
#
# 1 0.008515 -0.001700 -0.000852 -0.002600 -0.004786 -0.002169
# 2 -0.001700 0.012035 -0.001643 0.000002 -0.000238 -0.002852
# 3 -0.000852 -0.001643 0.007572 0.000034 -0.003915 0.001711
# 4 -0.002600 0.000002 0.000034 0.038695 0.008742 0.005243
# 5 -0.004786 -0.000238 -0.003915 0.008742 0.026464 0.000864
# 6 -0.002169 -0.002852 0.001711 0.005243 0.000864 0.034586
#
#
# Mechanical properties :
#
#
# Convention : Reuss Voigt Hill
#
# Bulk Modulus (GPa) = 50.67793 64.97131 57.82462
# Shear Modulus (GPa) = 35.00580 42.68937 38.84759
#
# Velocity S-wave (km/s) = 3.88298 4.28800 4.09051
# Velocity P-wave (km/s) = 6.47543 7.24570 6.87136
#
# Compressibility (1/GPa) = 0.01973246
#
# Stress axis : x y z
#
# Youngs Moduli (GPa) = 117.43355 83.09425 132.06576
#
# Poissons Ratio (x) = 0.14123 0.11252
# Poissons Ratio (y) = 0.19960 0.21700
# Poissons Ratio (z) = 0.10005 0.13653
#
# Static dielectric constant tensor:
#      x y z
#    x 1.991530 0.019460 0.031660 
#    y 0.019460 1.884640 0.078030 
#    z 0.031660 0.078030 1.760210 
# 
# From -- ./inp_files/53249.got.cif
#   From: 2010.05.17/outbox.cif.g08.bks.cpg/sg2_27_cif.got.tgz:53249.got - 2010.06.03 11:33:40.
