data_PCOD9047384
_publ_section_title
;
Structure prediction by ZEFSAII (Michael W. Deem and Ramdas Pophale) SiO2 
 PCOD9047384
Probable space group: P -1
;
_chemical_formula_sum "Si O2"
_cell_formula_units_Z 14
_cell_length_a 6.852370
_cell_length_b 14.445793
_cell_length_c 11.345383
_cell_angle_alpha 129.424649
_cell_angle_beta 112.907173
_cell_angle_gamma 45.492101
_cell_volume 615.473946
_symmetry_space_group_name_H-M "P -1"
_symmetry_group_IT_number 2
_symmetry_cell_setting 'triclinic'
loop_
_space_group_symop_operation_xyz
x,y,z
-x,-y,-z
loop_
_atom_site_type_symbol
_atom_site_label
_atom_site_fract_x
_atom_site_fract_y
_atom_site_fract_z
Si Si1 0.094104 0.396172 0.615673
Si Si2 0.309725 0.523245 0.869653
Si Si3 0.254586 0.263109 0.297117
Si Si4 0.209452 0.660179 0.331490
Si Si5 0.848989 0.804362 0.133937
Si Si6 0.795769 0.986919 0.870039
Si Si7 0.153078 0.910792 0.673923
O O1 0.283070 0.388535 0.753107
O O2 0.251590 0.277079 0.450446
O O3 0.954303 0.564820 0.663475
O O4 0.874103 0.390446 0.618665
O O5 0.487368 0.482853 0.760613
O O6 0.500000 0.500000 0.000000
O O7 0.022717 0.686341 0.971529
O O8 0.183424 0.150538 0.174521
O O9 0.557339 0.191436 0.269897
O O10 0.185500 0.805438 0.489171
O O11 0.996191 0.715302 0.219001
O O12 0.533873 0.875061 0.104145
O O13 0.875422 0.939537 0.245846
O O14 0.913916 0.951352 0.736243
O O15 0.000000 0.000000 0.000000
#
# Coordination Sequence:
#
# PCOD9047384 Si02
#       7
#     2   2   2   2   2   2   2
#     4  11  23  42  70  97 142 172 235 281 335 409
#     4  10  24  44  67 100 139 179 225 282 343 401
#     4  10  24  44  66 104 132 179 231 288 330 408
#     4  11  23  45  73 102 134 183 229 281 344 409
#     4  10  26  44  68 104 140 177 227 285 341 412
#     4  11  26  45  71  99 137 183 230 279 351 405
#     4  11  23  44  71 102 136 179 231 280 348 403
#
# _framework density 22.746697999999999
#
# number of rings (size 3 to 8) (size 9 to 14) (size 15 to 20)
#    0.000    1.429    2.857    0.429    4.000    9.143 
#    0.000    0.000    0.000    0.000    0.000    0.000 
#    0.000    0.000    0.000    0.000    0.000    0.000 
#
# Total GULP energy -78172.849598 kJ/mol
# GULP energy per Si atom -5583.774971 kJ/mol
# Density = 2.269493 g / cm^3
# Si number density = 22.746698 Si / 1000 Ang^3
#
#
#
# Elastic Constant Matrix: (Units=GPa)
#
#
# Indices 1 2 3 4 5 6 
#
# 1 158.5654 47.7576 58.9020 11.6232 -15.3849 -34.8297
# 2 47.7576 66.6829 19.7906 0.9178 -5.8159 -19.3945
# 3 58.9020 19.7906 142.0408 4.3236 1.3313 -16.1810
# 4 11.6232 0.9178 4.3236 19.7265 -5.3197 -6.2843
# 5 -15.3849 -5.8159 1.3313 -5.3197 48.4028 5.7826
# 6 -34.8297 -19.3945 -16.1810 -6.2843 5.7826 28.8816
#
#
#
# Elastic Compliance Matrix: (Units=1/GPa)
#
#
# Indices 1 2 3 4 5 6 
#
# 1 0.010724 -0.004483 -0.002921 -0.002647 0.001781 0.007353
# 2 -0.004483 0.021012 -0.000129 0.004882 0.000494 0.009595
# 3 -0.002921 -0.000129 0.008441 -0.000047 -0.001346 0.001379
# 4 -0.002647 0.004882 -0.000047 0.056956 0.004629 0.011526
# 5 0.001781 0.000494 -0.001346 0.004629 0.022032 -0.001679
# 6 0.007353 0.009595 0.001379 0.011526 -0.001679 0.053551
#
#
# Mechanical properties :
#
#
# Convention : Reuss Voigt Hill
#
# Bulk Modulus (GPa) = 39.82359 68.90995 54.36677
# Shear Modulus (GPa) = 25.49066 35.45812 30.47439
#
# Velocity S-wave (km/s) = 3.35121 3.95248 3.66420
# Velocity P-wave (km/s) = 5.70260 7.15470 6.46952
#
# Compressibility (1/GPa) = 0.02511075
#
# Stress axis : x y z
#
# Youngs Moduli (GPa) = 93.25163 47.59256 118.47576
#
# Poissons Ratio (x) = 0.21336 0.34604
# Poissons Ratio (y) = 0.41805 0.01525
# Poissons Ratio (z) = 0.27237 0.00613
#
# Static dielectric constant tensor:
#      x y z
#    x 1.855070 -0.053970 0.021840 
#    y -0.053970 1.922290 -0.057450 
#    z 0.021840 -0.057450 1.895170 
# 
# From -- ./inp_files/59756.got.cif
#   From: 2010.05.17/outbox.cif.g08.bks.cpg/sg2_30_cif.got.tgz:59756.got - 2010.06.03 11:33:40.
