data_PCOD9047847
_publ_section_title
;
Structure prediction by ZEFSAII (Michael W. Deem and Ramdas Pophale) SiO2 
 PCOD9047847
Probable space group: P -1
;
_chemical_formula_sum "Si O2"
_cell_formula_units_Z 15
_cell_length_a 18.996745
_cell_length_b 11.049975
_cell_length_c 20.556061
_cell_angle_alpha 37.981776
_cell_angle_beta 23.766996
_cell_angle_gamma 24.895683
_cell_volume 709.348587
_symmetry_space_group_name_H-M "P -1"
_symmetry_group_IT_number 2
_symmetry_cell_setting 'triclinic'
loop_
_space_group_symop_operation_xyz
x,y,z
-x,-y,-z
loop_
_atom_site_type_symbol
_atom_site_label
_atom_site_fract_x
_atom_site_fract_y
_atom_site_fract_z
Si Si1 0.651606 0.661882 0.889699
Si Si2 0.082810 0.262848 0.582635
Si Si3 0.130514 0.807130 0.538332
Si Si4 0.931126 0.962679 0.784454
Si Si5 0.103640 0.695125 0.037126
Si Si6 0.605829 0.839068 0.408233
Si Si7 0.548129 0.747762 0.182716
Si Si8 0.000000 0.500000 0.000000
O O1 0.770100 0.449290 0.939333
O O2 0.866050 0.477066 0.730766
O O3 0.601003 0.925614 0.846517
O O4 0.379595 0.795697 0.039146
O O5 0.000000 0.500000 0.500000
O O6 0.047679 0.072266 0.664199
O O7 0.370444 0.041476 0.467830
O O8 0.274909 0.477787 0.546942
O O9 0.354908 0.777638 0.375238
O O10 0.000000 0.000000 0.500000
O O11 0.953611 0.936702 0.697622
O O12 0.055542 0.668148 0.839404
O O13 0.852727 0.764675 0.208600
O O14 0.332501 0.468548 0.887147
O O15 0.000000 0.000000 0.000000
O O16 0.500000 0.000000 0.500000
O O17 0.794384 0.608378 0.074459
#
# Coordination Sequence:
#
# PCOD9047847 Si02
#       8
#     2   2   2   2   2   2   2   1
#     4  11  24  47  69 105 144 191 238 295 357 441
#     4  12  28  46  75 109 151 194 243 310 371 441
#     4  12  26  46  78 107 146 189 245 311 369 438
#     4  11  26  46  75 108 145 192 250 299 376 433
#     4  12  26  43  74 101 142 190 242 299 362 429
#     4  12  26  46  71 105 148 190 245 299 369 438
#     4  11  24  44  72 102 142 184 242 296 364 431
#     4  10  24  44  70  98 144 186 240 298 358 438
#
# _framework density 21.146162
#
# number of rings (size 3 to 8) (size 9 to 14) (size 15 to 20)
#    0.000    0.533    1.333    6.400    5.600    7.467 
#    0.000    0.000    0.000    0.000    0.000    0.000 
#    0.000    0.000    0.000    0.000    0.000    0.000 
#
# Total GULP energy -83589.471615 kJ/mol
# GULP energy per Si atom -5572.631441 kJ/mol
# Density = 2.109803 g / cm^3
# Si number density = 21.146162 Si / 1000 Ang^3
#
#
#
# Elastic Constant Matrix: (Units=GPa)
#
#
# Indices 1 2 3 4 5 6 
#
# 1 -13.4672 73.2204 -45.0920 -3.8566 -37.3561 -20.8625
# 2 73.2204 9.9332 -56.0177 -63.2966 93.7593 11.2294
# 3 -45.0920 -56.0177 -30.4852 -29.5225 29.7121 3.9009
# 4 -3.8566 -63.2966 -29.5225 40.3401 24.1779 4.7987
# 5 -37.3561 93.7593 29.7121 24.1779 -14.1913 -20.5360
# 6 -20.8625 11.2294 3.9009 4.7987 -20.5360 26.9901
#
#
#
# Elastic Compliance Matrix: (Units=1/GPa)
#
#
# Indices 1 2 3 4 5 6 
#
# 1 0.000498 0.001911 -0.011326 -0.000453 -0.007168 -0.004147
# 2 0.001911 0.003732 -0.002371 -0.000256 0.006554 0.005300
# 3 -0.011326 -0.002371 -0.001269 -0.007523 0.003673 -0.003453
# 4 -0.000453 -0.000256 -0.007523 0.015082 0.005763 0.002547
# 5 -0.007168 0.006554 0.003673 0.005763 0.011149 -0.001340
# 6 -0.004147 0.005300 -0.003453 0.002547 -0.001340 0.030667
#
#
# Mechanical properties :
#
#
# Convention : Reuss Voigt Hill
#
# Bulk Modulus (GPa) = -48.51581 -9.97752 -29.24667
# Shear Modulus (GPa) = 65.30817 10.21911 37.76364
#
# Velocity S-wave (km/s) = 5.56338 2.20070 4.23050
# Velocity P-wave (km/s) = 4.27497 1.31486 3.16261
#
# Compressibility (1/GPa) = -0.02061184
#
# Stress axis : x y z
#
# Youngs Moduli (GPa) = 2008.48672 267.98437 -787.85717
#
# Poissons Ratio (x) = -0.51223 -8.92366
# Poissons Ratio (y) = -3.83907 -1.86797
# Poissons Ratio (z) = 22.74910 0.63538
#
# Static dielectric constant tensor:
#      x y z
#    x 1.726050 -0.005140 -0.015020 
#    y -0.005140 1.793910 -0.038510 
#    z -0.015020 -0.038510 1.788140 
# 
# From -- ./inp_files/186593.got.cif
#   From: 2010.05.17/outbox.cif.g08.bks.cpg/sg2_94_cif.got.tgz:186593.got - 2010.06.03 11:33:40.
