data_PCOD9047739
_publ_section_title
;
Structure prediction by ZEFSAII (Michael W. Deem and Ramdas Pophale) SiO2 
 PCOD9047739
Probable space group: P -1
;
_chemical_formula_sum "Si O2"
_cell_formula_units_Z 16
_cell_length_a 7.160712
_cell_length_b 8.246062
_cell_length_c 16.794847
_cell_angle_alpha 114.209917
_cell_angle_beta 84.617014
_cell_angle_gamma 122.107250
_cell_volume 756.183729
_symmetry_space_group_name_H-M "P -1"
_symmetry_group_IT_number 2
_symmetry_cell_setting 'triclinic'
loop_
_space_group_symop_operation_xyz
x,y,z
-x,-y,-z
loop_
_atom_site_type_symbol
_atom_site_label
_atom_site_fract_x
_atom_site_fract_y
_atom_site_fract_z
Si Si1 0.829472 0.334225 0.089583
Si Si2 0.367411 0.394621 0.902300
Si Si3 0.197553 0.825484 0.402940
Si Si4 0.429424 0.703323 0.493858
Si Si5 0.305368 0.701966 0.209021
Si Si6 0.682013 0.516225 0.378508
Si Si7 0.066035 0.941722 0.068662
Si Si8 0.521216 0.872354 0.813028
O O1 0.710056 0.455717 0.096712
O O2 0.665224 0.155482 0.122991
O O3 0.067537 0.503772 0.150966
O O4 0.870334 0.227791 0.991974
O O5 0.515029 0.357877 0.828381
O O6 0.146662 0.171635 0.889082
O O7 0.500000 0.500000 0.000000
O O8 0.271038 0.759893 0.466489
O O9 0.281172 0.752552 0.310388
O O10 0.931144 0.709265 0.386223
O O11 0.340015 0.079521 0.447379
O O12 0.505184 0.584660 0.408277
O O13 0.316848 0.570108 0.550921
O O14 0.374010 0.910546 0.196553
O O15 0.597832 0.327781 0.281009
O O16 0.281534 0.120465 0.142966
O O17 0.000000 0.000000 0.000000
#
# Coordination Sequence:
#
# PCOD9047739 Si02
#       8
#     2   2   2   2   2   2   2   2
#     4  12  25  46  70  94 141 179 226 283 328 397
#     4  12  24  43  69  95 134 182 230 276 334 391
#     4  11  23  44  70  99 135 174 223 272 341 402
#     4  10  24  44  70 101 130 175 221 273 341 413
#     4  12  25  44  68 100 137 181 226 279 332 400
#     4  11  23  44  70  99 139 171 219 281 338 399
#     4  12  25  45  70 101 138 184 230 281 338 397
#     4  12  25  44  67 101 139 177 228 279 339 399
#
# _framework density 21.158878000000001
#
# number of rings (size 3 to 8) (size 9 to 14) (size 15 to 20)
#    0.000    0.500    5.000    3.750    1.750    0.000 
#    2.250    1.250    0.000    0.000    0.000    0.000 
#    0.000    0.000    0.000    0.000    0.000    0.000 
#
# Total GULP energy -89574.718434 kJ/mol
# GULP energy per Si atom -5598.419902 kJ/mol
# Density = 2.111072 g / cm^3
# Si number density = 21.158878 Si / 1000 Ang^3
#
#
#
# Elastic Constant Matrix: (Units=GPa)
#
#
# Indices 1 2 3 4 5 6 
#
# 1 83.1406 17.8603 13.6239 -5.8741 -5.6114 12.1572
# 2 17.8603 74.5092 -3.9401 -8.3693 8.3163 22.3934
# 3 13.6239 -3.9401 59.0650 -0.2735 -6.0726 9.9631
# 4 -5.8741 -8.3693 -0.2735 28.6120 6.5479 1.9417
# 5 -5.6114 8.3163 -6.0726 6.5479 28.4892 4.4856
# 6 12.1572 22.3934 9.9631 1.9417 4.4856 39.7661
#
#
#
# Elastic Compliance Matrix: (Units=1/GPa)
#
#
# Indices 1 2 3 4 5 6 
#
# 1 0.013730 -0.002922 -0.002656 0.001401 0.003031 -0.002297
# 2 -0.002922 0.018696 0.003116 0.006808 -0.005337 -0.010146
# 3 -0.002656 0.003116 0.019159 0.000146 0.003586 -0.006154
# 4 0.001401 0.006808 0.000146 0.039876 -0.010040 -0.005113
# 5 0.003031 -0.005337 0.003586 -0.010040 0.040789 -0.002931
# 6 -0.002297 -0.010146 -0.006154 -0.005113 -0.002931 0.033685
#
#
# Mechanical properties :
#
#
# Convention : Reuss Voigt Hill
#
# Bulk Modulus (GPa) = 21.43241 30.20033 25.81637
# Shear Modulus (GPa) = 26.82199 31.98483 29.40341
#
# Velocity S-wave (km/s) = 3.56427 3.89221 3.73184
# Velocity P-wave (km/s) = 5.20480 5.87394 5.54947
#
# Compressibility (1/GPa) = 0.04665832
#
# Stress axis : x y z
#
# Youngs Moduli (GPa) = 72.83171 53.48689 52.19606
#
# Poissons Ratio (x) = 0.15631 0.13866
# Poissons Ratio (y) = 0.21284 -0.16262
# Poissons Ratio (z) = 0.19348 -0.16664
#
# Static dielectric constant tensor:
#      x y z
#    x 1.742960 -0.022310 0.006860 
#    y -0.022310 1.775860 -0.003290 
#    z 0.006860 -0.003290 1.735460 
# 
# From -- ./inp_files/55776.got.cif
#   From: 2010.05.17/outbox.cif.g08.bks.cpg/sg2_28_cif.got.tgz:55776.got - 2010.06.03 11:33:40.
