data_PCOD9047515
_publ_section_title
;
Structure prediction by ZEFSAII (Michael W. Deem and Ramdas Pophale) SiO2 
 PCOD9047515
Probable space group: P -1
;
_chemical_formula_sum "Si O2"
_cell_formula_units_Z 12
_cell_length_a 5.184354
_cell_length_b 13.429366
_cell_length_c 9.091842
_cell_angle_alpha 114.160326
_cell_angle_beta 71.504026
_cell_angle_gamma 77.862782
_cell_volume 503.634674
_symmetry_space_group_name_H-M "P -1"
_symmetry_group_IT_number 2
_symmetry_cell_setting 'triclinic'
loop_
_space_group_symop_operation_xyz
x,y,z
-x,-y,-z
loop_
_atom_site_type_symbol
_atom_site_label
_atom_site_fract_x
_atom_site_fract_y
_atom_site_fract_z
Si Si1 0.340372 0.421057 0.406793
Si Si2 0.344043 0.567441 0.922758
Si Si3 0.815101 0.809124 0.252477
Si Si4 0.771885 0.019681 0.186760
Si Si5 0.502872 0.323970 0.610298
Si Si6 0.908795 0.855789 0.588076
O O1 0.500000 0.500000 0.500000
O O2 0.468924 0.389917 0.201227
O O3 0.413249 0.319506 0.454708
O O4 0.000000 0.500000 0.500000
O O5 0.305607 0.457538 0.779879
O O6 0.500000 0.500000 0.000000
O O7 0.076208 0.685107 0.089410
O O8 0.767728 0.898418 0.181554
O O9 0.560410 0.765521 0.322513
O O10 0.870893 0.870378 0.427564
O O11 0.425162 0.095157 0.259210
O O12 0.911623 0.077188 0.320744
O O13 0.000000 0.000000 0.000000
O O14 0.857380 0.282390 0.522010
#
# Coordination Sequence:
#
# PCOD9047515 Si02
#       6
#     2   2   2   2   2   2
#     4  10  24  44  67  99 148 196 241 291 351 433
#     4  11  23  44  72 115 152 193 246 297 370 450
#     4  12  26  46  78 107 153 198 243 310 367 447
#     4  12  30  52  76 110 144 195 258 312 371 439
#     4  11  25  46  76 112 151 199 245 300 378 444
#     4  12  26  50  78 104 151 191 251 309 373 436
#
# _framework density 23.826795000000001
#
# number of rings (size 3 to 8) (size 9 to 14) (size 15 to 20)
#    0.000    0.667    3.333    3.000    7.000    1.333 
#    0.000    1.667    0.000    0.000    0.000    0.000 
#    0.000    0.000    0.000    0.000    0.000    0.000 
#
# Total GULP energy -67010.983760 kJ/mol
# GULP energy per Si atom -5584.248647 kJ/mol
# Density = 2.377256 g / cm^3
# Si number density = 23.826795 Si / 1000 Ang^3
#
#
#
# Elastic Constant Matrix: (Units=GPa)
#
#
# Indices 1 2 3 4 5 6 
#
# 1 125.2143 24.7551 43.6455 3.3319 -39.6273 -6.7485
# 2 24.7551 101.7060 47.1785 -5.4363 -14.3782 5.8746
# 3 43.6455 47.1785 178.0398 -11.6797 -38.7592 -7.5829
# 4 3.3319 -5.4363 -11.6797 48.7666 -1.5887 4.3926
# 5 -39.6273 -14.3782 -38.7592 -1.5887 45.5866 5.9639
# 6 -6.7485 5.8746 -7.5829 4.3926 5.9639 34.5021
#
#
#
# Elastic Compliance Matrix: (Units=1/GPa)
#
#
# Indices 1 2 3 4 5 6 
#
# 1 0.011291 -0.001367 -0.000505 -0.000840 0.008806 0.000915
# 2 -0.001367 0.011746 -0.002695 0.001059 0.000669 -0.003110
# 3 -0.000505 -0.002695 0.007743 0.001674 0.005229 0.000945
# 4 -0.000840 0.001059 0.001674 0.021431 0.002177 -0.003082
# 5 0.008806 0.000669 0.005229 0.002177 0.034786 -0.003532
# 6 0.000915 -0.003110 0.000945 -0.003082 -0.003532 0.030903
#
#
# Mechanical properties :
#
#
# Convention : Reuss Voigt Hill
#
# Bulk Modulus (GPa) = 46.19640 70.67982 58.43811
# Shear Modulus (GPa) = 37.24456 45.06314 41.15385
#
# Velocity S-wave (km/s) = 3.95794 4.35360 4.16048
# Velocity P-wave (km/s) = 6.34961 7.41621 6.90354
#
# Compressibility (1/GPa) = 0.02164671
#
# Stress axis : x y z
#
# Youngs Moduli (GPa) = 88.56649 85.13666 129.14854
#
# Poissons Ratio (x) = 0.11638 0.06520
# Poissons Ratio (y) = 0.12107 0.34802
# Poissons Ratio (z) = 0.04472 0.22942
#
# Static dielectric constant tensor:
#      x y z
#    x 1.919140 0.021190 0.008760 
#    y 0.021190 1.931760 -0.007410 
#    z 0.008760 -0.007410 1.974360 
# 
# From -- ./inp_files/134413.got.cif
#   From: 2010.05.17/outbox.cif.g08.bks.cpg/sg2_68_cif.got.tgz:134413.got - 2010.06.03 11:33:40.
