data_PCOD9047160
_publ_section_title
;
Structure prediction by ZEFSAII (Michael W. Deem and Ramdas Pophale) SiO2 
 PCOD9047160
Probable space group: P -1
;
_chemical_formula_sum "Si O2"
_cell_formula_units_Z 16
_cell_length_a 18.310723
_cell_length_b 12.364030
_cell_length_c 5.018995
_cell_angle_alpha 90.642663
_cell_angle_beta 73.191469
_cell_angle_gamma 42.202516
_cell_volume 684.314352
_symmetry_space_group_name_H-M "P -1"
_symmetry_group_IT_number 2
_symmetry_cell_setting 'triclinic'
loop_
_space_group_symop_operation_xyz
x,y,z
-x,-y,-z
loop_
_atom_site_type_symbol
_atom_site_label
_atom_site_fract_x
_atom_site_fract_y
_atom_site_fract_z
Si Si1 0.806538 0.760571 0.650557
Si Si2 0.414729 0.380771 0.944401
Si Si3 0.646526 0.253844 0.640834
Si Si4 0.229688 0.977596 0.989648
Si Si5 0.278786 0.589037 0.592269
Si Si6 0.449774 0.990842 0.302851
Si Si7 0.951303 0.276091 0.299229
Si Si8 0.060762 0.566606 0.179754
O O1 0.843056 0.623201 0.806526
O O2 0.927578 0.659180 0.354930
O O3 0.771734 0.901546 0.876184
O O4 0.694692 0.856765 0.580449
O O5 0.505286 0.382727 0.823944
O O6 0.306535 0.520788 0.858062
O O7 0.491236 0.192536 0.776629
O O8 0.362641 0.427923 0.296485
O O9 0.707628 0.166000 0.858634
O O10 0.680320 0.333749 0.498090
O O11 0.700983 0.110283 0.362807
O O12 0.091077 0.095686 0.094682
O O13 0.141002 0.717668 0.663882
O O14 0.500000 0.000000 0.500000
O O15 0.500000 0.000000 0.000000
O O16 0.940766 0.330865 0.611869
O O17 0.919269 0.410751 0.136130
#
# Coordination Sequence:
#
# PCOD9047160 Si02
#       8
#     2   2   2   2   2   2   2   2
#     4  10  24  46  71 102 139 182 228 273 340 411
#     4  12  26  48  69  98 140 186 229 277 338 408
#     4  12  25  46  74 100 131 182 237 286 336 405
#     4  11  24  43  72 103 136 175 226 286 345 406
#     4  12  27  46  71 100 138 182 231 289 337 398
#     4  12  29  43  70 106 139 181 221 279 342 403
#     4  11  25  43  68 105 139 177 222 284 349 400
#     4  10  24  43  73 100 137 183 224 274 334 422
#
# _framework density 23.381069
#
# number of rings (size 3 to 8) (size 9 to 14) (size 15 to 20)
#    0.000    0.750    1.250    5.250    7.000    7.500 
#    0.000    0.000    0.000    0.000    0.000    0.000 
#    0.000    0.000    0.000    0.000    0.000    0.000 
#
# Total GULP energy -89738.418152 kJ/mol
# GULP energy per Si atom -5608.651135 kJ/mol
# Density = 2.332785 g / cm^3
# Si number density = 23.381069 Si / 1000 Ang^3
#
#
#
# Elastic Constant Matrix: (Units=GPa)
#
#
# Indices 1 2 3 4 5 6 
#
# 1 102.1440 30.0312 35.9217 -7.1998 4.2999 -25.5937
# 2 30.0312 51.7731 6.2022 -4.6048 6.4735 -26.4204
# 3 35.9217 6.2022 80.6792 -6.0737 3.6759 -8.5530
# 4 -7.1998 -4.6048 -6.0737 30.9783 2.5362 0.9429
# 5 4.2999 6.4735 3.6759 2.5362 23.8951 -0.0470
# 6 -25.5937 -26.4204 -8.5530 0.9429 -0.0470 35.1335
#
#
#
# Elastic Compliance Matrix: (Units=1/GPa)
#
#
# Indices 1 2 3 4 5 6 
#
# 1 0.014655 -0.004666 -0.005403 0.001533 -0.000693 0.005810
# 2 -0.004666 0.035468 0.002671 0.004777 -0.009640 0.023782
# 3 -0.005403 0.002671 0.015045 0.002228 -0.002299 0.001672
# 4 0.001533 0.004777 0.002228 0.034104 -0.005524 0.004329
# 5 -0.000693 -0.009640 -0.002299 -0.005524 0.045510 -0.008105
# 6 0.005810 0.023782 0.001672 0.004329 -0.008105 0.050859
#
#
# Mechanical properties :
#
#
# Convention : Reuss Voigt Hill
#
# Bulk Modulus (GPa) = 19.85250 42.10072 30.97661
# Shear Modulus (GPa) = 22.00425 28.83081 25.41753
#
# Velocity S-wave (km/s) = 3.07109 3.51534 3.30070
# Velocity P-wave (km/s) = 4.59181 5.87556 5.27290
#
# Compressibility (1/GPa) = 0.05037148
#
# Stress axis : x y z
#
# Youngs Moduli (GPa) = 68.23590 28.19443 66.46715
#
# Poissons Ratio (x) = 0.13154 0.35915
# Poissons Ratio (y) = 0.31836 -0.17752
# Poissons Ratio (z) = 0.36871 -0.07530
#
# Static dielectric constant tensor:
#      x y z
#    x 1.873810 0.015280 0.005090 
#    y 0.015280 1.855530 0.033880 
#    z 0.005090 0.033880 1.839590 
# 
# From -- ./inp_files/95143.got.cif
#   From: 2010.05.17/outbox.cif.g08.bks.cpg/sg2_48_cif.got.tgz:95143.got - 2010.06.03 11:33:40.
