data_PCOD9047915
_publ_section_title
;
Structure prediction by ZEFSAII (Michael W. Deem and Ramdas Pophale) SiO2 
 PCOD9047915
Probable space group: P -1
;
_chemical_formula_sum "Si O2"
_cell_formula_units_Z 16
_cell_length_a 7.557587
_cell_length_b 11.281534
_cell_length_c 18.954881
_cell_angle_alpha 32.046443
_cell_angle_beta 102.335395
_cell_angle_gamma 104.616617
_cell_volume 829.768444
_symmetry_space_group_name_H-M "P -1"
_symmetry_group_IT_number 2
_symmetry_cell_setting 'triclinic'
loop_
_space_group_symop_operation_xyz
x,y,z
-x,-y,-z
loop_
_atom_site_type_symbol
_atom_site_label
_atom_site_fract_x
_atom_site_fract_y
_atom_site_fract_z
Si Si1 0.325106 0.557759 0.804045
Si Si2 0.405268 0.088623 0.558104
Si Si3 0.412882 0.827455 0.318112
Si Si4 0.771122 0.614306 0.417445
Si Si5 0.891061 0.347770 0.125911
Si Si6 0.519754 0.297994 0.048560
Si Si7 0.976073 0.898830 0.408424
Si Si8 0.267696 0.604040 0.624619
O O1 0.185352 0.536426 0.869790
O O2 0.243361 0.485507 0.757800
O O3 0.386664 0.827770 0.665852
O O4 0.486581 0.417401 0.911912
O O5 0.523380 0.104401 0.631743
O O6 0.204489 0.139129 0.538159
O O7 0.521865 0.276878 0.425481
O O8 0.581401 0.720891 0.351805
O O9 0.256987 0.617195 0.422085
O O10 0.384284 0.063222 0.161402
O O11 0.922875 0.775800 0.391471
O O12 0.790682 0.553135 0.368440
O O13 0.713887 0.233069 0.124061
O O14 0.006271 0.161799 0.259848
O O15 0.000000 0.500000 0.000000
O O16 0.500000 0.500000 0.000000
O O17 0.142451 0.803394 0.507295
#
# Coordination Sequence:
#
# PCOD9047915 Si02
#       8
#     2   2   2   2   2   2   2   2
#     4  10  21  36  51  82 117 144 186 230 280 346
#     4   9  18  35  54  83 110 145 184 234 285 326
#     4   9  15  32  59  82 104 143 193 237 270 328
#     4   9  18  33  57  82 109 144 192 234 275 323
#     4  10  21  35  58  83 109 148 189 236 284 325
#     4  10  17  34  58  78 112 141 187 233 273 334
#     4  10  20  38  58  83 113 144 194 240 266 332
#     4  11  22  33  55  84 115 151 183 226 291 335
#
# _framework density 19.282488000000001
#
# number of rings (size 3 to 8) (size 9 to 14) (size 15 to 20)
#    0.000    2.250    5.000    1.500    1.750    3.000 
#    2.250    0.625    0.000    1.500    0.000    0.000 
#    0.000    0.000    0.000    0.000    0.000    0.000 
#
# Total GULP energy -89093.980684 kJ/mol
# GULP energy per Si atom -5568.373793 kJ/mol
# Density = 1.923860 g / cm^3
# Si number density = 19.282488 Si / 1000 Ang^3
#
#
#
# Elastic Constant Matrix: (Units=GPa)
#
#
# Indices 1 2 3 4 5 6 
#
# 1 29.9255 6.1735 22.5327 9.4305 -4.9095 -12.2284
# 2 6.1735 49.8401 35.8122 10.1834 -1.9127 -14.3464
# 3 22.5327 35.8122 84.6521 13.6111 4.8916 -10.6677
# 4 9.4305 10.1834 13.6111 36.1111 0.1306 -2.9168
# 5 -4.9095 -1.9127 4.8916 0.1306 32.1046 0.1974
# 6 -12.2284 -14.3464 -10.6677 -2.9168 0.1974 11.2072
#
#
#
# Elastic Compliance Matrix: (Units=1/GPa)
#
#
# Indices 1 2 3 4 5 6 
#
# 1 0.174899 0.098663 -0.052802 -0.032930 0.039219 0.257612
# 2 0.098663 0.096858 -0.041753 -0.022446 0.026170 0.185595
# 3 -0.052802 -0.041753 0.033623 0.006723 -0.015239 -0.077039
# 4 -0.032930 -0.022446 0.006723 0.036179 -0.007245 -0.048721
# 5 0.039219 0.026170 -0.015239 -0.007245 0.040692 0.059186
# 6 0.257612 0.185595 -0.077039 -0.048721 0.059186 0.520839
#
#
# Mechanical properties :
#
#
# Convention : Reuss Voigt Hill
#
# Bulk Modulus (GPa) = 3.18882 32.60607 17.89745
# Shear Modulus (GPa) = 5.00297 22.54454 13.77376
#
# Velocity S-wave (km/s) = 1.61251 3.42303 2.67557
# Velocity P-wave (km/s) = 2.26368 5.70694 4.34128
#
# Compressibility (1/GPa) = 0.31359582
#
# Stress axis : x y z
#
# Youngs Moduli (GPa) = 5.71758 10.32440 29.74160
#
# Poissons Ratio (x) = -1.01863 1.57042
# Poissons Ratio (y) = -0.56411 1.24180
# Poissons Ratio (z) = 0.30190 0.43107
#
# Static dielectric constant tensor:
#      x y z
#    x 1.766840 -0.004190 -0.029910 
#    y -0.004190 1.712170 -0.031900 
#    z -0.029910 -0.031900 1.706170 
# 
# From -- ./inp_files/170719.got.cif
#   From: 2010.05.17/outbox.cif.g08.bks.cpg/sg2_86_cif.got.tgz:170719.got - 2010.06.03 11:33:40.
