data_PCOD9047621
_publ_section_title
;
Structure prediction by ZEFSAII (Michael W. Deem and Ramdas Pophale) SiO2 
 PCOD9047621
Probable space group: P -1
;
_chemical_formula_sum "Si O2"
_cell_formula_units_Z 16
_cell_length_a 9.077749
_cell_length_b 16.082137
_cell_length_c 7.847099
_cell_angle_alpha 85.760377
_cell_angle_beta 47.048230
_cell_angle_gamma 113.222417
_cell_volume 663.114890
_symmetry_space_group_name_H-M "P -1"
_symmetry_group_IT_number 2
_symmetry_cell_setting 'triclinic'
loop_
_space_group_symop_operation_xyz
x,y,z
-x,-y,-z
loop_
_atom_site_type_symbol
_atom_site_label
_atom_site_fract_x
_atom_site_fract_y
_atom_site_fract_z
Si Si1 0.589258 0.400398 0.262839
Si Si2 0.535399 0.043698 0.271164
Si Si3 0.117002 0.727766 0.546697
Si Si4 0.290752 0.080805 0.892888
Si Si5 0.084486 0.538990 0.690793
Si Si6 0.287150 0.457697 0.321710
Si Si7 0.976501 0.877239 0.617651
Si Si8 0.655466 0.837665 0.536876
O O1 0.767796 0.463774 0.269975
O O2 0.399548 0.427566 0.382432
O O3 0.445109 0.277842 0.415233
O O4 0.790000 0.440996 0.944062
O O5 0.732448 0.025512 0.049478
O O6 0.277662 0.970968 0.375054
O O7 0.500000 0.000000 0.500000
O O8 0.566015 0.150814 0.240677
O O9 0.412464 0.825651 0.308763
O O10 0.092079 0.640557 0.699285
O O11 0.980895 0.651560 0.502920
O O12 0.962268 0.774640 0.685799
O O13 0.243511 0.096531 0.731096
O O14 0.136417 0.097506 0.143154
O O15 0.232456 0.537183 0.415015
O O16 0.500000 0.500000 0.000000
O O17 0.833838 0.867297 0.557806
#
# Coordination Sequence:
#
# PCOD9047621 Si02
#       8
#     2   2   2   2   2   2   2   2
#     4  11  24  44  62  98 129 176 224 274 326 397
#     4   9  22  45  68 101 137 167 217 274 327 401
#     4  11  23  40  64  96 128 174 219 272 327 394
#     4  10  24  44  68  97 134 174 217 270 335 394
#     4  11  25  43  65  90 137 174 222 274 332 389
#     4  12  25  40  66  93 130 175 223 279 334 389
#     4  11  24  43  71  98 134 174 218 271 334 393
#     4  11  22  43  69  97 135 168 225 273 322 398
#
# _framework density 24.128549
#
# number of rings (size 3 to 8) (size 9 to 14) (size 15 to 20)
#    0.000    1.250    3.750    1.125    3.500    2.500 
#    4.500    8.750    0.000    0.000    0.000    0.000 
#    0.000    0.000    0.000    0.000    0.000    0.000 
#
# Total GULP energy -89296.145407 kJ/mol
# GULP energy per Si atom -5581.009088 kJ/mol
# Density = 2.407363 g / cm^3
# Si number density = 24.128549 Si / 1000 Ang^3
#
#
#
# Elastic Constant Matrix: (Units=GPa)
#
#
# Indices 1 2 3 4 5 6 
#
# 1 176.0227 22.9056 43.1033 14.5069 -21.6407 -1.9057
# 2 22.9056 104.9954 42.2766 35.4454 -5.8966 -36.2752
# 3 43.1033 42.2766 93.3568 34.9193 4.7868 -10.3213
# 4 14.5069 35.4454 34.9193 31.7370 -1.5199 -5.1312
# 5 -21.6407 -5.8966 4.7868 -1.5199 31.9430 8.5433
# 6 -1.9057 -36.2752 -10.3213 -5.1312 8.5433 46.8797
#
#
#
# Elastic Compliance Matrix: (Units=1/GPa)
#
#
# Indices 1 2 3 4 5 6 
#
# 1 0.007479 -0.001324 -0.004579 0.002988 0.006335 -0.002556
# 2 -0.001324 0.022411 0.000869 -0.023000 -0.002088 0.015342
# 3 -0.004579 0.000869 0.021776 -0.022537 -0.008441 0.004352
# 4 0.002988 -0.023000 -0.022537 0.078525 0.009091 -0.015700
# 5 0.006335 -0.002088 -0.008441 0.009091 0.039425 -0.009406
# 6 -0.002556 0.015342 0.004352 -0.015700 -0.009406 0.034053
#
#
# Mechanical properties :
#
#
# Convention : Reuss Voigt Hill
#
# Bulk Modulus (GPa) = 24.03936 65.66066 44.85001
# Shear Modulus (GPa) = 21.96794 39.85123 30.90959
#
# Velocity S-wave (km/s) = 3.02065 4.06842 3.58304
# Velocity P-wave (km/s) = 4.70642 7.02434 5.97879
#
# Compressibility (1/GPa) = 0.04159845
#
# Stress axis : x y z
#
# Youngs Moduli (GPa) = 133.69938 44.62048 45.92178
#
# Poissons Ratio (x) = 0.05908 0.21026
# Poissons Ratio (y) = 0.17703 -0.03988
# Poissons Ratio (z) = 0.61216 -0.03875
#
# Static dielectric constant tensor:
#      x y z
#    x 1.961730 -0.005070 0.029580 
#    y -0.005070 1.930680 -0.009920 
#    z 0.029580 -0.009920 2.004320 
# 
# From -- ./inp_files/207266.got.cif
#   From: 2010.05.17/outbox.cif.g08.bks.cpg/sg2_104_cif.got.tgz:207266.got - 2010.06.03 11:33:40.
