data_PCOD9047716
_publ_section_title
;
Structure prediction by ZEFSAII (Michael W. Deem and Ramdas Pophale) SiO2 
 PCOD9047716
Probable space group: P -1
;
_chemical_formula_sum "Si O2"
_cell_formula_units_Z 16
_cell_length_a 9.445582
_cell_length_b 9.237717
_cell_length_c 11.642107
_cell_angle_alpha 79.606587
_cell_angle_beta 98.939371
_cell_angle_gamma 133.152487
_cell_volume 728.206366
_symmetry_space_group_name_H-M "P -1"
_symmetry_group_IT_number 2
_symmetry_cell_setting 'triclinic'
loop_
_space_group_symop_operation_xyz
x,y,z
-x,-y,-z
loop_
_atom_site_type_symbol
_atom_site_label
_atom_site_fract_x
_atom_site_fract_y
_atom_site_fract_z
Si Si1 0.896146 0.877652 0.384533
Si Si2 0.207922 0.475607 0.942021
Si Si3 0.925590 0.288557 0.549880
Si Si4 0.689658 0.162659 0.767141
Si Si5 0.595087 0.909397 0.988323
Si Si6 0.046512 0.415077 0.171172
Si Si7 0.888105 0.894916 0.121628
Si Si8 0.726717 0.045707 0.337327
O O1 0.980599 0.959009 0.252562
O O2 0.896800 0.703442 0.424172
O O3 0.712517 0.858769 0.361941
O O4 0.000000 0.000000 0.500000
O O5 0.426506 0.682900 0.959692
O O6 0.199050 0.329247 0.879297
O O7 0.091660 0.539281 0.875798
O O8 0.106375 0.375084 0.067394
O O9 0.817806 0.218049 0.666266
O O10 0.769389 0.128645 0.459182
O O11 0.000000 0.500000 0.500000
O O12 0.759084 0.370324 0.790647
O O13 0.725211 0.058686 0.878627
O O14 0.462843 0.011712 0.730397
O O15 0.723956 0.910093 0.094942
O O16 0.500000 0.000000 0.000000
O O17 0.923466 0.231295 0.268848
O O18 0.000000 0.000000 0.000000
#
# Coordination Sequence:
#
# PCOD9047716 Si02
#       8
#     2   2   2   2   2   2   2   2
#     4  10  24  44  69  98 138 184 230 286 350 414
#     4  11  24  40  64 104 141 181 233 285 350 418
#     4  11  23  43  71  98 132 183 239 289 346 415
#     4  12  23  41  69 102 136 181 231 288 347 416
#     4  12  24  42  68 103 143 185 230 288 356 430
#     4  11  22  39  68  97 138 183 226 279 354 416
#     4  12  25  42  68 106 143 183 233 293 353 414
#     4  11  23  43  69  97 135 185 231 284 346 420
#
# _framework density 21.971795
#
# number of rings (size 3 to 8) (size 9 to 14) (size 15 to 20)
#    0.000    0.750    3.750    4.500    1.750    0.000 
#    0.000    0.625    2.750    0.000    0.000    0.000 
#    0.000    0.000    0.000    0.000    0.000    0.000 
#
# Total GULP energy -89308.424567 kJ/mol
# GULP energy per Si atom -5581.776535 kJ/mol
# Density = 2.192179 g / cm^3
# Si number density = 21.971795 Si / 1000 Ang^3
#
#
#
# Elastic Constant Matrix: (Units=GPa)
#
#
# Indices 1 2 3 4 5 6 
#
# 1 77.2745 27.2256 35.0217 -3.1728 9.7286 -28.2539
# 2 27.2256 88.3076 34.2129 0.0334 -3.5819 -9.1606
# 3 35.0217 34.2129 141.6296 4.9090 -7.7810 -12.3757
# 4 -3.1728 0.0334 4.9090 32.7691 -2.2541 0.8212
# 5 9.7286 -3.5819 -7.7810 -2.2541 41.0613 1.9633
# 6 -28.2539 -9.1606 -12.3757 0.8212 1.9633 36.8521
#
#
#
# Elastic Compliance Matrix: (Units=1/GPa)
#
#
# Indices 1 2 3 4 5 6 
#
# 1 0.022749 -0.004264 -0.003698 0.001885 -0.007099 0.015475
# 2 -0.004264 0.013475 -0.002168 0.000041 0.001813 -0.000745
# 3 -0.003698 -0.002168 0.008625 -0.001478 0.002268 -0.000566
# 4 0.001885 0.000041 -0.001478 0.030981 0.000967 0.000217
# 5 -0.007099 0.001813 0.002268 0.000967 0.026949 -0.005688
# 6 0.015475 -0.000745 -0.000566 0.000217 -0.005688 0.038923
#
#
# Mechanical properties :
#
#
# Convention : Reuss Voigt Hill
#
# Bulk Modulus (GPa) = 40.66896 55.57023 48.11959
# Shear Modulus (GPa) = 29.38446 36.18660 32.78553
#
# Velocity S-wave (km/s) = 3.66098 4.06267 3.86705
# Velocity P-wave (km/s) = 6.03491 6.88140 6.47201
#
# Compressibility (1/GPa) = 0.02458878
#
# Stress axis : x y z
#
# Youngs Moduli (GPa) = 43.95855 74.21328 115.93984
#
# Poissons Ratio (x) = 0.31645 0.42878
# Poissons Ratio (y) = 0.18744 0.25131
# Poissons Ratio (z) = 0.16257 0.16086
#
# Static dielectric constant tensor:
#      x y z
#    x 1.945310 -0.105710 0.038180 
#    y -0.105710 1.889160 -0.045320 
#    z 0.038180 -0.045320 1.898710 
# 
# From -- ./inp_files/382034.got.cif
#   From: 2010.05.17/outbox.cif.g08.bks.cpg/sg2_192_cif.got.tgz:382034.got - 2010.06.03 11:33:40.
