data_PCOD9047622
_publ_section_title
;
Structure prediction by ZEFSAII (Michael W. Deem and Ramdas Pophale) SiO2 
 PCOD9047622
Probable space group: P -1
;
_chemical_formula_sum "Si O2"
_cell_formula_units_Z 16
_cell_length_a 12.290587
_cell_length_b 7.244823
_cell_length_c 14.114753
_cell_angle_alpha 49.934185
_cell_angle_beta 42.112477
_cell_angle_gamma 69.687072
_cell_volume 623.856777
_symmetry_space_group_name_H-M "P -1"
_symmetry_group_IT_number 2
_symmetry_cell_setting 'triclinic'
loop_
_space_group_symop_operation_xyz
x,y,z
-x,-y,-z
loop_
_atom_site_type_symbol
_atom_site_label
_atom_site_fract_x
_atom_site_fract_y
_atom_site_fract_z
Si Si1 0.419295 0.678730 0.929536
Si Si2 0.995288 0.163198 0.735101
Si Si3 0.034112 0.730704 0.974166
Si Si4 0.298039 0.842428 0.473909
Si Si5 0.677021 0.152888 0.874508
Si Si6 0.632934 0.255359 0.326131
Si Si7 0.653858 0.517225 0.611564
Si Si8 0.953739 0.561479 0.762514
O O1 0.567529 0.885474 0.711678
O O2 0.500000 0.500000 0.000000
O O3 0.350264 0.843726 0.996520
O O4 0.244001 0.486339 0.070863
O O5 0.853144 0.079440 0.774296
O O6 0.970656 0.434417 0.692780
O O7 0.196348 0.228158 0.572119
O O8 0.958514 0.941615 0.909380
O O9 0.233688 0.800667 0.814992
O O10 0.985901 0.629978 0.142081
O O11 0.000000 0.500000 0.000000
O O12 0.313314 0.714777 0.608131
O O13 0.330761 0.667099 0.424339
O O14 0.096826 0.818336 0.598712
O O15 0.689812 0.404625 0.725235
O O16 0.500000 0.000000 0.000000
O O17 0.533875 0.450100 0.287866
O O18 0.500000 0.000000 0.500000
#
# Coordination Sequence:
#
# PCOD9047622 Si02
#       8
#     2   2   2   2   2   2   2   2
#     4  11  26  43  69  99 139 180 222 287 339 402
#     4  10  24  44  68  97 134 181 226 280 335 410
#     4  12  24  41  66 102 139 172 220 285 345 398
#     4  11  24  47  67 101 136 182 232 271 345 409
#     4  11  24  44  68  99 130 179 230 272 337 410
#     4  12  25  42  69 105 135 173 222 288 347 396
#     4  11  24  45  71  96 137 180 229 280 333 419
#     4  10  24  45  68  96 139 181 227 275 340 409
#
# _framework density 25.646915
#
# number of rings (size 3 to 8) (size 9 to 14) (size 15 to 20)
#    0.000    1.000    3.750    1.875    5.250    0.500 
#    2.250    0.000    0.000    0.000    0.000    0.000 
#    0.000    0.000    0.000    0.000    0.000    0.000 
#
# Total GULP energy -89183.176858 kJ/mol
# GULP energy per Si atom -5573.948554 kJ/mol
# Density = 2.558854 g / cm^3
# Si number density = 25.646915 Si / 1000 Ang^3
#
#
#
# Elastic Constant Matrix: (Units=GPa)
#
#
# Indices 1 2 3 4 5 6 
#
# 1 129.0936 24.4969 44.9130 -0.7272 -29.9325 -17.3119
# 2 24.4969 64.2265 13.6240 6.7084 -13.3149 -3.6981
# 3 44.9130 13.6240 118.6538 0.0832 -27.8725 -4.1232
# 4 -0.7272 6.7084 0.0832 30.4514 6.7795 -4.4053
# 5 -29.9325 -13.3149 -27.8725 6.7795 60.8252 -2.4184
# 6 -17.3119 -3.6981 -4.1232 -4.4053 -2.4184 49.6511
#
#
#
# Elastic Compliance Matrix: (Units=1/GPa)
#
#
# Indices 1 2 3 4 5 6 
#
# 1 0.010436 -0.002556 -0.002740 0.000561 0.003394 0.003436
# 2 -0.002556 0.017728 -0.000361 -0.004608 0.002976 0.000135
# 3 -0.002740 -0.000361 0.010299 -0.000770 0.003377 -0.000031
# 4 0.000561 -0.004608 -0.000770 0.035354 -0.004919 0.002686
# 5 0.003394 0.002976 0.003377 -0.004919 0.020948 0.002269
# 6 0.003436 0.000135 -0.000031 0.002686 0.002269 0.021695
#
#
# Mechanical properties :
#
#
# Convention : Reuss Voigt Hill
#
# Bulk Modulus (GPa) = 36.83526 53.11578 44.97552
# Shear Modulus (GPa) = 36.54352 43.44820 39.99586
#
# Velocity S-wave (km/s) = 3.77884 4.12040 3.95331
# Velocity P-wave (km/s) = 5.78214 6.58728 6.19780
#
# Compressibility (1/GPa) = 0.02714790
#
# Stress axis : x y z
#
# Youngs Moduli (GPa) = 95.82515 56.40932 97.09464
#
# Poissons Ratio (x) = 0.14419 0.26607
# Poissons Ratio (y) = 0.24494 0.03504
# Poissons Ratio (z) = 0.26259 0.02035
#
# Static dielectric constant tensor:
#      x y z
#    x 2.130890 0.045090 -0.038170 
#    y 0.045090 2.064400 0.038600 
#    z -0.038170 0.038600 2.126450 
# 
# From -- ./inp_files/242866.got.cif
#   From: 2010.05.17/outbox.cif.g08.bks.cpg/sg2_122_cif.got.tgz:242866.got - 2010.06.03 11:33:40.
