data_PCOD9047154
_publ_section_title
;
Structure prediction by ZEFSAII (Michael W. Deem and Ramdas Pophale) SiO2 
 PCOD9047154
Probable space group: P -1
;
_chemical_formula_sum "Si O2"
_cell_formula_units_Z 16
_cell_length_a 15.748357
_cell_length_b 11.519680
_cell_length_c 7.045753
_cell_angle_alpha 80.148673
_cell_angle_beta 113.340772
_cell_angle_gamma 46.576149
_cell_volume 636.618348
_symmetry_space_group_name_H-M "P -1"
_symmetry_group_IT_number 2
_symmetry_cell_setting 'triclinic'
loop_
_space_group_symop_operation_xyz
x,y,z
-x,-y,-z
loop_
_atom_site_type_symbol
_atom_site_label
_atom_site_fract_x
_atom_site_fract_y
_atom_site_fract_z
Si Si1 0.372027 0.207909 0.193244
Si Si2 0.790722 0.600933 0.642984
Si Si3 0.362001 0.473512 0.496389
Si Si4 0.261759 0.744840 0.659071
Si Si5 0.875524 0.140213 0.089525
Si Si6 0.863146 0.881402 0.041604
Si Si7 0.806820 0.744843 0.297481
Si Si8 0.585775 0.204229 0.427979
O O1 0.208056 0.391801 0.131743
O O2 0.453963 0.248379 0.226483
O O3 0.251276 0.027421 0.265904
O O4 0.315467 0.203059 0.956702
O O5 0.646131 0.658549 0.453096
O O6 0.765144 0.751786 0.472434
O O7 0.955994 0.365417 0.771432
O O8 0.350668 0.551535 0.662775
O O9 0.507986 0.347351 0.510732
O O10 0.197906 0.692629 0.175317
O O11 0.242534 0.731534 0.864719
O O12 0.356825 0.763175 0.684766
O O13 0.066885 0.966208 0.360287
O O14 0.871426 0.011534 0.045113
O O15 0.794348 0.890494 0.168108
O O16 0.000000 0.500000 0.500000
O O17 0.500000 0.000000 0.500000
#
# Coordination Sequence:
#
# PCOD9047154 Si02
#       8
#     2   2   2   2   2   2   2   2
#     4  11  24  47  69 104 140 179 233 287 349 415
#     4  10  24  43  72  98 137 186 224 287 341 410
#     4  11  22  43  64  96 142 180 222 282 350 406
#     4  11  23  42  66  99 131 185 228 284 342 409
#     4  11  24  41  69  98 135 179 239 282 331 420
#     4  11  21  45  66 100 136 180 233 283 343 407
#     4  10  24  46  71 100 134 179 236 279 338 416
#     4  11  24  42  68 101 141 183 222 288 357 410
#
# _framework density 25.132798000000001
#
# number of rings (size 3 to 8) (size 9 to 14) (size 15 to 20)
#    0.000    1.250    3.750    1.500    0.000    6.000 
#   13.500    0.000    0.000    0.000    0.000    0.000 
#    0.000    0.000    0.000    0.000    0.000    0.000 
#
# Total GULP energy -89647.982999 kJ/mol
# GULP energy per Si atom -5602.998937 kJ/mol
# Density = 2.507559 g / cm^3
# Si number density = 25.132798 Si / 1000 Ang^3
#
#
#
# Elastic Constant Matrix: (Units=GPa)
#
#
# Indices 1 2 3 4 5 6 
#
# 1 164.0913 38.8941 33.9014 8.4537 -15.2267 -5.9396
# 2 38.8941 84.3831 10.7964 5.9358 -2.4348 -12.3835
# 3 33.9014 10.7964 82.0277 7.1348 3.5580 2.4984
# 4 8.4537 5.9358 7.1348 19.5123 0.0339 -9.3843
# 5 -15.2267 -2.4348 3.5580 0.0339 37.2011 -3.2034
# 6 -5.9396 -12.3835 2.4984 -9.3843 -3.2034 33.7773
#
#
#
# Elastic Compliance Matrix: (Units=1/GPa)
#
#
# Indices 1 2 3 4 5 6 
#
# 1 0.007778 -0.002968 -0.002878 -0.001192 0.003306 0.000475
# 2 -0.002968 0.014019 -0.000717 -0.000534 0.000163 0.004538
# 3 -0.002878 -0.000717 0.014184 -0.005451 -0.002887 -0.003606
# 4 -0.001192 -0.000534 -0.005451 0.062310 0.001444 0.017446
# 5 0.003306 0.000163 -0.002887 0.001444 0.028864 0.003993
# 6 0.000475 0.004538 -0.003606 0.017446 0.003993 0.036845
#
#
# Mechanical properties :
#
#
# Convention : Reuss Voigt Hill
#
# Bulk Modulus (GPa) = 43.75590 55.29843 49.52716
# Shear Modulus (GPa) = 27.06459 34.55882 30.81170
#
# Velocity S-wave (km/s) = 3.28512 3.71219 3.50516
# Velocity P-wave (km/s) = 5.64243 6.35799 6.01087
#
# Compressibility (1/GPa) = 0.02285406
#
# Stress axis : x y z
#
# Youngs Moduli (GPa) = 128.57423 71.33384 70.50157
#
# Poissons Ratio (x) = 0.21170 0.20291
# Poissons Ratio (y) = 0.38157 0.05058
# Poissons Ratio (z) = 0.37004 0.05117
#
# Static dielectric constant tensor:
#      x y z
#    x 1.994290 -0.048240 0.025690 
#    y -0.048240 1.999310 -0.029490 
#    z 0.025690 -0.029490 1.985010 
# 
# From -- ./inp_files/327606.got.cif
#   From: 2010.05.17/outbox.cif.g08.bks.cpg/sg2_164_cif.got.tgz:327606.got - 2010.06.03 11:33:40.
