data_PCOD9047655
_publ_section_title
;
Structure prediction by ZEFSAII (Michael W. Deem and Ramdas Pophale) SiO2 
 PCOD9047655
Probable space group: P -1
;
_chemical_formula_sum "Si O2"
_cell_formula_units_Z 16
_cell_length_a 11.738712
_cell_length_b 21.226873
_cell_length_c 9.247032
_cell_angle_alpha 137.898814
_cell_angle_beta 69.754726
_cell_angle_gamma 144.183448
_cell_volume 685.806987
_symmetry_space_group_name_H-M "P -1"
_symmetry_group_IT_number 2
_symmetry_cell_setting 'triclinic'
loop_
_space_group_symop_operation_xyz
x,y,z
-x,-y,-z
loop_
_atom_site_type_symbol
_atom_site_label
_atom_site_fract_x
_atom_site_fract_y
_atom_site_fract_z
Si Si1 0.143572 0.678847 0.825574
Si Si2 0.068308 0.274980 0.447322
Si Si3 0.381126 0.658356 0.384931
Si Si4 0.521885 0.717616 0.096160
Si Si5 0.160248 0.226024 0.832454
Si Si6 0.679340 0.698167 0.434230
Si Si7 0.587829 0.960852 0.323586
Si Si8 0.763664 0.066629 0.926542
O O1 0.244903 0.833280 0.950869
O O2 0.000000 0.500000 0.500000
O O3 0.910550 0.560971 0.822859
O O4 0.373700 0.795104 0.014651
O O5 0.163898 0.236649 0.390241
O O6 0.927293 0.174428 0.184963
O O7 0.308390 0.511803 0.750257
O O8 0.859600 0.160485 0.465740
O O9 0.412851 0.651683 0.193797
O O10 0.584308 0.739666 0.532920
O O11 0.478522 0.830332 0.656271
O O12 0.773349 0.824892 0.197563
O O13 0.578636 0.860133 0.253253
O O14 0.181333 0.231454 0.658737
O O15 0.409667 0.459510 0.152416
O O16 0.914800 0.107649 0.809146
O O17 0.500000 0.000000 0.500000
#
# Coordination Sequence:
#
# PCOD9047655 Si02
#       8
#     2   2   2   2   2   2   2   2
#     4  12  27  47  66  92 143 184 223 271 336 407
#     4  11  26  44  66 106 138 173 225 283 337 398
#     4  11  24  43  71 103 129 182 226 276 335 404
#     4  10  24  44  69 101 135 175 223 285 333 394
#     4   9  20  41  70 100 135 177 220 273 342 404
#     4   9  20  41  71  98 139 170 222 281 333 401
#     4  12  27  44  71  99 133 183 230 279 324 402
#     4  12  26  42  70 104 135 180 222 277 344 401
#
# _framework density 23.330179999999999
#
# number of rings (size 3 to 8) (size 9 to 14) (size 15 to 20)
#    0.000    1.250    1.250    3.750    5.250    9.500 
#    2.250    0.000    0.000    0.000    0.000    0.000 
#    0.000    0.000    0.000    0.000    0.000    0.000 
#
# Total GULP energy -89530.762490 kJ/mol
# GULP energy per Si atom -5595.672656 kJ/mol
# Density = 2.327708 g / cm^3
# Si number density = 23.330180 Si / 1000 Ang^3
#
#
#
# Elastic Constant Matrix: (Units=GPa)
#
#
# Indices 1 2 3 4 5 6 
#
# 1 109.6011 28.9326 4.9888 6.9520 -9.3439 -23.1131
# 2 28.9326 63.5350 2.0987 18.1161 -3.4191 -4.9303
# 3 4.9888 2.0987 75.0351 13.1024 4.1437 -19.4042
# 4 6.9520 18.1161 13.1024 30.3789 -6.1222 2.6480
# 5 -9.3439 -3.4191 4.1437 -6.1222 44.4308 2.9774
# 6 -23.1131 -4.9303 -19.4042 2.6480 2.9774 38.9341
#
#
#
# Elastic Compliance Matrix: (Units=1/GPa)
#
#
# Indices 1 2 3 4 5 6 
#
# 1 0.011956 -0.004620 0.001228 -0.000833 0.001456 0.007069
# 2 -0.004620 0.021752 0.002811 -0.013666 -0.001608 0.002465
# 3 0.001228 0.002811 0.018293 -0.011550 -0.003578 0.011261
# 4 -0.000833 -0.013666 -0.011550 0.048757 0.007363 -0.011860
# 5 0.001456 -0.001608 -0.003578 0.007363 0.024271 -0.003479
# 6 0.007069 0.002465 0.011261 -0.011860 -0.003479 0.036878
#
#
# Mechanical properties :
#
#
# Convention : Reuss Voigt Hill
#
# Bulk Modulus (GPa) = 19.67050 35.57903 27.62477
# Shear Modulus (GPa) = 27.77538 36.89218 32.33378
#
# Velocity S-wave (km/s) = 3.45416 3.98088 3.72683
# Velocity P-wave (km/s) = 4.93537 6.03433 5.51231
#
# Compressibility (1/GPa) = 0.05083755
#
# Stress axis : x y z
#
# Youngs Moduli (GPa) = 83.64269 45.97310 54.66479
#
# Poissons Ratio (x) = 0.21242 -0.06710
# Poissons Ratio (y) = 0.38647 -0.15368
# Poissons Ratio (z) = -0.10268 -0.12924
#
# Static dielectric constant tensor:
#      x y z
#    x 1.926540 0.034200 -0.064840 
#    y 0.034200 1.888820 -0.021200 
#    z -0.064840 -0.021200 1.879560 
# 
# From -- ./inp_files/279872.got.cif
#   From: 2010.05.17/outbox.cif.g08.bks.cpg/sg2_140_cif.got.tgz:279872.got - 2010.06.03 11:33:40.
