data_PCOD9047052
_publ_section_title
;
Structure prediction by ZEFSAII (Michael W. Deem and Ramdas Pophale) SiO2 
 PCOD9047052
Probable space group: P -1
;
_chemical_formula_sum "Si O2"
_cell_formula_units_Z 12
_cell_length_a 8.520542
_cell_length_b 15.733813
_cell_length_c 9.226638
_cell_angle_alpha 49.416556
_cell_angle_beta 91.320921
_cell_angle_gamma 51.562429
_cell_volume 511.703034
_symmetry_space_group_name_H-M "P -1"
_symmetry_group_IT_number 2
_symmetry_cell_setting 'triclinic'
loop_
_space_group_symop_operation_xyz
x,y,z
-x,-y,-z
loop_
_atom_site_type_symbol
_atom_site_label
_atom_site_fract_x
_atom_site_fract_y
_atom_site_fract_z
Si Si1 0.877414 0.283772 0.864890
Si Si2 0.974520 0.628391 0.665060
Si Si3 0.280168 0.412529 0.631471
Si Si4 0.229882 0.494490 0.130711
Si Si5 0.786618 0.939214 0.180484
Si Si6 0.076939 0.937218 0.399891
O O1 0.652206 0.515421 0.540093
O O2 0.914859 0.325560 0.971239
O O3 0.072542 0.167733 0.853625
O O4 0.918061 0.132057 0.089757
O O5 0.871527 0.563834 0.745795
O O6 0.723819 0.857236 0.343254
O O7 0.231983 0.482282 0.716883
O O8 0.095733 0.590088 0.864083
O O9 0.000000 0.500000 0.500000
O O10 0.530311 0.175369 0.885674
O O11 0.575469 0.277777 0.367101
O O12 0.975935 0.886900 0.366726
O O13 0.000000 0.000000 0.500000
#
# Coordination Sequence:
#
# PCOD9047052 Si02
#       6
#     2   2   2   2   2   2
#     4  11  25  43  72  99 137 180 221 282 331 406
#     4  10  24  43  71 101 135 178 223 284 331 407
#     4  11  23  43  69 102 134 175 222 279 341 393
#     4  11  24  45  69 102 136 179 228 274 345 392
#     4  11  26  44  70 103 137 176 228 276 341 402
#     4  12  27  46  69 100 137 184 226 278 333 408
#
# _framework density 23.451101999999999
#
# number of rings (size 3 to 8) (size 9 to 14) (size 15 to 20)
#    0.000    1.000    1.667    3.500    2.333    8.000 
#    0.000    4.167    0.000    0.000    0.000    0.000 
#    0.000    0.000    0.000    0.000    0.000    0.000 
#
# Total GULP energy -66894.556860 kJ/mol
# GULP energy per Si atom -5574.546405 kJ/mol
# Density = 2.339773 g / cm^3
# Si number density = 23.451102 Si / 1000 Ang^3
#
#
#
# Elastic Constant Matrix: (Units=GPa)
#
#
# Indices 1 2 3 4 5 6 
#
# 1 63.6755 32.0278 36.0372 1.8150 -17.9869 11.8410
# 2 32.0278 118.7898 -32.8431 4.2620 1.5721 13.6677
# 3 36.0372 -32.8431 52.8664 -31.8076 -37.7784 -18.2278
# 4 1.8150 4.2620 -31.8076 37.7920 -5.0641 -14.7577
# 5 -17.9869 1.5721 -37.7784 -5.0641 50.4300 -5.4638
# 6 11.8410 13.6677 -18.2278 -14.7577 -5.4638 26.6533
#
#
#
# Elastic Compliance Matrix: (Units=1/GPa)
#
#
# Indices 1 2 3 4 5 6 
#
# 1 0.014800 -0.003592 0.007667 0.011748 0.013371 0.009755
# 2 -0.003592 0.010317 -0.001645 -0.006669 -0.004528 -0.009441
# 3 0.007667 -0.001645 -0.008777 -0.015957 -0.007442 -0.018926
# 4 0.011748 -0.006669 -0.015957 0.008413 -0.007756 -0.009644
# 5 0.013371 -0.004528 -0.007442 -0.007756 0.017363 -0.009443
# 6 0.009755 -0.009441 -0.018926 -0.009644 -0.009443 0.017808
#
#
# Mechanical properties :
#
#
# Convention : Reuss Voigt Hill
#
# Bulk Modulus (GPa) = 47.16860 33.97504 40.57182
# Shear Modulus (GPa) = 80.47564 36.31571 58.39567
#
# Velocity S-wave (km/s) = 5.86437 3.93946 4.99551
# Velocity P-wave (km/s) = 8.12476 5.93393 7.11418
#
# Compressibility (1/GPa) = 0.02120055
#
# Stress axis : x y z
#
# Youngs Moduli (GPa) = 67.56697 96.92585 -113.93863
#
# Poissons Ratio (x) = 0.34812 0.87353
# Poissons Ratio (y) = 0.24267 -0.18744
# Poissons Ratio (z) = -0.51801 0.15945
#
# Static dielectric constant tensor:
#      x y z
#    x 1.954020 0.024020 0.043020 
#    y 0.024020 1.892560 0.061970 
#    z 0.043020 0.061970 1.957290 
# 
# From -- ./inp_files/26082.got.cif
#   From: 2010.05.17/outbox.cif.g08.bks.cpg/sg2_14_cif.got.tgz:26082.got - 2010.06.03 11:33:40.
