data_PCOD9047629
_publ_section_title
;
Structure prediction by ZEFSAII (Michael W. Deem and Ramdas Pophale) SiO2 
 PCOD9047629
Probable space group: P -1
;
_chemical_formula_sum "Si O2"
_cell_formula_units_Z 16
_cell_length_a 13.524531
_cell_length_b 9.639639
_cell_length_c 5.174665
_cell_angle_alpha 102.739722
_cell_angle_beta 100.723720
_cell_angle_gamma 102.895661
_cell_volume 621.473703
_symmetry_space_group_name_H-M "P -1"
_symmetry_group_IT_number 2
_symmetry_cell_setting 'triclinic'
loop_
_space_group_symop_operation_xyz
x,y,z
-x,-y,-z
loop_
_atom_site_type_symbol
_atom_site_label
_atom_site_fract_x
_atom_site_fract_y
_atom_site_fract_z
Si Si1 0.371540 0.781241 0.095372
Si Si2 0.279798 0.105273 0.657448
Si Si3 0.423665 0.599355 0.443002
Si Si4 0.827240 0.204196 0.696861
Si Si5 0.126906 0.301856 0.729149
Si Si6 0.420674 0.104900 0.222694
Si Si7 0.004534 0.171178 0.116202
Si Si8 0.784598 0.416537 0.426547
O O1 0.420658 0.653300 0.167133
O O2 0.290217 0.795999 0.286199
O O3 0.445089 0.946335 0.182910
O O4 0.290259 0.726782 0.805965
O O5 0.224725 0.235269 0.709396
O O6 0.352358 0.123497 0.446957
O O7 0.188704 0.950586 0.522926
O O8 0.347607 0.101909 0.940936
O O9 0.500000 0.500000 0.500000
O O10 0.478595 0.755358 0.676570
O O11 0.303609 0.525439 0.439431
O O12 0.863093 0.356631 0.617398
O O13 0.896489 0.197482 0.977094
O O14 0.086697 0.268061 0.987145
O O15 0.160646 0.470084 0.719781
O O16 0.040066 0.217736 0.442787
O O17 0.000000 0.000000 0.000000
#
# Coordination Sequence:
#
# PCOD9047629 Si02
#       8
#     2   2   2   2   2   2   2   2
#     4  10  24  44  68  97 143 187 232 289 349 421
#     4  11  23  43  71 104 140 187 233 294 349 412
#     4  11  26  44  69 102 141 184 239 294 347 418
#     4  10  24  45  71 100 143 184 233 291 357 413
#     4  12  28  44  73 108 145 185 236 293 364 414
#     4  11  24  43  72 103 138 192 241 285 344 415
#     4  12  27  46  76 108 141 181 245 297 343 430
#     4  11  26  46  70 101 147 190 227 294 363 422
#
# _framework density 25.745255
#
# number of rings (size 3 to 8) (size 9 to 14) (size 15 to 20)
#    0.000    1.000    2.500    2.250   10.500    2.000 
#    0.000    0.000    0.000    0.000    0.000    0.000 
#    0.000    0.000    0.000    0.000    0.000    0.000 
#
# Total GULP energy -89663.144126 kJ/mol
# GULP energy per Si atom -5603.946508 kJ/mol
# Density = 2.568666 g / cm^3
# Si number density = 25.745255 Si / 1000 Ang^3
#
#
#
# Elastic Constant Matrix: (Units=GPa)
#
#
# Indices 1 2 3 4 5 6 
#
# 1 88.4216 39.2753 12.6722 -14.5700 7.5537 -1.8806
# 2 39.2753 122.4276 -11.3216 -19.1357 3.6844 -5.3584
# 3 12.6722 -11.3216 99.0688 -20.0724 16.0192 -7.4404
# 4 -14.5700 -19.1357 -20.0724 44.9271 -1.3054 7.9241
# 5 7.5537 3.6844 16.0192 -1.3054 40.0478 -13.9930
# 6 -1.8806 -5.3584 -7.4404 7.9241 -13.9930 47.6499
#
#
#
# Elastic Compliance Matrix: (Units=1/GPa)
#
#
# Indices 1 2 3 4 5 6 
#
# 1 0.013929 -0.004279 -0.001618 0.002109 -0.001899 -0.001093
# 2 -0.004279 0.010510 0.002799 0.004230 -0.000981 0.000458
# 3 -0.001618 0.002799 0.012655 0.006222 -0.004897 -0.000246
# 4 0.002109 0.004230 0.006222 0.028168 -0.003855 -0.004286
# 5 -0.001899 -0.000981 -0.004897 -0.003855 0.030248 0.008574
# 6 -0.001093 0.000458 -0.000246 -0.004286 0.008574 0.024187
#
#
# Mechanical properties :
#
#
# Convention : Reuss Voigt Hill
#
# Bulk Modulus (GPa) = 32.36624 43.46331 37.91478
# Shear Modulus (GPa) = 36.71274 44.47776 40.59525
#
# Velocity S-wave (km/s) = 3.78034 4.16096 3.97521
# Velocity P-wave (km/s) = 5.62616 6.32483 5.98570
#
# Compressibility (1/GPa) = 0.03089639
#
# Stress axis : x y z
#
# Youngs Moduli (GPa) = 71.79479 95.14409 79.02059
#
# Poissons Ratio (x) = 0.40712 0.12788
# Poissons Ratio (y) = 0.30721 -0.22115
# Poissons Ratio (z) = 0.11619 -0.26627
#
# Static dielectric constant tensor:
#      x y z
#    x 2.056960 0.064330 -0.103990 
#    y 0.064330 2.041320 -0.027110 
#    z -0.103990 -0.027110 2.060690 
# 
# From -- ./inp_files/47902.got.cif
#   From: 2010.05.17/outbox.cif.g08.bks.cpg/sg2_24_cif.got.tgz:47902.got - 2010.06.03 11:33:40.
