data_PCOD9047701
_publ_section_title
;
Structure prediction by ZEFSAII (Michael W. Deem and Ramdas Pophale) SiO2 
 PCOD9047701
Probable space group: P -1
;
_chemical_formula_sum "Si O2"
_cell_formula_units_Z 16
_cell_length_a 20.881009
_cell_length_b 11.834033
_cell_length_c 8.776009
_cell_angle_alpha 105.572004
_cell_angle_beta 103.985157
_cell_angle_gamma 20.920919
_cell_volume 745.681020
_symmetry_space_group_name_H-M "P -1"
_symmetry_group_IT_number 2
_symmetry_cell_setting 'triclinic'
loop_
_space_group_symop_operation_xyz
x,y,z
-x,-y,-z
loop_
_atom_site_type_symbol
_atom_site_label
_atom_site_fract_x
_atom_site_fract_y
_atom_site_fract_z
Si Si1 0.613467 0.549741 0.361123
Si Si2 0.795852 0.053839 0.810079
Si Si3 0.738410 0.738598 0.681025
Si Si4 0.203680 0.161760 0.046236
Si Si5 0.828074 0.332625 0.613753
Si Si6 0.918870 0.052329 0.104925
Si Si7 0.922646 0.749243 0.484881
Si Si8 0.599004 0.293872 0.276975
O O1 0.690730 0.457103 0.537742
O O2 0.748416 0.366115 0.232243
O O3 0.607209 0.420106 0.300984
O O4 0.422691 0.928400 0.374839
O O5 0.607813 0.398753 0.749444
O O6 0.778972 0.952304 0.838451
O O7 0.927162 0.828941 0.660204
O O8 0.858601 0.035273 0.973882
O O9 0.732573 0.812359 0.868566
O O10 0.728129 0.616964 0.610076
O O11 0.939572 0.434916 0.629408
O O12 0.000000 0.500000 0.000000
O O13 0.311153 0.923628 0.888076
O O14 0.000000 0.000000 0.500000
O O15 0.913356 0.228962 0.785182
O O16 0.000000 0.000000 0.000000
O O17 0.000000 0.500000 0.500000
O O18 0.722928 0.065707 0.414001
#
# Coordination Sequence:
#
# PCOD9047701 Si02
#       8
#     2   2   2   2   2   2   2   2
#     4  11  23  44  73  99 128 174 230 275 327 403
#     4  12  24  41  65  99 137 172 220 278 335 395
#     4  12  23  42  69  98 135 172 233 270 330 405
#     4  12  21  39  67  97 132 170 217 276 329 396
#     4  10  24  44  69  92 127 184 224 268 325 400
#     4  11  25  44  66  98 131 176 224 271 336 394
#     4  12  24  40  61 102 140 174 211 276 342 392
#     4  12  23  43  70 101 133 177 226 272 335 403
#
# _framework density 21.456897000000001
#
# number of rings (size 3 to 8) (size 9 to 14) (size 15 to 20)
#    0.000    0.500    5.000    4.125    5.250    0.000 
#    0.000    0.625    0.000    0.000    0.000    0.000 
#    0.000    0.000    0.000    0.000    0.000    0.000 
#
# Total GULP energy -89251.682212 kJ/mol
# GULP energy per Si atom -5578.230138 kJ/mol
# Density = 2.140806 g / cm^3
# Si number density = 21.456897 Si / 1000 Ang^3
#
#
#
# Elastic Constant Matrix: (Units=GPa)
#
#
# Indices 1 2 3 4 5 6 
#
# 1 54.2576 7.2593 29.7837 10.5446 17.1633 9.4498
# 2 7.2593 117.4099 47.8349 -8.9960 11.1330 13.1449
# 3 29.7837 47.8349 136.1818 -0.6444 30.4691 2.7118
# 4 10.5446 -8.9960 -0.6444 41.3283 3.3290 9.9192
# 5 17.1633 11.1330 30.4691 3.3290 37.9402 -4.8675
# 6 9.4498 13.1449 2.7118 9.9192 -4.8675 27.2738
#
#
#
# Elastic Compliance Matrix: (Units=1/GPa)
#
#
# Indices 1 2 3 4 5 6 
#
# 1 0.025879 0.001845 -0.003832 -0.002987 -0.010219 -0.010212
# 2 0.001845 0.011277 -0.003622 0.003960 -0.002559 -0.007611
# 3 -0.003832 -0.003622 0.010737 0.000646 -0.005788 0.000738
# 4 -0.002987 0.003960 0.000646 0.029152 -0.004471 -0.012338
# 5 -0.010219 -0.002559 -0.005788 -0.004471 0.038549 0.013855
# 6 -0.010212 -0.007611 0.000738 -0.012338 0.013855 0.050758
#
#
# Mechanical properties :
#
#
# Convention : Reuss Voigt Hill
#
# Bulk Modulus (GPa) = 27.26712 53.06722 40.16717
# Shear Modulus (GPa) = 26.34410 36.17322 31.25866
#
# Velocity S-wave (km/s) = 3.50775 4.11037 3.82096
# Velocity P-wave (km/s) = 5.39826 6.87841 6.18279
#
# Compressibility (1/GPa) = 0.03667421
#
# Stress axis : x y z
#
# Youngs Moduli (GPa) = 38.64127 88.67717 93.13748
#
# Poissons Ratio (x) = -0.16358 0.35693
# Poissons Ratio (y) = -0.07128 0.33731
# Poissons Ratio (z) = 0.14808 0.32116
#
# Static dielectric constant tensor:
#      x y z
#    x 1.824760 -0.000690 -0.006950 
#    y -0.000690 1.826960 -0.040840 
#    z -0.006950 -0.040840 1.836550 
# 
# From -- ./inp_files/259488.got.cif
#   From: 2010.05.17/outbox.cif.g08.bks.cpg/sg2_130_cif.got.tgz:259488.got - 2010.06.03 11:33:40.
