data_PCOD9047898
_publ_section_title
;
Structure prediction by ZEFSAII (Michael W. Deem and Ramdas Pophale) SiO2 
 PCOD9047898
Probable space group: P -1
;
_chemical_formula_sum "Si O2"
_cell_formula_units_Z 16
_cell_length_a 10.996595
_cell_length_b 5.523809
_cell_length_c 28.353199
_cell_angle_alpha 76.627548
_cell_angle_beta 23.644203
_cell_angle_gamma 78.657918
_cell_volume 671.485418
_symmetry_space_group_name_H-M "P -1"
_symmetry_group_IT_number 2
_symmetry_cell_setting 'triclinic'
loop_
_space_group_symop_operation_xyz
x,y,z
-x,-y,-z
loop_
_atom_site_type_symbol
_atom_site_label
_atom_site_fract_x
_atom_site_fract_y
_atom_site_fract_z
Si Si1 0.251575 0.211224 0.808930
Si Si2 0.620819 0.974572 0.548768
Si Si3 0.298350 0.842799 0.043684
Si Si4 0.682879 0.522334 0.864079
Si Si5 0.286105 0.149943 0.294523
Si Si6 0.294057 0.368353 0.382532
Si Si7 0.643313 0.498571 0.397285
Si Si8 0.223868 0.589034 0.957937
O O1 0.403563 0.462864 0.723007
O O2 0.029033 0.064764 0.858496
O O3 0.524043 0.067684 0.740301
O O4 0.012435 0.274257 0.931400
O O5 0.682182 0.882767 0.584446
O O6 0.485543 0.735748 0.578024
O O7 0.427962 0.223119 0.608216
O O8 0.947947 0.055351 0.406508
O O9 0.235000 0.597118 0.109395
O O10 0.521588 0.774452 0.924815
O O11 0.500000 0.000000 0.000000
O O12 0.410273 0.401245 0.933823
O O13 0.997482 0.532664 0.725124
O O14 0.263153 0.336890 0.338696
O O15 0.498846 0.259272 0.172721
O O16 0.000000 0.500000 0.500000
O O17 0.500000 0.500000 0.500000
O O18 0.000000 0.500000 0.000000
#
# Coordination Sequence:
#
# PCOD9047898 Si02
#       8
#     2   2   2   2   2   2   2   2
#     4  11  25  44  74 107 148 192 249 306 384 453
#     4  12  28  47  78 114 155 203 255 315 383 454
#     4  10  24  44  71 105 139 194 250 309 377 443
#     4  10  25  46  70 103 145 191 253 310 372 450
#     4  12  26  44  74 107 151 193 249 315 378 456
#     4  12  25  46  71 110 153 194 248 311 385 454
#     4  12  28  51  76 111 153 206 257 310 382 456
#     4  11  24  48  72 105 144 196 247 312 382 450
#
# _framework density 23.827769
#
# number of rings (size 3 to 8) (size 9 to 14) (size 15 to 20)
#    0.000    0.750    2.500    3.375    7.000    2.000 
#    2.250    0.000    0.000    0.000    0.000    0.000 
#    0.000    0.000    0.000    0.000    0.000    0.000 
#
# Total GULP energy -89395.076953 kJ/mol
# GULP energy per Si atom -5587.192310 kJ/mol
# Density = 2.377354 g / cm^3
# Si number density = 23.827769 Si / 1000 Ang^3
#
#
#
# Elastic Constant Matrix: (Units=GPa)
#
#
# Indices 1 2 3 4 5 6 
#
# 1 91.7901 26.1051 41.9993 6.6951 -18.7699 7.8399
# 2 26.1051 89.3069 38.7313 5.0858 -13.4665 3.8180
# 3 41.9993 38.7313 148.3310 19.6744 2.2008 16.6062
# 4 6.6951 5.0858 19.6744 32.6143 -7.0985 -2.9828
# 5 -18.7699 -13.4665 2.2008 -7.0985 56.4043 -5.8500
# 6 7.8399 3.8180 16.6062 -2.9828 -5.8500 37.2747
#
#
#
# Elastic Compliance Matrix: (Units=1/GPa)
#
#
# Indices 1 2 3 4 5 6 
#
# 1 0.013939 -0.001899 -0.003527 0.000465 0.004335 -0.000449
# 2 -0.001899 0.013522 -0.003284 0.000999 0.002956 0.001021
# 3 -0.003527 -0.003284 0.009926 -0.005923 -0.003544 -0.004374
# 4 0.000465 0.000999 -0.005923 0.035808 0.005775 0.006210
# 5 0.004335 0.002956 -0.003544 0.005775 0.021173 0.004149
# 6 -0.000449 0.001021 -0.004374 0.006210 0.004149 0.029914
#
#
# Mechanical properties :
#
#
# Convention : Reuss Voigt Hill
#
# Bulk Modulus (GPa) = 50.08037 60.34439 55.21238
# Shear Modulus (GPa) = 33.70280 40.09815 36.90047
#
# Velocity S-wave (km/s) = 3.76498 4.10668 3.93954
# Velocity P-wave (km/s) = 6.32166 6.91858 6.62684
#
# Compressibility (1/GPa) = 0.01996790
#
# Stress axis : x y z
#
# Youngs Moduli (GPa) = 71.74179 73.95529 100.75004
#
# Poissons Ratio (x) = 0.14041 0.35532
# Poissons Ratio (y) = 0.13621 0.33084
# Poissons Ratio (z) = 0.25301 0.24285
#
# Static dielectric constant tensor:
#      x y z
#    x 2.077960 0.000630 0.036680 
#    y 0.000630 1.968030 -0.059520 
#    z 0.036680 -0.059520 1.857920 
# 
# From -- ./inp_files/622865.got.cif
#   From: 2010.05.17/outbox.cif.g08.bks.cpg/sg2_312_cif.got.tgz:622865.got - 2010.06.03 11:33:40.
