data_PCOD9047138
_publ_section_title
;
Structure prediction by ZEFSAII (Michael W. Deem and Ramdas Pophale) SiO2 
 PCOD9047138
Probable space group: P -1
;
_chemical_formula_sum "Si O2"
_cell_formula_units_Z 16
_cell_length_a 14.760811
_cell_length_b 11.171990
_cell_length_c 8.480827
_cell_angle_alpha 78.862988
_cell_angle_beta 91.217454
_cell_angle_gamma 149.103436
_cell_volume 675.016512
_symmetry_space_group_name_H-M "P -1"
_symmetry_group_IT_number 2
_symmetry_cell_setting 'triclinic'
loop_
_space_group_symop_operation_xyz
x,y,z
-x,-y,-z
loop_
_atom_site_type_symbol
_atom_site_label
_atom_site_fract_x
_atom_site_fract_y
_atom_site_fract_z
Si Si1 0.895295 0.458468 0.629466
Si Si2 0.494375 0.626444 0.548247
Si Si3 0.849389 0.665549 0.510557
Si Si4 0.025133 0.882846 0.002061
Si Si5 0.367265 0.960089 0.030458
Si Si6 0.771257 0.884283 0.746949
Si Si7 0.201655 0.908075 0.771331
Si Si8 0.689459 0.518744 0.893308
O O1 0.816122 0.483366 0.532322
O O2 0.745689 0.203657 0.777745
O O3 0.000000 0.500000 0.500000
O O4 0.037368 0.680983 0.705619
O O5 0.500000 0.500000 0.500000
O O6 0.282278 0.416928 0.593186
O O7 0.605802 0.755627 0.683145
O O8 0.611886 0.851740 0.380729
O O9 0.779206 0.606795 0.700621
O O10 0.064571 0.946937 0.417931
O O11 0.110425 0.924455 0.152225
O O12 0.152585 0.976636 0.844108
O O13 0.822035 0.611612 0.002879
O O14 0.000000 0.000000 0.000000
O O15 0.231985 0.833647 0.913720
O O16 0.500000 0.000000 0.000000
O O17 0.494019 0.227865 0.973449
O O18 0.686597 0.660735 0.870132
#
# Coordination Sequence:
#
# PCOD9047138 Si02
#       8
#     2   2   2   2   2   2   2   2
#     4  12  28  50  76 107 147 205 264 316 378 444
#     4  12  24  41  75 115 146 198 248 301 387 466
#     4  12  23  46  76 103 153 194 254 307 384 439
#     4  10  24  43  72 107 148 199 237 302 393 458
#     4  12  24  48  74 106 146 200 264 316 368 448
#     4  11  24  44  72 113 157 190 244 313 381 460
#     4  12  24  48  72 101 151 199 251 312 380 450
#     4  11  21  46  74 106 143 201 245 305 378 450
#
# _framework density 23.703123999999999
#
# number of rings (size 3 to 8) (size 9 to 14) (size 15 to 20)
#    0.000    0.500    6.250    0.750    5.250    0.000 
#    4.500    3.125    0.000    0.000    0.000    0.000 
#    0.000    0.000    0.000    0.000    0.000    0.000 
#
# Total GULP energy -89542.838110 kJ/mol
# GULP energy per Si atom -5596.427382 kJ/mol
# Density = 2.364917 g / cm^3
# Si number density = 23.703124 Si / 1000 Ang^3
#
#
#
# Elastic Constant Matrix: (Units=GPa)
#
#
# Indices 1 2 3 4 5 6 
#
# 1 114.7454 20.5998 39.4504 13.2002 14.8370 21.1188
# 2 20.5998 101.0069 44.4356 4.8268 11.4943 18.9255
# 3 39.4504 44.4356 103.9483 -1.0330 1.6233 -6.0969
# 4 13.2002 4.8268 -1.0330 55.2567 -2.1777 16.7859
# 5 14.8370 11.4943 1.6233 -2.1777 38.4140 5.7894
# 6 21.1188 18.9255 -6.0969 16.7859 5.7894 33.4239
#
#
#
# Elastic Compliance Matrix: (Units=1/GPa)
#
#
# Indices 1 2 3 4 5 6 
#
# 1 0.012876 0.002544 -0.006489 -0.000615 -0.004025 -0.009753
# 2 0.002544 0.015604 -0.008277 0.001407 -0.003403 -0.012070
# 3 -0.006489 -0.008277 0.016264 -0.000904 0.002469 0.011780
# 4 -0.000615 0.001407 -0.000904 0.021886 0.002914 -0.012069
# 5 -0.004025 -0.003403 0.002469 0.002914 0.028899 -0.001549
# 6 -0.009753 -0.012070 0.011780 -0.012069 -0.001549 0.051394
#
#
# Mechanical properties :
#
#
# Convention : Reuss Voigt Hill
#
# Bulk Modulus (GPa) = 49.26124 58.74136 54.00130
# Shear Modulus (GPa) = 28.06877 39.76659 33.91768
#
# Velocity S-wave (km/s) = 3.44493 4.10041 3.78688
# Velocity P-wave (km/s) = 6.05401 6.87414 6.47707
#
# Compressibility (1/GPa) = 0.02029994
#
# Stress axis : x y z
#
# Youngs Moduli (GPa) = 77.66590 64.08561 61.48368
#
# Poissons Ratio (x) = -0.16302 0.39899
# Poissons Ratio (y) = -0.19757 0.50888
# Poissons Ratio (z) = 0.50400 0.53041
#
# Static dielectric constant tensor:
#      x y z
#    x 1.923650 0.008210 -0.010700 
#    y 0.008210 1.880550 0.032470 
#    z -0.010700 0.032470 1.909980 
# 
# From -- ./inp_files/307353.got.cif
#   From: 2010.05.17/outbox.cif.g08.bks.cpg/sg2_154_cif.got.tgz:307353.got - 2010.06.03 11:33:40.
