data_PCOD9047618
_publ_section_title
;
Structure prediction by ZEFSAII (Michael W. Deem and Ramdas Pophale) SiO2 
 PCOD9047618
Probable space group: P -1
;
_chemical_formula_sum "Si O2"
_cell_formula_units_Z 15
_cell_length_a 16.666792
_cell_length_b 6.264671
_cell_length_c 8.958795
_cell_angle_alpha 126.278327
_cell_angle_beta 83.180106
_cell_angle_gamma 111.914672
_cell_volume 693.041329
_symmetry_space_group_name_H-M "P -1"
_symmetry_group_IT_number 2
_symmetry_cell_setting 'triclinic'
loop_
_space_group_symop_operation_xyz
x,y,z
-x,-y,-z
loop_
_atom_site_type_symbol
_atom_site_label
_atom_site_fract_x
_atom_site_fract_y
_atom_site_fract_z
Si Si1 0.403786 0.165363 0.245031
Si Si2 0.816420 0.809673 0.986431
Si Si3 0.441904 0.802209 0.560167
Si Si4 0.676204 0.100717 0.143932
Si Si5 0.000000 0.000000 0.500000
Si Si6 0.929698 0.180707 0.871032
Si Si7 0.812412 0.730822 0.302521
Si Si8 0.226711 0.819919 0.309535
O O1 0.399803 0.479238 0.375733
O O2 0.493007 0.196334 0.318950
O O3 0.322221 0.963554 0.277524
O O4 0.392615 0.030950 0.028254
O O5 0.792159 0.507365 0.783144
O O6 0.898167 0.038505 0.978548
O O7 0.830431 0.758588 0.134498
O O8 0.738305 0.923364 0.050503
O O9 0.371102 0.909339 0.692540
O O10 0.500000 0.000000 0.500000
O O11 0.735766 0.430024 0.231485
O O12 0.901136 0.770685 0.384761
O O13 0.030325 0.992886 0.315932
O O14 0.844374 0.181303 0.800640
O O15 0.000000 0.500000 0.000000
O O16 0.786264 0.990370 0.474828
#
# Coordination Sequence:
#
# PCOD9047618 Si02
#       8
#     2   2   2   2   1   2   2   2
#     4  11  24  47  70 100 141 177 225 292 345 409
#     4  12  25  41  74 106 132 186 237 279 342 421
#     4  11  28  45  73 103 137 182 231 285 348 422
#     4  12  25  46  72 102 144 182 229 287 350 408
#     4  10  24  44  68  96 142 182 226 278 348 392
#     4  11  24  45  67 100 142 180 228 288 345 407
#     4  11  25  45  71 102 141 188 229 288 346 409
#     4  11  24  44  69  99 142 180 223 287 351 404
#
# _framework density 21.643732
#
# number of rings (size 3 to 8) (size 9 to 14) (size 15 to 20)
#    0.000    0.800    4.000    2.000    3.733    5.867 
#    0.000    4.667    0.000    0.000    0.000    0.000 
#    0.000    0.000    0.000    0.000    0.000    0.000 
#
# Total GULP energy -83671.954406 kJ/mol
# GULP energy per Si atom -5578.130294 kJ/mol
# Density = 2.159447 g / cm^3
# Si number density = 21.643732 Si / 1000 Ang^3
#
#
#
# Elastic Constant Matrix: (Units=GPa)
#
#
# Indices 1 2 3 4 5 6 
#
# 1 45.9317 9.5496 29.8712 5.6708 -0.6043 11.3504
# 2 9.5496 108.7008 46.6916 6.2173 -7.2972 25.2732
# 3 29.8712 46.6916 139.3258 7.5278 -3.7352 6.0071
# 4 5.6708 6.2173 7.5278 41.9593 6.6183 -5.8266
# 5 -0.6043 -7.2972 -3.7352 6.6183 41.6259 -2.1573
# 6 11.3504 25.2732 6.0071 -5.8266 -2.1573 29.9652
#
#
#
# Elastic Compliance Matrix: (Units=1/GPa)
#
#
# Indices 1 2 3 4 5 6 
#
# 1 0.029506 0.003945 -0.006726 -0.005434 0.000646 -0.014165
# 2 0.003945 0.014378 -0.004821 -0.003972 0.002089 -0.013276
# 3 -0.006726 -0.004821 0.010011 0.000461 0.000126 0.004706
# 4 -0.005434 -0.003972 0.000461 0.027215 -0.004528 0.010282
# 5 0.000646 0.002089 0.000126 -0.004528 0.025073 -0.001107
# 6 -0.014165 -0.013276 0.004706 0.010282 -0.001107 0.050911
#
#
# Mechanical properties :
#
#
# Convention : Reuss Voigt Hill
#
# Bulk Modulus (GPa) = 25.84712 51.79812 38.82262
# Shear Modulus (GPa) = 26.99854 36.56647 31.78251
#
# Velocity S-wave (km/s) = 3.53570 4.11478 3.83618
# Velocity P-wave (km/s) = 5.35128 6.82344 6.13170
#
# Compressibility (1/GPa) = 0.03868904
#
# Stress axis : x y z
#
# Youngs Moduli (GPa) = 33.89194 69.55024 99.89218
#
# Poissons Ratio (x) = -0.27436 0.67190
# Poissons Ratio (y) = -0.13370 0.48160
# Poissons Ratio (z) = 0.22797 0.33532
#
# Static dielectric constant tensor:
#      x y z
#    x 1.819010 -0.034570 -0.011280 
#    y -0.034570 1.744960 0.001110 
#    z -0.011280 0.001110 1.777610 
# 
# From -- ./inp_files/49212.got.cif
#   From: 2010.05.17/outbox.cif.g08.bks.cpg/sg2_25_cif.got.tgz:49212.got - 2010.06.03 11:33:40.
