data_PCOD9047038
_publ_section_title
;
Structure prediction by ZEFSAII (Michael W. Deem and Ramdas Pophale) SiO2 
 PCOD9047038
Probable space group: P -1
;
_chemical_formula_sum "Si O2"
_cell_formula_units_Z 14
_cell_length_a 17.728003
_cell_length_b 11.575263
_cell_length_c 8.545617
_cell_angle_alpha 35.907938
_cell_angle_beta 51.455051
_cell_angle_gamma 38.837023
_cell_volume 644.815459
_symmetry_space_group_name_H-M "P -1"
_symmetry_group_IT_number 2
_symmetry_cell_setting 'triclinic'
loop_
_space_group_symop_operation_xyz
x,y,z
-x,-y,-z
loop_
_atom_site_type_symbol
_atom_site_label
_atom_site_fract_x
_atom_site_fract_y
_atom_site_fract_z
Si Si1 0.574751 0.903361 0.667115
Si Si2 0.233670 0.017413 0.584061
Si Si3 0.586279 0.639785 0.406768
Si Si4 0.079268 0.997735 0.034300
Si Si5 0.863777 0.409059 0.349116
Si Si6 0.576276 0.488799 0.237177
Si Si7 0.016418 0.537100 0.163822
O O1 0.491547 0.092566 0.707426
O O2 0.500000 0.000000 0.500000
O O3 0.690409 0.899440 0.530204
O O4 0.611026 0.633699 0.933026
O O5 0.118026 0.254853 0.389691
O O6 0.315729 0.800886 0.590043
O O7 0.200541 0.910020 0.884507
O O8 0.724230 0.534925 0.357968
O O9 0.557842 0.613186 0.293670
O O10 0.538466 0.490866 0.705823
O O11 0.092126 0.834742 0.342573
O O12 0.016983 0.275719 0.861090
O O13 0.000000 0.000000 0.000000
O O14 0.897914 0.559372 0.243012
O O15 0.932870 0.385022 0.126665
#
# Coordination Sequence:
#
# PCOD9047038 Si02
#       7
#     2   2   2   2   2   2   2
#     4  11  26  41  70 101 137 173 221 276 338 400
#     4  11  26  43  72  98 136 180 222 280 338 398
#     4  10  24  43  70  98 131 179 223 275 331 398
#     4  12  27  43  70 101 138 179 224 274 344 397
#     4  11  26  43  71  99 137 175 228 276 335 396
#     4  10  24  46  69  97 135 176 228 270 337 397
#     4  11  26  47  67 101 135 180 229 274 335 403
#
# _framework density 21.711638000000001
#
# number of rings (size 3 to 8) (size 9 to 14) (size 15 to 20)
#    0.000    1.143    1.429    2.143   10.000    5.714 
#    0.000    0.000    0.000    0.000    0.000    0.000 
#    0.000    0.000    0.000    0.000    0.000    0.000 
#
# Total GULP energy -78142.841303 kJ/mol
# GULP energy per Si atom -5581.631522 kJ/mol
# Density = 2.166222 g / cm^3
# Si number density = 21.711638 Si / 1000 Ang^3
#
#
#
# Elastic Constant Matrix: (Units=GPa)
#
#
# Indices 1 2 3 4 5 6 
#
# 1 139.6118 42.4612 33.6030 -1.2734 -38.2188 -10.5438
# 2 42.4612 80.4249 25.7337 -2.4082 -18.7119 14.4155
# 3 33.6030 25.7337 104.9217 9.3830 -21.4756 -5.4929
# 4 -1.2734 -2.4082 9.3830 19.1123 -0.5555 -10.9744
# 5 -38.2188 -18.7119 -21.4756 -0.5555 40.0500 9.3912
# 6 -10.5438 14.4155 -5.4929 -10.9744 9.3912 38.2113
#
#
#
# Elastic Compliance Matrix: (Units=1/GPa)
#
#
# Indices 1 2 3 4 5 6 
#
# 1 0.010988 -0.004385 -0.001081 0.003021 0.007039 0.003669
# 2 -0.004385 0.018699 -0.002302 -0.002866 0.005822 -0.010849
# 3 -0.001081 -0.002302 0.011866 -0.006424 0.004314 -0.000629
# 4 0.003021 -0.002866 -0.006424 0.067741 -0.006107 0.021948
# 5 0.007039 0.005822 0.004314 -0.006107 0.039220 -0.011027
# 6 0.003669 -0.010849 -0.000629 0.021948 -0.011027 0.040199
#
#
# Mechanical properties :
#
#
# Convention : Reuss Voigt Hill
#
# Bulk Modulus (GPa) = 38.43516 58.72823 48.58169
# Shear Modulus (GPa) = 23.48283 34.35210 28.91747
#
# Velocity S-wave (km/s) = 3.29230 3.98200 3.65346
# Velocity P-wave (km/s) = 5.67392 6.94620 6.34204
#
# Compressibility (1/GPa) = 0.02601784
#
# Stress axis : x y z
#
# Youngs Moduli (GPa) = 91.00820 53.47921 84.27225
#
# Poissons Ratio (x) = 0.23449 0.09110
# Poissons Ratio (y) = 0.39904 0.19398
# Poissons Ratio (z) = 0.09839 0.12310
#
# Static dielectric constant tensor:
#      x y z
#    x 1.769610 -0.010190 0.028390 
#    y -0.010190 1.811880 0.078650 
#    z 0.028390 0.078650 1.916970 
# 
# From -- ./inp_files/28433.got.cif
#   From: 2010.05.17/outbox.cif.g08.bks.cpg/sg2_15_cif.got.tgz:28433.got - 2010.06.03 11:33:40.
