data_PCOD9047261
_publ_section_title
;
Structure prediction by ZEFSAII (Michael W. Deem and Ramdas Pophale) SiO2 
 PCOD9047261
Probable space group: P -1
;
_chemical_formula_sum "Si O2"
_cell_formula_units_Z 12
_cell_length_a 11.795663
_cell_length_b 18.488338
_cell_length_c 5.236863
_cell_angle_alpha 72.665119
_cell_angle_beta 115.145335
_cell_angle_gamma 154.990615
_cell_volume 425.596215
_symmetry_space_group_name_H-M "P -1"
_symmetry_group_IT_number 2
_symmetry_cell_setting 'triclinic'
loop_
_space_group_symop_operation_xyz
x,y,z
-x,-y,-z
loop_
_atom_site_type_symbol
_atom_site_label
_atom_site_fract_x
_atom_site_fract_y
_atom_site_fract_z
Si Si1 0.696034 0.375650 0.807658
Si Si2 0.531823 0.205397 0.325156
Si Si3 0.101968 0.851900 0.844813
Si Si4 0.074858 0.130084 0.983072
Si Si5 0.299021 0.843834 0.658551
Si Si6 0.609859 0.491526 0.798095
O O1 0.583001 0.289018 0.517871
O O2 0.703459 0.468684 0.753463
O O3 0.517509 0.244917 0.010400
O O4 0.000000 0.500000 0.000000
O O5 0.777186 0.274841 0.442705
O O6 0.219587 0.996481 0.292263
O O7 0.095742 0.792045 0.659800
O O8 0.894971 0.684263 0.002496
O O9 0.959352 0.855961 0.772643
O O10 0.450366 0.049461 0.013127
O O11 0.359287 0.321861 0.924810
O O12 0.000000 0.000000 0.000000
O O13 0.500000 0.000000 0.500000
O O14 0.500000 0.500000 0.500000
#
# Coordination Sequence:
#
# PCOD9047261 Si02
#       6
#     2   2   2   2   2   2
#     4  12  28  52  81 118 164 212 273 343 414 481
#     4  11  27  48  80 116 156 216 275 331 408 495
#     4  10  25  46  72 111 158 198 275 327 412 469
#     4  11  25  49  79 112 161 223 268 335 407 498
#     4  10  24  43  79 109 153 213 265 337 406 488
#     4  12  29  47  79 121 162 215 271 344 406 489
#
# _framework density 28.195740000000001
#
# number of rings (size 3 to 8) (size 9 to 14) (size 15 to 20)
#    0.000    1.000    1.667    2.000   16.333    2.000 
#    0.000    0.000    0.000    0.000    0.000    0.000 
#    0.000    0.000    0.000    0.000    0.000    0.000 
#
# Total GULP energy -67029.667425 kJ/mol
# GULP energy per Si atom -5585.805619 kJ/mol
# Density = 2.813157 g / cm^3
# Si number density = 28.195740 Si / 1000 Ang^3
#
#
#
# Elastic Constant Matrix: (Units=GPa)
#
#
# Indices 1 2 3 4 5 6 
#
# 1 283.3065 68.0771 42.3504 -19.9830 -30.3841 -29.3538
# 2 68.0771 168.9293 32.0067 -7.1747 -13.7318 -7.9830
# 3 42.3504 32.0067 66.0883 -4.5859 -19.9228 -17.9316
# 4 -19.9830 -7.1747 -4.5859 45.1826 -2.9974 10.0518
# 5 -30.3841 -13.7318 -19.9228 -2.9974 59.3196 2.3379
# 6 -29.3538 -7.9830 -17.9316 10.0518 2.3379 65.2006
#
#
#
# Elastic Compliance Matrix: (Units=1/GPa)
#
#
# Indices 1 2 3 4 5 6 
#
# 1 0.004430 -0.001291 -0.001321 0.001458 0.001554 0.001193
# 2 -0.001291 0.006935 -0.002612 0.000387 0.000107 -0.000514
# 3 -0.001321 -0.002612 0.020049 0.000421 0.005302 0.004344
# 4 0.001458 0.000387 0.000421 0.023681 0.002289 -0.002913
# 5 0.001554 0.000107 0.005302 0.002289 0.019531 0.001118
# 6 0.001193 -0.000514 0.004344 -0.002913 0.001118 0.017415
#
#
# Mechanical properties :
#
#
# Convention : Reuss Voigt Hill
#
# Bulk Modulus (GPa) = 47.69194 89.24362 68.46778
# Shear Modulus (GPa) = 45.67074 58.99987 52.33531
#
# Velocity S-wave (km/s) = 4.02901 4.57936 4.31297
# Velocity P-wave (km/s) = 6.21250 7.72534 7.00985
#
# Compressibility (1/GPa) = 0.02096790
#
# Stress axis : x y z
#
# Youngs Moduli (GPa) = 225.71488 144.18596 49.87713
#
# Poissons Ratio (x) = 0.18608 0.06588
# Poissons Ratio (y) = 0.29130 0.13029
# Poissons Ratio (z) = 0.29814 0.37664
#
# Static dielectric constant tensor:
#      x y z
#    x 2.287530 0.097760 0.101580 
#    y 0.097760 2.290200 0.141810 
#    z 0.101580 0.141810 2.761990 
# 
# From -- ./inp_files/80509.got.cif
#   From: 2010.05.17/outbox.cif.g08.bks.cpg/sg2_41_cif.got.tgz:80509.got - 2010.06.03 11:33:40.
