data_PCOD9047671
_publ_section_title
;
Structure prediction by ZEFSAII (Michael W. Deem and Ramdas Pophale) SiO2 
 PCOD9047671
Probable space group: P -1
;
_chemical_formula_sum "Si O2"
_cell_formula_units_Z 16
_cell_length_a 9.410051
_cell_length_b 9.737950
_cell_length_c 15.202403
_cell_angle_alpha 37.621664
_cell_angle_beta 111.587636
_cell_angle_gamma 106.505524
_cell_volume 790.674476
_symmetry_space_group_name_H-M "P -1"
_symmetry_group_IT_number 2
_symmetry_cell_setting 'triclinic'
loop_
_space_group_symop_operation_xyz
x,y,z
-x,-y,-z
loop_
_atom_site_type_symbol
_atom_site_label
_atom_site_fract_x
_atom_site_fract_y
_atom_site_fract_z
Si Si1 0.855255 0.983843 0.910741
Si Si2 0.966559 0.434776 0.649763
Si Si3 0.488994 0.968426 0.117526
Si Si4 0.731167 0.571233 0.382856
Si Si5 0.395445 0.775637 0.596647
Si Si6 0.125504 0.467033 0.970902
Si Si7 0.441799 0.542724 0.063902
Si Si8 0.090152 0.768257 0.643630
O O1 0.881062 0.200549 0.747687
O O2 0.689010 0.018862 0.899873
O O3 0.873712 0.754769 0.977066
O O4 0.000000 0.000000 0.000000
O O5 0.852561 0.573824 0.489451
O O6 0.143160 0.384847 0.687607
O O7 0.988478 0.573982 0.673255
O O8 0.594055 0.750773 0.273860
O O9 0.500000 0.000000 0.000000
O O10 0.561288 0.191050 0.061020
O O11 0.651658 0.339343 0.449043
O O12 0.471864 0.579381 0.774395
O O13 0.239774 0.815796 0.595056
O O14 0.500000 0.000000 0.500000
O O15 0.128713 0.674655 0.797055
O O16 0.275442 0.446274 0.073831
O O17 0.000000 0.500000 0.000000
O O18 0.500000 0.500000 0.000000
O O19 0.000000 0.000000 0.500000
#
# Coordination Sequence:
#
# PCOD9047671 Si02
#       8
#     2   2   2   2   2   2   2   2
#     4  12  25  45  71 101 138 178 237 290 343 414
#     4  10  24  44  70  97 142 179 227 289 346 413
#     4  12  25  43  73 100 136 184 231 287 348 413
#     4  10  24  44  69 103 134 184 229 279 354 416
#     4  11  25  44  69  99 144 181 229 284 348 417
#     4  12  29  45  73 105 140 187 239 287 353 416
#     4  12  25  47  69 102 144 185 231 291 347 411
#     4  11  25  46  66 100 141 183 228 289 347 410
#
# _framework density 20.235890000000001
#
# number of rings (size 3 to 8) (size 9 to 14) (size 15 to 20)
#    0.000    0.750    5.000    0.750    8.750    2.500 
#    0.000    0.000    0.000    0.000    0.000    0.000 
#    0.000    0.000    0.000    0.000    0.000    0.000 
#
# Total GULP energy -89169.515423 kJ/mol
# GULP energy per Si atom -5573.094714 kJ/mol
# Density = 2.018983 g / cm^3
# Si number density = 20.235890 Si / 1000 Ang^3
#
#
#
# Elastic Constant Matrix: (Units=GPa)
#
#
# Indices 1 2 3 4 5 6 
#
# 1 131.3385 55.4179 26.5028 -16.6872 24.5011 -3.1427
# 2 55.4179 101.1211 22.5458 -14.1006 14.7268 5.5828
# 3 26.5028 22.5458 71.9113 -16.9575 17.4695 -7.5700
# 4 -16.6872 -14.1006 -16.9575 38.0548 5.2218 2.8296
# 5 24.5011 14.7268 17.4695 5.2218 37.9146 -3.9651
# 6 -3.1427 5.5828 -7.5700 2.8296 -3.9651 32.3683
#
#
#
# Elastic Compliance Matrix: (Units=1/GPa)
#
#
# Indices 1 2 3 4 5 6 
#
# 1 0.011257 -0.004796 -0.000286 0.003754 -0.005711 0.000826
# 2 -0.004796 0.013842 -0.001754 0.002835 -0.002255 -0.003787
# 3 -0.000286 -0.001754 0.019062 0.008713 -0.008814 0.002891
# 4 0.003754 0.002835 0.008713 0.034787 -0.012612 -0.002673
# 5 -0.005711 -0.002255 -0.008814 -0.012612 0.037098 0.003420
# 6 0.000826 -0.003787 0.002891 -0.002673 0.003420 0.032957
#
#
# Mechanical properties :
#
#
# Convention : Reuss Voigt Hill
#
# Bulk Modulus (GPa) = 32.79937 57.03376 44.91657
# Shear Modulus (GPa) = 28.92908 34.99449 31.96179
#
# Velocity S-wave (km/s) = 3.78510 4.16303 3.97855
# Velocity P-wave (km/s) = 5.94528 7.16613 6.58406
#
# Compressibility (1/GPa) = 0.03048839
#
# Stress axis : x y z
#
# Youngs Moduli (GPa) = 88.83059 72.24618 52.46128
#
# Poissons Ratio (x) = 0.34650 0.01499
# Poissons Ratio (y) = 0.42604 0.09204
# Poissons Ratio (z) = 0.02537 0.12675
#
# Static dielectric constant tensor:
#      x y z
#    x 1.682180 0.022830 -0.052880 
#    y 0.022830 1.685840 0.034930 
#    z -0.052880 0.034930 1.862680 
# 
# From -- ./inp_files/205718.got.cif
#   From: 2010.05.17/outbox.cif.g08.bks.cpg/sg2_103_cif.got.tgz:205718.got - 2010.06.03 11:33:40.
