data_PCOD9047979
_publ_section_title
;
Structure prediction by ZEFSAII (Michael W. Deem and Ramdas Pophale) SiO2 
 PCOD9047979
Probable space group: P -1
;
_chemical_formula_sum "Si O2"
_cell_formula_units_Z 15
_cell_length_a 18.464102
_cell_length_b 11.826819
_cell_length_c 10.157226
_cell_angle_alpha 111.016026
_cell_angle_beta 111.861794
_cell_angle_gamma 18.814252
_cell_volume 663.740472
_symmetry_space_group_name_H-M "P -1"
_symmetry_group_IT_number 2
_symmetry_cell_setting 'triclinic'
loop_
_space_group_symop_operation_xyz
x,y,z
-x,-y,-z
loop_
_atom_site_type_symbol
_atom_site_label
_atom_site_fract_x
_atom_site_fract_y
_atom_site_fract_z
Si Si1 0.404392 0.609627 0.122258
Si Si2 0.279183 0.542060 0.374696
Si Si3 0.683348 0.263602 0.414362
Si Si4 0.873015 0.506502 0.674519
Si Si5 0.000000 0.500000 0.000000
Si Si6 0.772291 0.376499 0.931663
Si Si7 0.770392 0.759387 0.440999
Si Si8 0.892396 0.453872 0.130250
O O1 0.554975 0.452366 0.268377
O O2 0.414414 0.449492 0.080066
O O3 0.500000 0.500000 0.000000
O O4 0.149752 0.028579 0.136321
O O5 0.202568 0.773141 0.496563
O O6 0.204637 0.668770 0.227254
O O7 0.212379 0.503315 0.350899
O O8 0.549768 0.153329 0.412927
O O9 0.500000 0.500000 0.500000
O O10 0.875497 0.882930 0.374585
O O11 0.731695 0.763513 0.563178
O O12 0.894814 0.561393 0.838405
O O13 0.906642 0.542800 0.073290
O O14 0.741356 0.561278 0.023273
O O15 0.000000 0.000000 0.000000
O O16 0.812742 0.605306 0.285359
O O17 0.000000 0.500000 0.500000
#
# Coordination Sequence:
#
# PCOD9047979 Si02
#       8
#     2   2   2   2   1   2   2   2
#     4  11  24  43  72 106 141 187 254 306 370 435
#     4  12  26  48  73 108 144 196 250 306 374 445
#     4  12  25  45  76 103 143 193 249 300 365 437
#     4  12  27  48  72 108 150 195 249 311 367 445
#     4  12  24  44  76 100 154 194 248 300 380 438
#     4  10  24  44  72 103 150 187 247 309 375 436
#     4  12  26  46  74 104 148 192 245 302 381 449
#     4  11  24  46  70 102 148 197 243 310 373 449
#
# _framework density 22.599195000000002
#
# number of rings (size 3 to 8) (size 9 to 14) (size 15 to 20)
#    0.000    0.533    4.000    4.000    3.733    2.667 
#    4.800    0.000    0.000    0.000    0.000    0.000 
#    0.000    0.000    0.000    0.000    0.000    0.000 
#
# Total GULP energy -83664.614096 kJ/mol
# GULP energy per Si atom -5577.640940 kJ/mol
# Density = 2.254776 g / cm^3
# Si number density = 22.599195 Si / 1000 Ang^3
#
#
#
# Elastic Constant Matrix: (Units=GPa)
#
#
# Indices 1 2 3 4 5 6 
#
# 1 167.4313 -22.6482 70.2009 -17.3643 12.5912 -2.8919
# 2 -22.6482 57.2591 13.8696 -8.8560 -7.6381 13.1327
# 3 70.2009 13.8696 203.4643 -26.3570 18.1451 7.9245
# 4 -17.3643 -8.8560 -26.3570 26.0687 10.3573 0.2671
# 5 12.5912 -7.6381 18.1451 10.3573 38.9891 -3.8396
# 6 -2.8919 13.1327 7.9245 0.2671 -3.8396 21.4722
#
#
#
# Elastic Compliance Matrix: (Units=1/GPa)
#
#
# Indices 1 2 3 4 5 6 
#
# 1 0.008286 0.004732 -0.002124 0.005989 -0.002501 -0.001516
# 2 0.004732 0.024437 -0.001414 0.010238 -0.000176 -0.013946
# 3 -0.002124 -0.001414 0.007343 0.007695 -0.005367 -0.003187
# 4 0.005989 0.010238 0.007695 0.062202 -0.021302 -0.012877
# 5 -0.002501 -0.000176 -0.005367 -0.021302 0.035400 0.008346
# 6 -0.001516 -0.013946 -0.003187 -0.012877 0.008346 0.057726
#
#
# Mechanical properties :
#
#
# Convention : Reuss Voigt Hill
#
# Bulk Modulus (GPa) = 23.55311 61.22213 42.38762
# Shear Modulus (GPa) = 24.13632 41.75485 32.94558
#
# Velocity S-wave (km/s) = 3.27160 4.30306 3.82228
# Velocity P-wave (km/s) = 4.97151 7.19984 6.18682
#
# Compressibility (1/GPa) = 0.04245724
#
# Stress axis : x y z
#
# Youngs Moduli (GPa) = 120.68340 40.92113 136.17584
#
# Poissons Ratio (x) = -0.19365 0.28919
# Poissons Ratio (y) = -0.57112 0.19249
# Poissons Ratio (z) = 0.25629 0.05784
#
# Static dielectric constant tensor:
#      x y z
#    x 1.871260 0.000750 0.027620 
#    y 0.000750 1.900570 0.033800 
#    z 0.027620 0.033800 1.795730 
# 
# From -- ./inp_files/205115.got.cif
#   From: 2010.05.17/outbox.cif.g08.bks.cpg/sg2_103_cif.got.tgz:205115.got - 2010.06.03 11:33:40.
