data_PCOD9047858
_publ_section_title
;
Structure prediction by ZEFSAII (Michael W. Deem and Ramdas Pophale) SiO2 
 PCOD9047858
Probable space group: P -1
;
_chemical_formula_sum "Si O2"
_cell_formula_units_Z 16
_cell_length_a 9.004579
_cell_length_b 14.496396
_cell_length_c 12.293551
_cell_angle_alpha 37.797802
_cell_angle_beta 128.280004
_cell_angle_gamma 107.885486
_cell_volume 714.399547
_symmetry_space_group_name_H-M "P -1"
_symmetry_group_IT_number 2
_symmetry_cell_setting 'triclinic'
loop_
_space_group_symop_operation_xyz
x,y,z
-x,-y,-z
loop_
_atom_site_type_symbol
_atom_site_label
_atom_site_fract_x
_atom_site_fract_y
_atom_site_fract_z
Si Si1 0.790832 0.727709 0.706180
Si Si2 0.645913 0.602078 0.967002
Si Si3 0.661680 0.626699 0.516727
Si Si4 0.866387 0.152895 0.223113
Si Si5 0.490507 0.892204 0.783443
Si Si6 0.226707 0.739219 0.143663
Si Si7 0.062760 0.152657 0.893831
Si Si8 0.990310 0.591106 0.525234
O O1 0.730913 0.625259 0.866389
O O2 0.756055 0.674381 0.620425
O O3 0.021118 0.721558 0.826813
O O4 0.645220 0.918735 0.475333
O O5 0.537215 0.783095 0.798146
O O6 0.500000 0.500000 0.000000
O O7 0.832206 0.509641 0.218833
O O8 0.425168 0.743158 0.290145
O O9 0.689663 0.437759 0.711124
O O10 0.779910 0.636835 0.451731
O O11 0.637247 0.187466 0.126146
O O12 0.866095 0.129031 0.115373
O O13 0.000000 0.000000 0.500000
O O14 0.700698 0.880801 0.946078
O O15 0.059705 0.748520 0.148797
O O16 0.989622 0.246544 0.660478
O O17 0.000000 0.000000 0.000000
O O18 0.000000 0.500000 0.500000
#
# Coordination Sequence:
#
# PCOD9047858 Si02
#       8
#     2   2   2   2   2   2   2   2
#     4  11  26  48  71 109 146 193 244 295 369 427
#     4  12  29  44  76 108 146 194 241 300 360 436
#     4  11  25  43  77 101 144 186 239 303 349 434
#     4  10  24  44  71 100 146 191 236 291 365 425
#     4  11  24  48  73 104 148 191 238 304 354 434
#     4  11  24  43  70 106 140 189 234 300 365 413
#     4  12  26  45  76 104 144 189 245 300 361 434
#     4  12  25  49  71 104 145 188 244 293 363 426
#
# _framework density 22.396429999999999
#
# number of rings (size 3 to 8) (size 9 to 14) (size 15 to 20)
#    0.000    0.750    2.500    3.375    7.000    4.000 
#    0.000    4.375    0.000    0.000    0.000    0.000 
#    0.000    0.000    0.000    0.000    0.000    0.000 
#
# Total GULP energy -89495.963517 kJ/mol
# GULP energy per Si atom -5593.497720 kJ/mol
# Density = 2.234545 g / cm^3
# Si number density = 22.396430 Si / 1000 Ang^3
#
#
#
# Elastic Constant Matrix: (Units=GPa)
#
#
# Indices 1 2 3 4 5 6 
#
# 1 171.2621 46.1350 56.8708 21.8687 -11.9391 20.9549
# 2 46.1350 108.4307 29.5043 10.7801 3.5009 16.8636
# 3 56.8708 29.5043 110.6153 13.6525 -10.2892 1.6960
# 4 21.8687 10.7801 13.6525 41.1207 3.7591 3.0841
# 5 -11.9391 3.5009 -10.2892 3.7591 46.7222 4.9900
# 6 20.9549 16.8636 1.6960 3.0841 4.9900 36.1396
#
#
#
# Elastic Compliance Matrix: (Units=1/GPa)
#
#
# Indices 1 2 3 4 5 6 
#
# 1 0.008405 -0.001888 -0.003202 -0.002822 0.002229 -0.003909
# 2 -0.001888 0.011293 -0.001993 -0.000890 -0.001287 -0.003828
# 3 -0.003202 -0.001993 0.011594 -0.001952 0.001811 0.002159
# 4 -0.002822 -0.000890 -0.001952 0.026979 -0.003286 0.000295
# 5 0.002229 -0.001287 0.001811 -0.003286 0.023126 -0.003689
# 6 -0.003909 -0.003828 0.002159 0.000295 -0.003689 0.032106
#
#
# Mechanical properties :
#
#
# Convention : Reuss Voigt Hill
#
# Bulk Modulus (GPa) = 58.38784 72.81425 65.60105
# Shear Modulus (GPa) = 37.48707 41.98303 39.73505
#
# Velocity S-wave (km/s) = 4.09564 4.33429 4.21666
# Velocity P-wave (km/s) = 6.96365 7.59146 7.28432
#
# Compressibility (1/GPa) = 0.01712685
#
# Stress axis : x y z
#
# Youngs Moduli (GPa) = 118.97655 88.54677 86.24913
#
# Poissons Ratio (x) = 0.16720 0.27617
# Poissons Ratio (y) = 0.22466 0.17186
# Poissons Ratio (z) = 0.38097 0.17644
#
# Static dielectric constant tensor:
#      x y z
#    x 1.676090 -0.031410 0.045440 
#    y -0.031410 1.854130 -0.039670 
#    z 0.045440 -0.039670 1.853170 
# 
# From -- ./inp_files/398465.got.cif
#   From: 2010.05.17/outbox.cif.g08.bks.cpg/sg2_200_cif.got.tgz:398465.got - 2010.06.03 11:33:40.
