data_PCOD9047215
_publ_section_title
;
Structure prediction by ZEFSAII (Michael W. Deem and Ramdas Pophale) SiO2 
 PCOD9047215
Probable space group: P -1
;
_chemical_formula_sum "Si O2"
_cell_formula_units_Z 9
_cell_length_a 8.977093
_cell_length_b 8.781294
_cell_length_c 8.683510
_cell_angle_alpha 99.828176
_cell_angle_beta 82.706870
_cell_angle_gamma 147.921254
_cell_volume 358.000725
_symmetry_space_group_name_H-M "P -1"
_symmetry_group_IT_number 2
_symmetry_cell_setting 'triclinic'
loop_
_space_group_symop_operation_xyz
x,y,z
-x,-y,-z
loop_
_atom_site_type_symbol
_atom_site_label
_atom_site_fract_x
_atom_site_fract_y
_atom_site_fract_z
Si Si1 0.122677 0.275199 0.498609
Si Si2 0.263686 0.074143 0.935230
Si Si3 0.850504 0.452153 0.865823
Si Si4 0.471093 0.511051 0.761049
Si Si5 0.000000 0.500000 0.500000
O O1 0.286218 0.457747 0.665407
O O2 0.351005 0.444722 0.366165
O O3 0.932122 0.252427 0.473699
O O4 0.000000 0.000000 0.500000
O O5 0.515559 0.173034 0.882661
O O6 0.288738 0.236333 0.840148
O O7 0.338637 0.214460 0.112726
O O8 0.972753 0.732728 0.908556
O O9 0.921611 0.448341 0.687502
O O10 0.000000 0.500000 0.000000
#
# Coordination Sequence:
#
# PCOD9047215 Si02
#       5
#     2   2   2   2   1
#     4  11  24  46  72 110 143 200 246 312 375 447
#     4  11  25  47  72 106 147 200 250 308 377 445
#     4  12  27  47  72 112 150 199 250 309 378 445
#     4  10  24  43  74 103 148 193 254 305 377 448
#     4  12  26  48  76 110 154 192 254 312 374 446
#
# _framework density 25.139613000000001
#
# number of rings (size 3 to 8) (size 9 to 14) (size 15 to 20)
#    0.000    0.889    2.222    3.333    6.222    2.667 
#    4.000    0.000    0.000    0.000    0.000    0.000 
#    0.000    0.000    0.000    0.000    0.000    0.000 
#
# Total GULP energy -50180.858675 kJ/mol
# GULP energy per Si atom -5575.650964 kJ/mol
# Density = 2.508239 g / cm^3
# Si number density = 25.139613 Si / 1000 Ang^3
#
#
#
# Elastic Constant Matrix: (Units=GPa)
#
#
# Indices 1 2 3 4 5 6 
#
# 1 109.7184 11.9717 34.7415 -7.3990 -6.3207 -12.0226
# 2 11.9717 72.1356 -1.1948 -3.3781 -3.4139 -15.2405
# 3 34.7415 -1.1948 164.6915 -3.8132 5.1115 0.8330
# 4 -7.3990 -3.3781 -3.8132 13.8765 -6.1049 -3.4987
# 5 -6.3207 -3.4139 5.1115 -6.1049 31.4685 12.9008
# 6 -12.0226 -15.2405 0.8330 -3.4987 12.9008 34.4164
#
#
#
# Elastic Compliance Matrix: (Units=1/GPa)
#
#
# Indices 1 2 3 4 5 6 
#
# 1 0.010870 -0.000697 -0.002230 0.006930 0.002450 0.003329
# 2 -0.000697 0.015781 0.000361 0.005216 -0.000536 0.007467
# 3 -0.002230 0.000361 0.006590 0.000044 -0.001363 -0.000263
# 4 0.006930 0.005216 0.000044 0.085769 0.015451 0.007657
# 5 0.002450 -0.000536 -0.001363 0.015451 0.040787 -0.013067
# 6 0.003329 0.007467 -0.000263 0.007657 -0.013067 0.039208
#
#
# Mechanical properties :
#
#
# Convention : Reuss Voigt Hill
#
# Bulk Modulus (GPa) = 35.57751 48.62027 42.09889
# Shear Modulus (GPa) = 23.41839 36.02075 29.71957
#
# Velocity S-wave (km/s) = 3.05541 3.78938 3.44202
# Velocity P-wave (km/s) = 5.16044 6.20709 5.70780
#
# Compressibility (1/GPa) = 0.02810765
#
# Stress axis : x y z
#
# Youngs Moduli (GPa) = 91.99825 63.36738 151.75147
#
# Poissons Ratio (x) = 0.04418 0.33847
# Poissons Ratio (y) = 0.06414 -0.05481
# Poissons Ratio (z) = 0.20520 -0.02289
#
# Static dielectric constant tensor:
#      x y z
#    x 2.030350 0.011130 0.044770 
#    y 0.011130 1.868630 -0.021820 
#    z 0.044770 -0.021820 1.995330 
# 
# From -- ./inp_files/15716.got.cif
#   From: 2010.05.17/outbox.cif.g08.bks.cpg/sg2_8_cif.got.tgz:15716.got - 2010.06.03 11:33:40.
