data_PCOD9047179
_publ_section_title
;
Structure prediction by ZEFSAII (Michael W. Deem and Ramdas Pophale) SiO2 
 PCOD9047179
Probable space group: P -1
;
_chemical_formula_sum "Si O2"
_cell_formula_units_Z 15
_cell_length_a 12.065843
_cell_length_b 17.669934
_cell_length_c 18.461616
_cell_angle_alpha 150.245424
_cell_angle_beta 149.987044
_cell_angle_gamma 21.319161
_cell_volume 673.607067
_symmetry_space_group_name_H-M "P -1"
_symmetry_group_IT_number 2
_symmetry_cell_setting 'triclinic'
loop_
_space_group_symop_operation_xyz
x,y,z
-x,-y,-z
loop_
_atom_site_type_symbol
_atom_site_label
_atom_site_fract_x
_atom_site_fract_y
_atom_site_fract_z
Si Si1 0.036468 0.306362 0.024074
Si Si2 0.252964 0.542170 0.341860
Si Si3 0.739418 0.010355 0.386853
Si Si4 0.616403 0.328775 0.219323
Si Si5 0.351040 0.900481 0.327282
Si Si6 0.500000 0.500000 0.000000
Si Si7 0.365614 0.366795 0.588565
Si Si8 0.613631 0.871018 0.066161
O O1 0.180024 0.403006 0.201860
O O2 0.717493 0.436384 0.998185
O O3 0.297049 0.055445 0.992433
O O4 0.081933 0.270591 0.932835
O O5 0.500000 0.500000 0.500000
O O6 0.410894 0.474035 0.294898
O O7 0.918288 0.798379 0.362045
O O8 0.476294 0.229826 0.464503
O O9 0.614601 0.993296 0.230496
O O10 0.000000 0.000000 0.500000
O O11 0.620718 0.460125 0.272814
O O12 0.441317 0.263532 0.039309
O O13 0.981503 0.112750 0.271366
O O14 0.486308 0.695961 0.181418
O O15 0.413799 0.800299 0.359711
O O16 0.500000 0.000000 0.500000
O O17 0.000000 0.500000 0.500000
#
# Coordination Sequence:
#
# PCOD9047179 Si02
#       8
#     2   2   2   2   2   1   2   2
#     4  10  24  43  73 104 144 199 241 318 374 456
#     4  11  24  42  75 105 143 195 260 311 383 459
#     4  12  26  45  74 107 141 196 252 315 383 459
#     4  11  24  50  71 106 149 202 245 322 384 450
#     4  12  28  50  78 109 161 203 258 313 391 469
#     4  12  28  44  78 116 146 208 256 308 394 460
#     4  12  28  46  74 112 153 197 252 323 382 457
#     4  10  24  48  70 103 148 187 254 308 382 456
#
# _framework density 22.268176
#
# number of rings (size 3 to 8) (size 9 to 14) (size 15 to 20)
#    0.000    0.800    4.000    1.600    7.467    3.200 
#    0.000    1.333    0.000    0.000    0.000    0.000 
#    0.000    0.000    0.000    0.000    0.000    0.000 
#
# Total GULP energy -83574.423114 kJ/mol
# GULP energy per Si atom -5571.628208 kJ/mol
# Density = 2.221749 g / cm^3
# Si number density = 22.268176 Si / 1000 Ang^3
#
#
#
# Elastic Constant Matrix: (Units=GPa)
#
#
# Indices 1 2 3 4 5 6 
#
# 1 146.3800 48.8872 56.2504 14.9443 22.0380 -11.8011
# 2 48.8872 89.9883 18.6840 11.8179 7.4352 -3.9907
# 3 56.2504 18.6840 103.2335 28.0070 -1.8583 -9.1907
# 4 14.9443 11.8179 28.0070 32.7679 5.6397 -2.5956
# 5 22.0380 7.4352 -1.8583 5.6397 40.6956 14.3589
# 6 -11.8011 -3.9907 -9.1907 -2.5956 14.3589 53.5003
#
#
#
# Elastic Compliance Matrix: (Units=1/GPa)
#
#
# Indices 1 2 3 4 5 6 
#
# 1 0.011966 -0.004839 -0.006375 0.003300 -0.007531 0.003365
# 2 -0.004839 0.013946 0.001188 -0.003986 0.000756 -0.000219
# 3 -0.006375 0.001188 0.016419 -0.012643 0.005991 -0.000718
# 4 0.003300 -0.003986 -0.012643 0.042929 -0.008512 0.002626
# 5 -0.007531 0.000756 0.005991 -0.008512 0.033486 -0.009976
# 6 0.003365 -0.000219 -0.000718 0.002626 -0.009976 0.022099
#
#
# Mechanical properties :
#
#
# Convention : Reuss Voigt Hill
#
# Bulk Modulus (GPa) = 44.88627 65.24944 55.06786
# Shear Modulus (GPa) = 29.70476 39.77811 34.74144
#
# Velocity S-wave (km/s) = 3.65630 4.23107 3.95414
# Velocity P-wave (km/s) = 6.16649 7.29620 6.75500
#
# Compressibility (1/GPa) = 0.02227853
#
# Stress axis : x y z
#
# Youngs Moduli (GPa) = 83.57222 71.70625 60.90331
#
# Poissons Ratio (x) = 0.34696 0.38829
# Poissons Ratio (y) = 0.40438 -0.07235
# Poissons Ratio (z) = 0.53281 -0.08518
#
# Static dielectric constant tensor:
#      x y z
#    x 1.807210 0.046930 0.046860 
#    y 0.046930 1.849840 -0.014200 
#    z 0.046860 -0.014200 1.616780 
# 
# From -- ./inp_files/570376.got.cif
#   From: 2010.05.17/outbox.cif.g08.bks.cpg/sg2_286_cif.got.tgz:570376.got - 2010.06.03 11:33:40.
