data_PCOD9047049
_publ_section_title
;
Structure prediction by ZEFSAII (Michael W. Deem and Ramdas Pophale) SiO2 
 PCOD9047049
Probable space group: P -1
;
_chemical_formula_sum "Si O2"
_cell_formula_units_Z 14
_cell_length_a 18.007169
_cell_length_b 6.550216
_cell_length_c 8.882375
_cell_angle_alpha 49.960562
_cell_angle_beta 111.931951
_cell_angle_gamma 130.402295
_cell_volume 609.116129
_symmetry_space_group_name_H-M "P -1"
_symmetry_group_IT_number 2
_symmetry_cell_setting 'triclinic'
loop_
_space_group_symop_operation_xyz
x,y,z
-x,-y,-z
loop_
_atom_site_type_symbol
_atom_site_label
_atom_site_fract_x
_atom_site_fract_y
_atom_site_fract_z
Si Si1 0.960852 0.841897 0.382359
Si Si2 0.597840 0.244734 0.361799
Si Si3 0.319851 0.130068 0.342458
Si Si4 0.312087 0.051656 0.026329
Si Si5 0.893726 0.252499 0.120819
Si Si6 0.127196 0.844174 0.485578
Si Si7 0.541388 0.164371 0.797871
O O1 0.065299 0.983030 0.318194
O O2 0.909573 0.462798 0.504603
O O3 0.000000 0.000000 0.500000
O O4 0.886525 0.922982 0.237095
O O5 0.634195 0.616750 0.192218
O O6 0.500000 0.000000 0.500000
O O7 0.678431 0.187651 0.500395
O O8 0.556283 0.051367 0.268708
O O9 0.415176 0.459314 0.323213
O O10 0.238263 0.087392 0.412403
O O11 0.306302 0.160187 0.140230
O O12 0.202438 0.797794 0.999059
O O13 0.377068 0.905275 0.151120
O O14 0.891217 0.267845 0.297173
O O15 0.000000 0.500000 0.000000
O O16 0.500000 0.000000 0.000000
#
# Coordination Sequence:
#
# PCOD9047049 Si02
#       7
#     2   2   2   2   2   2   2
#     4   9  21  44  68  94 135 177 240 289 348 414
#     4  12  25  49  75 102 148 190 232 299 368 427
#     4  12  27  45  74 104 145 188 241 294 360 437
#     4  12  28  47  70 110 148 186 245 302 359 425
#     4  11  27  44  69 102 146 186 236 299 356 421
#     4  10  24  43  71 100 132 190 237 287 360 427
#     4  12  26  47  74 106 147 188 239 296 364 435
#
# _framework density 22.984123
#
# number of rings (size 3 to 8) (size 9 to 14) (size 15 to 20)
#    0.000    0.857    2.857    2.571   12.000    2.857 
#    0.000    0.000    0.000    0.000    0.000    0.000 
#    0.000    0.000    0.000    0.000    0.000    0.000 
#
# Total GULP energy -77944.399233 kJ/mol
# GULP energy per Si atom -5567.457088 kJ/mol
# Density = 2.293181 g / cm^3
# Si number density = 22.984123 Si / 1000 Ang^3
#
#
#
# Elastic Constant Matrix: (Units=GPa)
#
#
# Indices 1 2 3 4 5 6 
#
# 1 83.4120 -7.0329 13.5623 -5.7742 0.6977 1.0317
# 2 -7.0329 84.8763 15.5770 -6.3275 -6.1140 -0.8556
# 3 13.5623 15.5770 64.2278 -4.6757 -13.8426 -0.8628
# 4 -5.7742 -6.3275 -4.6757 37.3673 -5.1586 3.0865
# 5 0.6977 -6.1140 -13.8426 -5.1586 46.6987 -2.9991
# 6 1.0317 -0.8556 -0.8628 3.0865 -2.9991 37.7946
#
#
#
# Elastic Compliance Matrix: (Units=1/GPa)
#
#
# Indices 1 2 3 4 5 6 
#
# 1 0.012785 0.001714 -0.003150 0.001819 -0.000737 -0.000589
# 2 0.001714 0.012721 -0.003080 0.002162 0.000970 0.000071
# 3 -0.003150 -0.003080 0.018281 0.001957 0.005324 0.000696
# 4 0.001819 0.002162 0.001957 0.028346 0.003841 -0.001966
# 5 -0.000737 0.000970 0.005324 0.003841 0.023665 0.001728
# 6 -0.000589 0.000071 0.000696 -0.001966 0.001728 0.026790
#
#
# Mechanical properties :
#
#
# Convention : Reuss Voigt Hill
#
# Bulk Modulus (GPa) = 28.77246 30.74765 29.76005
# Shear Modulus (GPa) = 34.91544 38.39945 36.65744
#
# Velocity S-wave (km/s) = 3.90181 4.09185 3.99796
# Velocity P-wave (km/s) = 5.73100 5.97755 5.85557
#
# Compressibility (1/GPa) = 0.03475546
#
# Stress axis : x y z
#
# Youngs Moduli (GPa) = 78.21878 78.61128 54.70252
#
# Poissons Ratio (x) = -0.13473 0.17230
# Poissons Ratio (y) = -0.13406 0.16846
# Poissons Ratio (z) = 0.24636 0.24209
#
# Static dielectric constant tensor:
#      x y z
#    x 1.960230 0.018240 -0.021760 
#    y 0.018240 1.635700 0.013590 
#    z -0.021760 0.013590 1.863120 
# 
# From -- ./inp_files/323333.got.cif
#   From: 2010.05.17/outbox.cif.g08.bks.cpg/sg2_162_cif.got.tgz:323333.got - 2010.06.03 11:33:40.
