data_PCOD9047484
_publ_section_title
;
Structure prediction by ZEFSAII (Michael W. Deem and Ramdas Pophale) SiO2 
 PCOD9047484
Probable space group: P -1
;
_chemical_formula_sum "Si O2"
_cell_formula_units_Z 14
_cell_length_a 16.610564
_cell_length_b 22.907213
_cell_length_c 13.543798
_cell_angle_alpha 25.450127
_cell_angle_beta 26.130865
_cell_angle_gamma 17.238793
_cell_volume 630.440708
_symmetry_space_group_name_H-M "P -1"
_symmetry_group_IT_number 2
_symmetry_cell_setting 'triclinic'
loop_
_space_group_symop_operation_xyz
x,y,z
-x,-y,-z
loop_
_atom_site_type_symbol
_atom_site_label
_atom_site_fract_x
_atom_site_fract_y
_atom_site_fract_z
Si Si1 0.330325 0.768262 0.972828
Si Si2 0.069973 0.711724 0.472793
Si Si3 0.296665 0.185314 0.857623
Si Si4 0.307716 0.867154 0.634828
Si Si5 0.038290 0.060722 0.263978
Si Si6 0.787717 0.646373 0.786977
Si Si7 0.418645 0.389464 0.737481
O O1 0.320024 0.632732 0.251206
O O2 0.396227 0.729956 0.842614
O O3 0.552306 0.743653 0.816571
O O4 0.000000 0.000000 0.000000
O O5 0.188126 0.528080 0.693664
O O6 0.830985 0.778925 0.565391
O O7 0.941383 0.897948 0.402949
O O8 0.474992 0.150276 0.626187
O O9 0.094661 0.416134 0.770149
O O10 0.500000 0.000000 0.000000
O O11 0.089392 0.186850 0.042530
O O12 0.202379 0.834888 0.709946
O O13 0.319974 0.843490 0.234707
O O14 0.000000 0.000000 0.500000
O O15 0.691517 0.616945 0.033235
O O16 0.500000 0.500000 0.500000
#
# Coordination Sequence:
#
# PCOD9047484 Si02
#       7
#     2   2   2   2   2   2   2
#     4  10  24  44  67  95 131 173 225 271 324 391
#     4  11  23  41  70  98 130 167 224 274 324 390
#     4  12  25  42  66  98 137 171 214 267 334 395
#     4  11  24  43  64  97 129 173 219 267 330 390
#     4  12  24  41  68  93 135 172 211 275 337 383
#     4  12  25  42  69 100 132 174 220 272 328 390
#     4  12  20  40  69  99 128 167 220 274 329 381
#
# _framework density 22.206688
#
# number of rings (size 3 to 8) (size 9 to 14) (size 15 to 20)
#    0.000    0.571    4.286    4.714    0.000    4.000 
#    0.000    1.429    0.000    0.000    0.000    0.000 
#    0.000    0.000    0.000    0.000    0.000    0.000 
#
# Total GULP energy -78299.691723 kJ/mol
# GULP energy per Si atom -5592.835123 kJ/mol
# Density = 2.215614 g / cm^3
# Si number density = 22.206688 Si / 1000 Ang^3
#
#
#
# Elastic Constant Matrix: (Units=GPa)
#
#
# Indices 1 2 3 4 5 6 
#
# 1 169.6224 -1.0542 59.1139 11.9940 0.3380 -18.0453
# 2 -1.0542 41.6987 -0.6485 2.7710 17.2159 -1.0957
# 3 59.1139 -0.6485 113.2768 27.2961 22.0615 6.7374
# 4 11.9940 2.7710 27.2961 31.6804 9.0108 -0.3516
# 5 0.3380 17.2159 22.0615 9.0108 57.3982 6.7419
# 6 -18.0453 -1.0957 6.7374 -0.3516 6.7419 32.0120
#
#
#
# Elastic Compliance Matrix: (Units=1/GPa)
#
#
# Indices 1 2 3 4 5 6 
#
# 1 0.008158 -0.000287 -0.005057 0.001016 0.001186 0.005414
# 2 -0.000287 0.028036 0.002414 -0.001747 -0.009323 0.002234
# 3 -0.005057 0.002414 0.015058 -0.010107 -0.004291 -0.005144
# 4 0.001016 -0.001747 -0.010107 0.040770 -0.002420 0.003598
# 5 0.001186 -0.009323 -0.004291 -0.002420 0.022657 -0.003546
# 6 0.005414 0.002234 -0.005144 0.003598 -0.003546 0.036236
#
#
# Mechanical properties :
#
#
# Convention : Reuss Voigt Hill
#
# Bulk Modulus (GPa) = 22.03027 48.82450 35.42738
# Shear Modulus (GPa) = 29.08581 42.03055 35.55818
#
# Velocity S-wave (km/s) = 3.62301 4.35523 4.00589
# Velocity P-wave (km/s) = 5.23867 6.87931 6.11427
#
# Compressibility (1/GPa) = 0.04539209
#
# Stress axis : x y z
#
# Youngs Moduli (GPa) = 122.58315 35.66844 66.41051
#
# Poissons Ratio (x) = 0.01025 0.33582
# Poissons Ratio (y) = 0.03523 -0.16034
# Poissons Ratio (z) = 0.61987 -0.08612
#
# Static dielectric constant tensor:
#      x y z
#    x 1.865590 -0.056670 -0.003490 
#    y -0.056670 1.847860 -0.079380 
#    z -0.003490 -0.079380 1.776810 
# 
# From -- ./inp_files/183733.got.cif
#   From: 2010.05.17/outbox.cif.g08.bks.cpg/sg2_92_cif.got.tgz:183733.got - 2010.06.03 11:33:40.
