data_PCOD9047709
_publ_section_title
;
Structure prediction by ZEFSAII (Michael W. Deem and Ramdas Pophale) SiO2 
 PCOD9047709
Probable space group: P -1
;
_chemical_formula_sum "Si O2"
_cell_formula_units_Z 14
_cell_length_a 8.765519
_cell_length_b 23.903351
_cell_length_c 18.358966
_cell_angle_alpha 20.427160
_cell_angle_beta 44.030501
_cell_angle_gamma 33.408531
_cell_volume 697.956347
_symmetry_space_group_name_H-M "P -1"
_symmetry_group_IT_number 2
_symmetry_cell_setting 'triclinic'
loop_
_space_group_symop_operation_xyz
x,y,z
-x,-y,-z
loop_
_atom_site_type_symbol
_atom_site_label
_atom_site_fract_x
_atom_site_fract_y
_atom_site_fract_z
Si Si1 0.387725 0.397177 0.125078
Si Si2 0.691880 0.671496 0.031985
Si Si3 0.334206 0.057489 0.410500
Si Si4 0.348106 0.567577 0.780347
Si Si5 0.614838 0.763480 0.236782
Si Si6 0.288163 0.332458 0.519024
Si Si7 0.686431 0.069424 0.012886
O O1 0.577022 0.160643 0.378975
O O2 0.500000 0.500000 0.000000
O O3 0.444451 0.401111 0.014949
O O4 0.043219 0.525746 0.097073
O O5 0.587952 0.855052 0.785548
O O6 0.526117 0.776836 0.035833
O O7 0.626480 0.536230 0.178624
O O8 0.992243 0.238365 0.323812
O O9 0.500000 0.000000 0.500000
O O10 0.520325 0.651058 0.620209
O O11 0.575428 0.705437 0.400717
O O12 0.960356 0.565174 0.346012
O O13 0.443810 0.800801 0.176921
O O14 0.500000 0.000000 0.000000
O O15 0.288039 0.139399 0.742431
O O16 0.000000 0.000000 0.000000
#
# Coordination Sequence:
#
# PCOD9047709 Si02
#       7
#     2   2   2   2   2   2   2
#     4  11  25  41  67  98 135 171 216 271 323 389
#     4  11  25  42  64  99 133 172 222 263 326 397
#     4  11  21  44  65  94 133 177 211 260 327 390
#     4  11  24  41  68  98 130 170 222 262 326 403
#     4   9  22  45  66  88 130 168 224 271 325 387
#     4  10  24  44  69  96 127 176 224 271 333 390
#     4  11  27  45  66  98 136 171 223 277 330 391
#
# _framework density 20.058561000000001
#
# number of rings (size 3 to 8) (size 9 to 14) (size 15 to 20)
#    0.000    1.429    2.857    0.857   12.000    4.000 
#    0.000    0.000    0.000    0.000    0.000    0.000 
#    0.000    0.000    0.000    0.000    0.000    0.000 
#
# Total GULP energy -78127.003767 kJ/mol
# GULP energy per Si atom -5580.500269 kJ/mol
# Density = 2.001291 g / cm^3
# Si number density = 20.058561 Si / 1000 Ang^3
#
#
#
# Elastic Constant Matrix: (Units=GPa)
#
#
# Indices 1 2 3 4 5 6 
#
# 1 101.6219 34.4850 43.0629 1.2526 -3.6296 14.7904
# 2 34.4850 76.4608 27.0215 13.7767 -3.8358 18.5400
# 3 43.0629 27.0215 109.4073 -5.2335 -4.2091 -7.8461
# 4 1.2526 13.7767 -5.2335 26.5133 -0.6049 -9.6733
# 5 -3.6296 -3.8358 -4.2091 -0.6049 41.4227 0.7675
# 6 14.7904 18.5400 -7.8461 -9.6733 0.7675 22.5688
#
#
#
# Elastic Compliance Matrix: (Units=1/GPa)
#
#
# Indices 1 2 3 4 5 6 
#
# 1 0.016003 0.004056 -0.009514 -0.013015 0.001042 -0.022740
# 2 0.004056 0.044395 -0.019848 -0.052085 0.002957 -0.068453
# 3 -0.009514 -0.019848 0.022377 0.031097 -0.000753 0.043673
# 4 -0.013015 -0.052085 0.031097 0.111623 -0.003213 0.110080
# 5 0.001042 0.002957 -0.000753 -0.003213 0.024487 -0.005584
# 6 -0.022740 -0.068453 0.043673 0.110080 -0.005584 0.178000
#
#
# Mechanical properties :
#
#
# Convention : Reuss Voigt Hill
#
# Bulk Modulus (GPa) = 31.09081 55.18096 43.13588
# Shear Modulus (GPa) = 10.91184 30.29565 20.60374
#
# Velocity S-wave (km/s) = 2.33491 3.89055 3.20844
# Velocity P-wave (km/s) = 4.77522 6.91025 5.93945
#
# Compressibility (1/GPa) = 0.03216385
#
# Stress axis : x y z
#
# Youngs Moduli (GPa) = 62.48859 22.52500 44.68795
#
# Poissons Ratio (x) = -0.09136 0.42515
# Poissons Ratio (y) = -0.25345 0.88696
# Poissons Ratio (z) = 0.59450 0.44708
#
# Static dielectric constant tensor:
#      x y z
#    x 1.735710 0.043660 -0.004510 
#    y 0.043660 1.689530 -0.016870 
#    z -0.004510 -0.016870 1.709010 
# 
# From -- ./inp_files/35925.got.cif
#   From: 2010.05.17/outbox.cif.g08.bks.cpg/sg2_18_cif.got.tgz:35925.got - 2010.06.03 11:33:40.
