data_PCOD9047828
_publ_section_title
;
Structure prediction by ZEFSAII (Michael W. Deem and Ramdas Pophale) SiO2 
 PCOD9047828
Probable space group: P -1
;
_chemical_formula_sum "Si O2"
_cell_formula_units_Z 16
_cell_length_a 12.428148
_cell_length_b 11.569310
_cell_length_c 12.209022
_cell_angle_alpha 137.169014
_cell_angle_beta 63.017637
_cell_angle_gamma 85.484217
_cell_volume 780.598310
_symmetry_space_group_name_H-M "P -1"
_symmetry_group_IT_number 2
_symmetry_cell_setting 'triclinic'
loop_
_space_group_symop_operation_xyz
x,y,z
-x,-y,-z
loop_
_atom_site_type_symbol
_atom_site_label
_atom_site_fract_x
_atom_site_fract_y
_atom_site_fract_z
Si Si1 0.160310 0.954889 0.236107
Si Si2 0.519416 0.966952 0.598233
Si Si3 0.614975 0.226988 0.779140
Si Si4 0.678879 0.303822 0.228577
Si Si5 0.174551 0.465961 0.721597
Si Si6 0.983310 0.550331 0.412370
Si Si7 0.774386 0.967917 0.137117
Si Si8 0.092807 0.088184 0.743531
O O1 0.042809 0.226264 0.447024
O O2 0.260569 0.873063 0.245541
O O3 0.037892 0.910619 0.253433
O O4 0.302769 0.796460 0.968915
O O5 0.698128 0.743636 0.402687
O O6 0.401092 0.932185 0.672507
O O7 0.500000 0.000000 0.500000
O O8 0.496331 0.176089 0.806207
O O9 0.741267 0.067268 0.510442
O O10 0.500000 0.500000 0.000000
O O11 0.500000 0.500000 0.500000
O O12 0.765698 0.402115 0.244122
O O13 0.770739 0.086721 0.115136
O O14 0.161855 0.387058 0.554761
O O15 0.006547 0.645034 0.994268
O O16 0.000000 0.500000 0.500000
O O17 0.130968 0.297856 0.117926
O O18 0.852553 0.008618 0.225096
#
# Coordination Sequence:
#
# PCOD9047828 Si02
#       8
#     2   2   2   2   2   2   2   2
#     4  11  25  45  67  98 135 176 222 279 338 393
#     4  12  25  45  68  97 134 176 229 274 330 401
#     4  12  28  46  66  99 136 174 226 282 337 393
#     4  11  23  42  70  96 136 172 222 270 332 402
#     4  10  24  44  70  97 131 181 225 272 331 406
#     4  11  23  43  63 100 136 170 222 276 334 395
#     4  11  24  43  69 101 130 182 220 269 334 401
#     4  10  25  43  69  95 132 178 220 268 334 394
#
# _framework density 20.497097
#
# number of rings (size 3 to 8) (size 9 to 14) (size 15 to 20)
#    0.000    1.000    5.000    0.375    8.750    3.000 
#    2.250    1.875    0.000    0.000    0.000    0.000 
#    0.000    0.000    0.000    0.000    0.000    0.000 
#
# Total GULP energy -89146.370148 kJ/mol
# GULP energy per Si atom -5571.648134 kJ/mol
# Density = 2.045044 g / cm^3
# Si number density = 20.497097 Si / 1000 Ang^3
#
#
#
# Elastic Constant Matrix: (Units=GPa)
#
#
# Indices 1 2 3 4 5 6 
#
# 1 88.7704 35.1861 8.4549 -0.2903 17.2552 -23.4765
# 2 35.1861 100.1637 33.5095 5.0569 7.2957 -20.9792
# 3 8.4549 33.5095 79.6451 -4.0084 -2.1686 -14.4363
# 4 -0.2903 5.0569 -4.0084 36.3637 -3.1690 5.7753
# 5 17.2552 7.2957 -2.1686 -3.1690 28.8253 -1.8283
# 6 -23.4765 -20.9792 -14.4363 5.7753 -1.8283 40.3803
#
#
#
# Elastic Compliance Matrix: (Units=1/GPa)
#
#
# Indices 1 2 3 4 5 6 
#
# 1 0.016324 -0.003780 0.000958 -0.001186 -0.008388 0.007659
# 2 -0.003780 0.014078 -0.005067 -0.003291 -0.001809 0.003694
# 3 0.000958 -0.005067 0.015336 0.002093 0.002297 0.003211
# 4 -0.001186 -0.003291 0.002093 0.029477 0.004582 -0.005659
# 5 -0.008388 -0.001809 0.002297 0.004582 0.040605 -0.003812
# 6 0.007659 0.003694 0.003211 -0.005659 -0.003812 0.032921
#
#
# Mechanical properties :
#
#
# Convention : Reuss Voigt Hill
#
# Bulk Modulus (GPa) = 33.37862 46.98668 40.18265
# Shear Modulus (GPa) = 28.65201 33.87577 31.26389
#
# Velocity S-wave (km/s) = 3.74285 4.06976 3.90973
# Velocity P-wave (km/s) = 5.91595 6.71248 6.32676
#
# Compressibility (1/GPa) = 0.02995930
#
# Stress axis : x y z
#
# Youngs Moduli (GPa) = 61.25926 71.03125 65.20596
#
# Poissons Ratio (x) = 0.26848 -0.06244
# Poissons Ratio (y) = 0.23155 0.33042
# Poissons Ratio (z) = -0.05866 0.35994
#
# Static dielectric constant tensor:
#      x y z
#    x 1.768350 -0.002440 -0.013490 
#    y -0.002440 1.740250 0.011990 
#    z -0.013490 0.011990 1.768640 
# 
# From -- ./inp_files/206993.got.cif
#   From: 2010.05.17/outbox.cif.g08.bks.cpg/sg2_104_cif.got.tgz:206993.got - 2010.06.03 11:33:40.
