data_PCOD9047623
_publ_section_title
;
Structure prediction by ZEFSAII (Michael W. Deem and Ramdas Pophale) SiO2 
 PCOD9047623
Probable space group: P -1
;
_chemical_formula_sum "Si O2"
_cell_formula_units_Z 14
_cell_length_a 11.684217
_cell_length_b 7.534604
_cell_length_c 9.917417
_cell_angle_alpha 46.755067
_cell_angle_beta 99.358420
_cell_angle_gamma 76.095671
_cell_volume 547.255788
_symmetry_space_group_name_H-M "P -1"
_symmetry_group_IT_number 2
_symmetry_cell_setting 'triclinic'
loop_
_space_group_symop_operation_xyz
x,y,z
-x,-y,-z
loop_
_atom_site_type_symbol
_atom_site_label
_atom_site_fract_x
_atom_site_fract_y
_atom_site_fract_z
Si Si1 0.371536 0.792253 0.159191
Si Si2 0.643332 0.757923 0.607242
Si Si3 0.120519 0.313678 0.754045
Si Si4 0.436970 0.400597 0.922929
Si Si5 0.277687 0.117584 0.169544
Si Si6 0.853457 0.800225 0.478769
Si Si7 0.200473 0.794280 0.509267
O O1 0.352271 0.533020 0.262700
O O2 0.444491 0.829110 0.025989
O O3 0.414253 0.826618 0.298232
O O4 0.226989 0.088454 0.995308
O O5 0.736073 0.743626 0.756152
O O6 0.709682 0.827863 0.458216
O O7 0.500000 0.000000 0.500000
O O8 0.130650 0.156396 0.698877
O O9 0.157286 0.558314 0.605229
O O10 0.971888 0.484299 0.692255
O O11 0.354445 0.631187 0.672943
O O12 0.500000 0.500000 0.000000
O O13 0.330015 0.328479 0.002091
O O14 0.188383 0.967155 0.283587
O O15 0.867616 0.007086 0.477554
#
# Coordination Sequence:
#
# PCOD9047623 Si02
#       7
#     2   2   2   2   2   2   2
#     4  12  24  41  67  98 138 175 226 281 334 411
#     4  11  25  44  68  99 136 176 224 281 345 401
#     4  11  24  43  69  98 133 185 227 277 340 398
#     4  12  24  42  66 103 138 176 228 282 343 403
#     4  11  25  41  65 102 131 178 222 274 348 399
#     4  10  24  44  68  97 134 182 230 275 337 406
#     4  11  24  45  69  94 140 179 223 285 341 400
#
# _framework density 25.582186
#
# number of rings (size 3 to 8) (size 9 to 14) (size 15 to 20)
#    0.000    0.857    2.857    4.286    2.000    2.857 
#    0.000    2.857    0.000    0.000    0.000    0.000 
#    0.000    0.000    0.000    0.000    0.000    0.000 
#
# Total GULP energy -78004.726157 kJ/mol
# GULP energy per Si atom -5571.766154 kJ/mol
# Density = 2.552396 g / cm^3
# Si number density = 25.582186 Si / 1000 Ang^3
#
#
#
# Elastic Constant Matrix: (Units=GPa)
#
#
# Indices 1 2 3 4 5 6 
#
# 1 93.0172 27.1086 38.9934 -5.9954 -4.7209 -1.1092
# 2 27.1086 171.9144 43.5556 10.5124 -15.4863 -1.6388
# 3 38.9934 43.5556 102.1596 4.7250 -3.9035 -0.7351
# 4 -5.9954 10.5124 4.7250 41.8310 -2.8901 -4.0850
# 5 -4.7209 -15.4863 -3.9035 -2.8901 38.6682 -5.6100
# 6 -1.1092 -1.6388 -0.7351 -4.0850 -5.6100 34.2920
#
#
#
# Elastic Compliance Matrix: (Units=1/GPa)
#
#
# Indices 1 2 3 4 5 6 
#
# 1 0.013263 -0.000959 -0.004737 0.002830 0.001084 0.000796
# 2 -0.000959 0.006880 -0.002410 -0.001386 0.002359 0.000467
# 3 -0.004737 -0.002410 0.012679 -0.001559 -0.000416 -0.000250
# 4 0.002830 -0.001386 -0.001559 0.025300 0.002008 0.003334
# 5 0.001084 0.002359 -0.000416 0.002008 0.027760 0.004919
# 6 0.000796 0.000467 -0.000250 0.003334 0.004919 0.030406
#
#
# Mechanical properties :
#
#
# Convention : Reuss Voigt Hill
#
# Bulk Modulus (GPa) = 60.20524 65.15627 62.68075
# Shear Modulus (GPa) = 36.22239 40.12050 38.17145
#
# Velocity S-wave (km/s) = 3.76696 3.96447 3.86698
# Velocity P-wave (km/s) = 6.51959 6.81768 6.67030
#
# Compressibility (1/GPa) = 0.01660985
#
# Stress axis : x y z
#
# Youngs Moduli (GPa) = 75.39811 145.34214 78.87344
#
# Poissons Ratio (x) = 0.13938 0.37364
# Poissons Ratio (y) = 0.07231 0.19007
# Poissons Ratio (z) = 0.35718 0.35024
#
# Static dielectric constant tensor:
#      x y z
#    x 2.092430 0.003020 0.042990 
#    y 0.003020 2.045200 0.037120 
#    z 0.042990 0.037120 2.287340 
# 
# From -- ./inp_files/344960.got.cif
#   From: 2010.05.17/outbox.cif.g08.bks.cpg/sg2_173_cif.got.tgz:344960.got - 2010.06.03 11:33:40.
