data_PCOD9047829
_publ_section_title
;
Structure prediction by ZEFSAII (Michael W. Deem and Ramdas Pophale) SiO2 
 PCOD9047829
Probable space group: P -1
;
_chemical_formula_sum "Si O2"
_cell_formula_units_Z 16
_cell_length_a 12.732329
_cell_length_b 9.318463
_cell_length_c 13.997764
_cell_angle_alpha 113.215373
_cell_angle_beta 148.275099
_cell_angle_gamma 49.361411
_cell_volume 607.241463
_symmetry_space_group_name_H-M "P -1"
_symmetry_group_IT_number 2
_symmetry_cell_setting 'triclinic'
loop_
_space_group_symop_operation_xyz
x,y,z
-x,-y,-z
loop_
_atom_site_type_symbol
_atom_site_label
_atom_site_fract_x
_atom_site_fract_y
_atom_site_fract_z
Si Si1 0.186702 0.646597 0.819155
Si Si2 0.379275 0.089150 0.826089
Si Si3 0.129324 0.285780 0.227492
Si Si4 0.090747 0.039973 0.816669
Si Si5 0.830108 0.430301 0.423631
Si Si6 0.569536 0.196052 0.669557
Si Si7 0.293660 0.790814 0.601134
Si Si8 0.189009 0.611993 0.165732
O O1 0.089743 0.621594 0.638019
O O2 0.096769 0.613878 0.839547
O O3 0.047441 0.887854 0.781706
O O4 0.500000 0.500000 0.000000
O O5 0.351017 0.938279 0.712185
O O6 0.604194 0.085240 0.958274
O O7 0.095571 0.312624 0.659341
O O8 0.500000 0.000000 0.000000
O O9 0.355416 0.284465 0.441734
O O10 0.276546 0.043857 0.264727
O O11 0.993939 0.390591 0.049574
O O12 0.980256 0.086231 0.635598
O O13 0.945612 0.261123 0.809346
O O14 0.608422 0.668305 0.341347
O O15 0.714118 0.323191 0.344886
O O16 0.752392 0.250556 0.804772
O O17 0.529158 0.613840 0.668545
#
# Coordination Sequence:
#
# PCOD9047829 Si02
#       8
#     2   2   2   2   2   2   2   2
#     4  12  26  44  69 104 141 182 227 281 338 410
#     4  12  25  42  71 100 138 178 224 280 346 411
#     4  11  25  46  70  99 138 182 229 277 338 406
#     4  12  26  44  69 101 138 179 227 281 345 404
#     4  11  24  45  72 100 139 179 226 285 342 400
#     4  10  24  44  70  97 135 179 227 277 336 401
#     4  11  24  47  68 100 137 176 227 285 343 401
#     4  11  25  44  73  96 135 179 228 285 337 402
#
# _framework density 26.348659999999999
#
# number of rings (size 3 to 8) (size 9 to 14) (size 15 to 20)
#    0.000    0.750    3.750    3.375    5.250    4.000 
#    0.000    0.000    0.000    0.000    0.000    0.000 
#    0.000    0.000    0.000    0.000    0.000    0.000 
#
# Total GULP energy -89709.668403 kJ/mol
# GULP energy per Si atom -5606.854275 kJ/mol
# Density = 2.628869 g / cm^3
# Si number density = 26.348660 Si / 1000 Ang^3
#
#
#
# Elastic Constant Matrix: (Units=GPa)
#
#
# Indices 1 2 3 4 5 6 
#
# 1 61.9155 22.3496 17.1138 11.8641 -16.9321 -1.3554
# 2 22.3496 147.1277 19.8998 11.1237 -3.4342 -17.3595
# 3 17.1138 19.8998 144.2295 15.4383 -6.3592 -3.8941
# 4 11.8641 11.1237 15.4383 44.2340 -6.2742 1.8227
# 5 -16.9321 -3.4342 -6.3592 -6.2742 32.4137 -1.6796
# 6 -1.3554 -17.3595 -3.8941 1.8227 -1.6796 34.2735
#
#
#
# Elastic Compliance Matrix: (Units=1/GPa)
#
#
# Indices 1 2 3 4 5 6 
#
# 1 0.020658 -0.002493 -0.001351 -0.003072 0.009669 0.000038
# 2 -0.002493 0.007789 -0.000560 -0.001344 -0.000649 0.003822
# 3 -0.001351 -0.000560 0.007424 -0.002068 0.000324 0.000632
# 4 -0.003072 -0.001344 -0.002068 0.024946 0.002560 -0.002238
# 5 0.009669 -0.000649 0.000324 0.002560 0.036483 0.001742
# 6 0.000038 0.003822 0.000632 -0.002238 0.001742 0.031391
#
#
# Mechanical properties :
#
#
# Convention : Reuss Voigt Hill
#
# Bulk Modulus (GPa) = 36.95217 52.44434 44.69825
# Shear Modulus (GPa) = 34.12512 41.77821 37.95167
#
# Velocity S-wave (km/s) = 3.60271 3.98627 3.79933
# Velocity P-wave (km/s) = 5.60007 6.41360 6.02059
#
# Compressibility (1/GPa) = 0.02706201
#
# Stress axis : x y z
#
# Youngs Moduli (GPa) = 48.40692 128.38995 134.70362
#
# Poissons Ratio (x) = 0.32006 0.18199
# Poissons Ratio (y) = 0.12067 0.07549
# Poissons Ratio (z) = 0.06540 0.07195
#
# Static dielectric constant tensor:
#      x y z
#    x 2.148330 0.013250 0.042530 
#    y 0.013250 2.009970 0.018800 
#    z 0.042530 0.018800 2.048460 
# 
# From -- ./inp_files/532642.got.cif
#   From: 2010.05.17/outbox.cif.g08.bks.cpg/sg2_267_cif.got.tgz:532642.got - 2010.06.03 11:33:40.
