data_PCOD9047904
_publ_section_title
;
Structure prediction by ZEFSAII (Michael W. Deem and Ramdas Pophale) SiO2 
 PCOD9047904
Probable space group: P -1
;
_chemical_formula_sum "Si O2"
_cell_formula_units_Z 15
_cell_length_a 12.826877
_cell_length_b 15.628608
_cell_length_c 6.023181
_cell_angle_alpha 122.508619
_cell_angle_beta 49.869901
_cell_angle_gamma 138.940290
_cell_volume 603.204763
_symmetry_space_group_name_H-M "P -1"
_symmetry_group_IT_number 2
_symmetry_cell_setting 'triclinic'
loop_
_space_group_symop_operation_xyz
x,y,z
-x,-y,-z
loop_
_atom_site_type_symbol
_atom_site_label
_atom_site_fract_x
_atom_site_fract_y
_atom_site_fract_z
Si Si1 0.566263 0.269537 0.686445
Si Si2 0.462261 0.101289 0.200030
Si Si3 0.259685 0.155800 0.274245
Si Si4 0.927531 0.625226 0.175155
Si Si5 0.921731 0.773882 0.052793
Si Si6 0.679675 0.532854 0.736998
Si Si7 0.000000 0.000000 0.000000
Si Si8 0.194392 0.654565 0.170897
O O1 0.446568 0.138528 0.521881
O O2 0.649629 0.399129 0.612864
O O3 0.727306 0.289297 0.614683
O O4 0.437901 0.258931 0.032602
O O5 0.304647 0.071091 0.222967
O O6 0.637888 0.239746 0.063757
O O7 0.500000 0.000000 0.000000
O O8 0.206692 0.207562 0.615157
O O9 0.106075 0.081597 0.200011
O O10 0.018441 0.751274 0.072250
O O11 0.751015 0.589516 0.473320
O O12 0.042356 0.649734 0.265753
O O13 0.873473 0.493346 0.952508
O O14 0.809866 0.637998 0.887635
O O15 0.015362 0.887621 0.902497
O O16 0.500000 0.500000 0.000000
#
# Coordination Sequence:
#
# PCOD9047904 Si02
#       8
#     2   2   2   2   2   2   1   2
#     4  11  23  46  72 107 144 192 243 304 359 447
#     4  11  25  47  74 104 143 197 248 310 366 429
#     4  11  26  47  74 104 148 187 247 307 364 444
#     4  11  24  44  70 111 148 195 238 306 373 423
#     4  12  26  45  71 108 146 192 239 303 376 434
#     4  12  24  40  73 108 145 191 244 295 375 441
#     4  12  26  48  68 102 142 192 240 300 358 452
#     4  10  24  44  71 105 151 189 249 303 356 448
#
# _framework density 24.867179
#
# number of rings (size 3 to 8) (size 9 to 14) (size 15 to 20)
#    0.000    0.800    2.667    4.400    3.733    4.800 
#    4.800    0.000    0.000    0.000    0.000    0.000 
#    0.000    0.000    0.000    0.000    0.000    0.000 
#
# Total GULP energy -83650.199998 kJ/mol
# GULP energy per Si atom -5576.680000 kJ/mol
# Density = 2.481058 g / cm^3
# Si number density = 24.867179 Si / 1000 Ang^3
#
#
#
# Elastic Constant Matrix: (Units=GPa)
#
#
# Indices 1 2 3 4 5 6 
#
# 1 138.2463 54.4465 32.5619 10.5261 18.9001 -38.4588
# 2 54.4465 97.9879 22.0445 17.4192 1.4231 -24.8019
# 3 32.5619 22.0445 86.2723 19.8349 -2.2713 -1.8859
# 4 10.5261 17.4192 19.8349 30.9922 6.3123 -6.8754
# 5 18.9001 1.4231 -2.2713 6.3123 30.6522 5.5186
# 6 -38.4588 -24.8019 -1.8859 -6.8754 5.5186 42.9748
#
#
#
# Elastic Compliance Matrix: (Units=1/GPa)
#
#
# Indices 1 2 3 4 5 6 
#
# 1 0.016138 -0.005000 -0.006647 0.007693 -0.014377 0.014342
# 2 -0.005000 0.014815 -0.000248 -0.006558 0.003260 0.002597
# 3 -0.006647 -0.000248 0.017063 -0.012341 0.009452 -0.008531
# 4 0.007693 -0.006558 -0.012341 0.047525 -0.017372 0.012393
# 5 -0.014377 0.003260 0.009452 -0.017372 0.049156 -0.019662
# 6 0.014342 0.002597 -0.008531 0.012393 -0.019662 0.041736
#
#
# Mechanical properties :
#
#
# Convention : Reuss Voigt Hill
#
# Bulk Modulus (GPa) = 41.27913 60.06804 50.67359
# Shear Modulus (GPa) = 22.90440 35.15408 29.02924
#
# Velocity S-wave (km/s) = 3.03821 3.76396 3.42039
# Velocity P-wave (km/s) = 5.37991 6.56490 6.00172
#
# Compressibility (1/GPa) = 0.02422531
#
# Stress axis : x y z
#
# Youngs Moduli (GPa) = 61.96576 67.49798 58.60609
#
# Poissons Ratio (x) = 0.33751 0.38956
# Poissons Ratio (y) = 0.30985 0.01454
# Poissons Ratio (z) = 0.41189 0.01674
#
# Static dielectric constant tensor:
#      x y z
#    x 1.961170 -0.132190 0.291170 
#    y -0.132190 1.656600 0.506830 
#    z 0.291170 0.506830 1.078350 
# 
# From -- ./inp_files/76615.got.cif
#   From: 2010.05.17/outbox.cif.g08.bks.cpg/sg2_39_cif.got.tgz:76615.got - 2010.06.03 11:33:40.
