data_PCOD9047682
_publ_section_title
;
Structure prediction by ZEFSAII (Michael W. Deem and Ramdas Pophale) SiO2 
 PCOD9047682
Probable space group: P -1
;
_chemical_formula_sum "Si O2"
_cell_formula_units_Z 16
_cell_length_a 9.101332
_cell_length_b 15.129056
_cell_length_c 7.766600
_cell_angle_alpha 82.379373
_cell_angle_beta 50.046682
_cell_angle_gamma 115.035335
_cell_volume 603.900818
_symmetry_space_group_name_H-M "P -1"
_symmetry_group_IT_number 2
_symmetry_cell_setting 'triclinic'
loop_
_space_group_symop_operation_xyz
x,y,z
-x,-y,-z
loop_
_atom_site_type_symbol
_atom_site_label
_atom_site_fract_x
_atom_site_fract_y
_atom_site_fract_z
Si Si1 0.942683 0.317438 0.418049
Si Si2 0.541759 0.108662 0.535729
Si Si3 0.462732 0.278141 0.923089
Si Si4 0.469320 0.191910 0.260263
Si Si5 0.779917 0.502771 0.129261
Si Si6 0.733611 0.676715 0.262731
Si Si7 0.870017 0.991305 0.841579
Si Si8 0.859408 0.178677 0.814146
O O1 0.782353 0.192274 0.463633
O O2 0.727641 0.324204 0.629102
O O3 0.027022 0.293543 0.533602
O O4 0.160864 0.433398 0.114979
O O5 0.602371 0.209975 0.336461
O O6 0.500000 0.000000 0.500000
O O7 0.282246 0.052265 0.850435
O O8 0.349797 0.315085 0.865914
O O9 0.509049 0.293649 0.090792
O O10 0.248984 0.133389 0.118961
O O11 0.608229 0.157733 0.051567
O O12 0.174644 0.082509 0.562007
O O13 0.792256 0.590299 0.229045
O O14 0.501513 0.377607 0.417826
O O15 0.000000 0.500000 0.000000
O O16 0.982745 0.794962 0.137610
O O17 0.798760 0.066175 0.801972
#
# Coordination Sequence:
#
# PCOD9047682 Si02
#       8
#     2   2   2   2   2   2   2   2
#     4  10  24  44  73 101 143 186 232 294 353 412
#     4  11  23  40  70 104 143 190 237 284 344 412
#     4  10  24  44  69 104 145 183 235 288 345 420
#     4  11  24  41  62 100 143 189 232 283 336 411
#     4  11  24  48  78 102 132 181 238 298 363 415
#     4  11  26  46  73 104 139 182 235 296 356 416
#     4  11  25  40  66 102 145 189 234 270 347 417
#     4  11  26  44  68 106 145 187 235 283 345 425
#
# _framework density 26.494418
#
# number of rings (size 3 to 8) (size 9 to 14) (size 15 to 20)
#    0.000    1.250    2.500    1.500    8.750    3.000 
#    0.000    0.625    5.500    0.000    0.000    0.000 
#    0.000    0.000    0.000    0.000    0.000    0.000 
#
# Total GULP energy -89462.201281 kJ/mol
# GULP energy per Si atom -5591.387580 kJ/mol
# Density = 2.643412 g / cm^3
# Si number density = 26.494418 Si / 1000 Ang^3
#
#
#
# Elastic Constant Matrix: (Units=GPa)
#
#
# Indices 1 2 3 4 5 6 
#
# 1 135.7947 26.3916 55.4877 4.1306 22.9299 -26.4695
# 2 26.3916 85.9352 15.6996 7.1709 -2.5153 -18.8774
# 3 55.4877 15.6996 166.4036 1.4976 2.9385 -15.5621
# 4 4.1306 7.1709 1.4976 32.5027 -5.2013 -2.9034
# 5 22.9299 -2.5153 2.9385 -5.2013 60.5536 1.6643
# 6 -26.4695 -18.8774 -15.5621 -2.9034 1.6643 33.3397
#
#
#
# Elastic Compliance Matrix: (Units=1/GPa)
#
#
# Indices 1 2 3 4 5 6 
#
# 1 0.010815 -0.001399 -0.002770 -0.001033 -0.004290 0.006625
# 2 -0.001399 0.013696 -0.000229 -0.002149 0.000752 0.006312
# 3 -0.002770 -0.000229 0.007028 0.000274 0.000696 0.000941
# 4 -0.001033 -0.002149 0.000274 0.031905 0.003009 0.000719
# 5 -0.004290 0.000752 0.000696 0.003009 0.018486 -0.003316
# 6 0.006625 0.006312 0.000941 0.000719 -0.003316 0.039496
#
#
# Mechanical properties :
#
#
# Convention : Reuss Voigt Hill
#
# Bulk Modulus (GPa) = 43.96990 64.81016 54.39003
# Shear Modulus (GPa) = 36.28357 44.64950 40.46653
#
# Velocity S-wave (km/s) = 3.70466 4.10962 3.91239
# Velocity P-wave (km/s) = 5.91027 6.85810 6.40175
#
# Compressibility (1/GPa) = 0.02274283
#
# Stress axis : x y z
#
# Youngs Moduli (GPa) = 92.46445 73.01249 142.29054
#
# Poissons Ratio (x) = 0.10217 0.39409
# Poissons Ratio (y) = 0.12939 0.03261
# Poissons Ratio (z) = 0.25609 0.01673
#
# Static dielectric constant tensor:
#      x y z
#    x 2.194940 0.095420 0.051850 
#    y 0.095420 2.158070 0.015680 
#    z 0.051850 0.015680 2.070320 
# 
# From -- ./inp_files/217261.got.cif
#   From: 2010.05.17/outbox.cif.g08.bks.cpg/sg2_109_cif.got.tgz:217261.got - 2010.06.03 11:33:40.
