data_PCOD9047472
_publ_section_title
;
Structure prediction by ZEFSAII (Michael W. Deem and Ramdas Pophale) SiO2 
 PCOD9047472
Probable space group: P -1
;
_chemical_formula_sum "Si O2"
_cell_formula_units_Z 16
_cell_length_a 14.163500
_cell_length_b 5.110515
_cell_length_c 14.881031
_cell_angle_alpha 57.832406
_cell_angle_beta 39.122221
_cell_angle_gamma 68.604470
_cell_volume 572.964650
_symmetry_space_group_name_H-M "P -1"
_symmetry_group_IT_number 2
_symmetry_cell_setting 'triclinic'
loop_
_space_group_symop_operation_xyz
x,y,z
-x,-y,-z
loop_
_atom_site_type_symbol
_atom_site_label
_atom_site_fract_x
_atom_site_fract_y
_atom_site_fract_z
Si Si1 0.839708 0.393744 0.976105
Si Si2 0.439998 0.033515 0.139768
Si Si3 0.966777 0.060032 0.172489
Si Si4 0.672392 0.754381 0.391090
Si Si5 0.254813 0.820658 0.459478
Si Si6 0.479563 0.861575 0.685898
Si Si7 0.991683 0.183792 0.620203
Si Si8 0.727181 0.370113 0.878408
O O1 0.666702 0.361978 0.139937
O O2 0.948895 0.621343 0.913294
O O3 0.829104 0.506565 0.859720
O O4 0.919470 0.081786 0.954867
O O5 0.348772 0.338297 0.157200
O O6 0.335346 0.762917 0.314996
O O7 0.597509 0.123629 0.057484
O O8 0.500000 0.000000 0.000000
O O9 0.802378 0.039177 0.254721
O O10 0.942575 0.849529 0.320396
O O11 0.754300 0.448168 0.409538
O O12 0.552240 0.759345 0.558414
O O13 0.590653 0.813579 0.347622
O O14 0.380510 0.070992 0.363583
O O15 0.095383 0.952365 0.536005
O O16 0.000000 0.500000 0.500000
O O17 0.817232 0.175464 0.778043
#
# Coordination Sequence:
#
# PCOD9047472 Si02
#       8
#     2   2   2   2   2   2   2   2
#     4  11  26  47  78 109 159 206 260 330 398 480
#     4  11  25  41  72 110 155 202 265 318 388 476
#     4  11  26  49  73 114 158 205 265 329 398 476
#     4  11  27  48  77 112 153 204 267 340 392 479
#     4  12  24  48  77 112 158 207 264 329 396 479
#     4  11  26  49  78 110 151 208 269 329 411 460
#     4  11  23  45  72 105 154 204 256 312 393 471
#     4  10  24  44  67 109 153 205 256 318 389 473
#
# _framework density 27.924935999999999
#
# number of rings (size 3 to 8) (size 9 to 14) (size 15 to 20)
#    0.000    1.000    3.750    1.125    7.000    2.000 
#    0.000    2.500    0.000    2.250    0.000    0.000 
#    0.000    0.000    0.000    0.000    0.000    0.000 
#
# Total GULP energy -89505.121878 kJ/mol
# GULP energy per Si atom -5594.070117 kJ/mol
# Density = 2.786138 g / cm^3
# Si number density = 27.924936 Si / 1000 Ang^3
#
#
#
# Elastic Constant Matrix: (Units=GPa)
#
#
# Indices 1 2 3 4 5 6 
#
# 1 115.3633 33.6292 29.7946 7.3613 -10.7308 6.7393
# 2 33.6292 131.2712 37.7540 7.9865 -10.0534 1.9901
# 3 29.7946 37.7540 164.5555 23.6919 -40.1302 7.3848
# 4 7.3613 7.9865 23.6919 37.6497 -10.7353 4.9830
# 5 -10.7308 -10.0534 -40.1302 -10.7353 42.1469 -5.9943
# 6 6.7393 1.9901 7.3848 4.9830 -5.9943 48.9793
#
#
#
# Elastic Compliance Matrix: (Units=1/GPa)
#
#
# Indices 1 2 3 4 5 6 
#
# 1 0.009690 -0.002100 -0.000968 -0.000490 0.000784 -0.000956
# 2 -0.002100 0.008624 -0.001549 -0.000485 -0.000046 0.000216
# 3 -0.000968 -0.001549 0.008730 -0.003002 0.006936 0.000034
# 4 -0.000490 -0.000485 -0.003002 0.030138 0.004293 -0.002001
# 5 0.000784 -0.000046 0.006936 0.004293 0.031943 0.002321
# 6 -0.000956 0.000216 0.000034 -0.002001 0.002321 0.021022
#
#
# Mechanical properties :
#
#
# Convention : Reuss Voigt Hill
#
# Bulk Modulus (GPa) = 56.14850 68.17171 62.16011
# Shear Modulus (GPa) = 39.89833 46.42266 43.16049
#
# Velocity S-wave (km/s) = 3.78401 4.08169 3.93566
# Velocity P-wave (km/s) = 6.26436 6.83221 6.55444
#
# Compressibility (1/GPa) = 0.01780991
#
# Stress axis : x y z
#
# Youngs Moduli (GPa) = 103.19449 115.95424 114.54668
#
# Poissons Ratio (x) = 0.24347 0.11091
# Poissons Ratio (y) = 0.21668 0.17748
# Poissons Ratio (z) = 0.09992 0.17966
#
# Static dielectric constant tensor:
#      x y z
#    x 2.225830 -0.007490 0.055950 
#    y -0.007490 2.297830 -0.079980 
#    z 0.055950 -0.079980 2.206770 
# 
# From -- ./inp_files/525532.got.cif
#   From: 2010.05.17/outbox.cif.g08.bks.cpg/sg2_263_cif.got.tgz:525532.got - 2010.06.03 11:33:40.
