data_PCOD9047219
_publ_section_title
;
Structure prediction by ZEFSAII (Michael W. Deem and Ramdas Pophale) SiO2 
 PCOD9047219
Probable space group: P -1
;
_chemical_formula_sum "Si O2"
_cell_formula_units_Z 11
_cell_length_a 10.421348
_cell_length_b 9.843776
_cell_length_c 4.670300
_cell_angle_alpha 96.410961
_cell_angle_beta 63.158772
_cell_angle_gamma 111.302015
_cell_volume 397.488803
_symmetry_space_group_name_H-M "P -1"
_symmetry_group_IT_number 2
_symmetry_cell_setting 'triclinic'
loop_
_space_group_symop_operation_xyz
x,y,z
-x,-y,-z
loop_
_atom_site_type_symbol
_atom_site_label
_atom_site_fract_x
_atom_site_fract_y
_atom_site_fract_z
Si Si1 0.734364 0.607383 0.943272
Si Si2 0.445052 0.112322 0.763854
Si Si3 0.000000 0.500000 0.500000
Si Si4 0.493053 0.311504 0.226437
Si Si5 0.137016 0.935694 0.373746
Si Si6 0.965262 0.249158 0.063339
O O1 0.555393 0.212665 0.925134
O O2 0.617878 0.469886 0.195466
O O3 0.640504 0.663703 0.822251
O O4 0.858100 0.729873 0.041729
O O5 0.436041 0.224871 0.554609
O O6 0.500000 0.000000 0.500000
O O7 0.293521 0.031727 0.088305
O O8 0.843406 0.537894 0.655387
O O9 0.943669 0.389283 0.248153
O O10 0.140879 0.893107 0.688699
O O11 0.078627 0.780184 0.227750
O O12 0.000000 0.000000 0.500000
#
# Coordination Sequence:
#
# PCOD9047219 Si02
#       6
#     2   2   1   2   2   2
#     4   9  23  44  78 103 144 187 237 317 358 429
#     4  12  29  44  75 103 150 199 240 297 363 447
#     4   8  22  46  72 114 136 192 238 320 360 428
#     4  11  25  49  69 109 145 188 246 295 377 435
#     4  12  26  46  71 105 145 193 243 302 357 440
#     4  10  24  43  74 107 140 184 246 299 367 425
#
# _framework density 27.673735000000001
#
# number of rings (size 3 to 8) (size 9 to 14) (size 15 to 20)
#    1.091    0.364    0.000    3.273    5.091    9.455 
#    0.000    0.000    0.000    0.000    0.000    0.000 
#    0.000    0.000    0.000    0.000    0.000    0.000 
#
# Total GULP energy -61437.739892 kJ/mol
# GULP energy per Si atom -5585.249081 kJ/mol
# Density = 2.761075 g / cm^3
# Si number density = 27.673735 Si / 1000 Ang^3
#
#
#
# Elastic Constant Matrix: (Units=GPa)
#
#
# Indices 1 2 3 4 5 6 
#
# 1 87.7984 42.5781 29.7765 -28.1479 -6.3087 3.9401
# 2 42.5781 117.7582 65.4747 -34.3018 -20.4537 25.7059
# 3 29.7765 65.4747 143.1584 -21.5032 -2.8945 -0.7244
# 4 -28.1479 -34.3018 -21.5032 77.9253 3.1399 -2.3308
# 5 -6.3087 -20.4537 -2.8945 3.1399 51.2552 6.9097
# 6 3.9401 25.7059 -0.7244 -2.3308 6.9097 45.0992
#
#
#
# Elastic Compliance Matrix: (Units=1/GPa)
#
#
# Indices 1 2 3 4 5 6 
#
# 1 0.014679 -0.004461 -0.000525 0.003254 -0.000402 0.001482
# 2 -0.004461 0.019267 -0.007146 0.004222 0.008058 -0.011723
# 3 -0.000525 -0.007146 0.010292 -0.000235 -0.002958 0.004725
# 4 0.003254 0.004222 -0.000235 0.015683 0.001394 -0.002098
# 5 -0.000402 0.008058 -0.002958 0.001394 0.023521 -0.008137
# 6 0.001482 -0.011723 0.004725 -0.002098 -0.008137 0.029940
#
#
# Mechanical properties :
#
#
# Convention : Reuss Voigt Hill
#
# Bulk Modulus (GPa) = 50.06622 69.37487 59.72055
# Shear Modulus (GPa) = 34.64918 48.91499 41.78209
#
# Velocity S-wave (km/s) = 3.54228 4.20880 3.88984
# Velocity P-wave (km/s) = 5.90434 6.98154 6.46541
#
# Compressibility (1/GPa) = 0.01997355
#
# Stress axis : x y z
#
# Youngs Moduli (GPa) = 68.12425 51.90225 97.16655
#
# Poissons Ratio (x) = 0.23155 0.05098
# Poissons Ratio (y) = 0.30392 0.69437
# Poissons Ratio (z) = 0.03574 0.37090
#
# Static dielectric constant tensor:
#      x y z
#    x 2.179150 -0.027290 -0.057280 
#    y -0.027290 2.455150 0.006370 
#    z -0.057280 0.006370 2.112140 
# 
# From -- ./inp_files/86690.got.cif
#   From: 2010.05.17/outbox.cif.g08.bks.cpg/sg2_44_cif.got.tgz:86690.got - 2010.06.03 11:33:40.
