data_PCOD9047063
_publ_section_title
;
Structure prediction by ZEFSAII (Michael W. Deem and Ramdas Pophale) SiO2 
 PCOD9047063
Probable space group: P -1
;
_chemical_formula_sum "Si O2"
_cell_formula_units_Z 16
_cell_length_a 12.612078
_cell_length_b 21.338741
_cell_length_c 5.546150
_cell_angle_alpha 74.080523
_cell_angle_beta 104.506559
_cell_angle_gamma 152.391263
_cell_volume 665.101613
_symmetry_space_group_name_H-M "P -1"
_symmetry_group_IT_number 2
_symmetry_cell_setting 'triclinic'
loop_
_space_group_symop_operation_xyz
x,y,z
-x,-y,-z
loop_
_atom_site_type_symbol
_atom_site_label
_atom_site_fract_x
_atom_site_fract_y
_atom_site_fract_z
Si Si1 0.795339 0.167582 0.723713
Si Si2 0.367633 0.853100 0.852188
Si Si3 0.974483 0.930270 0.864882
Si Si4 0.765191 0.344579 0.255235
Si Si5 0.806046 0.704602 0.043198
Si Si6 0.661954 0.549336 0.730604
Si Si7 0.392233 0.196223 0.549393
Si Si8 0.769716 0.461629 0.775766
O O1 0.731901 0.167237 0.432694
O O2 0.624681 0.016636 0.827511
O O3 0.748079 0.186376 0.917611
O O4 0.057095 0.279569 0.751388
O O5 0.333620 0.758320 0.889345
O O6 0.924998 0.833844 0.038702
O O7 0.760575 0.838662 0.674387
O O8 0.208595 0.053720 0.719447
O O9 0.000000 0.000000 0.000000
O O10 0.580161 0.253544 0.453232
O O11 0.014558 0.448028 0.357493
O O12 0.793846 0.430727 0.062339
O O13 0.826227 0.688496 0.798450
O O14 0.536391 0.575151 0.060084
O O15 0.500000 0.500000 0.500000
O O16 0.776081 0.541399 0.735809
O O17 0.529827 0.314973 0.681132
#
# Coordination Sequence:
#
# PCOD9047063 Si02
#       8
#     2   2   2   2   2   2   2   2
#     4  10  24  43  71 102 148 188 248 296 369 450
#     4  10  24  46  67 107 145 193 239 306 368 443
#     4  11  25  45  69 104 145 181 238 301 367 443
#     4  11  25  43  73 102 144 186 238 306 366 435
#     4  11  25  42  71 101 135 193 237 306 369 437
#     4  11  25  46  71  99 141 187 249 300 364 447
#     4  11  24  43  70 104 138 187 233 302 366 440
#     4  11  25  46  68 104 141 186 247 301 369 432
#
# _framework density 24.056476
#
# number of rings (size 3 to 8) (size 9 to 14) (size 15 to 20)
#    0.000    1.250    0.000    4.125    8.750    4.000 
#    0.000    0.000    0.000    0.000    0.000    0.000 
#    0.000    0.000    0.000    0.000    0.000    0.000 
#
# Total GULP energy -89529.005179 kJ/mol
# GULP energy per Si atom -5595.562824 kJ/mol
# Density = 2.400172 g / cm^3
# Si number density = 24.056476 Si / 1000 Ang^3
#
#
#
# Elastic Constant Matrix: (Units=GPa)
#
#
# Indices 1 2 3 4 5 6 
#
# 1 128.2835 43.3541 35.7702 -9.3442 -3.5862 -4.9832
# 2 43.3541 63.8476 9.3819 2.4063 0.2638 3.6112
# 3 35.7702 9.3819 68.1317 10.2665 -1.8470 -0.8845
# 4 -9.3442 2.4063 10.2665 42.0658 4.5668 -3.3717
# 5 -3.5862 0.2638 -1.8470 4.5668 24.6417 -2.7765
# 6 -4.9832 3.6112 -0.8845 -3.3717 -2.7765 57.5168
#
#
#
# Elastic Compliance Matrix: (Units=1/GPa)
#
#
# Indices 1 2 3 4 5 6 
#
# 1 0.012681 -0.007983 -0.006247 0.004861 0.000768 0.001826
# 2 -0.007983 0.021086 0.001762 -0.003495 -0.000859 -0.002235
# 3 -0.006247 0.001762 0.018693 -0.006273 0.001562 -0.000657
# 4 0.004861 -0.003495 -0.006273 0.027231 -0.004556 0.001921
# 5 0.000768 -0.000859 0.001562 -0.004556 0.041878 0.001899
# 6 0.001826 -0.002235 -0.000657 0.001921 0.001899 0.017879
#
#
# Mechanical properties :
#
#
# Convention : Reuss Voigt Hill
#
# Bulk Modulus (GPa) = 36.33006 48.58613 42.45809
# Shear Modulus (GPa) = 28.80873 36.29530 32.55201
#
# Velocity S-wave (km/s) = 3.46431 3.88848 3.68251
# Velocity P-wave (km/s) = 5.58003 6.35617 5.98070
#
# Compressibility (1/GPa) = 0.02752541
#
# Stress axis : x y z
#
# Youngs Moduli (GPa) = 78.85634 47.42591 53.49463
#
# Poissons Ratio (x) = 0.37859 0.33416
# Poissons Ratio (y) = 0.62948 -0.09425
# Poissons Ratio (z) = 0.49259 -0.08356
#
# Static dielectric constant tensor:
#      x y z
#    x 1.912310 0.015580 -0.039640 
#    y 0.015580 1.952650 -0.032480 
#    z -0.039640 -0.032480 1.988220 
# 
# From -- ./inp_files/83214.got.cif
#   From: 2010.05.17/outbox.cif.g08.bks.cpg/sg2_42_cif.got.tgz:83214.got - 2010.06.03 11:33:40.
