data_PCOD9047147
_publ_section_title
;
Structure prediction by ZEFSAII (Michael W. Deem and Ramdas Pophale) SiO2 
 PCOD9047147
Probable space group: P -1
;
_chemical_formula_sum "Si O2"
_cell_formula_units_Z 15
_cell_length_a 7.663729
_cell_length_b 15.610739
_cell_length_c 7.120813
_cell_angle_alpha 45.548895
_cell_angle_beta 112.007981
_cell_angle_gamma 100.057001
_cell_volume 558.836688
_symmetry_space_group_name_H-M "P -1"
_symmetry_group_IT_number 2
_symmetry_cell_setting 'triclinic'
loop_
_space_group_symop_operation_xyz
x,y,z
-x,-y,-z
loop_
_atom_site_type_symbol
_atom_site_label
_atom_site_fract_x
_atom_site_fract_y
_atom_site_fract_z
Si Si1 0.447788 0.369141 0.626882
Si Si2 0.856075 0.790732 0.200342
Si Si3 0.659683 0.036181 0.649484
Si Si4 0.679168 0.888002 0.381117
Si Si5 0.000000 0.000000 0.500000
Si Si6 0.798620 0.380848 0.262123
Si Si7 0.639609 0.633261 0.845247
Si Si8 0.810837 0.240024 0.152205
O O1 0.500000 0.500000 0.500000
O O2 0.283459 0.307565 0.761499
O O3 0.387121 0.375858 0.376492
O O4 0.640419 0.282382 0.880443
O O5 0.771944 0.838083 0.298848
O O6 0.065885 0.717606 0.411445
O O7 0.826100 0.922344 0.887359
O O8 0.547651 0.065741 0.753296
O O9 0.746903 0.149070 0.427261
O O10 0.500000 0.000000 0.500000
O O11 0.688438 0.765806 0.698517
O O12 0.790316 0.995177 0.329786
O O13 0.029718 0.851106 0.738695
O O14 0.574061 0.371819 0.161183
O O15 0.873268 0.352100 0.123415
O O16 0.786735 0.515546 0.134783
#
# Coordination Sequence:
#
# PCOD9047147 Si02
#       8
#     2   2   2   2   1   2   2   2
#     4  11  23  43  69  95 134 179 223 273 341 398
#     4  11  25  42  69 101 132 178 229 278 332 407
#     4  12  23  43  67  93 140 180 219 275 339 397
#     4  11  23  42  66 100 135 179 221 276 338 405
#     4  12  24  40  64 102 136 170 230 272 328 398
#     4  11  23  46  69 101 132 175 231 279 335 400
#     4  10  24  43  72  95 137 180 220 279 347 397
#     4  12  24  43  68  95 138 178 219 277 339 395
#
# _framework density 26.841473000000001
#
# number of rings (size 3 to 8) (size 9 to 14) (size 15 to 20)
#    0.000    0.800    6.667    0.400    0.000    5.867 
#    0.000    0.667    0.000    0.000    0.000    0.000 
#    0.000    0.000    0.000    0.000    0.000    0.000 
#
# Total GULP energy -83649.368172 kJ/mol
# GULP energy per Si atom -5576.624545 kJ/mol
# Density = 2.678038 g / cm^3
# Si number density = 26.841473 Si / 1000 Ang^3
#
#
#
# Elastic Constant Matrix: (Units=GPa)
#
#
# Indices 1 2 3 4 5 6 
#
# 1 92.7734 34.4976 24.1792 -18.5688 16.0568 -5.7691
# 2 34.4976 100.3717 16.2860 -34.7973 2.9129 8.0372
# 3 24.1792 16.2860 164.2240 -41.4758 49.9090 -19.5313
# 4 -18.5688 -34.7973 -41.4758 49.2591 -11.2416 -0.5502
# 5 16.0568 2.9129 49.9090 -11.2416 47.6723 -4.2514
# 6 -5.7691 8.0372 -19.5313 -0.5502 -4.2514 50.1904
#
#
#
# Elastic Compliance Matrix: (Units=1/GPa)
#
#
# Indices 1 2 3 4 5 6 
#
# 1 0.013369 -0.004194 0.000254 0.001399 -0.004006 0.001983
# 2 -0.004194 0.014872 0.000876 0.010037 0.001752 -0.002264
# 3 0.000254 0.000876 0.011455 0.008143 -0.009891 0.003598
# 4 0.001399 0.010037 0.008143 0.034501 -0.001296 0.001991
# 5 -0.004006 0.001752 -0.009891 -0.001296 0.032100 -0.001885
# 6 0.001983 -0.002264 0.003598 0.001991 -0.001885 0.021777
#
#
# Mechanical properties :
#
#
# Convention : Reuss Voigt Hill
#
# Bulk Modulus (GPa) = 29.78906 56.36608 43.07757
# Shear Modulus (GPa) = 34.38989 48.25145 41.32067
#
# Velocity S-wave (km/s) = 3.58330 4.24446 3.92782
# Velocity P-wave (km/s) = 5.31435 6.71311 6.05426
#
# Compressibility (1/GPa) = 0.03356937
#
# Stress axis : x y z
#
# Youngs Moduli (GPa) = 74.80125 67.23869 87.29559
#
# Poissons Ratio (x) = 0.28197 -0.02219
# Poissons Ratio (y) = 0.31368 -0.07646
# Poissons Ratio (z) = -0.01901 -0.05889
#
# Static dielectric constant tensor:
#      x y z
#    x 2.003610 -0.325220 -0.177780 
#    y -0.325220 2.094640 -0.027340 
#    z -0.177780 -0.027340 2.171920 
# 
# From -- ./inp_files/216579.got.cif
#   From: 2010.05.17/outbox.cif.g08.bks.cpg/sg2_109_cif.got.tgz:216579.got - 2010.06.03 11:33:40.
