data_PCOD9047232
_publ_section_title
;
Structure prediction by ZEFSAII (Michael W. Deem and Ramdas Pophale) SiO2 
 PCOD9047232
Probable space group: P -1
;
_chemical_formula_sum "Si O2"
_cell_formula_units_Z 14
_cell_length_a 13.042825
_cell_length_b 8.925579
_cell_length_c 11.807249
_cell_angle_alpha 89.495007
_cell_angle_beta 22.807093
_cell_angle_gamma 90.464575
_cell_volume 532.323692
_symmetry_space_group_name_H-M "P -1"
_symmetry_group_IT_number 2
_symmetry_cell_setting 'triclinic'
loop_
_space_group_symop_operation_xyz
x,y,z
-x,-y,-z
loop_
_atom_site_type_symbol
_atom_site_label
_atom_site_fract_x
_atom_site_fract_y
_atom_site_fract_z
Si Si1 0.297782 0.884197 0.150819
Si Si2 0.117183 0.094629 0.989154
Si Si3 0.030623 0.428371 0.727052
Si Si4 0.944946 0.835709 0.702116
Si Si5 0.697659 0.625273 0.344515
Si Si6 0.550447 0.562720 0.075634
Si Si7 0.646628 0.178342 0.138326
O O1 0.452266 0.814705 0.889884
O O2 0.147841 0.783466 0.398511
O O3 0.500000 0.000000 0.000000
O O4 0.471938 0.280190 0.393100
O O5 0.218533 0.251079 0.832989
O O6 0.965523 0.148277 0.258138
O O7 0.332158 0.984514 0.825024
O O8 0.000000 0.000000 0.000000
O O9 0.074255 0.452663 0.815642
O O10 0.284256 0.511294 0.412293
O O11 0.903550 0.007196 0.707240
O O12 0.787351 0.487058 0.903473
O O13 0.674582 0.734225 0.959502
O O14 0.500000 0.500000 0.500000
O O15 0.054789 0.748733 0.178345
O O16 0.500000 0.500000 0.000000
#
# Coordination Sequence:
#
# PCOD9047232 Si02
#       7
#     2   2   2   2   2   2   2
#     4  10  24  43  75 105 148 202 257 335 389 474
#     4  11  24  46  76 111 156 213 264 330 392 484
#     4  12  26  47  76 111 154 206 263 324 405 472
#     4  10  25  46  69 112 151 200 270 321 401 476
#     4  12  27  49  78 114 162 212 269 334 399 478
#     4  12  27  47  77 113 158 207 261 334 411 483
#     4  11  25  47  76 115 154 209 267 326 403 477
#
# _framework density 26.299787999999999
#
# number of rings (size 3 to 8) (size 9 to 14) (size 15 to 20)
#    0.000    0.857    2.857    2.571    6.000    2.857 
#    0.000    0.000    0.000    0.000    0.000    0.000 
#    0.000    0.000    0.000    0.000    0.000    0.000 
#
# Total GULP energy -78230.597119 kJ/mol
# GULP energy per Si atom -5587.899794 kJ/mol
# Density = 2.623993 g / cm^3
# Si number density = 26.299788 Si / 1000 Ang^3
#
#
#
# Elastic Constant Matrix: (Units=GPa)
#
#
# Indices 1 2 3 4 5 6 
#
# 1 226.5450 67.3544 81.4426 -14.2330 27.1596 18.7217
# 2 67.3544 117.7109 31.8772 -21.2804 11.6640 -3.3755
# 3 81.4426 31.8772 140.7630 -26.9398 13.8901 -5.5951
# 4 -14.2330 -21.2804 -26.9398 47.4370 4.2415 8.3185
# 5 27.1596 11.6640 13.8901 4.2415 64.8870 -3.5808
# 6 18.7217 -3.3755 -5.5951 8.3185 -3.5808 57.1756
#
#
#
# Elastic Compliance Matrix: (Units=1/GPa)
#
#
# Indices 1 2 3 4 5 6 
#
# 1 0.006946 -0.003069 -0.003369 -0.000556 -0.001753 -0.002814
# 2 -0.003069 0.011058 0.000181 0.004047 -0.000950 0.001027
# 3 -0.003369 0.000181 0.010051 0.004629 -0.001002 0.001361
# 4 -0.000556 0.004047 0.004629 0.026213 -0.003373 -0.003151
# 5 -0.001753 -0.000950 -0.001002 -0.003373 0.016859 0.001967
# 6 -0.002814 0.001027 0.001361 -0.003151 0.001967 0.019187
#
#
# Mechanical properties :
#
#
# Convention : Reuss Voigt Hill
#
# Bulk Modulus (GPa) = 64.34972 94.04082 79.19527
# Shear Modulus (GPa) = 46.29272 54.18956 50.24114
#
# Velocity S-wave (km/s) = 4.20002 4.54415 4.37547
# Velocity P-wave (km/s) = 6.93117 7.96036 7.46352
#
# Compressibility (1/GPa) = 0.01554008
#
# Stress axis : x y z
#
# Youngs Moduli (GPa) = 143.97622 90.43235 99.49076
#
# Poissons Ratio (x) = 0.27758 0.33516
# Poissons Ratio (y) = 0.44193 -0.01799
# Poissons Ratio (z) = 0.48501 -0.01635
#
# Static dielectric constant tensor:
#      x y z
#    x 2.101420 -0.004980 0.036830 
#    y -0.004980 2.231450 0.157930 
#    z 0.036830 0.157930 2.092400 
# 
# From -- ./inp_files/423639.got.cif
#   From: 2010.05.17/outbox.cif.g08.bks.cpg/sg2_212_cif.got.tgz:423639.got - 2010.06.03 11:33:40.
