data_PCOD9047519
_publ_section_title
;
Structure prediction by ZEFSAII (Michael W. Deem and Ramdas Pophale) SiO2 
 PCOD9047519
Probable space group: P -1
;
_chemical_formula_sum "Si O2"
_cell_formula_units_Z 14
_cell_length_a 10.613586
_cell_length_b 13.503495
_cell_length_c 9.592994
_cell_angle_alpha 142.338563
_cell_angle_beta 127.396206
_cell_angle_gamma 58.386142
_cell_volume 664.698911
_symmetry_space_group_name_H-M "P -1"
_symmetry_group_IT_number 2
_symmetry_cell_setting 'triclinic'
loop_
_space_group_symop_operation_xyz
x,y,z
-x,-y,-z
loop_
_atom_site_type_symbol
_atom_site_label
_atom_site_fract_x
_atom_site_fract_y
_atom_site_fract_z
Si Si1 0.566075 0.535957 0.836253
Si Si2 0.948044 0.874671 0.215114
Si Si3 0.423452 0.873304 0.209238
Si Si4 0.856078 0.938210 0.927917
Si Si5 0.219251 0.645262 0.992939
Si Si6 0.205279 0.438896 0.490569
Si Si7 0.150890 0.447202 0.145119
O O1 0.664248 0.474607 0.970775
O O2 0.397205 0.457277 0.628669
O O3 0.688409 0.493112 0.744740
O O4 0.531569 0.730459 0.046120
O O5 0.091476 0.746316 0.115556
O O6 0.000000 0.000000 0.500000
O O7 0.887761 0.974076 0.150019
O O8 0.829799 0.750279 0.057818
O O9 0.319134 0.776378 0.135549
O O10 0.500000 0.000000 0.500000
O O11 0.305888 0.969646 0.130695
O O12 0.832972 0.744624 0.701638
O O13 0.000000 0.000000 0.000000
O O14 0.152255 0.551253 0.711971
O O15 0.137560 0.493590 0.352483
O O16 0.000000 0.500000 0.000000
#
# Coordination Sequence:
#
# PCOD9047519 Si02
#       7
#     2   2   2   2   2   2   2
#     4  11  23  44  68 100 136 176 225 275 337 396
#     4  11  26  44  63 101 139 170 222 280 335 391
#     4  11  23  41  68 101 134 176 223 275 335 396
#     4  11  23  45  68 102 133 179 222 275 336 396
#     4  11  22  44  68 100 130 177 224 278 327 393
#     4  10  24  44  68 100 136 170 230 275 331 399
#     4  11  24  45  68  99 132 181 223 275 336 393
#
# _framework density 21.062166999999999
#
# number of rings (size 3 to 8) (size 9 to 14) (size 15 to 20)
#    0.000    1.143    2.857    3.857    2.000    5.714 
#    5.143    1.429    0.000    0.000    0.000    0.000 
#    0.000    0.000    0.000    0.000    0.000    0.000 
#
# Total GULP energy -78182.041514 kJ/mol
# GULP energy per Si atom -5584.431537 kJ/mol
# Density = 2.101423 g / cm^3
# Si number density = 21.062167 Si / 1000 Ang^3
#
#
#
# Elastic Constant Matrix: (Units=GPa)
#
#
# Indices 1 2 3 4 5 6 
#
# 1 114.2336 46.5116 52.4580 -2.5497 0.7971 8.2414
# 2 46.5116 176.6493 61.0357 -33.0919 -14.4867 -0.1824
# 3 52.4580 61.0357 163.5824 -18.2589 -15.2096 10.8918
# 4 -2.5497 -33.0919 -18.2589 38.6373 3.9550 6.6034
# 5 0.7971 -14.4867 -15.2096 3.9550 21.2340 3.0573
# 6 8.2414 -0.1824 10.8918 6.6034 3.0573 41.3169
#
#
#
# Elastic Compliance Matrix: (Units=1/GPa)
#
#
# Indices 1 2 3 4 5 6 
#
# 1 0.011359 -0.002672 -0.003254 -0.002545 -0.004003 -0.000717
# 2 -0.002672 0.008193 -0.001157 0.005967 0.003802 -0.000361
# 3 -0.003254 -0.001157 0.008545 0.002706 0.005300 -0.002433
# 4 -0.002545 0.005967 0.002706 0.032967 0.000757 -0.005504
# 5 -0.004003 0.003802 0.005300 0.000757 0.054172 -0.004711
# 6 -0.000717 -0.000361 -0.002433 -0.005504 -0.004711 0.026214
#
#
# Mechanical properties :
#
#
# Convention : Reuss Voigt Hill
#
# Bulk Modulus (GPa) = 71.77821 86.05287 78.91554
# Shear Modulus (GPa) = 31.19914 39.86831 35.53373
#
# Velocity S-wave (km/s) = 3.85293 4.35545 4.11187
# Velocity P-wave (km/s) = 7.34483 8.13871 7.75194
#
# Compressibility (1/GPa) = 0.01393181
#
# Stress axis : x y z
#
# Youngs Moduli (GPa) = 88.03398 122.04936 117.02603
#
# Poissons Ratio (x) = 0.32614 0.38082
# Poissons Ratio (y) = 0.23525 0.13535
# Poissons Ratio (z) = 0.28648 0.14116
#
# Static dielectric constant tensor:
#      x y z
#    x 1.733660 0.057480 0.195240 
#    y 0.057480 1.727580 -0.163800 
#    z 0.195240 -0.163800 1.101310 
# 
# From -- ./inp_files/186597.got.cif
#   From: 2010.05.17/outbox.cif.g08.bks.cpg/sg2_94_cif.got.tgz:186597.got - 2010.06.03 11:33:40.
