data_PCOD9047820
_publ_section_title
;
Structure prediction by ZEFSAII (Michael W. Deem and Ramdas Pophale) SiO2 
 PCOD9047820
Probable space group: P -1
;
_chemical_formula_sum "Si O2"
_cell_formula_units_Z 14
_cell_length_a 13.148976
_cell_length_b 18.760312
_cell_length_c 16.179826
_cell_angle_alpha 152.721806
_cell_angle_beta 26.670453
_cell_angle_gamma 159.290788
_cell_volume 597.260529
_symmetry_space_group_name_H-M "P -1"
_symmetry_group_IT_number 2
_symmetry_cell_setting 'triclinic'
loop_
_space_group_symop_operation_xyz
x,y,z
-x,-y,-z
loop_
_atom_site_type_symbol
_atom_site_label
_atom_site_fract_x
_atom_site_fract_y
_atom_site_fract_z
Si Si1 0.514198 0.334490 0.110369
Si Si2 0.743235 0.119286 0.707063
Si Si3 0.336239 0.846035 0.880449
Si Si4 0.436214 0.887191 0.518170
Si Si5 0.100549 0.156501 0.894103
Si Si6 0.843712 0.754606 0.870901
Si Si7 0.406332 0.360226 0.503261
O O1 0.454083 0.364045 0.091809
O O2 0.586923 0.519010 0.301089
O O3 0.190348 0.102113 0.141946
O O4 0.769901 0.317802 0.907795
O O5 0.045225 0.154335 0.535161
O O6 0.516708 0.960322 0.780922
O O7 0.600577 0.039135 0.636433
O O8 0.361648 0.674087 0.694437
O O9 0.015866 0.782114 0.028320
O O10 0.500000 0.000000 0.000000
O O11 0.595029 0.795241 0.301774
O O12 0.072191 0.735503 0.644804
O O13 0.500000 0.000000 0.500000
O O14 0.172093 0.275066 0.050756
O O15 0.000000 0.000000 0.000000
O O16 0.500000 0.500000 0.500000
#
# Coordination Sequence:
#
# PCOD9047820 Si02
#       7
#     2   2   2   2   2   2   2
#     4  10  19  36  57  89 125 156 200 265 307 361
#     4  11  22  40  63  93 124 168 217 252 314 385
#     4  11  23  43  63  86 129 169 216 262 307 381
#     4  12  18  31  67  96 118 162 212 259 300 365
#     4  10  20  37  60  91 124 163 215 253 304 373
#     4  10  17  34  57  91 127 154 213 252 304 368
#     4  12  25  39  61  93 126 165 211 266 327 371
#
# _framework density 23.440356999999999
#
# number of rings (size 3 to 8) (size 9 to 14) (size 15 to 20)
#    0.000    1.143    7.143    4.286    0.000    0.000 
#    0.000    0.714    0.000    0.857    0.000    0.000 
#    0.000    0.000    0.000    0.000    0.000    0.000 
#
# Total GULP energy -78244.639250 kJ/mol
# GULP energy per Si atom -5588.902804 kJ/mol
# Density = 2.338701 g / cm^3
# Si number density = 23.440357 Si / 1000 Ang^3
#
#
#
# Elastic Constant Matrix: (Units=GPa)
#
#
# Indices 1 2 3 4 5 6 
#
# 1 181.8000 14.4409 68.2274 21.0048 -6.5832 -2.2860
# 2 14.4409 38.0625 7.5686 -8.4685 -3.6580 -9.9811
# 3 68.2274 7.5686 135.0776 -10.1093 -28.6381 -16.1311
# 4 21.0048 -8.4685 -10.1093 26.5906 8.2678 3.5192
# 5 -6.5832 -3.6580 -28.6381 8.2678 64.4029 -3.1809
# 6 -2.2860 -9.9811 -16.1311 3.5192 -3.1809 8.9015
#
#
#
# Elastic Compliance Matrix: (Units=1/GPa)
#
#
# Indices 1 2 3 4 5 6 
#
# 1 0.010660 -0.010997 -0.008982 -0.011370 -0.003182 -0.022513
# 2 -0.010997 0.054411 0.016311 0.017524 0.011158 0.084803
# 3 -0.008982 0.016311 0.020208 0.009828 0.010321 0.052406
# 4 -0.011370 0.017524 0.009828 0.055027 -0.002269 0.011974
# 5 -0.003182 0.011158 0.010321 -0.002269 0.022662 0.039394
# 6 -0.022513 0.084803 0.052406 0.011974 0.039394 0.305961
#
#
# Mechanical properties :
#
#
# Convention : Reuss Voigt Hill
#
# Bulk Modulus (GPa) = 12.83023 59.49046 36.16034
# Shear Modulus (GPa) = 9.95523 37.62589 23.79056
#
# Velocity S-wave (km/s) = 2.06307 4.01081 3.18927
# Velocity P-wave (km/s) = 3.34073 6.84715 5.38720
#
# Compressibility (1/GPa) = 0.07794095
#
# Stress axis : x y z
#
# Youngs Moduli (GPa) = 93.80503 18.37869 49.48453
#
# Poissons Ratio (x) = 0.20212 0.44449
# Poissons Ratio (y) = 1.03162 -0.80712
# Poissons Ratio (z) = 0.84259 -0.29977
#
# Static dielectric constant tensor:
#      x y z
#    x 2.141300 -0.534080 0.498140 
#    y -0.534080 2.691700 -0.779730 
#    z 0.498140 -0.779730 2.695000 
# 
# From -- ./inp_files/188274.got.cif
#   From: 2010.05.17/outbox.cif.g08.bks.cpg/sg2_95_cif.got.tgz:188274.got - 2010.06.03 11:33:40.
