data_PCOD9047633
_publ_section_title
;
Structure prediction by ZEFSAII (Michael W. Deem and Ramdas Pophale) SiO2 
 PCOD9047633
Probable space group: P -1
;
_chemical_formula_sum "Si O2"
_cell_formula_units_Z 12
_cell_length_a 12.301988
_cell_length_b 13.734354
_cell_length_c 6.499606
_cell_angle_alpha 102.357929
_cell_angle_beta 67.797499
_cell_angle_gamma 147.592673
_cell_volume 532.567710
_symmetry_space_group_name_H-M "P -1"
_symmetry_group_IT_number 2
_symmetry_cell_setting 'triclinic'
loop_
_space_group_symop_operation_xyz
x,y,z
-x,-y,-z
loop_
_atom_site_type_symbol
_atom_site_label
_atom_site_fract_x
_atom_site_fract_y
_atom_site_fract_z
Si Si1 0.738470 0.389174 0.133727
Si Si2 0.806936 0.936706 0.168301
Si Si3 0.377808 0.035222 0.989321
Si Si4 0.422262 0.550415 0.497686
Si Si5 0.816290 0.267831 0.266807
Si Si6 0.934393 0.207246 0.507207
O O1 0.619108 0.234734 0.982861
O O2 0.602560 0.390983 0.268398
O O3 0.742148 0.328644 0.317299
O O4 0.976365 0.587539 0.971576
O O5 0.603971 0.727089 0.299836
O O6 0.729973 0.947432 0.036264
O O7 0.881101 0.071436 0.346344
O O8 0.000000 0.000000 0.000000
O O9 0.635579 0.064586 0.207756
O O10 0.231747 0.908704 0.236274
O O11 0.500000 0.500000 0.500000
O O12 0.183059 0.377467 0.485917
O O13 0.895170 0.276996 0.426512
#
# Coordination Sequence:
#
# PCOD9047633 Si02
#       6
#     2   2   2   2   2   2
#     4  11  23  44  67  98 135 171 217 270 325 386
#     4  11  26  43  67  95 130 179 218 267 327 383
#     4  11  22  44  67  99 130 168 221 268 328 384
#     4  12  26  43  69  98 132 176 218 268 327 385
#     4  10  24  44  68  98 132 173 216 267 329 387
#     4  11  24  44  69  96 133 169 220 273 320 393
#
# _framework density 22.532347000000001
#
# number of rings (size 3 to 8) (size 9 to 14) (size 15 to 20)
#    0.000    1.000    3.333    2.500    4.667    3.333 
#    3.000    0.000    0.000    0.000    0.000    0.000 
#    0.000    0.000    0.000    0.000    0.000    0.000 
#
# Total GULP energy -67217.875233 kJ/mol
# GULP energy per Si atom -5601.489603 kJ/mol
# Density = 2.248106 g / cm^3
# Si number density = 22.532347 Si / 1000 Ang^3
#
#
#
# Elastic Constant Matrix: (Units=GPa)
#
#
# Indices 1 2 3 4 5 6 
#
# 1 148.8093 25.1986 28.8835 -0.7828 17.4241 -12.7803
# 2 25.1986 126.7398 18.3609 3.7677 12.2219 13.3705
# 3 28.8835 18.3609 52.6744 1.7840 13.1552 -4.9579
# 4 -0.7828 3.7677 1.7840 30.4383 3.1136 4.9301
# 5 17.4241 12.2219 13.1552 3.1136 43.2291 -4.8298
# 6 -12.7803 13.3705 -4.9579 4.9301 -4.8298 31.7648
#
#
#
# Elastic Compliance Matrix: (Units=1/GPa)
#
#
# Indices 1 2 3 4 5 6 
#
# 1 0.008015 -0.001290 -0.003285 0.000234 -0.001550 0.002983
# 2 -0.001290 0.009230 -0.002516 -0.000012 -0.001891 -0.005082
# 3 -0.003285 -0.002516 0.023116 -0.001113 -0.004604 0.002818
# 4 0.000234 -0.000012 -0.001113 0.034160 -0.002862 -0.005812
# 5 -0.001550 -0.001891 -0.004604 -0.002862 0.026335 0.003902
# 6 0.002983 -0.005082 0.002818 -0.005812 0.003902 0.036756
#
#
# Mechanical properties :
#
#
# Convention : Reuss Voigt Hill
#
# Bulk Modulus (GPa) = 38.19910 52.56773 45.38341
# Shear Modulus (GPa) = 31.14870 38.13846 34.64358
#
# Velocity S-wave (km/s) = 3.72210 4.11860 3.92536
# Velocity P-wave (km/s) = 5.95498 6.78216 6.38199
#
# Compressibility (1/GPa) = 0.02617863
#
# Stress axis : x y z
#
# Youngs Moduli (GPa) = 124.76632 108.34273 43.26053
#
# Poissons Ratio (x) = 0.13974 0.14213
# Poissons Ratio (y) = 0.16092 0.10883
# Poissons Ratio (z) = 0.40992 0.27257
#
# Static dielectric constant tensor:
#      x y z
#    x 1.806280 -0.006510 0.010350 
#    y -0.006510 1.827740 0.032820 
#    z 0.010350 0.032820 1.811820 
# 
# From -- ./inp_files/63678.got.cif
#   From: 2010.05.17/outbox.cif.g08.bks.cpg/sg2_32_cif.got.tgz:63678.got - 2010.06.03 11:33:40.
