data_PCOD9047032
_publ_section_title
;
Structure prediction by ZEFSAII (Michael W. Deem and Ramdas Pophale) SiO2 
 PCOD9047032
Probable space group: P -1
;
_chemical_formula_sum "Si O2"
_cell_formula_units_Z 15
_cell_length_a 9.269968
_cell_length_b 20.567096
_cell_length_c 7.271713
_cell_angle_alpha 119.144724
_cell_angle_beta 112.585906
_cell_angle_gamma 30.170548
_cell_volume 606.390616
_symmetry_space_group_name_H-M "P -1"
_symmetry_group_IT_number 2
_symmetry_cell_setting 'triclinic'
loop_
_space_group_symop_operation_xyz
x,y,z
-x,-y,-z
loop_
_atom_site_type_symbol
_atom_site_label
_atom_site_fract_x
_atom_site_fract_y
_atom_site_fract_z
Si Si1 0.240155 0.162620 0.074772
Si Si2 0.763557 0.232349 0.597213
Si Si3 0.336936 0.283932 0.462577
Si Si4 0.234317 0.756150 0.960576
Si Si5 0.000000 0.000000 0.000000
Si Si6 0.135466 0.507316 0.211026
Si Si7 0.943411 0.746037 0.313153
Si Si8 0.366452 0.924121 0.380092
O O1 0.313937 0.215671 0.251821
O O2 0.975202 0.230740 0.147994
O O3 0.138668 0.212409 0.883677
O O4 0.500000 0.000000 0.000000
O O5 0.543694 0.261751 0.440840
O O6 0.823533 0.282893 0.582289
O O7 0.674335 0.284145 0.833975
O O8 0.080630 0.068853 0.535363
O O9 0.514196 0.192723 0.608336
O O10 0.027890 0.433278 0.591630
O O11 0.525077 0.637406 0.824419
O O12 0.069559 0.897876 0.022697
O O13 0.260277 0.941684 0.153171
O O14 0.064918 0.617010 0.245754
O O15 0.000000 0.500000 0.000000
O O16 0.635366 0.872853 0.439355
#
# Coordination Sequence:
#
# PCOD9047032 Si02
#       8
#     2   2   2   2   1   2   2   2
#     4  11  25  43  71 107 145 175 234 294 351 405
#     4  11  22  41  69 104 132 180 231 283 350 406
#     4  11  23  44  71  98 142 185 224 292 351 411
#     4  11  24  45  71 100 139 186 224 295 346 418
#     4  12  24  40  68 106 130 176 232 290 350 404
#     4  11  23  48  71  94 139 190 242 276 353 414
#     4  10  24  43  70  97 137 185 230 286 345 418
#     4  11  23  38  67  99 139 177 229 282 354 409
#
# _framework density 24.736530999999999
#
# number of rings (size 3 to 8) (size 9 to 14) (size 15 to 20)
#    0.000    1.067    2.667    4.000    3.733    5.867 
#    0.000    2.000    0.000    0.000    0.000    0.000 
#    0.000    0.000    0.000    0.000    0.000    0.000 
#
# Total GULP energy -83765.752809 kJ/mol
# GULP energy per Si atom -5584.383521 kJ/mol
# Density = 2.468023 g / cm^3
# Si number density = 24.736531 Si / 1000 Ang^3
#
#
#
# Elastic Constant Matrix: (Units=GPa)
#
#
# Indices 1 2 3 4 5 6 
#
# 1 217.3812 52.1028 55.0154 6.3373 21.1342 -31.2166
# 2 52.1028 59.6025 35.4484 -4.1565 -5.9355 -6.2500
# 3 55.0154 35.4484 78.8499 4.6517 8.7019 -31.0697
# 4 6.3373 -4.1565 4.6517 34.5263 -5.8597 -3.3822
# 5 21.1342 -5.9355 8.7019 -5.8597 50.1560 -12.7428
# 6 -31.2166 -6.2500 -31.0697 -3.3822 -12.7428 38.9426
#
#
#
# Elastic Compliance Matrix: (Units=1/GPa)
#
#
# Indices 1 2 3 4 5 6 
#
# 1 0.006931 -0.005853 -0.000567 -0.002116 -0.003000 0.002999
# 2 -0.005853 0.030655 -0.014072 0.007125 0.007341 -0.007978
# 3 -0.000567 -0.014072 0.026825 -0.003816 -0.002031 0.017693
# 4 -0.002116 0.007125 -0.003816 0.031946 0.006457 0.001291
# 5 -0.003000 0.007341 -0.002031 0.006457 0.024645 0.005778
# 6 0.002999 -0.007978 0.017693 0.001291 0.005778 0.042921
#
#
# Mechanical properties :
#
#
# Convention : Reuss Voigt Hill
#
# Bulk Modulus (GPa) = 42.68558 71.21855 56.95207
# Shear Modulus (GPa) = 23.50565 38.94278 31.22421
#
# Velocity S-wave (km/s) = 3.08594 3.97205 3.55670
# Velocity P-wave (km/s) = 5.47640 7.06326 6.31983
#
# Compressibility (1/GPa) = 0.02342712
#
# Stress axis : x y z
#
# Youngs Moduli (GPa) = 144.28907 32.62106 37.27892
#
# Poissons Ratio (x) = 0.19094 0.02112
# Poissons Ratio (y) = 0.84457 0.52458
# Poissons Ratio (z) = 0.08176 0.45903
#
# Static dielectric constant tensor:
#      x y z
#    x 1.973710 -0.015810 0.014390 
#    y -0.015810 1.954110 0.010280 
#    z 0.014390 0.010280 2.057410 
# 
# From -- ./inp_files/222345.got.cif
#   From: 2010.05.17/outbox.cif.g08.bks.cpg/sg2_112_cif.got.tgz:222345.got - 2010.06.03 11:33:40.
