data_PCOD9047570
_publ_section_title
;
Structure prediction by ZEFSAII (Michael W. Deem and Ramdas Pophale) SiO2 
 PCOD9047570
Probable space group: P -1
;
_chemical_formula_sum "Si O2"
_cell_formula_units_Z 16
_cell_length_a 16.188053
_cell_length_b 9.170656
_cell_length_c 11.596541
_cell_angle_alpha 39.892341
_cell_angle_beta 116.495666
_cell_angle_gamma 135.766483
_cell_volume 749.279838
_symmetry_space_group_name_H-M "P -1"
_symmetry_group_IT_number 2
_symmetry_cell_setting 'triclinic'
loop_
_space_group_symop_operation_xyz
x,y,z
-x,-y,-z
loop_
_atom_site_type_symbol
_atom_site_label
_atom_site_fract_x
_atom_site_fract_y
_atom_site_fract_z
Si Si1 0.709721 0.775205 0.332114
Si Si2 0.758950 0.163241 0.337055
Si Si3 0.113181 0.312243 0.435647
Si Si4 0.482830 0.117755 0.533187
Si Si5 0.500357 0.282390 0.047560
Si Si6 0.229885 0.954839 0.029932
Si Si7 0.051289 0.793995 0.420821
Si Si8 0.773440 0.706830 0.957165
O O1 0.770649 0.661882 0.504879
O O2 0.580594 0.473841 0.390497
O O3 0.706142 0.974160 0.300334
O O4 0.791646 0.970595 0.153650
O O5 0.865830 0.175310 0.443446
O O6 0.652092 0.001490 0.463680
O O7 0.796826 0.485056 0.144727
O O8 0.146203 0.604737 0.220163
O O9 0.066974 0.278120 0.556914
O O10 0.000000 0.000000 0.500000
O O11 0.500000 0.000000 0.500000
O O12 0.500229 0.956871 0.740288
O O13 0.370137 0.093311 0.020880
O O14 0.500000 0.500000 0.000000
O O15 0.635511 0.504850 0.942829
O O16 0.221065 0.119395 0.031544
O O17 0.000000 0.500000 0.500000
O O18 0.131660 0.069640 0.216741
#
# Coordination Sequence:
#
# PCOD9047570 Si02
#       8
#     2   2   2   2   2   2   2   2
#     4  12  26  45  70 103 144 186 226 290 355 421
#     4  11  27  45  67 107 142 180 231 289 356 412
#     4  12  27  49  67 102 141 190 239 278 353 421
#     4  11  23  42  73 103 141 180 234 292 345 418
#     4   9  19  39  65 103 134 166 227 285 342 406
#     4  11  24  43  73 101 137 185 235 289 347 416
#     4  12  27  45  73  97 141 189 235 293 334 419
#     4  10  24  44  68 105 135 178 236 291 347 408
#
# _framework density 21.353836999999999
#
# number of rings (size 3 to 8) (size 9 to 14) (size 15 to 20)
#    0.000    1.000    3.750    2.625   10.500    2.000 
#    0.000    1.250    0.000    0.000    0.000    0.000 
#    0.000    0.000    0.000    0.000    0.000    0.000 
#
# Total GULP energy -89381.156177 kJ/mol
# GULP energy per Si atom -5586.322261 kJ/mol
# Density = 2.130523 g / cm^3
# Si number density = 21.353837 Si / 1000 Ang^3
#
#
#
# Elastic Constant Matrix: (Units=GPa)
#
#
# Indices 1 2 3 4 5 6 
#
# 1 55.5690 -1.5174 19.8230 -14.0777 4.3090 -11.2268
# 2 -1.5174 74.3852 24.2326 -24.1340 -2.8564 -16.9710
# 3 19.8230 24.2326 140.8793 -32.8958 -8.5238 -8.1091
# 4 -14.0777 -24.1340 -32.8958 31.2406 6.9682 3.3986
# 5 4.3090 -2.8564 -8.5238 6.9682 32.1355 -0.7501
# 6 -11.2268 -16.9710 -8.1091 3.3986 -0.7501 30.7605
#
#
#
# Elastic Compliance Matrix: (Units=1/GPa)
#
#
# Indices 1 2 3 4 5 6 
#
# 1 0.026120 0.009248 -0.000676 0.018327 -0.006547 0.012272
# 2 0.009248 0.023782 0.000389 0.022202 -0.003509 0.014060
# 3 -0.000676 0.000389 0.009515 0.009734 0.000571 0.001415
# 4 0.018327 0.022202 0.009734 0.068991 -0.012545 0.013576
# 5 -0.006547 -0.003509 0.000571 -0.012545 0.034511 -0.001947
# 6 0.012272 0.014060 0.001415 0.013576 -0.001947 0.043571
#
#
# Mechanical properties :
#
#
# Convention : Reuss Voigt Hill
#
# Bulk Modulus (GPa) = 12.93008 39.54555 26.23781
# Shear Modulus (GPa) = 23.32660 34.04700 28.68680
#
# Velocity S-wave (km/s) = 3.30871 3.99735 3.66922
# Velocity P-wave (km/s) = 4.54588 6.31383 5.50134
#
# Compressibility (1/GPa) = 0.07733902
#
# Stress axis : x y z
#
# Youngs Moduli (GPa) = 38.28555 42.04877 105.09207
#
# Poissons Ratio (x) = -0.38886 0.07106
# Poissons Ratio (y) = -0.35406 -0.04092
# Poissons Ratio (z) = 0.02589 -0.01637
#
# Static dielectric constant tensor:
#      x y z
#    x 2.005740 0.073690 -0.080600 
#    y 0.073690 1.785330 0.016240 
#    z -0.080600 0.016240 1.804670 
# 
# From -- ./inp_files/398706.got.cif
#   From: 2010.05.17/outbox.cif.g08.bks.cpg/sg2_200_cif.got.tgz:398706.got - 2010.06.03 11:33:40.
