data_PCOD9047608
_publ_section_title
;
Structure prediction by ZEFSAII (Michael W. Deem and Ramdas Pophale) SiO2 
 PCOD9047608
Probable space group: P -1
;
_chemical_formula_sum "Si O2"
_cell_formula_units_Z 12
_cell_length_a 12.490279
_cell_length_b 12.195183
_cell_length_c 9.206784
_cell_angle_alpha 143.180707
_cell_angle_beta 40.997767
_cell_angle_gamma 125.921968
_cell_volume 550.808077
_symmetry_space_group_name_H-M "P -1"
_symmetry_group_IT_number 2
_symmetry_cell_setting 'triclinic'
loop_
_space_group_symop_operation_xyz
x,y,z
-x,-y,-z
loop_
_atom_site_type_symbol
_atom_site_label
_atom_site_fract_x
_atom_site_fract_y
_atom_site_fract_z
Si Si1 0.114823 0.099569 0.104767
Si Si2 0.812877 0.558054 0.786145
Si Si3 0.654496 0.250165 0.458549
Si Si4 0.106823 0.890684 0.398841
Si Si5 0.399626 0.668159 0.711056
Si Si6 0.336107 0.190999 0.588672
O O1 0.205648 0.261541 0.105086
O O2 0.014396 0.181644 0.432076
O O3 0.229795 0.930073 0.861443
O O4 0.000000 0.000000 0.000000
O O5 0.703664 0.387666 0.679116
O O6 0.000000 0.500000 0.500000
O O7 0.770353 0.626473 0.064837
O O8 0.664172 0.367930 0.424961
O O9 0.471805 0.180758 0.566069
O O10 0.212845 0.034364 0.530167
O O11 0.243835 0.750116 0.043495
O O12 0.000000 0.000000 0.500000
O O13 0.500000 0.500000 0.500000
O O14 0.547407 0.802668 0.664976
#
# Coordination Sequence:
#
# PCOD9047608 Si02
#       6
#     2   2   2   2   2   2
#     4  12  24  44  71 103 136 186 229 282 353 409
#     4  12  24  42  70 101 138 176 230 290 341 407
#     4  10  24  45  66 103 135 179 236 282 345 409
#     4  12  23  46  72  99 140 180 236 286 341 421
#     4  10  25  43  67 100 139 181 232 282 349 408
#     4  10  24  44  68  95 138 178 233 281 340 413
#
# _framework density 21.786171
#
# number of rings (size 3 to 8) (size 9 to 14) (size 15 to 20)
#    1.000    0.000    5.000    1.000    2.333    3.333 
#    0.000    1.667    0.000    0.000    0.000    0.000 
#    0.000    0.000    0.000    0.000    0.000    0.000 
#
# Total GULP energy -66872.513225 kJ/mol
# GULP energy per Si atom -5572.709435 kJ/mol
# Density = 2.173659 g / cm^3
# Si number density = 21.786171 Si / 1000 Ang^3
#
#
#
# Elastic Constant Matrix: (Units=GPa)
#
#
# Indices 1 2 3 4 5 6 
#
# 1 68.0117 13.5894 32.9897 1.0355 -17.0808 7.6274
# 2 13.5894 64.5174 27.4634 -11.6221 -11.4071 -6.5243
# 3 32.9897 27.4634 163.4318 -21.4439 -16.2630 -18.0892
# 4 1.0355 -11.6221 -21.4439 38.6496 -0.3349 3.4222
# 5 -17.0808 -11.4071 -16.2630 -0.3349 38.1643 5.8231
# 6 7.6274 -6.5243 -18.0892 3.4222 5.8231 37.9648
#
#
#
# Elastic Compliance Matrix: (Units=1/GPa)
#
#
# Indices 1 2 3 4 5 6 
#
# 1 0.019880 -0.002368 -0.004027 -0.002774 0.007552 -0.007228
# 2 -0.002368 0.018258 -0.001412 0.004625 0.003534 0.001982
# 3 -0.004027 -0.001412 0.008191 0.003878 0.000687 0.004014
# 4 -0.002774 0.004625 0.003878 0.029487 0.002017 0.000233
# 5 0.007552 0.003534 0.000687 0.002017 0.031810 -0.005643
# 6 -0.007228 0.001982 0.004014 0.000233 -0.005643 0.030890
#
#
# Mechanical properties :
#
#
# Convention : Reuss Voigt Hill
#
# Bulk Modulus (GPa) = 32.56014 49.33843 40.94929
# Shear Modulus (GPa) = 30.41939 37.75030 34.08484
#
# Velocity S-wave (km/s) = 3.74072 4.16716 3.95969
# Velocity P-wave (km/s) = 5.79958 6.77123 6.30415
#
# Compressibility (1/GPa) = 0.03071240
#
# Stress axis : x y z
#
# Youngs Moduli (GPa) = 50.30302 54.77033 122.09217
#
# Poissons Ratio (x) = 0.12971 0.49171
# Poissons Ratio (y) = 0.11913 0.17242
# Poissons Ratio (z) = 0.20259 0.07735
#
# Static dielectric constant tensor:
#      x y z
#    x 1.785310 -0.074820 0.034870 
#    y -0.074820 1.935150 0.015460 
#    z 0.034870 0.015460 1.781480 
# 
# From -- ./inp_files/263683.got.cif
#   From: 2010.05.17/outbox.cif.g08.bks.cpg/sg2_132_cif.got.tgz:263683.got - 2010.06.03 11:33:40.
