data_PCOD9047166
_publ_section_title
;
Structure prediction by ZEFSAII (Michael W. Deem and Ramdas Pophale) SiO2 
 PCOD9047166
Probable space group: P -1
;
_chemical_formula_sum "Si O2"
_cell_formula_units_Z 16
_cell_length_a 17.287180
_cell_length_b 8.436604
_cell_length_c 12.323211
_cell_angle_alpha 147.319387
_cell_angle_beta 46.414274
_cell_angle_gamma 132.497932
_cell_volume 681.768294
_symmetry_space_group_name_H-M "P -1"
_symmetry_group_IT_number 2
_symmetry_cell_setting 'triclinic'
loop_
_space_group_symop_operation_xyz
x,y,z
-x,-y,-z
loop_
_atom_site_type_symbol
_atom_site_label
_atom_site_fract_x
_atom_site_fract_y
_atom_site_fract_z
Si Si1 0.865894 0.670202 0.569849
Si Si2 0.465263 0.408128 0.858210
Si Si3 0.786569 0.252174 0.946486
Si Si4 0.994450 0.402138 0.150594
Si Si5 0.103623 0.252030 0.182545
Si Si6 0.339451 0.726813 0.549806
Si Si7 0.299505 0.768561 0.219829
Si Si8 0.367310 0.441157 0.588462
O O1 0.933550 0.690569 0.627169
O O2 0.771742 0.363728 0.464670
O O3 0.939176 0.671801 0.392652
O O4 0.804893 0.939865 0.793553
O O5 0.567883 0.372386 0.668192
O O6 0.379714 0.081151 0.741992
O O7 0.500000 0.500000 0.000000
O O8 0.410306 0.672347 0.025081
O O9 0.691371 0.376196 0.166506
O O10 0.904242 0.497600 0.971967
O O11 0.759395 0.192033 0.811973
O O12 0.038860 0.317653 0.176143
O O13 0.907636 0.107084 0.021430
O O14 0.223009 0.482949 0.190683
O O15 0.333160 0.541286 0.560934
O O16 0.322479 0.081484 0.441953
O O17 0.500000 0.500000 0.500000
#
# Coordination Sequence:
#
# PCOD9047166 Si02
#       8
#     2   2   2   2   2   2   2   2
#     4  12  24  42  71 100 142 183 229 292 353 414
#     4  11  24  43  71 101 139 184 236 289 350 411
#     4  11  27  44  69 101 140 185 232 288 353 414
#     4  10  24  47  69 103 138 181 240 288 345 420
#     4  10  24  43  73 102 137 184 232 291 350 415
#     4  11  26  42  67 106 138 180 238 287 345 420
#     4  11  24  44  69 100 140 179 233 288 348 415
#     4  12  27  45  70  98 142 186 234 283 350 417
#
# _framework density 23.468381999999998
#
# number of rings (size 3 to 8) (size 9 to 14) (size 15 to 20)
#    0.000    1.000    1.250    3.750    7.000    9.500 
#    0.000    0.000    0.000    0.000    0.000    0.000 
#    0.000    0.000    0.000    0.000    0.000    0.000 
#
# Total GULP energy -89468.283756 kJ/mol
# GULP energy per Si atom -5591.767735 kJ/mol
# Density = 2.341497 g / cm^3
# Si number density = 23.468382 Si / 1000 Ang^3
#
#
#
# Elastic Constant Matrix: (Units=GPa)
#
#
# Indices 1 2 3 4 5 6 
#
# 1 59.8664 4.6829 19.6663 12.5155 11.0209 3.8744
# 2 4.6829 79.2073 48.7999 8.1409 11.8893 17.1505
# 3 19.6663 48.7999 149.8529 4.3887 -3.1032 18.5768
# 4 12.5155 8.1409 4.3887 32.5973 2.6870 3.9686
# 5 11.0209 11.8893 -3.1032 2.6870 40.2217 -1.7442
# 6 3.8744 17.1505 18.5768 3.9686 -1.7442 24.8706
#
#
#
# Elastic Compliance Matrix: (Units=1/GPa)
#
#
# Indices 1 2 3 4 5 6 
#
# 1 0.020391 0.002977 -0.003310 -0.007359 -0.006319 -0.002026
# 2 0.002977 0.019391 -0.005558 -0.003475 -0.007162 -0.009632
# 3 -0.003310 -0.005558 0.009258 0.001476 0.003053 -0.002589
# 4 -0.007359 -0.003475 0.001476 0.034479 0.000723 -0.003011
# 5 -0.006319 -0.007162 0.003053 0.000723 0.029139 0.005571
# 6 -0.002026 -0.009632 -0.002589 -0.003011 0.005571 0.049970
#
#
# Mechanical properties :
#
#
# Convention : Reuss Voigt Hill
#
# Bulk Modulus (GPa) = 26.83867 48.35831 37.59849
# Shear Modulus (GPa) = 26.76223 33.92310 30.34267
#
# Velocity S-wave (km/s) = 3.38057 3.80607 3.59962
# Velocity P-wave (km/s) = 5.16707 6.32182 5.77339
#
# Compressibility (1/GPa) = 0.03725967
#
# Stress axis : x y z
#
# Youngs Moduli (GPa) = 49.04088 51.57001 108.00963
#
# Poissons Ratio (x) = -0.15353 0.35748
# Poissons Ratio (y) = -0.14600 0.60031
# Poissons Ratio (z) = 0.16231 0.28662
#
# Static dielectric constant tensor:
#      x y z
#    x 1.955360 0.010970 -0.012160 
#    y 0.010970 1.900860 -0.005400 
#    z -0.012160 -0.005400 1.855010 
# 
# From -- ./inp_files/109458.got.cif
#   From: 2010.05.17/outbox.cif.g08.bks.cpg/sg2_55_cif.got.tgz:109458.got - 2010.06.03 11:33:40.
