data_PCOD9047128
_publ_section_title
;
Structure prediction by ZEFSAII (Michael W. Deem and Ramdas Pophale) SiO2 
 PCOD9047128
Probable space group: P -1
;
_chemical_formula_sum "Si O2"
_cell_formula_units_Z 10
_cell_length_a 7.872264
_cell_length_b 8.742477
_cell_length_c 9.518030
_cell_angle_alpha 103.250279
_cell_angle_beta 48.033898
_cell_angle_gamma 71.460114
_cell_volume 359.835473
_symmetry_space_group_name_H-M "P -1"
_symmetry_group_IT_number 2
_symmetry_cell_setting 'triclinic'
loop_
_space_group_symop_operation_xyz
x,y,z
-x,-y,-z
loop_
_atom_site_type_symbol
_atom_site_label
_atom_site_fract_x
_atom_site_fract_y
_atom_site_fract_z
Si Si1 0.699796 0.760810 0.813552
Si Si2 0.720232 0.336446 0.055301
Si Si3 0.866507 0.195343 0.512985
Si Si4 0.695079 0.055863 0.331767
Si Si5 0.054319 0.439246 0.787559
O O1 0.485754 0.719725 0.870785
O O2 0.945738 0.727087 0.568743
O O3 0.858286 0.640350 0.843856
O O4 0.500000 0.000000 0.000000
O O5 0.011986 0.154047 0.952367
O O6 0.914760 0.326941 0.820463
O O7 0.474747 0.586532 0.255559
O O8 0.868184 0.098527 0.346152
O O9 0.000000 0.000000 0.500000
O O10 0.500000 0.000000 0.500000
O O11 0.396021 0.291004 0.507047
O O12 0.000000 0.500000 0.000000
#
# Coordination Sequence:
#
# PCOD9047128 Si02
#       5
#     2   2   2   2   2
#     4  12  26  46  74 107 146 191 245 294 353 437
#     4  11  24  48  72 107 145 192 237 298 358 432
#     4  12  26  46  75 106 144 194 243 291 359 432
#     4  10  24  43  72 104 144 188 237 297 359 421
#     4  11  24  47  76 106 145 189 237 301 363 421
#
# _framework density 27.790475000000001
#
# number of rings (size 3 to 8) (size 9 to 14) (size 15 to 20)
#    0.000    0.800    4.000    2.400    5.600    0.800 
#    0.000    2.000    0.000    0.000    0.000    0.000 
#    0.000    0.000    0.000    0.000    0.000    0.000 
#
# Total GULP energy -55711.989409 kJ/mol
# GULP energy per Si atom -5571.198941 kJ/mol
# Density = 2.772722 g / cm^3
# Si number density = 27.790475 Si / 1000 Ang^3
#
#
#
# Elastic Constant Matrix: (Units=GPa)
#
#
# Indices 1 2 3 4 5 6 
#
# 1 125.0175 85.7218 68.9282 -16.3615 -23.2476 21.2784
# 2 85.7218 196.0041 61.4082 23.5077 -16.4779 -3.4163
# 3 68.9282 61.4082 234.1137 39.5763 -45.2271 -11.7683
# 4 -16.3615 23.5077 39.5763 58.0460 -0.1521 -7.6056
# 5 -23.2476 -16.4779 -45.2271 -0.1521 47.6782 -8.3759
# 6 21.2784 -3.4163 -11.7683 -7.6056 -8.3759 52.4899
#
#
#
# Elastic Compliance Matrix: (Units=1/GPa)
#
#
# Indices 1 2 3 4 5 6 
#
# 1 0.020430 -0.008623 -0.006403 0.012494 -0.000556 -0.008557
# 2 -0.008623 0.009341 0.001674 -0.006869 0.001236 0.003681
# 3 -0.006403 0.001674 0.008434 -0.007629 0.006220 0.004482
# 4 0.012494 -0.006869 -0.007629 0.028226 -0.004094 -0.003786
# 5 -0.000556 0.001236 0.006220 -0.004094 0.027997 0.005575
# 6 -0.008557 0.003681 0.004482 -0.003786 0.005575 0.024106
#
#
# Mechanical properties :
#
#
# Convention : Reuss Voigt Hill
#
# Bulk Modulus (GPa) = 86.95055 109.69464 98.32259
# Shear Modulus (GPa) = 33.54089 54.24795 43.89442
#
# Velocity S-wave (km/s) = 3.47784 4.42298 3.97858
# Velocity P-wave (km/s) = 6.89079 8.10193 7.52078
#
# Compressibility (1/GPa) = 0.01150079
#
# Stress axis : x y z
#
# Youngs Moduli (GPa) = 48.94770 107.05683 118.56522
#
# Poissons Ratio (x) = 0.92318 0.75913
# Poissons Ratio (y) = 0.42209 -0.19846
# Poissons Ratio (z) = 0.31339 -0.17919
#
# Static dielectric constant tensor:
#      x y z
#    x 2.360510 -0.052670 -0.077720 
#    y -0.052670 2.374740 0.090320 
#    z -0.077720 0.090320 2.708730 
# 
# From -- ./inp_files/293588.got.cif
#   From: 2010.05.17/outbox.cif.g08.bks.cpg/sg2_147_cif.got.tgz:293588.got - 2010.06.03 11:33:40.
