data_PCOD9047230
_publ_section_title
;
Structure prediction by ZEFSAII (Michael W. Deem and Ramdas Pophale) SiO2 
 PCOD9047230
Probable space group: P -1
;
_chemical_formula_sum "Si O2"
_cell_formula_units_Z 16
_cell_length_a 5.045103
_cell_length_b 23.476666
_cell_length_c 8.046128
_cell_angle_alpha 129.347178
_cell_angle_beta 118.948868
_cell_angle_gamma 88.595817
_cell_volume 586.058730
_symmetry_space_group_name_H-M "P -1"
_symmetry_group_IT_number 2
_symmetry_cell_setting 'triclinic'
loop_
_space_group_symop_operation_xyz
x,y,z
-x,-y,-z
loop_
_atom_site_type_symbol
_atom_site_label
_atom_site_fract_x
_atom_site_fract_y
_atom_site_fract_z
Si Si1 0.797640 0.132596 0.242945
Si Si2 0.672096 0.920801 0.303035
Si Si3 0.393728 0.258205 0.027067
Si Si4 0.330657 0.075546 0.303936
Si Si5 0.798116 0.367252 0.098063
Si Si6 0.900639 0.295938 0.702087
Si Si7 0.384946 0.487919 0.660629
Si Si8 0.856591 0.406181 0.641738
O O1 0.613792 0.089067 0.278002
O O2 0.767029 0.217044 0.402054
O O3 0.177481 0.143014 0.375304
O O4 0.607080 0.088511 0.936883
O O5 0.714788 0.836142 0.145542
O O6 0.584663 0.928389 0.484055
O O7 0.000000 0.000000 0.500000
O O8 0.116217 0.272221 0.859221
O O9 0.713335 0.294167 0.066817
O O10 0.533094 0.323470 0.337031
O O11 0.000000 0.000000 0.000000
O O12 0.619962 0.424966 0.201487
O O13 0.183541 0.431290 0.338316
O O14 0.679950 0.325535 0.808400
O O15 0.039025 0.371020 0.759375
O O16 0.695697 0.467575 0.755109
O O17 0.119711 0.447916 0.654350
#
# Coordination Sequence:
#
# PCOD9047230 Si02
#       8
#     2   2   2   2   2   2   2   2
#     4  12  28  49  76 113 147 201 254 308 378 460
#     4  12  26  50  81 113 151 200 256 317 381 454
#     4  11  24  48  68 107 145 198 236 312 371 444
#     4  12  27  49  76 109 152 187 250 318 382 446
#     4  10  24  43  75 101 153 193 245 298 381 427
#     4  12  25  44  74 104 146 200 239 306 370 443
#     4  10  24  45  71 110 144 196 242 307 355 450
#     4  11  25  44  72 106 149 186 252 294 370 435
#
# _framework density 27.301015
#
# number of rings (size 3 to 8) (size 9 to 14) (size 15 to 20)
#    0.000    0.750    5.000    1.125    3.500    4.000 
#    2.250    0.000    0.000    0.000    0.000    0.000 
#    0.000    0.000    0.000    0.000    0.000    0.000 
#
# Total GULP energy -89567.117753 kJ/mol
# GULP energy per Si atom -5597.944860 kJ/mol
# Density = 2.723888 g / cm^3
# Si number density = 27.301015 Si / 1000 Ang^3
#
#
#
# Elastic Constant Matrix: (Units=GPa)
#
#
# Indices 1 2 3 4 5 6 
#
# 1 104.0386 33.1913 26.3800 -4.9483 -15.2024 -20.0558
# 2 33.1913 163.6074 44.0083 6.4134 -5.0262 -1.0375
# 3 26.3800 44.0083 150.7980 4.5214 -10.0909 -10.2793
# 4 -4.9483 6.4134 4.5214 70.6882 -6.8601 7.8503
# 5 -15.2024 -5.0262 -10.0909 -6.8601 43.8184 -2.4098
# 6 -20.0558 -1.0375 -10.2793 7.8503 -2.4098 35.0098
#
#
#
# Elastic Compliance Matrix: (Units=1/GPa)
#
#
# Indices 1 2 3 4 5 6 
#
# 1 0.012548 -0.002178 -0.000808 0.000778 0.004425 0.007016
# 2 -0.002178 0.007032 -0.001790 -0.000564 -0.000531 -0.001475
# 3 -0.000808 -0.001790 0.007523 -0.000461 0.001278 0.001884
# 4 0.000778 -0.000564 -0.000461 0.014820 0.002261 -0.002874
# 5 0.004425 -0.000531 0.001278 0.002261 0.025171 0.004120
# 6 0.007016 -0.001475 0.001884 -0.002874 0.004120 0.034020
#
#
# Mechanical properties :
#
#
# Convention : Reuss Voigt Hill
#
# Bulk Modulus (GPa) = 56.98258 69.51145 63.24701
# Shear Modulus (GPa) = 42.91183 50.89424 46.90304
#
# Velocity S-wave (km/s) = 3.96890 4.32231 4.14937
# Velocity P-wave (km/s) = 6.47458 7.10114 6.79508
#
# Compressibility (1/GPa) = 0.01754922
#
# Stress axis : x y z
#
# Youngs Moduli (GPa) = 79.69472 142.20484 132.92490
#
# Poissons Ratio (x) = 0.30976 0.10744
# Poissons Ratio (y) = 0.17359 0.23798
# Poissons Ratio (z) = 0.06442 0.25460
#
# Static dielectric constant tensor:
#      x y z
#    x 2.140610 -0.001050 -0.023220 
#    y -0.001050 2.104080 -0.020230 
#    z -0.023220 -0.020230 2.264000 
# 
# From -- ./inp_files/142699.got.cif
#   From: 2010.05.17/outbox.cif.g08.bks.cpg/sg2_72_cif.got.tgz:142699.got - 2010.06.03 11:33:40.
