data_PCOD9047285
_publ_section_title
;
Structure prediction by ZEFSAII (Michael W. Deem and Ramdas Pophale) SiO2 
 PCOD9047285
Probable space group: P -1
;
_chemical_formula_sum "Si O2"
_cell_formula_units_Z 12
_cell_length_a 7.362223
_cell_length_b 8.171626
_cell_length_c 9.809478
_cell_angle_alpha 114.131230
_cell_angle_beta 119.611441
_cell_angle_gamma 80.831557
_cell_volume 467.560776
_symmetry_space_group_name_H-M "P -1"
_symmetry_group_IT_number 2
_symmetry_cell_setting 'triclinic'
loop_
_space_group_symop_operation_xyz
x,y,z
-x,-y,-z
loop_
_atom_site_type_symbol
_atom_site_label
_atom_site_fract_x
_atom_site_fract_y
_atom_site_fract_z
Si Si1 0.608156 0.926276 0.652294
Si Si2 0.114706 0.437291 0.157877
Si Si3 0.745004 0.185963 0.310323
Si Si4 0.928454 0.913439 0.120042
Si Si5 0.886080 0.703528 0.317518
Si Si6 0.419412 0.418494 0.631484
O O1 0.652934 0.719220 0.560796
O O2 0.437799 0.918915 0.706719
O O3 0.500000 0.000000 0.500000
O O4 0.826258 0.037526 0.790427
O O5 0.334671 0.548435 0.280107
O O6 0.976826 0.509640 0.252954
O O7 0.141520 0.227317 0.070753
O O8 0.000000 0.500000 0.000000
O O9 0.677289 0.388834 0.342580
O O10 0.958182 0.198803 0.482812
O O11 0.796325 0.087858 0.154809
O O12 0.893051 0.812197 0.217328
O O13 0.659480 0.672706 0.288697
#
# Coordination Sequence:
#
# PCOD9047285 Si02
#       6
#     2   2   2   2   2   2
#     4  12  22  40  68  94 124 170 217 261 310 376
#     4  10  24  44  63  94 130 170 214 261 319 382
#     4  12  24  40  67 100 129 165 215 268 316 375
#     4  11  24  41  65  98 128 164 220 266 310 378
#     4  11  22  42  69  93 129 170 214 261 317 380
#     4  12  25  40  69  95 130 170 213 261 326 379
#
# _framework density 25.665111
#
# number of rings (size 3 to 8) (size 9 to 14) (size 15 to 20)
#    0.000    0.667    5.000    3.500    0.000    4.667 
#    0.000    1.667    0.000    0.000    0.000    0.000 
#    0.000    0.000    0.000    0.000    0.000    0.000 
#
# Total GULP energy -67327.033508 kJ/mol
# GULP energy per Si atom -5610.586126 kJ/mol
# Density = 2.560670 g / cm^3
# Si number density = 25.665111 Si / 1000 Ang^3
#
#
#
# Elastic Constant Matrix: (Units=GPa)
#
#
# Indices 1 2 3 4 5 6 
#
# 1 160.9486 14.9560 35.5195 22.6105 -7.5103 20.3465
# 2 14.9560 103.9965 12.1587 17.9934 -12.5214 -2.2365
# 3 35.5195 12.1587 98.3515 39.8729 -8.2334 6.3875
# 4 22.6105 17.9934 39.8729 52.3228 -7.9932 -16.2647
# 5 -7.5103 -12.5214 -8.2334 -7.9932 34.4841 15.7121
# 6 20.3465 -2.2365 6.3875 -16.2647 15.7121 49.4428
#
#
#
# Elastic Compliance Matrix: (Units=1/GPa)
#
#
# Indices 1 2 3 4 5 6 
#
# 1 0.007753 -0.000081 -0.000474 -0.004199 0.003075 -0.005491
# 2 -0.000081 0.010752 0.001084 -0.004615 0.004203 -0.002474
# 3 -0.000474 0.001084 0.017386 -0.015350 0.004790 -0.008574
# 4 -0.004199 -0.004615 -0.015350 0.038994 -0.005446 0.018060
# 5 0.003075 0.004203 0.004790 -0.005446 0.038194 -0.015623
# 6 -0.005491 -0.002474 -0.008574 0.018060 -0.015623 0.034387
#
#
# Mechanical properties :
#
#
# Convention : Reuss Voigt Hill
#
# Bulk Modulus (GPa) = 27.06469 54.28500 40.67484
# Shear Modulus (GPa) = 31.50142 47.29409 39.39775
#
# Velocity S-wave (km/s) = 3.50723 4.29737 3.92225
# Velocity P-wave (km/s) = 5.19318 6.76908 6.03281
#
# Compressibility (1/GPa) = 0.03694851
#
# Stress axis : x y z
#
# Youngs Moduli (GPa) = 128.98742 93.00571 57.51827
#
# Poissons Ratio (x) = 0.00753 0.02725
# Poissons Ratio (y) = 0.01045 -0.06233
# Poissons Ratio (z) = 0.06110 -0.10079
#
# Static dielectric constant tensor:
#      x y z
#    x 1.925750 -0.025910 -0.031870 
#    y -0.025910 2.166720 0.011800 
#    z -0.031870 0.011800 1.961200 
# 
# From -- ./inp_files/375151.got.cif
#   From: 2010.05.17/outbox.cif.g08.bks.cpg/sg2_188_cif.got.tgz:375151.got - 2010.06.03 11:33:40.
