data_PCOD9047605
_publ_section_title
;
Structure prediction by ZEFSAII (Michael W. Deem and Ramdas Pophale) SiO2 
 PCOD9047605
Probable space group: P -1
;
_chemical_formula_sum "Si O2"
_cell_formula_units_Z 16
_cell_length_a 13.737588
_cell_length_b 8.514324
_cell_length_c 15.890269
_cell_angle_alpha 70.938072
_cell_angle_beta 50.669681
_cell_angle_gamma 113.534761
_cell_volume 759.311852
_symmetry_space_group_name_H-M "P -1"
_symmetry_group_IT_number 2
_symmetry_cell_setting 'triclinic'
loop_
_space_group_symop_operation_xyz
x,y,z
-x,-y,-z
loop_
_atom_site_type_symbol
_atom_site_label
_atom_site_fract_x
_atom_site_fract_y
_atom_site_fract_z
Si Si1 0.172729 0.505210 0.047061
Si Si2 0.015901 0.289939 0.610696
Si Si3 0.093333 0.287950 0.386684
Si Si4 0.579098 0.367420 0.415959
Si Si5 0.131742 0.703578 0.604356
Si Si6 0.811162 0.822563 0.356839
Si Si7 0.494833 0.693981 0.970276
Si Si8 0.361910 0.820864 0.714624
O O1 0.039683 0.473793 0.192475
O O2 0.386475 0.659495 0.952558
O O3 0.237365 0.670995 0.897549
O O4 0.005557 0.170653 0.174722
O O5 0.116504 0.405761 0.442020
O O6 0.093328 0.509349 0.596758
O O7 0.090228 0.193521 0.624546
O O8 0.749914 0.022331 0.790413
O O9 0.913884 0.182718 0.444537
O O10 0.326535 0.552509 0.162978
O O11 0.000000 0.000000 0.500000
O O12 0.739055 0.636045 0.347605
O O13 0.418326 0.329278 0.467554
O O14 0.720787 0.401294 0.271273
O O15 0.405292 0.053391 0.615556
O O16 0.385000 0.969163 0.448577
O O17 0.500000 0.500000 0.000000
#
# Coordination Sequence:
#
# PCOD9047605 Si02
#       8
#     2   2   2   2   2   2   2   2
#     4  11  24  41  70  95 130 170 214 266 324 387
#     4  12  23  41  67  92 134 173 210 264 319 383
#     4  11  23  38  66  94 128 173 210 254 320 384
#     4  10  24  44  68  95 128 166 225 273 321 386
#     4  11  24  43  63  97 134 168 216 265 319 386
#     4  11  22  44  66  97 130 166 217 276 318 380
#     4  11  22  39  63  98 132 165 214 256 313 396
#     4  11  23  44  71  92 128 176 214 269 334 378
#
# _framework density 21.071709999999999
#
# number of rings (size 3 to 8) (size 9 to 14) (size 15 to 20)
#    0.000    1.000    5.000    1.875    0.000    4.000 
#    0.000    1.250    0.000    0.000    0.000    0.000 
#    0.000    0.000    0.000    0.000    0.000    0.000 
#
# Total GULP energy -89452.200675 kJ/mol
# GULP energy per Si atom -5590.762542 kJ/mol
# Density = 2.102375 g / cm^3
# Si number density = 21.071710 Si / 1000 Ang^3
#
#
#
# Elastic Constant Matrix: (Units=GPa)
#
#
# Indices 1 2 3 4 5 6 
#
# 1 114.6333 13.0792 30.7343 4.7415 -5.1182 -2.4147
# 2 13.0792 124.8274 26.6050 17.2773 5.4422 9.6355
# 3 30.7343 26.6050 59.7112 21.3106 16.2686 7.2280
# 4 4.7415 17.2773 21.3106 21.4350 11.1160 -2.3485
# 5 -5.1182 5.4422 16.2686 11.1160 35.0474 -2.1902
# 6 -2.4147 9.6355 7.2280 -2.3485 -2.1902 30.3501
#
#
#
# Elastic Compliance Matrix: (Units=1/GPa)
#
#
# Indices 1 2 3 4 5 6 
#
# 1 0.011306 -0.000429 -0.009134 0.004954 0.004632 0.003928
# 2 -0.000429 0.009543 -0.001412 -0.007155 0.001181 -0.003196
# 3 -0.009134 -0.001412 0.036738 -0.029768 -0.009478 -0.012015
# 4 0.004954 -0.007155 -0.029768 0.088591 -0.011460 0.015783
# 5 0.004632 0.001181 -0.009478 -0.011460 0.037313 0.004057
# 6 0.003928 -0.003196 -0.012015 0.015783 0.004057 0.038651
#
#
# Mechanical properties :
#
#
# Convention : Reuss Voigt Hill
#
# Bulk Modulus (GPa) = 28.06068 48.88989 38.47529
# Shear Modulus (GPa) = 19.53340 32.61674 26.07507
#
# Velocity S-wave (km/s) = 3.04796 3.93859 3.52155
# Velocity P-wave (km/s) = 5.07272 6.62838 5.90203
#
# Compressibility (1/GPa) = 0.03563705
#
# Stress axis : x y z
#
# Youngs Moduli (GPa) = 88.44947 104.79398 27.21941
#
# Poissons Ratio (x) = 0.04493 0.24862
# Poissons Ratio (y) = 0.03792 0.03845
# Poissons Ratio (z) = 0.80788 0.14801
#
# Static dielectric constant tensor:
#      x y z
#    x 1.802780 0.018070 -0.007080 
#    y 0.018070 1.809440 0.022840 
#    z -0.007080 0.022840 1.733400 
# 
# From -- ./inp_files/515188.got.cif
#   From: 2010.05.17/outbox.cif.g08.bks.cpg/sg2_258_cif.got.tgz:515188.got - 2010.06.03 11:33:40.
