data_PCOD9047516
_publ_section_title
;
Structure prediction by ZEFSAII (Michael W. Deem and Ramdas Pophale) SiO2 
 PCOD9047516
Probable space group: P -1
;
_chemical_formula_sum "Si O2"
_cell_formula_units_Z 16
_cell_length_a 12.578150
_cell_length_b 20.460058
_cell_length_c 13.633512
_cell_angle_alpha 148.229359
_cell_angle_beta 151.533872
_cell_angle_gamma 25.372271
_cell_volume 689.266648
_symmetry_space_group_name_H-M "P -1"
_symmetry_group_IT_number 2
_symmetry_cell_setting 'triclinic'
loop_
_space_group_symop_operation_xyz
x,y,z
-x,-y,-z
loop_
_atom_site_type_symbol
_atom_site_label
_atom_site_fract_x
_atom_site_fract_y
_atom_site_fract_z
Si Si1 0.645870 0.430805 0.339664
Si Si2 0.499332 0.061459 0.444863
Si Si3 0.026681 0.635573 0.680866
Si Si4 0.161408 0.770123 0.348676
Si Si5 0.678276 0.675251 0.758961
Si Si6 0.979164 0.788226 0.024171
Si Si7 0.957341 0.916519 0.771885
Si Si8 0.421210 0.108243 0.890135
O O1 0.314479 0.582838 0.256330
O O2 0.769694 0.500796 0.595965
O O3 0.776210 0.403541 0.302017
O O4 0.758014 0.258397 0.244168
O O5 0.782153 0.023644 0.672004
O O6 0.567355 0.917514 0.249749
O O7 0.303131 0.211813 0.408341
O O8 0.267697 0.105670 0.396167
O O9 0.132659 0.678353 0.913941
O O10 0.000000 0.500000 0.500000
O O11 0.369681 0.786718 0.598212
O O12 0.843454 0.882002 0.273475
O O13 0.160408 0.793433 0.261367
O O14 0.863683 0.708254 0.889394
O O15 0.646633 0.734279 0.918589
O O16 0.712625 0.960353 0.988320
O O17 0.000000 0.000000 0.000000
#
# Coordination Sequence:
#
# PCOD9047516 Si02
#       8
#     2   2   2   2   2   2   2   2
#     4   9  20  36  55  84 111 144 192 224 278 332
#     4   9  22  39  60  86 106 145 189 224 278 336
#     4  10  17  34  57  83 117 141 180 233 275 328
#     4   9  19  33  50  79 113 148 180 221 271 326
#     4   9  18  34  50  79 117 145 179 226 264 330
#     4  10  19  31  53  81 112 155 182 218 274 331
#     4  10  21  43  62  79 108 144 187 239 274 322
#     4  10  20  35  55  81 114 146 186 219 272 334
#
# _framework density 23.213076999999998
#
# number of rings (size 3 to 8) (size 9 to 14) (size 15 to 20)
#    0.750    1.750    1.250    1.500    0.000    4.500 
#    6.750   10.000    0.000    0.000    0.000    0.000 
#    0.000    0.000    0.000    0.000    0.000    0.000 
#
# Total GULP energy -89210.424312 kJ/mol
# GULP energy per Si atom -5575.651519 kJ/mol
# Density = 2.316024 g / cm^3
# Si number density = 23.213077 Si / 1000 Ang^3
#
#
#
# Elastic Constant Matrix: (Units=GPa)
#
#
# Indices 1 2 3 4 5 6 
#
# 1 37.4621 0.3371 6.0985 1.4284 -8.3849 -14.6853
# 2 0.3371 73.6300 17.8506 3.0659 -5.9234 -7.9885
# 3 6.0985 17.8506 89.6761 -0.8618 -22.8148 -9.1498
# 4 1.4284 3.0659 -0.8618 37.7826 -3.1210 -10.5009
# 5 -8.3849 -5.9234 -22.8148 -3.1210 30.8602 3.3119
# 6 -14.6853 -7.9885 -9.1498 -10.5009 3.3119 16.5308
#
#
#
# Elastic Compliance Matrix: (Units=1/GPa)
#
#
# Indices 1 2 3 4 5 6 
#
# 1 0.050667 0.005232 0.004977 0.014724 0.013836 0.056875
# 2 0.005232 0.015341 -0.001635 0.002036 0.002072 0.012035
# 3 0.004977 -0.001635 0.015447 0.004850 0.011559 0.012946
# 4 0.014724 0.002036 0.004850 0.037300 0.007572 0.038925
# 5 0.013836 0.002072 0.011559 0.007572 0.044193 0.015646
# 6 0.056875 0.012035 0.012946 0.038925 0.015646 0.145593
#
#
# Mechanical properties :
#
#
# Convention : Reuss Voigt Hill
#
# Bulk Modulus (GPa) = 10.14161 27.70452 18.92306
# Shear Modulus (GPa) = 15.41973 28.80019 22.10996
#
# Velocity S-wave (km/s) = 2.58014 3.52616 3.08957
# Velocity P-wave (km/s) = 3.64068 5.34221 4.57131
#
# Compressibility (1/GPa) = 0.09860367
#
# Stress axis : x y z
#
# Youngs Moduli (GPa) = 19.73673 65.18291 64.73925
#
# Poissons Ratio (x) = -0.34103 -0.32224
# Poissons Ratio (y) = -0.10326 0.10585
# Poissons Ratio (z) = -0.09824 0.10658
#
# Static dielectric constant tensor:
#      x y z
#    x 1.910950 0.036860 -0.023520 
#    y 0.036860 1.937820 -0.007140 
#    z -0.023520 -0.007140 1.907840 
# 
# From -- ./inp_files/535419.got.cif
#   From: 2010.05.17/outbox.cif.g08.bks.cpg/sg2_268_cif.got.tgz:535419.got - 2010.06.03 11:33:40.
