data_PCOD9047346
_publ_section_title
;
Structure prediction by ZEFSAII (Michael W. Deem and Ramdas Pophale) SiO2 
 PCOD9047346
Probable space group: P -1
;
_chemical_formula_sum "Si O2"
_cell_formula_units_Z 16
_cell_length_a 12.821880
_cell_length_b 9.700545
_cell_length_c 9.500974
_cell_angle_alpha 80.137920
_cell_angle_beta 73.060818
_cell_angle_gamma 39.554053
_cell_volume 717.112275
_symmetry_space_group_name_H-M "P -1"
_symmetry_group_IT_number 2
_symmetry_cell_setting 'triclinic'
loop_
_space_group_symop_operation_xyz
x,y,z
-x,-y,-z
loop_
_atom_site_type_symbol
_atom_site_label
_atom_site_fract_x
_atom_site_fract_y
_atom_site_fract_z
Si Si1 0.938280 0.614774 0.652009
Si Si2 0.580661 0.305940 0.296141
Si Si3 0.022199 0.107881 0.363913
Si Si4 0.611297 0.055553 0.102008
Si Si5 0.135274 0.778031 0.897901
Si Si6 0.007278 0.355966 0.926821
Si Si7 0.450786 0.921374 0.203592
Si Si8 0.631200 0.246790 0.590609
O O1 0.023053 0.685666 0.623423
O O2 0.735972 0.836199 0.719428
O O3 0.000000 0.500000 0.500000
O O4 0.993181 0.437552 0.766318
O O5 0.528810 0.235398 0.221980
O O6 0.688554 0.312413 0.164001
O O7 0.684621 0.162473 0.423069
O O8 0.429911 0.536603 0.393136
O O9 0.935401 0.158667 0.243535
O O10 0.224888 0.916658 0.320746
O O11 0.000000 0.000000 0.500000
O O12 0.577015 0.926842 0.170666
O O13 0.810736 0.890573 0.068960
O O14 0.555182 0.121197 0.950009
O O15 0.132219 0.624260 0.988152
O O16 0.000000 0.000000 0.000000
O O17 0.000000 0.500000 0.000000
O O18 0.500524 0.743963 0.315636
#
# Coordination Sequence:
#
# PCOD9047346 Si02
#       8
#     2   2   2   2   2   2   2   2
#     4  11  26  43  67 100 131 173 219 268 331 389
#     4  11  25  44  64  98 130 173 220 267 326 393
#     4  11  23  44  66  96 135 171 213 272 324 387
#     4  11  24  44  67  95 132 169 222 271 325 385
#     4  12  25  42  69  99 129 175 221 271 331 379
#     4  12  23  44  67  97 132 171 222 273 318 392
#     4  10  24  45  65  94 131 174 214 274 327 383
#     4  10  24  44  65  93 135 169 215 268 326 391
#
# _framework density 22.311709
#
# number of rings (size 3 to 8) (size 9 to 14) (size 15 to 20)
#    0.000    1.000    5.000    0.750    7.000    2.000 
#    0.000    0.000    0.000    0.000    0.000    0.000 
#    0.000    0.000    0.000    0.000    0.000    0.000 
#
# Total GULP energy -89258.349682 kJ/mol
# GULP energy per Si atom -5578.646855 kJ/mol
# Density = 2.226093 g / cm^3
# Si number density = 22.311709 Si / 1000 Ang^3
#
#
#
# Elastic Constant Matrix: (Units=GPa)
#
#
# Indices 1 2 3 4 5 6 
#
# 1 82.2839 14.7661 32.1077 -8.7223 -1.5058 31.4486
# 2 14.7661 46.4474 26.6429 -1.4307 15.1502 22.7440
# 3 32.1077 26.6429 125.7066 -5.3528 11.9208 34.3439
# 4 -8.7223 -1.4307 -5.3528 39.8562 18.0070 -5.9614
# 5 -1.5058 15.1502 11.9208 18.0070 40.5667 -3.7025
# 6 31.4486 22.7440 34.3439 -5.9614 -3.7025 39.8227
#
#
#
# Elastic Compliance Matrix: (Units=1/GPa)
#
#
# Indices 1 2 3 4 5 6 
#
# 1 0.017940 0.003286 -0.000673 0.003078 -0.003126 -0.015294
# 2 0.003286 0.040486 0.000168 0.007637 -0.020871 -0.026660
# 3 -0.000673 0.000168 0.011270 0.002361 -0.005307 -0.009424
# 4 0.003078 0.007637 0.002361 0.034162 -0.019096 -0.005490
# 5 -0.003126 -0.020871 -0.005307 -0.019096 0.044211 0.020217
# 6 -0.015294 -0.026660 -0.009424 -0.005490 0.020217 0.061601
#
#
# Mechanical properties :
#
#
# Convention : Reuss Voigt Hill
#
# Bulk Modulus (GPa) = 13.28751 44.60794 28.94772
# Shear Modulus (GPa) = 21.81561 36.11051 28.96306
#
# Velocity S-wave (km/s) = 3.13032 4.02737 3.60684
# Velocity P-wave (km/s) = 4.36274 6.45467 5.50891
#
# Compressibility (1/GPa) = 0.07525866
#
# Stress axis : x y z
#
# Youngs Moduli (GPa) = 55.74027 24.69974 88.73283
#
# Poissons Ratio (x) = -0.08116 0.05970
# Poissons Ratio (y) = -0.18316 -0.01490
# Poissons Ratio (z) = 0.03750 -0.00415
#
# Static dielectric constant tensor:
#      x y z
#    x 1.911510 0.003360 -0.066790 
#    y 0.003360 1.903210 -0.015680 
#    z -0.066790 -0.015680 1.875340 
# 
# From -- ./inp_files/243968.got.cif
#   From: 2010.05.17/outbox.cif.g08.bks.cpg/sg2_122_cif.got.tgz:243968.got - 2010.06.03 11:33:40.
