data_PCOD9047609
_publ_section_title
;
Structure prediction by ZEFSAII (Michael W. Deem and Ramdas Pophale) SiO2 
 PCOD9047609
Probable space group: P -1
;
_chemical_formula_sum "Si O2"
_cell_formula_units_Z 14
_cell_length_a 11.343831
_cell_length_b 20.640286
_cell_length_c 15.481862
_cell_angle_alpha 18.174347
_cell_angle_beta 141.823062
_cell_angle_gamma 149.970212
_cell_volume 550.174131
_symmetry_space_group_name_H-M "P -1"
_symmetry_group_IT_number 2
_symmetry_cell_setting 'triclinic'
loop_
_space_group_symop_operation_xyz
x,y,z
-x,-y,-z
loop_
_atom_site_type_symbol
_atom_site_label
_atom_site_fract_x
_atom_site_fract_y
_atom_site_fract_z
Si Si1 0.293549 0.535544 0.326158
Si Si2 0.560536 0.260057 0.665510
Si Si3 0.963001 0.028537 0.342711
Si Si4 0.180213 0.638547 0.693513
Si Si5 0.156114 0.279962 0.849055
Si Si6 0.645291 0.759590 0.815609
Si Si7 0.337305 0.049930 0.115055
O O1 0.500000 0.500000 0.500000
O O2 0.276632 0.556330 0.393332
O O3 0.006106 0.334318 0.398090
O O4 0.419373 0.772739 0.027754
O O5 0.735691 0.418136 0.486399
O O6 0.302314 0.178449 0.589493
O O7 0.500000 0.000000 0.000000
O O8 0.155338 0.016918 0.416922
O O9 0.000000 0.000000 0.500000
O O10 0.033355 0.321333 0.001504
O O11 0.428959 0.746858 0.747602
O O12 0.280009 0.812252 0.443047
O O13 0.882066 0.074861 0.921278
O O14 0.205720 0.253301 0.008356
O O15 0.308884 0.225387 0.943290
O O16 0.500000 0.500000 0.000000
#
# Coordination Sequence:
#
# PCOD9047609 Si02
#       7
#     2   2   2   2   2   2   2
#     4  12  23  43  71 106 142 182 231 295 350 402
#     4  12  22  40  70 103 139 179 239 290 344 421
#     4  11  24  44  69 103 143 181 231 293 354 419
#     4  11  24  45  68 104 140 185 239 283 344 432
#     4  11  22  45  66 103 138 186 231 292 353 414
#     4  10  24  44  68  95 144 183 228 291 353 414
#     4  11  23  42  73  96 143 182 238 290 344 419
#
# _framework density 25.446487999999999
#
# number of rings (size 3 to 8) (size 9 to 14) (size 15 to 20)
#    0.000    0.857    4.286    3.429    2.000    2.857 
#    0.000    5.714    0.000    0.000    0.000    0.000 
#    0.000    0.000    0.000    0.000    0.000    0.000 
#
# Total GULP energy -78100.067511 kJ/mol
# GULP energy per Si atom -5578.576251 kJ/mol
# Density = 2.538857 g / cm^3
# Si number density = 25.446488 Si / 1000 Ang^3
#
#
#
# Elastic Constant Matrix: (Units=GPa)
#
#
# Indices 1 2 3 4 5 6 
#
# 1 84.1912 40.0624 26.8730 1.7417 -33.0845 21.9535
# 2 40.0624 95.2744 18.9549 15.6345 -22.2650 12.9787
# 3 26.8730 18.9549 128.9123 8.8086 -33.0148 -0.7118
# 4 1.7417 15.6345 8.8086 37.9121 -5.5732 -6.4191
# 5 -33.0845 -22.2650 -33.0148 -5.5732 52.9895 -6.0295
# 6 21.9535 12.9787 -0.7118 -6.4191 -6.0295 52.4810
#
#
#
# Elastic Compliance Matrix: (Units=1/GPa)
#
#
# Indices 1 2 3 4 5 6 
#
# 1 0.019840 -0.005592 -0.001217 0.002018 0.008847 -0.005670
# 2 -0.005592 0.014445 -0.000145 -0.005713 0.001689 -0.001740
# 3 -0.001217 -0.000145 0.009409 -0.001140 0.005048 0.001113
# 4 0.002018 -0.005713 -0.001140 0.029918 0.001799 0.004419
# 5 0.008847 0.001689 0.005048 0.001799 0.028374 -0.000570
# 6 -0.005670 -0.001740 0.001113 0.004419 -0.000570 0.022347
#
#
# Mechanical properties :
#
#
# Convention : Reuss Voigt Hill
#
# Bulk Modulus (GPa) = 33.57215 53.35094 43.46155
# Shear Modulus (GPa) = 33.74485 43.50902 38.62693
#
# Velocity S-wave (km/s) = 3.64553 4.13949 3.90034
# Velocity P-wave (km/s) = 5.56253 6.62258 6.11557
#
# Compressibility (1/GPa) = 0.02978659
#
# Stress axis : x y z
#
# Youngs Moduli (GPa) = 50.40244 69.22597 106.27933
#
# Poissons Ratio (x) = 0.38711 0.12937
# Poissons Ratio (y) = 0.28185 0.01541
# Poissons Ratio (z) = 0.06135 0.01004
#
# Static dielectric constant tensor:
#      x y z
#    x 1.711070 -0.247980 0.069860 
#    y -0.247980 1.896590 -0.098050 
#    z 0.069860 -0.098050 2.109400 
# 
# From -- ./inp_files/524018.got.cif
#   From: 2010.05.17/outbox.cif.g08.bks.cpg/sg2_263_cif.got.tgz:524018.got - 2010.06.03 11:33:40.
