data_PCOD9047680
_publ_section_title
;
Structure prediction by ZEFSAII (Michael W. Deem and Ramdas Pophale) SiO2 
 PCOD9047680
Probable space group: P -1
;
_chemical_formula_sum "Si O2"
_cell_formula_units_Z 14
_cell_length_a 12.225693
_cell_length_b 8.569456
_cell_length_c 20.851488
_cell_angle_alpha 42.548814
_cell_angle_beta 30.136236
_cell_angle_gamma 62.171318
_cell_volume 641.606873
_symmetry_space_group_name_H-M "P -1"
_symmetry_group_IT_number 2
_symmetry_cell_setting 'triclinic'
loop_
_space_group_symop_operation_xyz
x,y,z
-x,-y,-z
loop_
_atom_site_type_symbol
_atom_site_label
_atom_site_fract_x
_atom_site_fract_y
_atom_site_fract_z
Si Si1 0.288236 0.078971 0.838308
Si Si2 0.577869 0.697003 0.960488
Si Si3 0.114730 0.139922 0.553933
Si Si4 0.193103 0.860044 0.087634
Si Si5 0.598406 0.566997 0.129615
Si Si6 0.463193 0.960708 0.651649
Si Si7 0.302775 0.313602 0.548197
O O1 0.394007 0.020479 0.738172
O O2 0.460791 0.393592 0.668695
O O3 0.285029 0.912055 0.952085
O O4 0.000000 0.000000 0.000000
O O5 0.500000 0.500000 0.000000
O O6 0.347594 0.743670 0.079559
O O7 0.645321 0.593060 0.022153
O O8 0.824133 0.978252 0.733656
O O9 0.296028 0.412375 0.341729
O O10 0.160547 0.212881 0.583419
O O11 0.245123 0.961161 0.526309
O O12 0.894524 0.683166 0.302017
O O13 0.267492 0.147220 0.992456
O O14 0.670497 0.361420 0.188021
O O15 0.386249 0.109066 0.594090
#
# Coordination Sequence:
#
# PCOD9047680 Si02
#       7
#     2   2   2   2   2   2   2
#     4  12  25  45  69 107 142 182 225 287 351 408
#     4  12  27  46  71 101 141 183 236 291 344 408
#     4  10  25  45  69 100 137 185 230 280 347 407
#     4  12  26  44  72 106 138 188 233 282 347 415
#     4  10  24  47  66 102 135 187 232 281 343 408
#     4  10  24  44  69 104 141 178 232 287 345 408
#     4  12  24  45  71 106 140 185 229 284 348 418
#
# _framework density 21.820215999999999
#
# number of rings (size 3 to 8) (size 9 to 14) (size 15 to 20)
#    0.857    0.000    4.286    2.143    2.000    4.000 
#    2.571    0.000    0.000    0.000    0.000    0.000 
#    0.000    0.000    0.000    0.000    0.000    0.000 
#
# Total GULP energy -78232.802391 kJ/mol
# GULP energy per Si atom -5588.057314 kJ/mol
# Density = 2.177055 g / cm^3
# Si number density = 21.820216 Si / 1000 Ang^3
#
#
#
# Elastic Constant Matrix: (Units=GPa)
#
#
# Indices 1 2 3 4 5 6 
#
# 1 42.6221 5.5921 21.3227 -6.0159 -2.8534 14.4645
# 2 5.5921 67.4314 0.0938 1.9735 -0.0346 -3.6507
# 3 21.3227 0.0938 103.8558 -1.6292 3.7962 -6.5088
# 4 -6.0159 1.9735 -1.6292 22.7722 2.0749 -1.6979
# 5 -2.8534 -0.0346 3.7962 2.0749 26.9315 12.4380
# 6 14.4645 -3.6507 -6.5088 -1.6979 12.4380 39.6721
#
#
#
# Elastic Compliance Matrix: (Units=1/GPa)
#
#
# Indices 1 2 3 4 5 6 
#
# 1 0.037122 -0.004311 -0.009229 0.006824 0.013683 -0.019444
# 2 -0.004311 0.015446 0.001159 -0.001911 -0.002205 0.003793
# 3 -0.009229 0.001159 0.012195 -0.000568 -0.006043 0.007343
# 4 0.006824 -0.001911 -0.000568 0.046102 -0.002794 0.000092
# 5 0.013683 -0.002205 -0.006043 -0.002794 0.049761 -0.021904
# 6 -0.019444 0.003793 0.007343 0.000092 -0.021904 0.040721
#
#
# Mechanical properties :
#
#
# Convention : Reuss Voigt Hill
#
# Bulk Modulus (GPa) = 24.99929 29.76962 27.38445
# Shear Modulus (GPa) = 20.88183 30.33520 25.60851
#
# Velocity S-wave (km/s) = 3.09689 3.73263 3.42952
# Velocity P-wave (km/s) = 4.92640 5.67886 5.31596
#
# Compressibility (1/GPa) = 0.04000113
#
# Stress axis : x y z
#
# Youngs Moduli (GPa) = 26.93789 64.74201 82.00280
#
# Poissons Ratio (x) = 0.27911 0.75683
# Poissons Ratio (y) = 0.11613 -0.09508
# Poissons Ratio (z) = 0.24862 -0.07507
#
# Static dielectric constant tensor:
#      x y z
#    x 1.785430 -0.006380 0.018990 
#    y -0.006380 1.790150 0.020970 
#    z 0.018990 0.020970 1.798070 
# 
# From -- ./inp_files/593941.got.cif
#   From: 2010.05.17/outbox.cif.g08.bks.cpg/sg2_297_cif.got.tgz:593941.got - 2010.06.03 11:33:40.
