data_PCOD9047466
_publ_section_title
;
Structure prediction by ZEFSAII (Michael W. Deem and Ramdas Pophale) SiO2 
 PCOD9047466
Probable space group: P -1
;
_chemical_formula_sum "Si O2"
_cell_formula_units_Z 16
_cell_length_a 15.136649
_cell_length_b 9.182883
_cell_length_c 5.273171
_cell_angle_alpha 120.299582
_cell_angle_beta 105.282253
_cell_angle_gamma 83.835339
_cell_volume 610.171661
_symmetry_space_group_name_H-M "P -1"
_symmetry_group_IT_number 2
_symmetry_cell_setting 'triclinic'
loop_
_space_group_symop_operation_xyz
x,y,z
-x,-y,-z
loop_
_atom_site_type_symbol
_atom_site_label
_atom_site_fract_x
_atom_site_fract_y
_atom_site_fract_z
Si Si1 0.184003 0.445375 0.591700
Si Si2 0.755639 0.986428 0.213263
Si Si3 0.379440 0.807627 0.765075
Si Si4 0.554740 0.885024 0.630965
Si Si5 0.921815 0.886483 0.587442
Si Si6 0.578747 0.523632 0.292618
Si Si7 0.893865 0.191273 0.183284
Si Si8 0.300202 0.390120 0.123254
O O1 0.126490 0.268795 0.425153
O O2 0.126201 0.614243 0.712545
O O3 0.234122 0.438481 0.350592
O O4 0.258178 0.453278 0.885617
O O5 0.850663 0.916043 0.337439
O O6 0.702924 0.145308 0.444303
O O7 0.801050 0.091284 0.105432
O O8 0.698570 0.810540 0.060385
O O9 0.476483 0.814672 0.703068
O O10 0.377030 0.659557 0.834863
O O11 0.376373 0.980988 0.073015
O O12 0.603511 0.720812 0.423175
O O13 0.500000 0.000000 0.500000
O O14 0.023491 0.821261 0.561642
O O15 0.929239 0.072251 0.882016
O O16 0.600245 0.539385 0.637211
O O17 0.500000 0.500000 0.000000
#
# Coordination Sequence:
#
# PCOD9047466 Si02
#       8
#     2   2   2   2   2   2   2   2
#     4  11  25  47  71 107 145 190 239 296 359 421
#     4  11  23  46  70 101 144 188 236 300 357 424
#     4  11  25  42  69  97 134 181 232 288 355 419
#     4  11  24  45  66  99 133 178 230 292 353 419
#     4  10  24  44  67 107 142 189 236 298 356 428
#     4  12  25  46  69 102 138 185 236 294 355 424
#     4  11  23  43  73 101 143 189 240 291 362 430
#     4  11  26  47  71 106 144 189 242 300 353 431
#
# _framework density 26.22213
#
# number of rings (size 3 to 8) (size 9 to 14) (size 15 to 20)
#    0.000    1.000    3.750    1.875    3.500    5.000 
#    0.000    1.875    0.000    0.000    0.000    0.000 
#    0.000    0.000    0.000    0.000    0.000    0.000 
#
# Total GULP energy -89072.639875 kJ/mol
# GULP energy per Si atom -5567.039992 kJ/mol
# Density = 2.616245 g / cm^3
# Si number density = 26.222130 Si / 1000 Ang^3
#
#
#
# Elastic Constant Matrix: (Units=GPa)
#
#
# Indices 1 2 3 4 5 6 
#
# 1 104.6161 51.9838 19.5972 -2.0464 3.0988 -0.3964
# 2 51.9838 248.0318 45.8864 33.6342 -13.3174 -34.2291
# 3 19.5972 45.8864 59.7624 10.5623 -4.4993 5.5048
# 4 -2.0464 33.6342 10.5623 34.2731 5.0372 2.4096
# 5 3.0988 -13.3174 -4.4993 5.0372 26.2065 -1.9555
# 6 -0.3964 -34.2291 5.5048 2.4096 -1.9555 51.7183
#
#
#
# Elastic Compliance Matrix: (Units=1/GPa)
#
#
# Indices 1 2 3 4 5 6 
#
# 1 0.011958 -0.003407 -0.002459 0.005691 -0.004837 -0.002350
# 2 -0.003407 0.007554 -0.003428 -0.007798 0.005593 0.005913
# 3 -0.002459 -0.003428 0.021369 -0.003441 0.002558 -0.004305
# 4 0.005691 -0.007798 -0.003441 0.040731 -0.013590 -0.007162
# 5 -0.004837 0.005593 0.002558 -0.013590 0.045051 0.005729
# 6 -0.002350 0.005913 -0.004305 -0.007162 0.005729 0.024239
#
#
# Mechanical properties :
#
#
# Convention : Reuss Voigt Hill
#
# Bulk Modulus (GPa) = 44.85830 71.92724 58.39277
# Shear Modulus (GPa) = 28.26127 42.10244 35.18185
#
# Velocity S-wave (km/s) = 3.28649 4.01135 3.66688
# Velocity P-wave (km/s) = 5.61654 6.99601 6.34388
#
# Compressibility (1/GPa) = 0.02229242
#
# Stress axis : x y z
#
# Youngs Moduli (GPa) = 83.62577 132.38617 46.79756
#
# Poissons Ratio (x) = 0.45105 0.11507
# Poissons Ratio (y) = 0.28492 0.16042
# Poissons Ratio (z) = 0.20563 0.45382
#
# Static dielectric constant tensor:
#      x y z
#    x 2.088360 0.990950 -0.805770 
#    y 0.990950 -0.746110 2.214110 
#    z -0.805770 2.214110 0.511400 
# 
# From -- ./inp_files/48130.got.cif
#   From: 2010.05.17/outbox.cif.g08.bks.cpg/sg2_25_cif.got.tgz:48130.got - 2010.06.03 11:33:40.
