data_PCOD9047846
_publ_section_title
;
Structure prediction by ZEFSAII (Michael W. Deem and Ramdas Pophale) SiO2 
 PCOD9047846
Probable space group: P -1
;
_chemical_formula_sum "Si O2"
_cell_formula_units_Z 16
_cell_length_a 9.697889
_cell_length_b 5.105333
_cell_length_c 18.630817
_cell_angle_alpha 72.975391
_cell_angle_beta 133.724455
_cell_angle_gamma 96.068322
_cell_volume 631.136312
_symmetry_space_group_name_H-M "P -1"
_symmetry_group_IT_number 2
_symmetry_cell_setting 'triclinic'
loop_
_space_group_symop_operation_xyz
x,y,z
-x,-y,-z
loop_
_atom_site_type_symbol
_atom_site_label
_atom_site_fract_x
_atom_site_fract_y
_atom_site_fract_z
Si Si1 0.971799 0.510295 0.605405
Si Si2 0.952742 0.411066 0.124773
Si Si3 0.208398 0.862301 0.232203
Si Si4 0.734295 0.351797 0.185063
Si Si5 0.481980 0.104064 0.903575
Si Si6 0.559754 0.904407 0.448142
Si Si7 0.189187 0.146232 0.060597
Si Si8 0.837320 0.211124 0.465038
O O1 0.760629 0.697699 0.524951
O O2 0.902976 0.237261 0.569262
O O3 0.082172 0.581768 0.709630
O O4 0.132899 0.539043 0.597236
O O5 0.039970 0.090055 0.184948
O O6 0.776032 0.448441 0.112661
O O7 0.114800 0.597129 0.193677
O O8 0.873587 0.536555 0.010605
O O9 0.277642 0.042894 0.176807
O O10 0.379552 0.789778 0.356007
O O11 0.683363 0.043845 0.184169
O O12 0.563811 0.566061 0.139692
O O13 0.672348 0.989018 0.940142
O O14 0.500000 0.000000 0.000000
O O15 0.500000 0.000000 0.500000
O O16 0.620232 0.153844 0.400431
O O17 0.000000 0.000000 0.000000
O O18 0.000000 0.000000 0.500000
#
# Coordination Sequence:
#
# PCOD9047846 Si02
#       8
#     2   2   2   2   2   2   2   2
#     4  10  24  44  70  98 140 192 231 298 355 424
#     4  11  24  46  69 103 144 182 236 291 358 420
#     4  11  26  43  71 103 139 190 237 290 355 424
#     4  12  27  43  79 102 145 186 240 287 364 423
#     4  12  27  47  72 109 142 182 240 297 348 430
#     4  11  25  42  69 101 143 181 243 293 353 422
#     4  10  25  47  73 101 144 183 230 292 360 421
#     4   9  22  43  66  93 138 180 237 290 357 410
#
# _framework density 25.351101
#
# number of rings (size 3 to 8) (size 9 to 14) (size 15 to 20)
#    0.000    1.250    1.250    2.250   10.500    4.500 
#    0.000    0.000    0.000    0.000    0.000    0.000 
#    0.000    0.000    0.000    0.000    0.000    0.000 
#
# Total GULP energy -89312.137058 kJ/mol
# GULP energy per Si atom -5582.008566 kJ/mol
# Density = 2.529340 g / cm^3
# Si number density = 25.351101 Si / 1000 Ang^3
#
#
#
# Elastic Constant Matrix: (Units=GPa)
#
#
# Indices 1 2 3 4 5 6 
#
# 1 143.0585 12.1403 25.8947 8.4266 3.0856 -19.0853
# 2 12.1403 90.6517 19.0082 22.9275 2.1558 -17.2679
# 3 25.8947 19.0082 94.2636 18.5708 2.5006 -13.6799
# 4 8.4266 22.9275 18.5708 26.6998 -6.8592 0.6267
# 5 3.0856 2.1558 2.5006 -6.8592 27.8729 -1.4212
# 6 -19.0853 -17.2679 -13.6799 0.6267 -1.4212 37.7624
#
#
#
# Elastic Compliance Matrix: (Units=1/GPa)
#
#
# Indices 1 2 3 4 5 6 
#
# 1 0.007840 0.000606 -0.001181 -0.002584 -0.001251 0.003807
# 2 0.000606 0.016708 0.001151 -0.016869 -0.005183 0.008448
# 3 -0.001181 0.001151 0.013731 -0.011233 -0.003702 0.004951
# 4 -0.002584 -0.016869 -0.011233 0.065518 0.018033 -0.013498
# 5 -0.001251 -0.005183 -0.003702 0.018033 0.041028 -0.003098
# 6 0.003807 0.008448 0.004951 -0.013498 -0.003098 0.034170
#
#
# Mechanical properties :
#
#
# Convention : Reuss Voigt Hill
#
# Bulk Modulus (GPa) = 25.36080 49.11781 37.23930
# Shear Modulus (GPa) = 26.18017 36.52906 31.35461
#
# Velocity S-wave (km/s) = 3.21706 3.80007 3.52065
# Velocity P-wave (km/s) = 4.88107 6.21861 5.58999
#
# Compressibility (1/GPa) = 0.03943093
#
# Stress axis : x y z
#
# Youngs Moduli (GPa) = 127.55764 59.85251 72.83027
#
# Poissons Ratio (x) = -0.03629 0.08602
# Poissons Ratio (y) = -0.07734 -0.08385
# Poissons Ratio (z) = 0.15065 -0.06891
#
# Static dielectric constant tensor:
#      x y z
#    x 2.044110 0.150010 -0.071140 
#    y 0.150010 2.296230 -0.026280 
#    z -0.071140 -0.026280 2.124330 
# 
# From -- ./inp_files/99440.got.cif
#   From: 2010.05.17/outbox.cif.g08.bks.cpg/sg2_50_cif.got.tgz:99440.got - 2010.06.03 11:33:40.
