data_PCOD9047723
_publ_section_title
;
Structure prediction by ZEFSAII (Michael W. Deem and Ramdas Pophale) SiO2 
 PCOD9047723
Probable space group: P -1
;
_chemical_formula_sum "Si O2"
_cell_formula_units_Z 16
_cell_length_a 5.154636
_cell_length_b 22.623059
_cell_length_c 19.563381
_cell_angle_alpha 20.682536
_cell_angle_beta 54.894983
_cell_angle_gamma 62.345720
_cell_volume 637.273759
_symmetry_space_group_name_H-M "P -1"
_symmetry_group_IT_number 2
_symmetry_cell_setting 'triclinic'
loop_
_space_group_symop_operation_xyz
x,y,z
-x,-y,-z
loop_
_atom_site_type_symbol
_atom_site_label
_atom_site_fract_x
_atom_site_fract_y
_atom_site_fract_z
Si Si1 0.614062 0.919037 0.137578
Si Si2 0.366343 0.730413 0.655129
Si Si3 0.220399 0.066930 0.275650
Si Si4 0.313669 0.798396 0.736402
Si Si5 0.904093 0.489471 0.179480
Si Si6 0.313161 0.624323 0.184069
Si Si7 0.050415 0.879237 0.371105
Si Si8 0.445560 0.512945 0.575021
O O1 0.362758 0.950579 0.199445
O O2 0.561042 0.712999 0.362321
O O3 0.500000 0.000000 0.000000
O O4 0.000000 0.000000 0.000000
O O5 0.447296 0.725955 0.727276
O O6 0.167557 0.555300 0.841139
O O7 0.682484 0.814770 0.468058
O O8 0.189619 0.885419 0.512679
O O9 0.058612 0.179205 0.228851
O O10 0.038227 0.013645 0.288320
O O11 0.569222 0.181309 0.073165
O O12 0.500000 0.000000 0.500000
O O13 0.240219 0.641035 0.972861
O O14 0.590037 0.535432 0.210174
O O15 0.918884 0.305071 0.405702
O O16 0.363029 0.596995 0.287637
O O17 0.950256 0.546321 0.295289
O O18 0.500000 0.500000 0.500000
#
# Coordination Sequence:
#
# PCOD9047723 Si02
#       8
#     2   2   2   2   2   2   2   2
#     4  12  29  47  75 105 146 188 241 304 361 430
#     4  11  23  43  70 101 141 185 244 292 350 435
#     4  10  25  41  70  99 140 188 233 293 352 429
#     4  11  22  45  66 105 143 184 236 296 365 419
#     4  10  24  44  69  99 139 193 235 293 350 434
#     4  11  25  46  72 103 146 189 241 293 364 438
#     4  11  24  45  71 100 139 188 241 285 363 427
#     4  12  27  46  72 107 143 182 241 303 371 434
#
# _framework density 25.106953000000001
#
# number of rings (size 3 to 8) (size 9 to 14) (size 15 to 20)
#    0.000    1.000    2.500    2.625    8.750    0.500 
#    4.500    0.000    0.000    0.000    0.000    0.000 
#    0.000    0.000    0.000    0.000    0.000    0.000 
#
# Total GULP energy -89349.003718 kJ/mol
# GULP energy per Si atom -5584.312732 kJ/mol
# Density = 2.504981 g / cm^3
# Si number density = 25.106953 Si / 1000 Ang^3
#
#
#
# Elastic Constant Matrix: (Units=GPa)
#
#
# Indices 1 2 3 4 5 6 
#
# 1 94.0183 3.9712 42.8610 8.9958 -17.4771 0.2290
# 2 3.9712 102.9607 26.1072 16.0071 -5.1675 6.3033
# 3 42.8610 26.1072 149.3904 10.6862 -38.3888 7.3344
# 4 8.9958 16.0071 10.6862 41.2980 -2.9477 -0.5251
# 5 -17.4771 -5.1675 -38.3888 -2.9477 41.8227 0.2613
# 6 0.2290 6.3033 7.3344 -0.5251 0.2613 25.2788
#
#
#
# Elastic Compliance Matrix: (Units=1/GPa)
#
#
# Indices 1 2 3 4 5 6 
#
# 1 0.012623 0.000682 -0.002983 -0.002059 0.002472 0.000513
# 2 0.000682 0.010876 -0.001768 -0.003954 -0.000258 -0.002285
# 3 -0.002983 -0.001768 0.010012 -0.000739 0.007688 -0.002532
# 4 -0.002059 -0.003954 -0.000739 0.026396 -0.000178 0.001769
# 5 0.002472 -0.000258 0.007688 -0.000178 0.031972 -0.002523
# 6 0.000513 -0.002285 -0.002532 0.001769 -0.002523 0.040921
#
#
# Mechanical properties :
#
#
# Convention : Reuss Voigt Hill
#
# Bulk Modulus (GPa) = 39.41192 54.69424 47.05308
# Shear Modulus (GPa) = 33.46830 39.90856 36.68843
#
# Velocity S-wave (km/s) = 3.65503 3.99123 3.82682
# Velocity P-wave (km/s) = 5.79172 6.56290 6.18933
#
# Compressibility (1/GPa) = 0.02537304
#
# Stress axis : x y z
#
# Youngs Moduli (GPa) = 79.22150 91.94523 99.88497
#
# Poissons Ratio (x) = -0.06275 0.29799
# Poissons Ratio (y) = -0.05406 0.17657
# Poissons Ratio (z) = 0.23635 0.16254
#
# Static dielectric constant tensor:
#      x y z
#    x 2.107100 0.023220 0.038010 
#    y 0.023220 2.030020 0.024420 
#    z 0.038010 0.024420 2.013270 
# 
# From -- ./inp_files/46601.got.cif
#   From: 2010.05.17/outbox.cif.g08.bks.cpg/sg2_24_cif.got.tgz:46601.got - 2010.06.03 11:33:40.
