data_PCOD9047266
_publ_section_title
;
Structure prediction by ZEFSAII (Michael W. Deem and Ramdas Pophale) SiO2 
 PCOD9047266
Probable space group: P -1
;
_chemical_formula_sum "Si O2"
_cell_formula_units_Z 16
_cell_length_a 15.093055
_cell_length_b 8.061211
_cell_length_c 16.003081
_cell_angle_alpha 108.383311
_cell_angle_beta 26.407501
_cell_angle_gamma 90.226669
_cell_volume 617.451060
_symmetry_space_group_name_H-M "P -1"
_symmetry_group_IT_number 2
_symmetry_cell_setting 'triclinic'
loop_
_space_group_symop_operation_xyz
x,y,z
-x,-y,-z
loop_
_atom_site_type_symbol
_atom_site_label
_atom_site_fract_x
_atom_site_fract_y
_atom_site_fract_z
Si Si1 0.375563 0.721940 0.581621
Si Si2 0.868381 0.509261 0.028378
Si Si3 0.900032 0.882130 0.349054
Si Si4 0.212753 0.073859 0.914463
Si Si5 0.960856 0.477227 0.686057
Si Si6 0.774536 0.959420 0.921479
Si Si7 0.843437 0.850265 0.667424
Si Si8 0.643808 0.230981 0.754348
O O1 0.500000 0.500000 0.500000
O O2 0.572904 0.621517 0.321051
O O3 0.358092 0.901918 0.685003
O O4 0.077762 0.848532 0.825020
O O5 0.836414 0.694766 0.025501
O O6 0.057256 0.245875 0.792892
O O7 0.000000 0.500000 0.000000
O O8 0.943946 0.703067 0.349929
O O9 0.119116 0.908762 0.164877
O O10 0.660157 0.126879 0.633090
O O11 0.359094 0.952314 0.859870
O O12 0.962599 0.681443 0.736274
O O13 0.124886 0.343703 0.442910
O O14 0.664479 0.572543 0.937352
O O15 0.678876 0.952799 0.908964
O O16 0.142820 0.737780 0.423692
O O17 0.749336 0.047640 0.710947
#
# Coordination Sequence:
#
# PCOD9047266 Si02
#       8
#     2   2   2   2   2   2   2   2
#     4  11  24  45  70 100 132 177 227 280 341 408
#     4  12  24  45  72  98 136 181 225 284 343 401
#     4  10  24  44  61  96 137 167 217 283 326 392
#     4  11  25  46  68 101 138 177 227 278 343 412
#     4  11  21  41  67  95 126 174 225 261 336 401
#     4  11  23  42  65  95 135 170 217 277 332 399
#     4   9  20  39  62  93 133 168 212 278 322 391
#     4   9  20  40  67  93 129 173 220 268 331 395
#
# _framework density 25.912983000000001
#
# number of rings (size 3 to 8) (size 9 to 14) (size 15 to 20)
#    0.000    1.500    2.500    2.625    1.750    3.500 
#    2.250    6.250    0.000    0.000    0.000    0.000 
#    0.000    0.000    0.000    0.000    0.000    0.000 
#
# Total GULP energy -89410.909802 kJ/mol
# GULP energy per Si atom -5588.181863 kJ/mol
# Density = 2.585400 g / cm^3
# Si number density = 25.912983 Si / 1000 Ang^3
#
#
#
# Elastic Constant Matrix: (Units=GPa)
#
#
# Indices 1 2 3 4 5 6 
#
# 1 117.5351 21.2463 55.5117 -0.6628 39.5725 7.6818
# 2 21.2463 108.3956 10.1511 -14.1358 15.6492 7.9138
# 3 55.5117 10.1511 129.4882 -1.6719 4.2817 6.8974
# 4 -0.6628 -14.1358 -1.6719 37.9505 5.3726 14.3369
# 5 39.5725 15.6492 4.2817 5.3726 50.6031 -5.8350
# 6 7.6818 7.9138 6.8974 14.3369 -5.8350 41.2945
#
#
#
# Elastic Compliance Matrix: (Units=1/GPa)
#
#
# Indices 1 2 3 4 5 6 
#
# 1 0.016233 0.000216 -0.006205 0.003961 -0.013265 -0.005274
# 2 0.000216 0.011199 -0.000445 0.006803 -0.004913 -0.005168
# 3 -0.006205 -0.000445 0.010255 -0.000535 0.004215 0.000308
# 4 0.003961 0.006803 -0.000535 0.036593 -0.010909 -0.016197
# 5 -0.013265 -0.004913 0.004215 -0.010909 0.033755 0.011262
# 6 -0.005274 -0.005168 0.000308 -0.016197 0.011262 0.033351
#
#
# Mechanical properties :
#
#
# Convention : Reuss Voigt Hill
#
# Bulk Modulus (GPa) = 40.29291 58.80414 49.54853
# Shear Modulus (GPa) = 30.76413 43.87028 37.31721
#
# Velocity S-wave (km/s) = 3.44933 4.11905 3.79898
# Velocity P-wave (km/s) = 5.60775 6.73530 6.19723
#
# Compressibility (1/GPa) = 0.02481826
#
# Stress axis : x y z
#
# Youngs Moduli (GPa) = 61.60291 89.29692 97.51229
#
# Poissons Ratio (x) = -0.01929 0.60510
# Poissons Ratio (y) = -0.01331 0.04339
# Poissons Ratio (z) = 0.38227 0.03973
#
# Static dielectric constant tensor:
#      x y z
#    x 2.095380 -0.015120 -0.012270 
#    y -0.015120 1.964600 -0.008880 
#    z -0.012270 -0.008880 2.140670 
# 
# From -- ./inp_files/529875.got.cif
#   From: 2010.05.17/outbox.cif.g08.bks.cpg/sg2_265_cif.got.tgz:529875.got - 2010.06.03 11:33:40.
