data_PCOD9047286
_publ_section_title
;
Structure prediction by ZEFSAII (Michael W. Deem and Ramdas Pophale) SiO2 
 PCOD9047286
Probable space group: P -1
;
_chemical_formula_sum "Si O2"
_cell_formula_units_Z 16
_cell_length_a 11.687982
_cell_length_b 7.719634
_cell_length_c 21.242525
_cell_angle_alpha 123.228215
_cell_angle_beta 23.570469
_cell_angle_gamma 119.917096
_cell_volume 641.073252
_symmetry_space_group_name_H-M "P -1"
_symmetry_group_IT_number 2
_symmetry_cell_setting 'triclinic'
loop_
_space_group_symop_operation_xyz
x,y,z
-x,-y,-z
loop_
_atom_site_type_symbol
_atom_site_label
_atom_site_fract_x
_atom_site_fract_y
_atom_site_fract_z
Si Si1 0.977711 0.470302 0.701830
Si Si2 0.649181 0.178360 0.735192
Si Si3 0.904307 0.547577 0.897677
Si Si4 0.207845 0.891310 0.644624
Si Si5 0.146886 0.295420 0.300126
Si Si6 0.754841 0.168369 0.142347
Si Si7 0.379190 0.573018 0.328693
Si Si8 0.026213 0.249018 0.889391
O O1 0.919468 0.245817 0.655088
O O2 0.917640 0.462672 0.803869
O O3 0.756876 0.601332 0.793683
O O4 0.228410 0.644623 0.601370
O O5 0.686480 0.269213 0.664362
O O6 0.361931 0.291412 0.930477
O O7 0.548936 0.941983 0.732230
O O8 0.196657 0.667046 0.793911
O O9 0.889392 0.375877 0.925884
O O10 0.988454 0.912738 0.699754
O O11 0.500000 0.000000 0.500000
O O12 0.072702 0.014326 0.795645
O O13 0.359716 0.350252 0.259021
O O14 0.864661 0.413634 0.493254
O O15 0.866007 0.255768 0.037603
O O16 0.000000 0.000000 0.000000
O O17 0.664268 0.656028 0.232648
#
# Coordination Sequence:
#
# PCOD9047286 Si02
#       8
#     2   2   2   2   2   2   2   2
#     4   9  20  38  55  78 114 148 185 222 277 329
#     4  10  20  36  59  78 110 152 189 224 267 339
#     4  11  22  34  54  85 117 146 180 232 281 327
#     4  10  19  35  58  84 104 144 190 229 265 335
#     4   8  19  33  58  81 100 139 191 230 258 326
#     4  10  20  34  54  81 107 148 192 219 267 334
#     4  10  17  34  57  81 106 138 183 232 275 308
#     4  12  21  34  54  86 118 141 181 236 283 320
#
# _framework density 24.958145999999999
#
# number of rings (size 3 to 8) (size 9 to 14) (size 15 to 20)
#    0.750    1.250    3.750    2.250    0.000    0.000 
#    0.000    6.250    0.000    0.000    0.000    8.750 
#    0.000    0.000    0.000    0.000    0.000    0.000 
#
# Total GULP energy -89094.317805 kJ/mol
# GULP energy per Si atom -5568.394863 kJ/mol
# Density = 2.490134 g / cm^3
# Si number density = 24.958146 Si / 1000 Ang^3
#
#
#
# Elastic Constant Matrix: (Units=GPa)
#
#
# Indices 1 2 3 4 5 6 
#
# 1 159.8944 39.9966 54.4052 3.8918 26.1372 17.2690
# 2 39.9966 82.5259 34.4818 -20.3379 -10.4223 34.3310
# 3 54.4052 34.4818 56.5879 -15.9126 8.5755 14.3989
# 4 3.8918 -20.3379 -15.9126 31.0280 10.2378 3.3518
# 5 26.1372 -10.4223 8.5755 10.2378 32.3306 -6.9219
# 6 17.2690 34.3310 14.3989 3.3518 -6.9219 56.8564
#
#
#
# Elastic Compliance Matrix: (Units=1/GPa)
#
#
# Indices 1 2 3 4 5 6 
#
# 1 0.011980 -0.004979 -0.010593 -0.008645 -0.005334 0.001911
# 2 -0.004979 0.026599 -0.004682 0.015079 0.006177 -0.013500
# 3 -0.010593 -0.004682 0.041724 0.024955 -0.013552 -0.007644
# 4 -0.008645 0.015079 0.024955 0.064378 -0.019209 -0.018933
# 5 -0.005334 0.006177 -0.013552 -0.019209 0.048706 0.008384
# 6 0.001911 -0.013500 -0.007644 -0.018933 0.008384 0.029232
#
#
# Mechanical properties :
#
#
# Convention : Reuss Voigt Hill
#
# Bulk Modulus (GPa) = 25.12809 61.86393 43.49601
# Shear Modulus (GPa) = 18.09034 35.38466 26.73750
#
# Velocity S-wave (km/s) = 2.69518 3.76940 3.27661
# Velocity P-wave (km/s) = 4.44694 6.61705 5.63741
#
# Compressibility (1/GPa) = 0.03979610
#
# Stress axis : x y z
#
# Youngs Moduli (GPa) = 83.47408 37.59570 23.96681
#
# Poissons Ratio (x) = 0.18720 0.25387
# Poissons Ratio (y) = 0.41564 0.11220
# Poissons Ratio (z) = 0.88420 0.17601
#
# Static dielectric constant tensor:
#      x y z
#    x 2.016730 0.043970 -0.092500 
#    y 0.043970 2.130950 0.006810 
#    z -0.092500 0.006810 2.011870 
# 
# From -- ./inp_files/593268.got.cif
#   From: 2010.05.17/outbox.cif.g08.bks.cpg/sg2_297_cif.got.tgz:593268.got - 2010.06.03 11:33:40.
