data_PCOD9047455
_publ_section_title
;
Structure prediction by ZEFSAII (Michael W. Deem and Ramdas Pophale) SiO2 
 PCOD9047455
Probable space group: P -1
;
_chemical_formula_sum "Si O2"
_cell_formula_units_Z 15
_cell_length_a 13.841219
_cell_length_b 17.557729
_cell_length_c 11.336709
_cell_angle_alpha 44.809361
_cell_angle_beta 135.712704
_cell_angle_gamma 159.046295
_cell_volume 678.640192
_symmetry_space_group_name_H-M "P -1"
_symmetry_group_IT_number 2
_symmetry_cell_setting 'triclinic'
loop_
_space_group_symop_operation_xyz
x,y,z
-x,-y,-z
loop_
_atom_site_type_symbol
_atom_site_label
_atom_site_fract_x
_atom_site_fract_y
_atom_site_fract_z
Si Si1 0.954826 0.140497 0.686962
Si Si2 0.398428 0.069235 0.174052
Si Si3 0.444196 0.053980 0.634736
Si Si4 0.495854 0.369628 0.629134
Si Si5 0.100255 0.481549 0.010409
Si Si6 0.500000 0.000000 0.000000
Si Si7 0.575647 0.383009 0.409473
Si Si8 0.029909 0.975716 0.811240
O O1 0.176058 0.371713 0.680090
O O2 0.076465 0.105390 0.802424
O O3 0.697143 0.961153 0.746820
O O4 0.845822 0.115677 0.496207
O O5 0.421032 0.956265 0.302604
O O6 0.691955 0.318497 0.117824
O O7 0.167748 0.962742 0.000785
O O8 0.603462 0.275495 0.522224
O O9 0.393210 0.982603 0.802218
O O10 0.500000 0.500000 0.500000
O O11 0.710996 0.471817 0.801295
O O12 0.556653 0.375829 0.542736
O O13 0.202802 0.122355 0.684924
O O14 0.823993 0.245533 0.974520
O O15 0.000000 0.500000 0.000000
O O16 0.292267 0.238376 0.265725
#
# Coordination Sequence:
#
# PCOD9047455 Si02
#       8
#     2   2   2   2   2   1   2   2
#     4  11  24  49  68  96 142 187 225 279 337 405
#     4  11  25  47  69  99 142 181 227 281 341 407
#     4  11  26  43  68 102 135 179 228 278 343 402
#     4  11  22  42  69  97 137 177 223 282 349 397
#     4  11  24  44  65  99 134 174 226 283 343 397
#     4  12  24  42  70  98 136 170 220 286 342 392
#     4  11  24  42  70  99 139 180 225 285 332 410
#     4  10  24  44  67 103 134 177 233 279 341 401
#
# _framework density 22.103024000000001
#
# number of rings (size 3 to 8) (size 9 to 14) (size 15 to 20)
#    0.000    1.067    2.667    2.800    5.600    2.133 
#    4.800    0.000    0.000    0.000    0.000    0.000 
#    0.000    0.000    0.000    0.000    0.000    0.000 
#
# Total GULP energy -83660.649414 kJ/mol
# GULP energy per Si atom -5577.376628 kJ/mol
# Density = 2.205272 g / cm^3
# Si number density = 22.103024 Si / 1000 Ang^3
#
#
#
# Elastic Constant Matrix: (Units=GPa)
#
#
# Indices 1 2 3 4 5 6 
#
# 1 69.3527 21.8970 8.7069 -14.9714 10.9000 13.3351
# 2 21.8970 124.1386 38.7292 1.3262 4.3698 12.4708
# 3 8.7069 38.7292 57.6146 11.1941 13.4810 4.1989
# 4 -14.9714 1.3262 11.1941 18.4989 1.6600 -2.3352
# 5 10.9000 4.3698 13.4810 1.6600 46.8660 -9.9644
# 6 13.3351 12.4708 4.1989 -2.3352 -9.9644 30.2623
#
#
#
# Elastic Compliance Matrix: (Units=1/GPa)
#
#
# Indices 1 2 3 4 5 6 
#
# 1 0.022721 -0.001834 -0.003895 0.020296 -0.006701 -0.009356
# 2 -0.001834 0.010874 -0.007491 0.001905 0.001044 -0.002143
# 3 -0.003895 -0.007491 0.028525 -0.019647 -0.006503 -0.002812
# 4 0.020296 0.001905 -0.019647 0.082272 -0.002473 -0.001468
# 5 -0.006701 0.001044 -0.006503 -0.002473 0.027360 0.012243
# 6 -0.009356 -0.002143 -0.002812 -0.001468 0.012243 0.042358
#
#
# Mechanical properties :
#
#
# Convention : Reuss Voigt Hill
#
# Bulk Modulus (GPa) = 28.02618 43.30803 35.66711
# Shear Modulus (GPa) = 19.80657 31.24362 25.52509
#
# Velocity S-wave (km/s) = 2.99674 3.76379 3.40196
# Velocity P-wave (km/s) = 4.96803 6.20681 5.62164
#
# Compressibility (1/GPa) = 0.03568092
#
# Stress axis : x y z
#
# Youngs Moduli (GPa) = 44.01300 91.96100 35.05752
#
# Poissons Ratio (x) = 0.16863 0.13653
# Poissons Ratio (y) = 0.08071 0.26261
# Poissons Ratio (z) = 0.17141 0.68887
#
# Static dielectric constant tensor:
#      x y z
#    x 1.809160 -0.025260 -0.002460 
#    y -0.025260 1.807660 -0.016120 
#    z -0.002460 -0.016120 1.790310 
# 
# From -- ./inp_files/456682.got.cif
#   From: 2010.05.17/outbox.cif.g08.bks.cpg/sg2_229_cif.got.tgz:456682.got - 2010.06.03 11:33:40.
