data_PCOD9047440
_publ_section_title
;
Structure prediction by ZEFSAII (Michael W. Deem and Ramdas Pophale) SiO2 
 PCOD9047440
Probable space group: P -1
;
_chemical_formula_sum "Si O2"
_cell_formula_units_Z 12
_cell_length_a 10.857949
_cell_length_b 8.505722
_cell_length_c 12.586437
_cell_angle_alpha 39.476501
_cell_angle_beta 123.845861
_cell_angle_gamma 96.660409
_cell_volume 493.529185
_symmetry_space_group_name_H-M "P -1"
_symmetry_group_IT_number 2
_symmetry_cell_setting 'triclinic'
loop_
_space_group_symop_operation_xyz
x,y,z
-x,-y,-z
loop_
_atom_site_type_symbol
_atom_site_label
_atom_site_fract_x
_atom_site_fract_y
_atom_site_fract_z
Si Si1 0.486214 0.151714 0.751132
Si Si2 0.046932 0.219834 0.356075
Si Si3 0.853884 0.356934 0.768145
Si Si4 0.800884 0.829823 0.237006
Si Si5 0.461676 0.768549 0.763349
Si Si6 0.779940 0.406466 0.954511
O O1 0.339556 0.503500 0.457619
O O2 0.351701 0.148701 0.773203
O O3 0.512316 0.953562 0.763662
O O4 0.682591 0.991321 0.986507
O O5 0.069105 0.441285 0.325375
O O6 0.246763 0.982641 0.525011
O O7 0.000000 0.000000 0.500000
O O8 0.901314 0.430898 0.085288
O O9 0.811604 0.421379 0.839237
O O10 0.000000 0.000000 0.000000
O O11 0.000000 0.500000 0.500000
O O12 0.835788 0.066570 0.175123
O O13 0.573453 0.640067 0.775671
O O14 0.500000 0.500000 0.000000
#
# Coordination Sequence:
#
# PCOD9047440 Si02
#       6
#     2   2   2   2   2   2
#     4  10  24  44  67 100 145 187 243 295 351 433
#     4  11  24  45  77 105 142 190 248 301 356 427
#     4  11  26  49  71 107 153 196 236 298 375 435
#     4  11  24  42  70 103 138 191 244 296 358 428
#     4  11  22  42  70 106 139 181 244 301 353 426
#     4  12  25  42  71 105 143 191 240 297 368 429
#
# _framework density 24.314672000000002
#
# number of rings (size 3 to 8) (size 9 to 14) (size 15 to 20)
#    0.000    1.000    3.333    2.500    2.333    8.667 
#    0.000    3.333    0.000    0.000    0.000    0.000 
#    0.000    0.000    0.000    0.000    0.000    0.000 
#
# Total GULP energy -67088.219997 kJ/mol
# GULP energy per Si atom -5590.685000 kJ/mol
# Density = 2.425933 g / cm^3
# Si number density = 24.314672 Si / 1000 Ang^3
#
#
#
# Elastic Constant Matrix: (Units=GPa)
#
#
# Indices 1 2 3 4 5 6 
#
# 1 110.3621 44.3993 40.8540 -11.1422 8.4694 -17.7610
# 2 44.3993 82.9502 48.4346 -0.5510 14.4397 -7.8489
# 3 40.8540 48.4346 154.9397 -9.2160 5.6555 0.5178
# 4 -11.1422 -0.5510 -9.2160 57.7608 -7.6055 2.7210
# 5 8.4694 14.4397 5.6555 -7.6055 26.1453 3.2346
# 6 -17.7610 -7.8489 0.5178 2.7210 3.2346 44.2668
#
#
#
# Elastic Compliance Matrix: (Units=1/GPa)
#
#
# Indices 1 2 3 4 5 6 
#
# 1 0.012697 -0.005353 -0.001549 0.001853 -0.000790 0.004107
# 2 -0.005353 0.019289 -0.004465 -0.002855 -0.009051 0.002161
# 3 -0.001549 -0.004465 0.008277 0.001293 0.001766 -0.001719
# 4 0.001853 -0.002855 0.001293 0.018747 0.006322 -0.001392
# 5 -0.000790 -0.009051 0.001766 0.006322 0.045661 -0.005668
# 6 0.004107 0.002161 -0.001719 -0.001392 -0.005668 0.025141
#
#
# Mechanical properties :
#
#
# Convention : Reuss Voigt Hill
#
# Bulk Modulus (GPa) = 57.05124 68.40309 62.72716
# Shear Modulus (GPa) = 31.56803 39.93886 35.75344
#
# Velocity S-wave (km/s) = 3.60712 4.05728 3.83880
# Velocity P-wave (km/s) = 6.39242 7.08111 6.74556
#
# Compressibility (1/GPa) = 0.01752810
#
# Stress axis : x y z
#
# Youngs Moduli (GPa) = 78.75989 51.84367 120.82383
#
# Poissons Ratio (x) = 0.27752 0.18717
# Poissons Ratio (y) = 0.42160 0.53947
# Poissons Ratio (z) = 0.12201 0.23148
#
# Static dielectric constant tensor:
#      x y z
#    x 2.012130 0.068170 -0.067980 
#    y 0.068170 1.897210 0.029980 
#    z -0.067980 0.029980 2.004650 
# 
# From -- ./inp_files/511422.got.cif
#   From: 2010.05.17/outbox.cif.g08.bks.cpg/sg2_256_cif.got.tgz:511422.got - 2010.06.03 11:33:40.
