data_PCOD9047323
_publ_section_title
;
Structure prediction by ZEFSAII (Michael W. Deem and Ramdas Pophale) SiO2 
 PCOD9047323
Probable space group: P -1
;
_chemical_formula_sum "Si O2"
_cell_formula_units_Z 16
_cell_length_a 21.445719
_cell_length_b 18.883173
_cell_length_c 11.595388
_cell_angle_alpha 33.599648
_cell_angle_beta 149.030374
_cell_angle_gamma 161.222688
_cell_volume 771.446866
_symmetry_space_group_name_H-M "P -1"
_symmetry_group_IT_number 2
_symmetry_cell_setting 'triclinic'
loop_
_space_group_symop_operation_xyz
x,y,z
-x,-y,-z
loop_
_atom_site_type_symbol
_atom_site_label
_atom_site_fract_x
_atom_site_fract_y
_atom_site_fract_z
Si Si1 0.341429 0.751928 0.619589
Si Si2 0.667615 0.748873 0.383695
Si Si3 0.393535 0.613433 0.676591
Si Si4 0.097514 0.998390 0.812879
Si Si5 0.194807 0.164470 0.999849
Si Si6 0.446351 0.819351 0.966250
Si Si7 0.214810 0.693243 0.150213
Si Si8 0.019830 0.633420 0.143300
O O1 0.397786 0.686196 0.709962
O O2 0.380943 0.763511 0.801418
O O3 0.113887 0.613231 0.411773
O O4 0.500000 0.000000 0.500000
O O5 0.500000 0.500000 0.500000
O O6 0.713185 0.804135 0.243410
O O7 0.588710 0.817078 0.212007
O O8 0.892353 0.898947 0.583238
O O9 0.283958 0.384111 0.834923
O O10 0.271395 0.603034 0.412060
O O11 0.618048 0.773251 0.759098
O O12 0.137699 0.073139 0.904772
O O13 0.045959 0.802458 0.993570
O O14 0.000000 0.000000 0.000000
O O15 0.216555 0.602046 0.950323
O O16 0.572139 0.051106 0.898538
O O17 0.162172 0.736745 0.117389
O O18 0.000000 0.500000 0.000000
#
# Coordination Sequence:
#
# PCOD9047323 Si02
#       8
#     2   2   2   2   2   2   2   2
#     4  11  20  42  71  98 135 170 222 289 337 404
#     4  11  23  41  66 100 133 180 228 279 340 399
#     4  10  24  44  64  99 133 178 225 281 341 401
#     4  11  24  42  69  98 139 175 231 285 334 419
#     4  11  26  44  68 100 138 181 225 280 352 406
#     4  12  23  40  67 103 129 175 227 276 347 402
#     4  11  26  46  68  95 141 180 224 282 346 414
#     4  11  23  41  69 106 128 174 225 286 345 403
#
# _framework density 20.740248000000001
#
# number of rings (size 3 to 8) (size 9 to 14) (size 15 to 20)
#    0.000    1.000    5.000    1.875    3.500    4.500 
#    2.250    0.000    0.000    0.000    0.000    0.000 
#    0.000    0.000    0.000    0.000    0.000    0.000 
#
# Total GULP energy -89322.374263 kJ/mol
# GULP energy per Si atom -5582.648391 kJ/mol
# Density = 2.069304 g / cm^3
# Si number density = 20.740248 Si / 1000 Ang^3
#
#
#
# Elastic Constant Matrix: (Units=GPa)
#
#
# Indices 1 2 3 4 5 6 
#
# 1 56.3683 39.0023 23.4848 8.3984 5.5107 4.8963
# 2 39.0023 111.5482 34.7847 3.7429 4.3605 3.6938
# 3 23.4848 34.7847 106.8869 14.3931 23.1615 -7.7153
# 4 8.3984 3.7429 14.3931 32.1945 5.4643 3.0786
# 5 5.5107 4.3605 23.1615 5.4643 26.3372 -1.4727
# 6 4.8963 3.6938 -7.7153 3.0786 -1.4727 45.5134
#
#
#
# Elastic Compliance Matrix: (Units=1/GPa)
#
#
# Indices 1 2 3 4 5 6 
#
# 1 0.025003 -0.007763 -0.002310 -0.004177 -0.001171 -0.002207
# 2 -0.007763 0.012527 -0.003052 0.001693 0.001841 -0.000754
# 3 -0.002310 -0.003052 0.013766 -0.003730 -0.010189 0.002752
# 4 -0.004177 0.001693 -0.003730 0.034468 -0.003432 -0.002763
# 5 -0.001171 0.001841 -0.010189 -0.003432 0.047583 0.000021
# 6 -0.002207 -0.000754 0.002752 -0.002763 0.000021 0.022924
#
#
# Mechanical properties :
#
#
# Convention : Reuss Voigt Hill
#
# Bulk Modulus (GPa) = 39.92902 52.14965 46.03933
# Shear Modulus (GPa) = 26.19588 32.64446 29.42017
#
# Velocity S-wave (km/s) = 3.55779 3.97163 3.77039
# Velocity P-wave (km/s) = 6.01423 6.79930 6.41878
#
# Compressibility (1/GPa) = 0.02504444
#
# Stress axis : x y z
#
# Youngs Moduli (GPa) = 39.99579 79.82797 72.64513
#
# Poissons Ratio (x) = 0.61967 0.16783
# Poissons Ratio (y) = 0.31047 0.22175
# Poissons Ratio (z) = 0.09240 0.24367
#
# Static dielectric constant tensor:
#      x y z
#    x 1.751790 0.037880 -0.017790 
#    y 0.037880 1.769060 0.037720 
#    z -0.017790 0.037720 1.808890 
# 
# From -- ./inp_files/455855.got.cif
#   From: 2010.05.17/outbox.cif.g08.bks.cpg/sg2_228_cif.got.tgz:455855.got - 2010.06.03 11:33:40.
