data_PCOD9047130
_publ_section_title
;
Structure prediction by ZEFSAII (Michael W. Deem and Ramdas Pophale) SiO2 
 PCOD9047130
Probable space group: P -1
;
_chemical_formula_sum "Si O2"
_cell_formula_units_Z 16
_cell_length_a 14.225554
_cell_length_b 12.987657
_cell_length_c 18.000702
_cell_angle_alpha 30.145990
_cell_angle_beta 151.936209
_cell_angle_gamma 131.218644
_cell_volume 705.306420
_symmetry_space_group_name_H-M "P -1"
_symmetry_group_IT_number 2
_symmetry_cell_setting 'triclinic'
loop_
_space_group_symop_operation_xyz
x,y,z
-x,-y,-z
loop_
_atom_site_type_symbol
_atom_site_label
_atom_site_fract_x
_atom_site_fract_y
_atom_site_fract_z
Si Si1 0.671092 0.171361 0.329997
Si Si2 0.938200 0.858225 0.483186
Si Si3 0.414159 0.707094 0.091577
Si Si4 0.023806 0.711489 0.917181
Si Si5 0.639616 0.387633 0.325776
Si Si6 0.960612 0.070748 0.059777
Si Si7 0.238265 0.269062 0.878092
Si Si8 0.895045 0.446047 0.665047
O O1 0.577483 0.339746 0.229890
O O2 0.485114 0.184268 0.135777
O O3 0.874102 0.194568 0.416428
O O4 0.790976 0.923573 0.603809
O O5 0.937637 0.615014 0.646340
O O6 0.000000 0.000000 0.500000
O O7 0.689560 0.035912 0.172686
O O8 0.438513 0.539546 0.143757
O O9 0.652967 0.592547 0.368684
O O10 0.226692 0.720162 0.008993
O O11 0.066277 0.745538 0.010633
O O12 0.000000 0.500000 0.000000
O O13 0.772512 0.541282 0.307575
O O14 0.797647 0.147849 0.624781
O O15 0.918060 0.214711 0.864889
O O16 0.801562 0.946309 0.041061
O O17 0.070469 0.375400 0.763776
#
# Coordination Sequence:
#
# PCOD9047130 Si02
#       8
#     2   2   2   2   2   2   2   2
#     4  10  24  43  72 105 136 191 241 290 347 423
#     4  11  25  46  71 104 144 187 243 290 356 422
#     4  11  26  44  74 103 143 186 245 285 360 421
#     4  10  26  48  69  99 148 188 232 294 362 428
#     4  11  23  46  74 105 140 191 240 293 351 424
#     4  11  27  46  72 106 142 190 236 293 364 422
#     4  12  24  44  77 105 146 182 246 292 353 425
#     4  12  27  45  73 107 149 183 239 301 353 427
#
# _framework density 22.685176999999999
#
# number of rings (size 3 to 8) (size 9 to 14) (size 15 to 20)
#    0.000    1.000    2.500    2.250    7.000    2.500 
#    0.000    2.500    0.000    0.000    0.000    0.000 
#    0.000    0.000    0.000    0.000    0.000    0.000 
#
# Total GULP energy -89408.028080 kJ/mol
# GULP energy per Si atom -5588.001755 kJ/mol
# Density = 2.263354 g / cm^3
# Si number density = 22.685177 Si / 1000 Ang^3
#
#
#
# Elastic Constant Matrix: (Units=GPa)
#
#
# Indices 1 2 3 4 5 6 
#
# 1 64.0388 3.7468 47.1192 -13.8289 -3.0447 -17.4493
# 2 3.7468 113.3462 40.7335 -25.1056 -9.1746 -13.5390
# 3 47.1192 40.7335 102.8669 -2.0084 -4.2710 2.2788
# 4 -13.8289 -25.1056 -2.0084 34.7522 7.4609 2.0902
# 5 -3.0447 -9.1746 -4.2710 7.4609 36.1734 -8.0706
# 6 -17.4493 -13.5390 2.2788 2.0902 -8.0706 29.4046
#
#
#
# Elastic Compliance Matrix: (Units=1/GPa)
#
#
# Indices 1 2 3 4 5 6 
#
# 1 0.081946 0.036267 -0.051860 0.048218 0.015696 0.070227
# 2 0.036267 0.029691 -0.028229 0.029927 0.009526 0.037868
# 3 -0.051860 -0.028229 0.044642 -0.033446 -0.009974 -0.047592
# 4 0.048218 0.029927 -0.033446 0.064372 0.003663 0.041415
# 5 0.015696 0.009526 -0.009974 0.003663 0.034748 0.023750
# 6 0.070227 0.037868 -0.047592 0.041415 0.023750 0.100381
#
#
# Mechanical properties :
#
#
# Convention : Reuss Voigt Hill
#
# Bulk Modulus (GPa) = 14.56971 51.49456 33.03214
# Shear Modulus (GPa) = 10.72267 32.64286 21.68277
#
# Velocity S-wave (km/s) = 2.17646 3.79747 3.09498
# Velocity P-wave (km/s) = 3.57106 6.47893 5.23111
#
# Compressibility (1/GPa) = 0.06863553
#
# Stress axis : x y z
#
# Youngs Moduli (GPa) = 12.20319 33.67980 22.40063
#
# Poissons Ratio (x) = -1.22147 1.16169
# Poissons Ratio (y) = -0.44257 0.63234
# Poissons Ratio (z) = 0.63286 0.95074
#
# Static dielectric constant tensor:
#      x y z
#    x 1.813990 -0.035140 -0.032790 
#    y -0.035140 1.924490 0.000530 
#    z -0.032790 0.000530 1.861520 
# 
# From -- ./inp_files/306616.got.cif
#   From: 2010.05.17/outbox.cif.g08.bks.cpg/sg2_154_cif.got.tgz:306616.got - 2010.06.03 11:33:40.
