data_PCOD9047525
_publ_section_title
;
Structure prediction by ZEFSAII (Michael W. Deem and Ramdas Pophale) SiO2 
 PCOD9047525
Probable space group: P -1
;
_chemical_formula_sum "Si O2"
_cell_formula_units_Z 13
_cell_length_a 11.161477
_cell_length_b 8.404647
_cell_length_c 15.814020
_cell_angle_alpha 102.543652
_cell_angle_beta 40.461790
_cell_angle_gamma 70.089215
_cell_volume 565.728882
_symmetry_space_group_name_H-M "P -1"
_symmetry_group_IT_number 2
_symmetry_cell_setting 'triclinic'
loop_
_space_group_symop_operation_xyz
x,y,z
-x,-y,-z
loop_
_atom_site_type_symbol
_atom_site_label
_atom_site_fract_x
_atom_site_fract_y
_atom_site_fract_z
Si Si1 0.338817 0.699868 0.801101
Si Si2 0.794362 0.911328 0.663090
Si Si3 0.500000 0.500000 0.500000
Si Si4 0.664765 0.652031 0.761051
Si Si5 0.611879 0.098159 0.475913
Si Si6 0.760682 0.192897 0.854328
Si Si7 0.679186 0.642411 0.162562
O O1 0.491031 0.550006 0.612837
O O2 0.513358 0.716681 0.759645
O O3 0.310708 0.560648 0.860136
O O4 0.000000 0.000000 0.000000
O O5 0.764041 0.768925 0.718399
O O6 0.051983 0.676234 0.428781
O O7 0.878803 0.000944 0.689871
O O8 0.477327 0.182748 0.818473
O O9 0.435293 0.354357 0.543407
O O10 0.411993 0.800174 0.984933
O O11 0.543011 0.157338 0.618342
O O12 0.500000 0.000000 0.500000
O O13 0.965399 0.905117 0.257325
O O14 0.500000 0.500000 0.000000
O O15 0.000000 0.500000 0.000000
#
# Coordination Sequence:
#
# PCOD9047525 Si02
#       7
#     2   2   1   2   2   2   2
#     4  11  23  42  68 100 139 186 231 292 367 422
#     4  11  25  47  72 108 144 190 248 295 368 442
#     4  10  24  44  68 100 146 182 234 300 352 428
#     4  11  25  44  74 104 145 192 239 305 363 434
#     4  11  27  46  71 107 144 190 245 297 365 435
#     4  12  26  48  73 105 146 192 242 304 363 436
#     4  11  25  43  69 104 140 184 237 300 358 435
#
# _framework density 22.979205
#
# number of rings (size 3 to 8) (size 9 to 14) (size 15 to 20)
#    0.000    0.923    0.000    6.000    8.615    3.077 
#    2.769    0.000    0.000    0.000    0.000    0.000 
#    0.000    0.000    0.000    0.000    0.000    0.000 
#
# Total GULP energy -72457.551437 kJ/mol
# GULP energy per Si atom -5573.657803 kJ/mol
# Density = 2.292690 g / cm^3
# Si number density = 22.979205 Si / 1000 Ang^3
#
#
#
# Elastic Constant Matrix: (Units=GPa)
#
#
# Indices 1 2 3 4 5 6 
#
# 1 101.9073 44.8265 18.2400 5.4457 -7.1521 20.0894
# 2 44.8265 87.8986 10.3503 -4.7280 10.1543 16.9469
# 3 18.2400 10.3503 65.8296 -9.4562 -6.5637 -4.5346
# 4 5.4457 -4.7280 -9.4562 35.6700 -0.1525 -2.9295
# 5 -7.1521 10.1543 -6.5637 -0.1525 36.5344 -0.4631
# 6 20.0894 16.9469 -4.5346 -2.9295 -0.4631 46.3328
#
#
#
# Elastic Compliance Matrix: (Units=1/GPa)
#
#
# Indices 1 2 3 4 5 6 
#
# 1 0.014994 -0.007083 -0.003585 -0.004531 0.004184 -0.004506
# 2 -0.007083 0.016553 -0.001073 0.002720 -0.006206 -0.002979
# 3 -0.003585 -0.001073 0.017698 0.005442 0.002850 0.004052
# 4 -0.004531 0.002720 0.005442 0.030810 -0.000493 0.003445
# 5 0.004184 -0.006206 0.002850 -0.000493 0.030438 0.001008
# 6 -0.004506 -0.002979 0.004052 0.003445 0.001008 0.025251
#
#
# Mechanical properties :
#
#
# Convention : Reuss Voigt Hill
#
# Bulk Modulus (GPa) = 38.81640 44.71880 41.76760
# Shear Modulus (GPa) = 29.79494 35.85534 32.82514
#
# Velocity S-wave (km/s) = 3.60475 3.95440 3.78361
# Velocity P-wave (km/s) = 5.85271 6.35236 6.10765
#
# Compressibility (1/GPa) = 0.02576230
#
# Stress axis : x y z
#
# Youngs Moduli (GPa) = 66.69298 60.41293 56.50423
#
# Poissons Ratio (x) = 0.42789 0.20257
# Poissons Ratio (y) = 0.47237 0.06065
# Poissons Ratio (z) = 0.23909 0.06485
#
# Static dielectric constant tensor:
#      x y z
#    x 1.851040 0.025780 -0.016580 
#    y 0.025780 1.888660 0.053450 
#    z -0.016580 0.053450 1.953930 
# 
# From -- ./inp_files/263862.got.cif
#   From: 2010.05.17/outbox.cif.g08.bks.cpg/sg2_132_cif.got.tgz:263862.got - 2010.06.03 11:33:40.
