data_PCOD9047674
_publ_section_title
;
Structure prediction by ZEFSAII (Michael W. Deem and Ramdas Pophale) SiO2 
 PCOD9047674
Probable space group: P -1
;
_chemical_formula_sum "Si O2"
_cell_formula_units_Z 14
_cell_length_a 11.169757
_cell_length_b 11.306463
_cell_length_c 9.380470
_cell_angle_alpha 86.755986
_cell_angle_beta 27.716141
_cell_angle_gamma 83.241455
_cell_volume 544.235334
_symmetry_space_group_name_H-M "P -1"
_symmetry_group_IT_number 2
_symmetry_cell_setting 'triclinic'
loop_
_space_group_symop_operation_xyz
x,y,z
-x,-y,-z
loop_
_atom_site_type_symbol
_atom_site_label
_atom_site_fract_x
_atom_site_fract_y
_atom_site_fract_z
Si Si1 0.321757 0.201621 0.188308
Si Si2 0.164041 0.457161 0.690779
Si Si3 0.508373 0.400793 0.815919
Si Si4 0.002717 0.878179 0.919348
Si Si5 0.095947 0.607555 0.303273
Si Si6 0.206428 0.977238 0.416913
Si Si7 0.547012 0.723032 0.405259
O O1 0.025436 0.273133 0.490813
O O2 0.284664 0.108362 0.361441
O O3 0.477117 0.314197 0.987373
O O4 0.515304 0.106441 0.895390
O O5 0.220263 0.574337 0.537184
O O6 0.407603 0.375646 0.512571
O O7 0.039309 0.379866 0.710155
O O8 0.000000 0.500000 0.000000
O O9 0.386845 0.340578 0.813390
O O10 0.378586 0.535973 0.975242
O O11 0.056371 0.914324 0.698367
O O12 0.252536 0.786184 0.709699
O O13 0.743582 0.818790 0.211892
O O14 0.000000 0.000000 0.000000
O O15 0.000000 0.500000 0.500000
O O16 0.000000 0.000000 0.500000
#
# Coordination Sequence:
#
# PCOD9047674 Si02
#       7
#     2   2   2   2   2   2   2
#     4  10  24  44  69 103 144 189 255 306 379 436
#     4  12  26  42  74 110 149 202 251 303 387 462
#     4  11  23  45  73 107 150 196 249 307 385 451
#     4  12  29  49  78 112 152 200 258 320 382 447
#     4  10  25  44  70 105 150 188 251 307 379 448
#     4  11  25  45  77 100 144 198 258 309 381 445
#     4  12  26  47  76 108 155 196 249 313 379 457
#
# _framework density 25.724167000000001
#
# number of rings (size 3 to 8) (size 9 to 14) (size 15 to 20)
#    0.000    0.857    2.857    2.571    6.000    6.857 
#    0.000    0.000    0.000    0.000    0.000    0.000 
#    0.000    0.000    0.000    0.000    0.000    0.000 
#
# Total GULP energy -78065.284710 kJ/mol
# GULP energy per Si atom -5576.091765 kJ/mol
# Density = 2.566562 g / cm^3
# Si number density = 25.724167 Si / 1000 Ang^3
#
#
#
# Elastic Constant Matrix: (Units=GPa)
#
#
# Indices 1 2 3 4 5 6 
#
# 1 120.1295 34.7069 13.3523 15.4884 5.7283 -0.7525
# 2 34.7069 166.2568 28.4684 14.6036 4.2156 -6.6097
# 3 13.3523 28.4684 93.4253 0.4234 -2.8720 2.1235
# 4 15.4884 14.6036 0.4234 63.0142 -9.9519 -1.9821
# 5 5.7283 4.2156 -2.8720 -9.9519 28.0683 -2.0598
# 6 -0.7525 -6.6097 2.1235 -1.9821 -2.0598 48.7591
#
#
#
# Elastic Compliance Matrix: (Units=1/GPa)
#
#
# Indices 1 2 3 4 5 6 
#
# 1 0.009292 -0.001517 -0.000930 -0.002346 -0.002612 -0.000227
# 2 -0.001517 0.006852 -0.001926 -0.001387 -0.001344 0.000876
# 3 -0.000930 -0.001926 0.011494 0.000880 0.001919 -0.000659
# 4 -0.002346 -0.001387 0.000880 0.017921 0.007188 0.000770
# 5 -0.002612 -0.001344 0.001919 0.007188 0.039228 0.001643
# 6 -0.000227 0.000876 -0.000659 0.000770 0.001643 0.020754
#
#
# Mechanical properties :
#
#
# Convention : Reuss Voigt Hill
#
# Bulk Modulus (GPa) = 52.93673 59.20743 56.07208
# Shear Modulus (GPa) = 41.46524 48.18724 44.82624
#
# Velocity S-wave (km/s) = 4.01923 4.33278 4.17894
# Velocity P-wave (km/s) = 6.49324 6.93519 6.71785
#
# Compressibility (1/GPa) = 0.01889047
#
# Stress axis : x y z
#
# Youngs Moduli (GPa) = 107.62399 145.94197 87.00526
#
# Poissons Ratio (x) = 0.22142 0.08093
# Poissons Ratio (y) = 0.16329 0.16758
# Poissons Ratio (z) = 0.10010 0.28109
#
# Static dielectric constant tensor:
#      x y z
#    x 2.140490 0.059130 -0.060640 
#    y 0.059130 2.035310 0.024970 
#    z -0.060640 0.024970 2.177610 
# 
# From -- ./inp_files/262350.got.cif
#   From: 2010.05.17/outbox.cif.g08.bks.cpg/sg2_132_cif.got.tgz:262350.got - 2010.06.03 11:33:40.
