data_PCOD9047602
_publ_section_title
;
Structure prediction by ZEFSAII (Michael W. Deem and Ramdas Pophale) SiO2 
 PCOD9047602
Probable space group: P -1
;
_chemical_formula_sum "Si O2"
_cell_formula_units_Z 14
_cell_length_a 7.264217
_cell_length_b 9.558017
_cell_length_c 11.139706
_cell_angle_alpha 98.950737
_cell_angle_beta 74.137432
_cell_angle_gamma 131.798899
_cell_volume 554.257508
_symmetry_space_group_name_H-M "P -1"
_symmetry_group_IT_number 2
_symmetry_cell_setting 'triclinic'
loop_
_space_group_symop_operation_xyz
x,y,z
-x,-y,-z
loop_
_atom_site_type_symbol
_atom_site_label
_atom_site_fract_x
_atom_site_fract_y
_atom_site_fract_z
Si Si1 0.897631 0.531755 0.861814
Si Si2 0.239043 0.006980 0.450216
Si Si3 0.400048 0.255379 0.058700
Si Si4 0.905968 0.135869 0.007186
Si Si5 0.011488 0.350364 0.414743
Si Si6 0.523366 0.630194 0.658045
Si Si7 0.998176 0.260886 0.757378
O O1 0.114362 0.712800 0.925905
O O2 0.946427 0.604339 0.727421
O O3 0.916650 0.374238 0.830346
O O4 0.630484 0.430788 0.962622
O O5 0.210837 0.871356 0.538728
O O6 0.197417 0.901027 0.320760
O O7 0.465319 0.228031 0.413549
O O8 0.000000 0.000000 0.500000
O O9 0.119226 0.181261 0.066933
O O10 0.445733 0.301501 0.198705
O O11 0.352531 0.074098 0.991001
O O12 0.030638 0.184763 0.860036
O O13 0.257519 0.376263 0.407874
O O14 0.000000 0.500000 0.500000
O O15 0.264669 0.418736 0.669470
#
# Coordination Sequence:
#
# PCOD9047602 Si02
#       7
#     2   2   2   2   2   2   2
#     4  12  24  42  65 101 137 170 219 280 332 392
#     4  10  24  44  68  94 133 178 226 272 323 394
#     4  11  23  40  69 100 132 172 215 281 338 393
#     4  11  23  40  66 102 130 170 221 271 344 396
#     4  11  23  46  69  92 136 179 222 275 327 392
#     4  11  23  44  73  96 134 178 222 274 336 397
#     4  12  24  41  69  99 134 177 223 272 338 398
#
# _framework density 25.259015999999999
#
# number of rings (size 3 to 8) (size 9 to 14) (size 15 to 20)
#    0.000    0.857    5.714    1.714    0.000    4.000 
#    0.000    2.143    0.000    0.000    0.000    0.000 
#    0.000    0.000    0.000    0.000    0.000    0.000 
#
# Total GULP energy -78271.411895 kJ/mol
# GULP energy per Si atom -5590.815135 kJ/mol
# Density = 2.520153 g / cm^3
# Si number density = 25.259016 Si / 1000 Ang^3
#
#
#
# Elastic Constant Matrix: (Units=GPa)
#
#
# Indices 1 2 3 4 5 6 
#
# 1 63.6564 26.6978 30.5825 -9.3928 -9.0805 -11.3746
# 2 26.6978 177.5597 63.6381 -13.8070 0.6897 -7.3584
# 3 30.5825 63.6381 161.3271 -11.8178 19.3367 -11.8452
# 4 -9.3928 -13.8070 -11.8178 65.1432 -9.7305 -0.1424
# 5 -9.0805 0.6897 19.3367 -9.7305 39.3898 -3.8536
# 6 -11.3746 -7.3584 -11.8452 -0.1424 -3.8536 42.2866
#
#
#
# Elastic Compliance Matrix: (Units=1/GPa)
#
#
# Indices 1 2 3 4 5 6 
#
# 1 0.020530 -0.001334 -0.003707 0.003188 0.007851 0.004978
# 2 -0.001334 0.006796 -0.002466 0.000957 0.001043 0.000231
# 3 -0.003707 -0.002466 0.008490 -0.000262 -0.004996 0.000496
# 4 0.003188 0.000957 -0.000262 0.016735 0.005125 0.001474
# 5 0.007851 0.001043 -0.004996 0.005125 0.031265 0.003760
# 6 0.004978 0.000231 0.000496 0.001474 0.003760 0.025514
#
#
# Mechanical properties :
#
#
# Convention : Reuss Voigt Hill
#
# Bulk Modulus (GPa) = 48.07474 71.59780 59.83627
# Shear Modulus (GPa) = 38.08686 48.13890 43.11288
#
# Velocity S-wave (km/s) = 3.88732 4.37029 4.13586
# Velocity P-wave (km/s) = 6.26278 7.33982 6.82258
#
# Compressibility (1/GPa) = 0.02080095
#
# Stress axis : x y z
#
# Youngs Moduli (GPa) = 48.70930 147.13946 117.78484
#
# Poissons Ratio (x) = 0.19635 0.43668
# Poissons Ratio (y) = 0.06500 0.29044
# Poissons Ratio (z) = 0.18058 0.36283
#
# Static dielectric constant tensor:
#      x y z
#    x 2.118990 -0.083760 -0.021320 
#    y -0.083760 2.085650 -0.047390 
#    z -0.021320 -0.047390 2.009350 
# 
# From -- ./inp_files/188832.got.cif
#   From: 2010.05.17/outbox.cif.g08.bks.cpg/sg2_95_cif.got.tgz:188832.got - 2010.06.03 11:33:40.
