data_PCOD9047033
_publ_section_title
;
Structure prediction by ZEFSAII (Michael W. Deem and Ramdas Pophale) SiO2 
 PCOD9047033
Probable space group: P -1
;
_chemical_formula_sum "Si O2"
_cell_formula_units_Z 16
_cell_length_a 13.407783
_cell_length_b 7.085908
_cell_length_c 12.580901
_cell_angle_alpha 89.064406
_cell_angle_beta 144.757071
_cell_angle_gamma 96.080726
_cell_volume 680.690424
_symmetry_space_group_name_H-M "P -1"
_symmetry_group_IT_number 2
_symmetry_cell_setting 'triclinic'
loop_
_space_group_symop_operation_xyz
x,y,z
-x,-y,-z
loop_
_atom_site_type_symbol
_atom_site_label
_atom_site_fract_x
_atom_site_fract_y
_atom_site_fract_z
Si Si1 0.678326 0.440532 0.199506
Si Si2 0.753812 0.589629 0.688644
Si Si3 0.072058 0.897513 0.941647
Si Si4 0.770069 0.395046 0.048441
Si Si5 0.323041 0.857675 0.628698
Si Si6 0.645601 0.694823 0.356267
Si Si7 0.064411 0.719073 0.232641
Si Si8 0.415391 0.124981 0.338399
O O1 0.789809 0.432317 0.190877
O O2 0.642066 0.237582 0.229225
O O3 0.735623 0.589468 0.342594
O O4 0.848230 0.258142 0.574995
O O5 0.707889 0.643493 0.527491
O O6 0.615772 0.671302 0.642958
O O7 0.801949 0.377502 0.724760
O O8 0.935834 0.726980 0.875136
O O9 0.967689 0.068926 0.822286
O O10 0.153044 0.794947 0.914985
O O11 0.234158 0.994569 0.150599
O O12 0.883560 0.572153 0.084063
O O13 0.500000 0.500000 0.000000
O O14 0.565603 0.367432 0.837519
O O15 0.473381 0.843671 0.672601
O O16 0.312268 0.079441 0.626186
O O17 0.500000 0.000000 0.500000
#
# Coordination Sequence:
#
# PCOD9047033 Si02
#       8
#     2   2   2   2   2   2   2   2
#     4  10  25  43  70 104 138 176 232 287 342 400
#     4  11  23  44  68 101 142 179 221 291 340 398
#     4  11  23  44  69 102 143 173 232 279 339 420
#     4  10  24  43  70  97 139 182 222 285 347 389
#     4  12  24  44  70 103 135 182 235 278 339 414
#     4  11  21  45  72  98 140 175 230 287 330 412
#     4  11  25  42  68 102 142 177 228 280 343 407
#     4  12  24  43  75 101 135 187 229 279 347 403
#
# _framework density 23.505548000000001
#
# number of rings (size 3 to 8) (size 9 to 14) (size 15 to 20)
#    0.000    1.000    5.000    0.375    3.500    4.500 
#    0.000    2.500    0.000    0.000    0.000    0.000 
#    0.000    0.000    0.000    0.000    0.000    0.000 
#
# Total GULP energy -89597.083430 kJ/mol
# GULP energy per Si atom -5599.817714 kJ/mol
# Density = 2.345205 g / cm^3
# Si number density = 23.505548 Si / 1000 Ang^3
#
#
#
# Elastic Constant Matrix: (Units=GPa)
#
#
# Indices 1 2 3 4 5 6 
#
# 1 114.8281 49.2696 5.4059 -11.7927 -8.1879 -31.4634
# 2 49.2696 169.2649 23.6465 -8.5620 -1.7988 -20.0089
# 3 5.4059 23.6465 85.0322 -2.7452 -0.1973 5.9887
# 4 -11.7927 -8.5620 -2.7452 43.4920 4.1767 -4.4591
# 5 -8.1879 -1.7988 -0.1973 4.1767 26.9033 -0.1461
# 6 -31.4634 -20.0089 5.9887 -4.4591 -0.1461 49.8061
#
#
#
# Elastic Compliance Matrix: (Units=1/GPa)
#
#
# Indices 1 2 3 4 5 6 
#
# 1 0.012304 -0.002472 -0.000485 0.003252 0.003110 0.007138
# 2 -0.002472 0.007120 -0.001910 0.000814 -0.000408 0.001600
# 3 -0.000485 -0.001910 0.012504 0.000037 -0.000203 -0.002575
# 4 0.003252 0.000814 0.000037 0.024774 -0.002777 0.004587
# 5 0.003110 -0.000408 -0.000203 -0.002777 0.038528 0.001689
# 6 0.007138 0.001600 -0.002575 0.004587 0.001689 0.025955
#
#
# Mechanical properties :
#
#
# Convention : Reuss Voigt Hill
#
# Bulk Modulus (GPa) = 45.05913 58.41879 51.73896
# Shear Modulus (GPa) = 36.14830 43.42716 39.78773
#
# Velocity S-wave (km/s) = 3.92581 4.30295 4.11870
# Velocity P-wave (km/s) = 6.30560 7.04232 6.68412
#
# Compressibility (1/GPa) = 0.02219306
#
# Stress axis : x y z
#
# Youngs Moduli (GPa) = 81.27535 140.44172 79.97193
#
# Poissons Ratio (x) = 0.34721 0.03880
# Poissons Ratio (y) = 0.20094 0.15277
# Poissons Ratio (z) = 0.03944 0.26828
#
# Static dielectric constant tensor:
#      x y z
#    x 1.894050 -0.020070 0.019990 
#    y -0.020070 1.865980 0.006380 
#    z 0.019990 0.006380 1.924380 
# 
# From -- ./inp_files/528764.got.cif
#   From: 2010.05.17/outbox.cif.g08.bks.cpg/sg2_265_cif.got.tgz:528764.got - 2010.06.03 11:33:40.
