data_PCOD9047728
_publ_section_title
;
Structure prediction by ZEFSAII (Michael W. Deem and Ramdas Pophale) SiO2 
 PCOD9047728
Probable space group: P -1
;
_chemical_formula_sum "Si O2"
_cell_formula_units_Z 15
_cell_length_a 8.768976
_cell_length_b 16.319565
_cell_length_c 16.839795
_cell_angle_alpha 153.477673
_cell_angle_beta 127.550527
_cell_angle_gamma 68.782732
_cell_volume 729.739666
_symmetry_space_group_name_H-M "P -1"
_symmetry_group_IT_number 2
_symmetry_cell_setting 'triclinic'
loop_
_space_group_symop_operation_xyz
x,y,z
-x,-y,-z
loop_
_atom_site_type_symbol
_atom_site_label
_atom_site_fract_x
_atom_site_fract_y
_atom_site_fract_z
Si Si1 0.500000 0.000000 0.500000
Si Si2 0.503814 0.826306 0.531168
Si Si3 0.272951 0.972760 0.867368
Si Si4 0.698448 0.706941 0.285858
Si Si5 0.049478 0.519080 0.624948
Si Si6 0.507891 0.439109 0.148792
Si Si7 0.781566 0.024273 0.333475
Si Si8 0.998682 0.099233 0.999914
O O1 0.490370 0.905708 0.507590
O O2 0.643988 0.893627 0.425351
O O3 0.424219 0.574529 0.288059
O O4 0.357863 0.879489 0.589319
O O5 0.760130 0.952545 0.753326
O O6 0.275752 0.026763 0.822589
O O7 0.091952 0.720465 0.595656
O O8 0.186386 0.098074 0.003048
O O9 0.500000 0.000000 0.000000
O O10 0.658684 0.608315 0.275600
O O11 0.954216 0.805159 0.426043
O O12 0.500000 0.500000 0.000000
O O13 0.312889 0.607219 0.794038
O O14 0.981094 0.674200 0.780244
O O15 0.000000 0.500000 0.500000
O O16 0.303511 0.209127 0.857191
O O17 0.000000 0.000000 0.000000
#
# Coordination Sequence:
#
# PCOD9047728 Si02
#       8
#     1   2   2   2   2   2   2   2
#     4  10  24  44  70 100 136 188 232 286 356 418
#     4  11  23  43  72 102 140 185 239 289 360 419
#     4  12  25  41  66 106 143 183 240 291 347 426
#     4  11  25  45  69  98 141 180 234 289 356 413
#     4  12  22  41  70  96 139 187 228 284 350 412
#     4  11  23  45  67  98 137 184 227 288 348 417
#     4  12  25  44  71 106 140 183 240 294 349 426
#     4  12  23  42  71  99 141 190 231 289 355 419
#
# _framework density 20.555275000000002
#
# number of rings (size 3 to 8) (size 9 to 14) (size 15 to 20)
#    0.000    0.533    5.333    3.200    0.000    4.800 
#    0.000    2.667    0.000    0.000    0.000    0.000 
#    0.000    0.000    0.000    0.000    0.000    0.000 
#
# Total GULP energy -83525.824421 kJ/mol
# GULP energy per Si atom -5568.388295 kJ/mol
# Density = 2.050849 g / cm^3
# Si number density = 20.555275 Si / 1000 Ang^3
#
#
#
# Elastic Constant Matrix: (Units=GPa)
#
#
# Indices 1 2 3 4 5 6 
#
# 1 171.2255 48.3409 58.4579 -2.9951 -19.4396 -27.4804
# 2 48.3409 92.4634 20.1076 -4.7871 -0.2868 -14.2873
# 3 58.4579 20.1076 94.3186 8.1362 5.0683 -15.9892
# 4 -2.9951 -4.7871 8.1362 38.8120 -4.5641 0.4278
# 5 -19.4396 -0.2868 5.0683 -4.5641 46.8876 7.1288
# 6 -27.4804 -14.2873 -15.9892 0.4278 7.1288 28.1567
#
#
#
# Elastic Compliance Matrix: (Units=1/GPa)
#
#
# Indices 1 2 3 4 5 6 
#
# 1 0.009548 -0.003218 -0.004962 0.001817 0.004073 0.003810
# 2 -0.003218 0.013188 -0.000170 0.001170 -0.001709 0.003870
# 3 -0.004962 -0.000170 0.015185 -0.004215 -0.004869 0.004991
# 4 0.001817 0.001170 -0.004215 0.027433 0.004112 -0.001484
# 5 0.004073 -0.001709 -0.004869 0.004112 0.024846 -0.006010
# 6 0.003810 0.003870 0.004991 -0.001484 -0.006010 0.045576
#
#
# Mechanical properties :
#
#
# Convention : Reuss Voigt Hill
#
# Bulk Modulus (GPa) = 47.12149 67.98005 57.55077
# Shear Modulus (GPa) = 31.33830 38.17801 34.75816
#
# Velocity S-wave (km/s) = 3.90883 4.31436 4.11659
# Velocity P-wave (km/s) = 6.58377 7.61327 7.11716
#
# Compressibility (1/GPa) = 0.02122174
#
# Stress axis : x y z
#
# Youngs Moduli (GPa) = 104.73093 75.82929 65.85367
#
# Poissons Ratio (x) = 0.24398 0.32675
# Poissons Ratio (y) = 0.33697 0.01122
# Poissons Ratio (z) = 0.51965 0.01292
#
# Static dielectric constant tensor:
#      x y z
#    x 1.705390 -0.024880 -0.017480 
#    y -0.024880 1.671100 -0.065290 
#    z -0.017480 -0.065290 1.745900 
# 
# From -- ./inp_files/211859.got.cif
#   From: 2010.05.17/outbox.cif.g08.bks.cpg/sg2_106_cif.got.tgz:211859.got - 2010.06.03 11:33:40.
