data_PCOD9047935
_publ_section_title
;
Structure prediction by ZEFSAII (Michael W. Deem and Ramdas Pophale) SiO2 
 PCOD9047935
Probable space group: P -1
;
_chemical_formula_sum "Si O2"
_cell_formula_units_Z 10
_cell_length_a 16.708206
_cell_length_b 15.446005
_cell_length_c 9.744082
_cell_angle_alpha 137.079860
_cell_angle_beta 144.898932
_cell_angle_gamma 17.034816
_cell_volume 404.567216
_symmetry_space_group_name_H-M "P -1"
_symmetry_group_IT_number 2
_symmetry_cell_setting 'triclinic'
loop_
_space_group_symop_operation_xyz
x,y,z
-x,-y,-z
loop_
_atom_site_type_symbol
_atom_site_label
_atom_site_fract_x
_atom_site_fract_y
_atom_site_fract_z
Si Si1 0.763479 0.816056 0.775777
Si Si2 0.302493 0.787297 0.002503
Si Si3 0.518484 0.710504 0.926768
Si Si4 0.792868 0.515518 0.563043
Si Si5 0.304028 0.863049 0.502967
O O1 0.883229 0.586189 0.749234
O O2 0.082392 0.620188 0.926719
O O3 0.500000 0.000000 0.500000
O O4 0.588442 0.055803 0.916398
O O5 0.910057 0.074629 0.788960
O O6 0.500000 0.500000 0.000000
O O7 0.407087 0.726953 0.923251
O O8 0.459230 0.766543 0.292489
O O9 0.345260 0.807633 0.657744
O O10 0.089089 0.171873 0.538648
O O11 0.662882 0.585201 0.611903
#
# Coordination Sequence:
#
# PCOD9047935 Si02
#       5
#     2   2   2   2   2
#     4  12  26  43  72  98 135 173 227 273 326 401
#     4  10  24  44  71  97 134 178 224 270 326 399
#     4  12  26  44  70 101 134 175 219 280 334 384
#     4  11  24  44  70  98 135 179 220 267 331 395
#     4  11  25  44  68 102 137 171 220 276 333 391
#
# _framework density 24.717773999999999
#
# number of rings (size 3 to 8) (size 9 to 14) (size 15 to 20)
#    0.000    0.800    2.000    4.200    5.600    8.000 
#    0.000    7.000    0.000    0.000    0.000    0.000 
#    0.000    0.000    0.000    0.000    0.000    0.000 
#
# Total GULP energy -56078.332530 kJ/mol
# GULP energy per Si atom -5607.833253 kJ/mol
# Density = 2.466151 g / cm^3
# Si number density = 24.717774 Si / 1000 Ang^3
#
#
#
# Elastic Constant Matrix: (Units=GPa)
#
#
# Indices 1 2 3 4 5 6 
#
# 1 111.6868 -8.0655 0.0170 4.1183 -0.3476 4.3439
# 2 -8.0655 80.0651 5.2728 5.0903 2.2428 -13.3180
# 3 0.0170 5.2728 81.4528 -6.7500 -9.7750 7.5001
# 4 4.1183 5.0903 -6.7500 32.2744 -2.7476 2.8764
# 5 -0.3476 2.2428 -9.7750 -2.7476 38.9242 2.2562
# 6 4.3439 -13.3180 7.5001 2.8764 2.2562 35.7624
#
#
#
# Elastic Compliance Matrix: (Units=1/GPa)
#
#
# Indices 1 2 3 4 5 6 
#
# 1 0.009090 0.000899 -0.000113 -0.001273 -0.000052 -0.000640
# 2 0.000899 0.013958 -0.001953 -0.003409 -0.001869 0.005890
# 3 -0.000113 -0.001953 0.013590 0.003876 0.004037 -0.004130
# 4 -0.001273 -0.003409 0.003876 0.033249 0.003786 -0.004841
# 5 -0.000052 -0.001869 0.004037 0.003786 0.027286 -0.003562
# 6 -0.000640 0.005890 -0.004130 -0.004841 -0.003562 0.031714
#
#
# Mechanical properties :
#
#
# Convention : Reuss Voigt Hill
#
# Bulk Modulus (GPa) = 29.15086 29.73927 29.44506
# Shear Modulus (GPa) = 35.04986 39.79091 37.42039
#
# Velocity S-wave (km/s) = 3.76972 4.01660 3.89512
# Velocity P-wave (km/s) = 5.54679 5.79382 5.67165
#
# Compressibility (1/GPa) = 0.03430431
#
# Stress axis : x y z
#
# Youngs Moduli (GPa) = 110.00843 71.64421 73.58620
#
# Poissons Ratio (x) = -0.06441 0.00830
# Poissons Ratio (y) = -0.09890 0.14370
# Poissons Ratio (z) = 0.01241 0.13991
#
# Static dielectric constant tensor:
#      x y z
#    x 1.946700 0.030040 -0.012700 
#    y 0.030040 1.891170 -0.005870 
#    z -0.012700 -0.005870 1.950730 
# 
# From -- ./inp_files/15455.got.cif
#   From: 2010.05.17/outbox.cif.g08.bks.cpg/sg2_8_cif.got.tgz:15455.got - 2010.06.03 11:33:40.
