data_PCOD9047575
_publ_section_title
;
Structure prediction by ZEFSAII (Michael W. Deem and Ramdas Pophale) SiO2 
 PCOD9047575
Probable space group: P -1
;
_chemical_formula_sum "Si O2"
_cell_formula_units_Z 16
_cell_length_a 13.666766
_cell_length_b 9.343884
_cell_length_c 9.146144
_cell_angle_alpha 89.923502
_cell_angle_beta 38.997614
_cell_angle_gamma 111.902182
_cell_volume 591.044443
_symmetry_space_group_name_H-M "P -1"
_symmetry_group_IT_number 2
_symmetry_cell_setting 'triclinic'
loop_
_space_group_symop_operation_xyz
x,y,z
-x,-y,-z
loop_
_atom_site_type_symbol
_atom_site_label
_atom_site_fract_x
_atom_site_fract_y
_atom_site_fract_z
Si Si1 0.990257 0.696472 0.135596
Si Si2 0.813278 0.407833 0.578190
Si Si3 0.617625 0.218087 0.286561
Si Si4 0.577641 0.425922 0.105525
Si Si5 0.067561 0.834410 0.448180
Si Si6 0.556224 0.411711 0.552696
Si Si7 0.135636 0.116408 0.560659
Si Si8 0.523767 0.950552 0.139835
O O1 0.957824 0.587879 0.322742
O O2 0.791117 0.548533 0.286347
O O3 0.979178 0.858198 0.183738
O O4 0.201445 0.760870 0.846766
O O5 0.691067 0.437093 0.831901
O O6 0.911353 0.321920 0.538084
O O7 0.652014 0.256373 0.653721
O O8 0.675728 0.387522 0.120672
O O9 0.491615 0.224781 0.559712
O O10 0.525787 0.063699 0.270983
O O11 0.546004 0.574529 0.185595
O O12 0.358911 0.249386 0.343058
O O13 0.898544 0.813007 0.549794
O O14 0.076469 0.923541 0.591488
O O15 0.256390 0.981100 0.132843
O O16 0.500000 0.500000 0.500000
O O17 0.500000 0.000000 0.000000
#
# Coordination Sequence:
#
# PCOD9047575 Si02
#       8
#     2   2   2   2   2   2   2   2
#     4  11  23  37  60  95 120 152 200 256 307 341
#     4  11  21  36  59  93 129 149 188 259 313 352
#     4  11  19  38  62  84 115 163 214 236 281 365
#     4  10  18  34  55  86 121 148 196 241 306 339
#     4  10  18  33  53  83 124 158 197 226 298 370
#     4   9  22  38  60  85 115 164 203 249 284 360
#     4  10  19  31  53  83 120 155 197 233 285 365
#     4  10  17  34  57  84 115 160 196 232 290 364
#
# _framework density 27.070720999999999
#
# number of rings (size 3 to 8) (size 9 to 14) (size 15 to 20)
#    0.000    1.750    5.000    1.125    0.000    4.000 
#    0.000    1.875    0.000    0.000    0.000    9.625 
#    0.000    0.000    0.000    0.000    0.000    0.000 
#
# Total GULP energy -89476.379210 kJ/mol
# GULP energy per Si atom -5592.273701 kJ/mol
# Density = 2.700911 g / cm^3
# Si number density = 27.070721 Si / 1000 Ang^3
#
#
#
# Elastic Constant Matrix: (Units=GPa)
#
#
# Indices 1 2 3 4 5 6 
#
# 1 117.1341 22.5319 33.5698 15.9775 -27.2268 10.8726
# 2 22.5319 170.0507 63.7130 61.1670 4.8708 9.7894
# 3 33.5698 63.7130 109.7919 37.8372 -19.4342 2.7595
# 4 15.9775 61.1670 37.8372 54.6409 1.4902 7.0023
# 5 -27.2268 4.8708 -19.4342 1.4902 41.7953 5.9850
# 6 10.8726 9.7894 2.7595 7.0023 5.9850 41.6773
#
#
#
# Elastic Compliance Matrix: (Units=1/GPa)
#
#
# Indices 1 2 3 4 5 6 
#
# 1 0.011241 -0.000427 -0.001198 -0.001729 0.007382 -0.003522
# 2 -0.000427 0.010638 -0.003262 -0.009426 -0.002669 -0.000204
# 3 -0.001198 -0.003262 0.014754 -0.006426 0.006657 0.000225
# 4 -0.001729 -0.009426 -0.006426 0.034183 -0.003936 -0.002088
# 5 0.007382 -0.002669 0.006657 -0.003936 0.033117 -0.005834
# 6 -0.003522 -0.000204 0.000225 -0.002088 -0.005834 0.026134
#
#
# Mechanical properties :
#
#
# Convention : Reuss Voigt Hill
#
# Bulk Modulus (GPa) = 37.23042 70.73402 53.98222
# Shear Modulus (GPa) = 33.60305 46.10017 39.85161
#
# Velocity S-wave (km/s) = 3.52704 4.13116 3.84100
# Velocity P-wave (km/s) = 5.51086 6.99581 6.29726
#
# Compressibility (1/GPa) = 0.02685976
#
# Stress axis : x y z
#
# Youngs Moduli (GPa) = 88.95675 94.00271 67.77625
#
# Poissons Ratio (x) = 0.04017 0.08121
# Poissons Ratio (y) = 0.03802 0.22105
# Poissons Ratio (z) = 0.10659 0.30659
#
# Static dielectric constant tensor:
#      x y z
#    x 2.227530 0.054790 0.015910 
#    y 0.054790 2.208970 0.005990 
#    z 0.015910 0.005990 2.064580 
# 
# From -- ./inp_files/444702.got.cif
#   From: 2010.05.17/outbox.cif.g08.bks.cpg/sg2_223_cif.got.tgz:444702.got - 2010.06.03 11:33:40.
