data_PCOD9047188
_publ_section_title
;
Structure prediction by ZEFSAII (Michael W. Deem and Ramdas Pophale) SiO2 
 PCOD9047188
Probable space group: P -1
;
_chemical_formula_sum "Si O2"
_cell_formula_units_Z 16
_cell_length_a 18.508688
_cell_length_b 11.645325
_cell_length_c 8.222788
_cell_angle_alpha 123.303601
_cell_angle_beta 84.080017
_cell_angle_gamma 142.352221
_cell_volume 687.888833
_symmetry_space_group_name_H-M "P -1"
_symmetry_group_IT_number 2
_symmetry_cell_setting 'triclinic'
loop_
_space_group_symop_operation_xyz
x,y,z
-x,-y,-z
loop_
_atom_site_type_symbol
_atom_site_label
_atom_site_fract_x
_atom_site_fract_y
_atom_site_fract_z
Si Si1 0.157759 0.848937 0.758821
Si Si2 0.763043 0.249891 0.800049
Si Si3 0.979724 0.118081 0.662449
Si Si4 0.422674 0.704266 0.604727
Si Si5 0.111484 0.064317 0.084601
Si Si6 0.476523 0.279607 0.086342
Si Si7 0.264148 0.087708 0.565676
Si Si8 0.599956 0.077854 0.408459
O O1 0.000000 0.500000 0.500000
O O2 0.251598 0.025051 0.706265
O O3 0.101700 0.902964 0.873911
O O4 0.294377 0.005955 0.956875
O O5 0.747048 0.279166 0.639916
O O6 0.591515 0.968509 0.694750
O O7 0.800949 0.152038 0.705326
O O8 0.871393 0.533017 0.095266
O O9 0.924320 0.016219 0.780895
O O10 0.849394 0.974818 0.478037
O O11 0.000000 0.000000 0.500000
O O12 0.291714 0.408620 0.301716
O O13 0.438302 0.665923 0.749892
O O14 0.374545 0.782961 0.647203
O O15 0.000000 0.000000 0.000000
O O16 0.569166 0.577234 0.270748
O O17 0.481661 0.193598 0.856068
O O18 0.500000 0.000000 0.500000
#
# Coordination Sequence:
#
# PCOD9047188 Si02
#       8
#     2   2   2   2   2   2   2   2
#     4  12  29  47  75 108 150 194 245 308 372 436
#     4  11  25  47  76 108 148 197 243 303 373 445
#     4  12  28  47  73 108 152 193 245 306 374 443
#     4  11  26  44  78 109 145 192 251 307 364 431
#     4  12  27  49  74 107 151 191 248 302 372 439
#     4  12  26  47  76 109 150 193 255 302 373 440
#     4  12  26  48  75 107 149 196 245 301 377 441
#     4  10  24  43  73 106 148 190 249 298 367 433
#
# _framework density 23.259574000000001
#
# number of rings (size 3 to 8) (size 9 to 14) (size 15 to 20)
#    0.000    0.500    2.500    4.125   12.250    2.000 
#    0.000    0.000    0.000    0.000    0.000    0.000 
#    0.000    0.000    0.000    0.000    0.000    0.000 
#
# Total GULP energy -89478.371788 kJ/mol
# GULP energy per Si atom -5592.398237 kJ/mol
# Density = 2.320663 g / cm^3
# Si number density = 23.259574 Si / 1000 Ang^3
#
#
#
# Elastic Constant Matrix: (Units=GPa)
#
#
# Indices 1 2 3 4 5 6 
#
# 1 133.4634 14.4169 63.5313 11.7951 -16.9827 2.3612
# 2 14.4169 73.6986 24.3376 14.1471 -2.3663 -6.8844
# 3 63.5313 24.3376 134.5691 30.6552 -18.4559 6.6923
# 4 11.7951 14.1471 30.6552 42.8902 0.2478 4.1502
# 5 -16.9827 -2.3663 -18.4559 0.2478 56.0497 -6.1412
# 6 2.3612 -6.8844 6.6923 4.1502 -6.1412 34.2315
#
#
#
# Elastic Compliance Matrix: (Units=1/GPa)
#
#
# Indices 1 2 3 4 5 6 
#
# 1 0.009817 -0.000480 -0.004502 0.000639 0.001502 0.000298
# 2 -0.000480 0.015424 -0.001784 -0.004074 0.000380 0.004046
# 3 -0.004502 -0.001784 0.011726 -0.006457 0.002325 -0.001141
# 4 0.000639 -0.004074 -0.006457 0.029467 -0.002634 -0.003646
# 5 0.001502 0.000380 0.002325 -0.002634 0.019454 0.003328
# 6 0.000298 0.004046 -0.001141 -0.003646 0.003328 0.031268
#
#
# Mechanical properties :
#
#
# Convention : Reuss Voigt Hill
#
# Bulk Modulus (GPa) = 42.67257 60.70031 51.68644
# Shear Modulus (GPa) = 36.10095 42.59729 39.34912
#
# Velocity S-wave (km/s) = 3.94393 4.28411 4.11754
# Velocity P-wave (km/s) = 6.25504 7.11513 6.69890
#
# Compressibility (1/GPa) = 0.02343426
#
# Stress axis : x y z
#
# Youngs Moduli (GPa) = 101.86308 64.83403 85.28051
#
# Poissons Ratio (x) = 0.03113 0.38397
# Poissons Ratio (y) = 0.04891 0.15213
# Poissons Ratio (z) = 0.45863 0.11566
#
# Static dielectric constant tensor:
#      x y z
#    x 1.706520 0.003360 -0.036110 
#    y 0.003360 1.887190 0.019230 
#    z -0.036110 0.019230 1.895060 
# 
# From -- ./inp_files/333757.got.cif
#   From: 2010.05.17/outbox.cif.g08.bks.cpg/sg2_167_cif.got.tgz:333757.got - 2010.06.03 11:33:40.
