data_PCOD9047228
_publ_section_title
;
Structure prediction by ZEFSAII (Michael W. Deem and Ramdas Pophale) SiO2 
 PCOD9047228
Probable space group: P -1
;
_chemical_formula_sum "Si O2"
_cell_formula_units_Z 12
_cell_length_a 14.518639
_cell_length_b 9.946541
_cell_length_c 8.216811
_cell_angle_alpha 80.371861
_cell_angle_beta 147.991532
_cell_angle_gamma 89.434213
_cell_volume 593.385095
_symmetry_space_group_name_H-M "P -1"
_symmetry_group_IT_number 2
_symmetry_cell_setting 'triclinic'
loop_
_space_group_symop_operation_xyz
x,y,z
-x,-y,-z
loop_
_atom_site_type_symbol
_atom_site_label
_atom_site_fract_x
_atom_site_fract_y
_atom_site_fract_z
Si Si1 0.985328 0.091319 0.289298
Si Si2 0.360971 0.409724 0.331627
Si Si3 0.419204 0.389188 0.806733
Si Si4 0.362498 0.917150 0.740951
Si Si5 0.583762 0.123348 0.552183
Si Si6 0.980167 0.584583 0.773735
O O1 0.997718 0.255056 0.248929
O O2 0.156696 0.000309 0.458988
O O3 0.000000 0.000000 0.500000
O O4 0.784875 0.100938 0.925931
O O5 0.500000 0.500000 0.500000
O O6 0.364818 0.402803 0.533864
O O7 0.448122 0.266003 0.393487
O O8 0.152692 0.484656 0.956086
O O9 0.225118 0.397158 0.596348
O O10 0.500000 0.500000 0.000000
O O11 0.575500 0.240709 0.064699
O O12 0.396874 0.887017 0.609246
O O13 0.500000 0.000000 0.000000
O O14 0.500000 0.000000 0.500000
O O15 0.000000 0.500000 0.000000
#
# Coordination Sequence:
#
# PCOD9047228 Si02
#       6
#     2   2   2   2   2   2
#     4  12  25  47  74 107 143 189 241 299 360 429
#     4  11  22  45  70  99 144 184 239 294 355 430
#     4  11  24  43  70 105 141 187 240 295 359 423
#     4  12  25  46  72 101 146 187 239 299 361 431
#     4  12  27  44  72 106 141 193 241 295 363 425
#     4  10  24  43  75 100 143 191 235 291 363 423
#
# _framework density 20.222954000000001
#
# number of rings (size 3 to 8) (size 9 to 14) (size 15 to 20)
#    0.000    0.667    3.333    4.500    4.667    1.333 
#    0.000    5.000    0.000    0.000    0.000    0.000 
#    0.000    0.000    0.000    0.000    0.000    0.000 
#
# Total GULP energy -66812.299702 kJ/mol
# GULP energy per Si atom -5567.691642 kJ/mol
# Density = 2.017693 g / cm^3
# Si number density = 20.222954 Si / 1000 Ang^3
#
#
#
# Elastic Constant Matrix: (Units=GPa)
#
#
# Indices 1 2 3 4 5 6 
#
# 1 100.1062 51.2403 45.4520 -3.4777 24.7846 -15.0557
# 2 51.2403 181.6160 73.8620 -6.0537 31.7462 -11.2468
# 3 45.4520 73.8620 135.3291 -3.7073 46.3104 -16.3725
# 4 -3.4777 -6.0537 -3.7073 38.7068 -4.9889 7.9024
# 5 24.7846 31.7462 46.3104 -4.9889 56.2178 -7.6588
# 6 -15.0557 -11.2468 -16.3725 7.9024 -7.6588 42.5629
#
#
#
# Elastic Compliance Matrix: (Units=1/GPa)
#
#
# Indices 1 2 3 4 5 6 
#
# 1 0.013091 -0.002295 -0.001947 -0.000279 -0.002505 0.002877
# 2 -0.002295 0.007550 -0.003145 0.000644 -0.000639 -0.000261
# 3 -0.001947 -0.003145 0.012559 -0.000864 -0.007499 0.002122
# 4 -0.000279 0.000644 -0.000864 0.027113 0.002210 -0.004897
# 5 -0.002505 -0.000639 -0.007499 0.002210 0.025663 0.000268
# 6 0.002877 -0.000261 0.002122 -0.004897 0.000268 0.026217
#
#
# Mechanical properties :
#
#
# Convention : Reuss Voigt Hill
#
# Bulk Modulus (GPa) = 54.27027 84.24000 69.25513
# Shear Modulus (GPa) = 37.56335 43.93066 40.74700
#
# Velocity S-wave (km/s) = 4.31450 4.66587 4.49362
# Velocity P-wave (km/s) = 7.19125 8.41268 7.82583
#
# Compressibility (1/GPa) = 0.01842630
#
# Stress axis : x y z
#
# Youngs Moduli (GPa) = 76.38799 132.45513 79.62378
#
# Poissons Ratio (x) = 0.30400 0.15500
# Poissons Ratio (y) = 0.17532 0.25042
# Poissons Ratio (z) = 0.14870 0.41657
#
# Static dielectric constant tensor:
#      x y z
#    x 1.703730 0.039670 0.004720 
#    y 0.039670 1.676890 -0.025790 
#    z 0.004720 -0.025790 1.819550 
# 
# From -- ./inp_files/146190.got.cif
#   From: 2010.05.17/outbox.cif.g08.bks.cpg/sg2_74_cif.got.tgz:146190.got - 2010.06.03 11:33:40.
