data_PCOD9047910
_publ_section_title
;
Structure prediction by ZEFSAII (Michael W. Deem and Ramdas Pophale) SiO2 
 PCOD9047910
Probable space group: P -1
;
_chemical_formula_sum "Si O2"
_cell_formula_units_Z 14
_cell_length_a 7.689908
_cell_length_b 17.512355
_cell_length_c 11.621929
_cell_angle_alpha 35.988157
_cell_angle_beta 81.472497
_cell_angle_gamma 55.933037
_cell_volume 593.802629
_symmetry_space_group_name_H-M "P -1"
_symmetry_group_IT_number 2
_symmetry_cell_setting 'triclinic'
loop_
_space_group_symop_operation_xyz
x,y,z
-x,-y,-z
loop_
_atom_site_type_symbol
_atom_site_label
_atom_site_fract_x
_atom_site_fract_y
_atom_site_fract_z
Si Si1 0.021537 0.216100 0.097533
Si Si2 0.233468 0.675604 0.386996
Si Si3 0.487070 0.125746 0.105435
Si Si4 0.845789 0.461247 0.012609
Si Si5 0.317286 0.925410 0.106529
Si Si6 0.463927 0.399368 0.899164
Si Si7 0.461744 0.179843 0.549075
O O1 0.174584 0.254464 0.979973
O O2 0.231426 0.985212 0.326224
O O3 0.013638 0.253872 0.188008
O O4 0.730310 0.336927 0.936479
O O5 0.500000 0.500000 0.500000
O O6 0.247672 0.813206 0.268827
O O7 0.246444 0.567672 0.621507
O O8 0.953560 0.836481 0.149134
O O9 0.635474 0.905672 0.385814
O O10 0.572143 0.124761 0.972209
O O11 0.529521 0.214267 0.085351
O O12 0.690154 0.611906 0.736057
O O13 0.650889 0.523796 0.055848
O O14 0.000000 0.500000 0.000000
O O15 0.522252 0.845736 0.284411
#
# Coordination Sequence:
#
# PCOD9047910 Si02
#       7
#     2   2   2   2   2   2   2
#     4  10  25  45  69 104 142 182 239 283 350 424
#     4  11  24  42  71 109 140 183 235 287 347 426
#     4  10  24  44  71 107 138 190 230 289 355 409
#     4  12  25  47  73 103 139 189 237 292 353 412
#     4  11  23  44  72 102 146 187 230 288 359 410
#     4  12  24  47  73 104 144 184 236 290 356 409
#     4  10  25  46  67 104 141 182 241 283 344 431
#
# _framework density 23.576857
#
# number of rings (size 3 to 8) (size 9 to 14) (size 15 to 20)
#    0.857    0.286    2.857    2.571    4.000    2.857 
#    0.000    2.143    0.000    0.000    0.000    0.000 
#    0.000    0.000    0.000    0.000    0.000    0.000 
#
# Total GULP energy -78231.754031 kJ/mol
# GULP energy per Si atom -5587.982431 kJ/mol
# Density = 2.352319 g / cm^3
# Si number density = 23.576857 Si / 1000 Ang^3
#
#
#
# Elastic Constant Matrix: (Units=GPa)
#
#
# Indices 1 2 3 4 5 6 
#
# 1 78.1046 3.5429 4.2218 -3.5842 1.1376 0.8457
# 2 3.5429 119.5869 4.3635 -11.1417 7.8378 -13.7237
# 3 4.2218 4.3635 50.3857 -4.1921 2.5065 -5.8443
# 4 -3.5842 -11.1417 -4.1921 21.3164 -0.2366 -1.0723
# 5 1.1376 7.8378 2.5065 -0.2366 30.0662 -4.1136
# 6 0.8457 -13.7237 -5.8443 -1.0723 -4.1136 37.1750
#
#
#
# Elastic Compliance Matrix: (Units=1/GPa)
#
#
# Indices 1 2 3 4 5 6 
#
# 1 0.012961 -0.000209 -0.000953 0.001852 -0.000412 -0.000514
# 2 -0.000209 0.009350 0.000117 0.005025 -0.001934 0.003406
# 3 -0.000953 0.000117 0.020704 0.004125 -0.001236 0.003302
# 4 0.001852 0.005025 0.004125 0.050846 -0.000798 0.003840
# 5 -0.000412 -0.001934 -0.001236 -0.000798 0.034269 0.002870
# 6 -0.000514 0.003406 0.003302 0.003840 0.002870 0.029116
#
#
# Mechanical properties :
#
#
# Convention : Reuss Voigt Hill
#
# Bulk Modulus (GPa) = 24.43423 30.25929 27.34676
# Shear Modulus (GPa) = 28.90562 33.44145 31.17354
#
# Velocity S-wave (km/s) = 3.50525 3.77025 3.64016
# Velocity P-wave (km/s) = 5.17383 5.64050 5.41220
#
# Compressibility (1/GPa) = 0.04092619
#
# Stress axis : x y z
#
# Youngs Moduli (GPa) = 77.15522 106.95478 48.29910
#
# Poissons Ratio (x) = 0.02231 0.04602
# Poissons Ratio (y) = 0.01609 -0.00565
# Poissons Ratio (z) = 0.07352 -0.01252
#
# Static dielectric constant tensor:
#      x y z
#    x 1.904700 -0.000600 0.026490 
#    y -0.000600 1.900580 -0.024120 
#    z 0.026490 -0.024120 1.928800 
# 
# From -- ./inp_files/401807.got.cif
#   From: 2010.05.17/outbox.cif.g08.bks.cpg/sg2_201_cif.got.tgz:401807.got - 2010.06.03 11:33:40.
