data_PCOD9047017
_publ_section_title
;
Structure prediction by ZEFSAII (Michael W. Deem and Ramdas Pophale) SiO2 
 PCOD9047017
Probable space group: P -1
;
_chemical_formula_sum "Si O2"
_cell_formula_units_Z 16
_cell_length_a 12.351929
_cell_length_b 14.735741
_cell_length_c 7.931757
_cell_angle_alpha 143.987753
_cell_angle_beta 73.498206
_cell_angle_gamma 117.320730
_cell_volume 743.562568
_symmetry_space_group_name_H-M "P -1"
_symmetry_group_IT_number 2
_symmetry_cell_setting 'triclinic'
loop_
_space_group_symop_operation_xyz
x,y,z
-x,-y,-z
loop_
_atom_site_type_symbol
_atom_site_label
_atom_site_fract_x
_atom_site_fract_y
_atom_site_fract_z
Si Si1 0.068871 0.895821 0.231656
Si Si2 0.214206 0.118749 0.016641
Si Si3 0.684398 0.908005 0.406306
Si Si4 0.060118 0.563494 0.889458
Si Si5 0.991580 0.206069 0.273278
Si Si6 0.444055 0.784521 0.514025
Si Si7 0.665066 0.250288 0.832910
Si Si8 0.480056 0.176189 0.095054
O O1 0.212910 0.996722 0.357825
O O2 0.028419 0.713324 0.059183
O O3 0.000000 0.000000 0.500000
O O4 0.042957 0.874057 0.014829
O O5 0.122457 0.198630 0.247821
O O6 0.340858 0.165325 0.132869
O O7 0.258671 0.167078 0.877149
O O8 0.123001 0.917501 0.749167
O O9 0.565037 0.782718 0.367041
O O10 0.653525 0.056383 0.555194
O O11 0.010059 0.397635 0.548902
O O12 0.206774 0.637229 0.965843
O O13 0.000000 0.500000 0.000000
O O14 0.341454 0.704509 0.293002
O O15 0.444764 0.735044 0.635133
O O16 0.464116 0.981310 0.811069
O O17 0.556256 0.254730 0.008525
#
# Coordination Sequence:
#
# PCOD9047017 Si02
#       8
#     2   2   2   2   2   2   2   2
#     4  11  22  39  66  96 125 166 219 266 315 389
#     4  11  20  36  65  89 131 167 219 265 324 373
#     4  10  17  34  56  92 125 158 202 278 316 368
#     4  11  26  45  63  91 135 174 207 265 335 383
#     4  11  24  39  61  94 130 175 214 262 327 389
#     4  10  18  31  58  91 121 160 209 271 324 369
#     4  10  19  37  60  84 129 164 213 258 330 375
#     4  10  19  33  59  94 120 159 219 273 313 380
#
# _framework density 21.518027
#
# number of rings (size 3 to 8) (size 9 to 14) (size 15 to 20)
#    0.000    1.500    3.750    3.375    1.750    1.000 
#    2.250    0.625    0.000    0.750    0.000    0.000 
#    0.000    0.000    0.000    0.000    0.000    0.000 
#
# Total GULP energy -89330.004239 kJ/mol
# GULP energy per Si atom -5583.125265 kJ/mol
# Density = 2.146905 g / cm^3
# Si number density = 21.518027 Si / 1000 Ang^3
#
#
#
# Elastic Constant Matrix: (Units=GPa)
#
#
# Indices 1 2 3 4 5 6 
#
# 1 100.1497 23.4330 19.8779 -10.2353 -1.1089 1.2136
# 2 23.4330 50.3264 14.8077 -18.0728 -5.5872 -0.6107
# 3 19.8779 14.8077 71.5988 -12.7142 2.1393 -11.6678
# 4 -10.2353 -18.0728 -12.7142 33.8545 -10.4191 3.6915
# 5 -1.1089 -5.5872 2.1393 -10.4191 24.9957 -10.1363
# 6 1.2136 -0.6107 -11.6678 3.6915 -10.1363 25.8560
#
#
#
# Elastic Compliance Matrix: (Units=1/GPa)
#
#
# Indices 1 2 3 4 5 6 
#
# 1 0.011642 -0.004946 -0.002602 -0.000284 -0.001443 -0.002362
# 2 -0.004946 0.031514 -0.001527 0.019455 0.016712 0.004061
# 3 -0.002602 -0.001527 0.017184 0.005040 0.003640 0.008548
# 4 -0.000284 0.019455 0.005040 0.049364 0.027036 0.006298
# 5 -0.001443 0.016712 0.003640 0.027036 0.064118 0.023381
# 6 -0.002362 0.004061 0.008548 0.006298 0.023381 0.051007
#
#
# Mechanical properties :
#
#
# Convention : Reuss Voigt Hill
#
# Bulk Modulus (GPa) = 23.70230 37.59023 30.64626
# Shear Modulus (GPa) = 19.45202 27.87165 23.66184
#
# Velocity S-wave (km/s) = 3.00990 3.60289 3.31966
# Velocity P-wave (km/s) = 4.80815 5.90041 5.38206
#
# Compressibility (1/GPa) = 0.04219000
#
# Stress axis : x y z
#
# Youngs Moduli (GPa) = 85.89301 31.73216 58.19367
#
# Poissons Ratio (x) = 0.15696 0.15140
# Poissons Ratio (y) = 0.42486 0.08886
# Poissons Ratio (z) = 0.22346 0.04846
#
# Static dielectric constant tensor:
#      x y z
#    x 1.841590 0.007650 -0.015800 
#    y 0.007650 1.801250 -0.025950 
#    z -0.015800 -0.025950 1.862000 
# 
# From -- ./inp_files/278592.got.cif
#   From: 2010.05.17/outbox.cif.g08.bks.cpg/sg2_140_cif.got.tgz:278592.got - 2010.06.03 11:33:40.
