data_PCOD9047856
_publ_section_title
;
Structure prediction by ZEFSAII (Michael W. Deem and Ramdas Pophale) SiO2 
 PCOD9047856
Probable space group: P -1
;
_chemical_formula_sum "Si O2"
_cell_formula_units_Z 14
_cell_length_a 8.988426
_cell_length_b 8.286693
_cell_length_c 12.035557
_cell_angle_alpha 53.313785
_cell_angle_beta 124.029579
_cell_angle_gamma 111.711850
_cell_volume 594.922803
_symmetry_space_group_name_H-M "P -1"
_symmetry_group_IT_number 2
_symmetry_cell_setting 'triclinic'
loop_
_space_group_symop_operation_xyz
x,y,z
-x,-y,-z
loop_
_atom_site_type_symbol
_atom_site_label
_atom_site_fract_x
_atom_site_fract_y
_atom_site_fract_z
Si Si1 0.699446 0.597197 0.529187
Si Si2 0.062334 0.414824 0.719356
Si Si3 0.381373 0.978132 0.787263
Si Si4 0.292226 0.198311 0.325013
Si Si5 0.309974 0.779088 0.601353
Si Si6 0.054174 0.353533 0.985122
Si Si7 0.773642 0.015253 0.045950
O O1 0.500000 0.500000 0.500000
O O2 0.677922 0.798988 0.364598
O O3 0.762240 0.663105 0.652595
O O4 0.851425 0.455924 0.606037
O O5 0.178712 0.582851 0.631123
O O6 0.124444 0.191157 0.815634
O O7 0.112093 0.452454 0.854152
O O8 0.267759 0.911505 0.876153
O O9 0.355410 0.846210 0.719801
O O10 0.586699 0.983384 0.914482
O O11 0.505377 0.239902 0.380918
O O12 0.211262 0.237221 0.156030
O O13 0.232412 0.974155 0.431323
O O14 0.893711 0.187764 0.964276
O O15 0.000000 0.500000 0.000000
#
# Coordination Sequence:
#
# PCOD9047856 Si02
#       7
#     2   2   2   2   2   2   2
#     4  11  25  44  69 101 142 182 231 289 353 410
#     4  12  26  43  75 106 137 185 239 289 342 423
#     4  10  24  45  67  98 143 189 223 294 342 418
#     4  10  24  44  71 100 140 184 228 294 347 418
#     4  10  24  46  72 102 137 186 237 283 352 415
#     4  12  24  43  70 100 137 186 228 289 344 420
#     4  11  26  43  69 106 143 181 235 290 352 408
#
# _framework density 23.532463
#
# number of rings (size 3 to 8) (size 9 to 14) (size 15 to 20)
#    0.000    1.143    1.429    3.000    4.000    8.571 
#    0.000    0.000    0.000    0.000    0.000    0.000 
#    0.000    0.000    0.000    0.000    0.000    0.000 
#
# Total GULP energy -78374.794875 kJ/mol
# GULP energy per Si atom -5598.199634 kJ/mol
# Density = 2.347890 g / cm^3
# Si number density = 23.532463 Si / 1000 Ang^3
#
#
#
# Elastic Constant Matrix: (Units=GPa)
#
#
# Indices 1 2 3 4 5 6 
#
# 1 61.2775 42.2560 49.4830 -13.7117 1.2323 -7.2938
# 2 42.2560 66.9204 29.8932 -12.6910 2.3242 -6.5368
# 3 49.4830 29.8932 118.1147 9.7365 -6.5146 1.6168
# 4 -13.7117 -12.6910 9.7365 37.9190 -4.1472 -14.0002
# 5 1.2323 2.3242 -6.5146 -4.1472 45.8661 -0.2933
# 6 -7.2938 -6.5368 1.6168 -14.0002 -0.2933 43.6502
#
#
#
# Elastic Compliance Matrix: (Units=1/GPa)
#
#
# Indices 1 2 3 4 5 6 
#
# 1 0.049972 -0.017895 -0.018425 0.021602 -0.001015 0.013274
# 2 -0.017895 0.026878 0.000381 0.003113 -0.000533 0.002016
# 3 -0.018425 0.000381 0.017429 -0.013816 0.001650 -0.008087
# 4 0.021602 0.003113 -0.013816 0.046104 0.001592 0.019385
# 5 -0.001015 -0.000533 0.001650 0.001592 0.022237 0.000350
# 6 0.013274 0.002016 -0.008087 0.019385 0.000350 0.031949
#
#
# Mechanical properties :
#
#
# Convention : Reuss Voigt Hill
#
# Bulk Modulus (GPa) = 44.63936 54.39744 49.51840
# Shear Modulus (GPa) = 18.25381 33.79909 26.02645
#
# Velocity S-wave (km/s) = 2.78814 3.79393 3.32924
# Velocity P-wave (km/s) = 5.41991 6.50830 5.98888
#
# Compressibility (1/GPa) = 0.02240175
#
# Stress axis : x y z
#
# Youngs Moduli (GPa) = 20.01122 37.20448 57.37472
#
# Poissons Ratio (x) = 0.66579 1.05710
# Poissons Ratio (y) = 0.35811 -0.02186
# Poissons Ratio (z) = 0.36870 -0.01417
#
# Static dielectric constant tensor:
#      x y z
#    x 1.862260 -0.026410 0.038470 
#    y -0.026410 1.868800 0.014800 
#    z 0.038470 0.014800 1.891380 
# 
# From -- ./inp_files/158895.got.cif
#   From: 2010.05.17/outbox.cif.g08.bks.cpg/sg2_80_cif.got.tgz:158895.got - 2010.06.03 11:33:40.
