data_PCOD9047419
_publ_section_title
;
Structure prediction by ZEFSAII (Michael W. Deem and Ramdas Pophale) SiO2 
 PCOD9047419
Probable space group: P -1
;
_chemical_formula_sum "Si O2"
_cell_formula_units_Z 15
_cell_length_a 8.395552
_cell_length_b 9.941025
_cell_length_c 9.912967
_cell_angle_alpha 98.029984
_cell_angle_beta 49.343931
_cell_angle_gamma 79.482891
_cell_volume 578.825233
_symmetry_space_group_name_H-M "P -1"
_symmetry_group_IT_number 2
_symmetry_cell_setting 'triclinic'
loop_
_space_group_symop_operation_xyz
x,y,z
-x,-y,-z
loop_
_atom_site_type_symbol
_atom_site_label
_atom_site_fract_x
_atom_site_fract_y
_atom_site_fract_z
Si Si1 0.952467 0.606846 0.356164
Si Si2 0.086783 0.251386 0.876837
Si Si3 0.508106 0.643785 0.305718
Si Si4 0.500000 0.000000 0.500000
Si Si5 0.290166 0.183349 0.239045
Si Si6 0.268259 0.929971 0.355408
Si Si7 0.130429 0.679755 0.711754
Si Si8 0.564635 0.575122 0.848684
O O1 0.020951 0.679873 0.197406
O O2 0.793672 0.734329 0.557608
O O3 0.851633 0.488502 0.339224
O O4 0.165388 0.510038 0.312135
O O5 0.253434 0.339569 0.829238
O O6 0.264125 0.091161 0.726899
O O7 0.937977 0.263925 0.091983
O O8 0.361439 0.689853 0.529264
O O9 0.528763 0.481818 0.236018
O O10 0.358163 0.755327 0.289602
O O11 0.352624 0.967062 0.456277
O O12 0.366360 0.013084 0.204725
O O13 0.466638 0.256902 0.106049
O O14 0.078323 0.230731 0.259630
O O15 0.000000 0.000000 0.500000
O O16 0.500000 0.500000 0.000000
#
# Coordination Sequence:
#
# PCOD9047419 Si02
#       8
#     2   2   2   1   2   2   2   2
#     4  11  20  41  67  94 139 178 217 290 358 402
#     4  11  25  42  65  98 145 177 228 295 355 415
#     4  11  22  41  67  99 131 182 232 283 349 424
#     4  10  24  44  66  98 142 190 230 298 350 420
#     4  11  20  41  72  93 134 185 223 284 358 410
#     4  11  21  41  73  95 134 190 232 284 358 424
#     4  11  21  40  67 102 130 179 232 287 348 427
#     4  11  22  41  68 104 135 174 239 286 341 437
#
# _framework density 25.914559000000001
#
# number of rings (size 3 to 8) (size 9 to 14) (size 15 to 20)
#    0.000    1.067    5.333    2.800    0.000    0.533 
#    2.400    8.667    0.000    0.000    0.000    0.000 
#    0.000    0.000    0.000    0.000    0.000    0.000 
#
# Total GULP energy -83708.143822 kJ/mol
# GULP energy per Si atom -5580.542921 kJ/mol
# Density = 2.585558 g / cm^3
# Si number density = 25.914559 Si / 1000 Ang^3
#
#
#
# Elastic Constant Matrix: (Units=GPa)
#
#
# Indices 1 2 3 4 5 6 
#
# 1 80.0584 15.1341 11.7612 7.2511 5.4196 -11.0831
# 2 15.1341 129.7313 48.4333 -6.7069 5.7988 -1.3078
# 3 11.7612 48.4333 183.3611 -15.5046 22.0777 3.0966
# 4 7.2511 -6.7069 -15.5046 42.9837 8.1497 -3.4354
# 5 5.4196 5.7988 22.0777 8.1497 35.2161 -3.4816
# 6 -11.0831 -1.3078 3.0966 -3.4354 -3.4816 20.0880
#
#
#
# Elastic Compliance Matrix: (Units=1/GPa)
#
#
# Indices 1 2 3 4 5 6 
#
# 1 0.014116 -0.001368 -0.000843 -0.002276 -0.000159 0.007412
# 2 -0.001368 0.008716 -0.002141 0.000851 -0.000052 0.000279
# 3 -0.000843 -0.002141 0.006940 0.003058 -0.004772 -0.001978
# 4 -0.002276 0.000851 0.003058 0.026462 -0.007680 0.001523
# 5 -0.000159 -0.000052 -0.004772 -0.007680 0.033709 0.005173
# 6 0.007412 0.000279 -0.001978 0.001523 0.005173 0.055351
#
#
# Mechanical properties :
#
#
# Convention : Reuss Voigt Hill
#
# Bulk Modulus (GPa) = 47.46304 60.42311 53.94307
# Shear Modulus (GPa) = 31.05180 40.84572 35.94876
#
# Velocity S-wave (km/s) = 3.46531 3.97441 3.72856
# Velocity P-wave (km/s) = 5.86226 6.66544 6.27671
#
# Compressibility (1/GPa) = 0.02106903
#
# Stress axis : x y z
#
# Youngs Moduli (GPa) = 70.83975 114.72755 144.09527
#
# Poissons Ratio (x) = 0.15695 0.12141
# Poissons Ratio (y) = 0.09691 0.30853
# Poissons Ratio (z) = 0.05969 0.24565
#
# Static dielectric constant tensor:
#      x y z
#    x 2.054780 0.000980 0.002170 
#    y 0.000980 2.043050 -0.034520 
#    z 0.002170 -0.034520 2.039340 
# 
# From -- ./inp_files/187225.got.cif
#   From: 2010.05.17/outbox.cif.g08.bks.cpg/sg2_94_cif.got.tgz:187225.got - 2010.06.03 11:33:40.
