data_PCOD9047341
_publ_section_title
;
Structure prediction by ZEFSAII (Michael W. Deem and Ramdas Pophale) SiO2 
 PCOD9047341
Probable space group: P -1
;
_chemical_formula_sum "Si O2"
_cell_formula_units_Z 16
_cell_length_a 11.004272
_cell_length_b 14.999268
_cell_length_c 8.308514
_cell_angle_alpha 95.339397
_cell_angle_beta 69.736239
_cell_angle_gamma 42.295913
_cell_volume 721.221250
_symmetry_space_group_name_H-M "P -1"
_symmetry_group_IT_number 2
_symmetry_cell_setting 'triclinic'
loop_
_space_group_symop_operation_xyz
x,y,z
-x,-y,-z
loop_
_atom_site_type_symbol
_atom_site_label
_atom_site_fract_x
_atom_site_fract_y
_atom_site_fract_z
Si Si1 0.818421 0.681565 0.794548
Si Si2 0.017470 0.375752 0.625572
Si Si3 0.257431 0.479681 0.768082
Si Si4 0.489883 0.111584 0.505096
Si Si5 0.353464 0.808153 0.701580
Si Si6 0.857754 0.114484 0.856030
Si Si7 0.463944 0.814284 0.196175
Si Si8 0.247826 0.624910 0.068236
O O1 0.859108 0.712261 0.616842
O O2 0.863012 0.551943 0.705913
O O3 0.010574 0.602155 0.822178
O O4 0.572076 0.818044 0.014354
O O5 0.217289 0.285769 0.645513
O O6 0.877451 0.373282 0.757121
O O7 0.446301 0.355993 0.518638
O O8 0.336597 0.364305 0.851349
O O9 0.259121 0.573003 0.877411
O O10 0.592811 0.115618 0.318097
O O11 0.605734 0.086594 0.604796
O O12 0.500000 0.000000 0.500000
O O13 0.316440 0.799634 0.899236
O O14 0.106636 0.932699 0.752549
O O15 0.736563 0.133681 0.768220
O O16 0.880215 0.207604 0.842921
O O17 0.500000 0.500000 0.000000
#
# Coordination Sequence:
#
# PCOD9047341 Si02
#       8
#     2   2   2   2   2   2   2   2
#     4  11  21  38  66  95 124 159 213 260 321 377
#     4  11  22  38  64  93 127 162 203 269 319 362
#     4  11  22  38  65  98 128 165 215 262 321 376
#     4  11  23  42  66  95 126 160 216 261 315 380
#     4  10  24  44  65  91 129 179 207 260 318 384
#     4  11  24  45  65  89 133 173 219 252 316 386
#     4  11  21  40  68  92 124 170 205 260 322 378
#     4  12  24  40  63  97 129 166 214 267 309 373
#
# _framework density 22.184594000000001
#
# number of rings (size 3 to 8) (size 9 to 14) (size 15 to 20)
#    0.000    1.000    5.000    2.625    3.500    2.500 
#    2.250    3.750    0.000    0.000    0.000    0.000 
#    0.000    0.000    0.000    0.000    0.000    0.000 
#
# Total GULP energy -89434.320262 kJ/mol
# GULP energy per Si atom -5589.645016 kJ/mol
# Density = 2.213410 g / cm^3
# Si number density = 22.184594 Si / 1000 Ang^3
#
#
#
# Elastic Constant Matrix: (Units=GPa)
#
#
# Indices 1 2 3 4 5 6 
#
# 1 153.0583 31.5944 28.3174 -10.6467 -0.7998 -4.6495
# 2 31.5944 35.5102 4.9647 -4.4839 -0.7903 2.1813
# 3 28.3174 4.9647 83.5506 -19.2332 -21.5735 12.3752
# 4 -10.6467 -4.4839 -19.2332 30.2620 1.5072 -8.1473
# 5 -0.7998 -0.7903 -21.5735 1.5072 35.9823 -1.5805
# 6 -4.6495 2.1813 12.3752 -8.1473 -1.5805 33.8300
#
#
#
# Elastic Compliance Matrix: (Units=1/GPa)
#
#
# Indices 1 2 3 4 5 6 
#
# 1 0.008831 -0.007522 -0.003280 0.000809 -0.001837 0.003007
# 2 -0.007522 0.035172 0.002006 0.002883 0.001544 -0.003269
# 3 -0.003280 0.002006 0.018438 0.009091 0.010441 -0.004648
# 4 0.000809 0.002883 0.009091 0.041133 0.004103 0.006698
# 5 -0.001837 0.001544 0.010441 0.004103 0.033802 -0.001604
# 6 0.003007 -0.003269 -0.004648 0.006698 -0.001604 0.033422
#
#
# Mechanical properties :
#
#
# Convention : Reuss Voigt Hill
#
# Bulk Modulus (GPa) = 22.29668 44.65244 33.47456
# Shear Modulus (GPa) = 24.58935 33.83104 29.21019
#
# Velocity S-wave (km/s) = 3.33287 3.90933 3.63256
# Velocity P-wave (km/s) = 4.98829 6.36778 5.71977
#
# Compressibility (1/GPa) = 0.04484973
#
# Stress axis : x y z
#
# Youngs Moduli (GPa) = 113.23782 28.43145 54.23545
#
# Poissons Ratio (x) = 0.21386 0.17787
# Poissons Ratio (y) = 0.85179 -0.10879
# Poissons Ratio (z) = 0.37137 -0.05703
#
# Static dielectric constant tensor:
#      x y z
#    x 1.805340 0.009540 0.021500 
#    y 0.009540 1.843510 -0.009800 
#    z 0.021500 -0.009800 1.875070 
# 
# From -- ./inp_files/207660.got.cif
#   From: 2010.05.17/outbox.cif.g08.bks.cpg/sg2_104_cif.got.tgz:207660.got - 2010.06.03 11:33:40.
