data_PCOD9047485
_publ_section_title
;
Structure prediction by ZEFSAII (Michael W. Deem and Ramdas Pophale) SiO2 
 PCOD9047485
Probable space group: P -1
;
_chemical_formula_sum "Si O2"
_cell_formula_units_Z 14
_cell_length_a 8.002688
_cell_length_b 8.982147
_cell_length_c 14.428793
_cell_angle_alpha 42.021832
_cell_angle_beta 60.016173
_cell_angle_gamma 81.088078
_cell_volume 557.939829
_symmetry_space_group_name_H-M "P -1"
_symmetry_group_IT_number 2
_symmetry_cell_setting 'triclinic'
loop_
_space_group_symop_operation_xyz
x,y,z
-x,-y,-z
loop_
_atom_site_type_symbol
_atom_site_label
_atom_site_fract_x
_atom_site_fract_y
_atom_site_fract_z
Si Si1 0.733394 0.137254 0.630042
Si Si2 0.041456 0.940606 0.731928
Si Si3 0.896837 0.171784 0.904322
Si Si4 0.670842 0.713451 0.084781
Si Si5 0.405019 0.661098 0.010969
Si Si6 0.724199 0.595161 0.444317
Si Si7 0.315162 0.765934 0.617737
O O1 0.736643 0.355369 0.594593
O O2 0.722937 0.193024 0.498532
O O3 0.525368 0.918946 0.813930
O O4 0.920725 0.055687 0.643111
O O5 0.125610 0.769409 0.731978
O O6 0.229211 0.166636 0.619235
O O7 0.875425 0.796104 0.922834
O O8 0.071609 0.324235 0.714636
O O9 0.825737 0.340878 0.911784
O O10 0.698289 0.963706 0.010282
O O11 0.000000 0.000000 0.000000
O O12 0.658379 0.487741 0.255517
O O13 0.475679 0.632221 0.108498
O O14 0.500000 0.500000 0.000000
O O15 0.500000 0.500000 0.500000
O O16 0.500000 0.000000 0.500000
#
# Coordination Sequence:
#
# PCOD9047485 Si02
#       7
#     2   2   2   2   2   2   2
#     4  11  24  42  65  97 136 179 229 289 345 415
#     4  10  24  44  67  95 136 185 233 286 353 420
#     4  11  24  43  72 102 137 187 234 281 350 423
#     4  10  24  45  68  97 136 183 232 282 343 423
#     4  11  25  46  70 102 141 184 231 285 347 420
#     4  11  23  42  68 102 137 178 235 297 352 415
#     4  12  24  40  66 103 140 182 230 288 350 410
#
# _framework density 25.092310999999999
#
# number of rings (size 3 to 8) (size 9 to 14) (size 15 to 20)
#    0.000    1.143    0.000    5.143    0.000   11.429 
#    0.000    0.000    0.000    0.000    0.000    3.000 
#    0.000    0.000    0.000    0.000    0.000    0.000 
#
# Total GULP energy -78309.784657 kJ/mol
# GULP energy per Si atom -5593.556047 kJ/mol
# Density = 2.503520 g / cm^3
# Si number density = 25.092311 Si / 1000 Ang^3
#
#
#
# Elastic Constant Matrix: (Units=GPa)
#
#
# Indices 1 2 3 4 5 6 
#
# 1 105.6676 43.3913 31.4595 -1.8149 5.2505 7.5765
# 2 43.3913 147.9342 38.5332 -7.0807 -15.3595 -18.5412
# 3 31.4595 38.5332 134.1419 -14.1537 8.4161 2.3072
# 4 -1.8149 -7.0807 -14.1537 33.8623 6.6550 -7.5816
# 5 5.2505 -15.3595 8.4161 6.6550 39.2581 2.6320
# 6 7.5765 -18.5412 2.3072 -7.5816 2.6320 47.6950
#
#
#
# Elastic Compliance Matrix: (Units=1/GPa)
#
#
# Indices 1 2 3 4 5 6 
#
# 1 0.011816 -0.003752 -0.001610 -0.001115 -0.002293 -0.003308
# 2 -0.003752 0.009414 -0.002047 0.001056 0.004157 0.004293
# 3 -0.001610 -0.002047 0.009027 0.003836 -0.003158 -0.000193
# 4 -0.001115 0.001056 0.003836 0.033936 -0.006425 0.006151
# 5 -0.002293 0.004157 -0.003158 -0.006425 0.029205 -0.000500
# 6 -0.003308 0.004293 -0.000193 0.006151 -0.000500 0.024176
#
#
# Mechanical properties :
#
#
# Convention : Reuss Voigt Hill
#
# Bulk Modulus (GPa) = 64.78061 68.27907 66.52984
# Shear Modulus (GPa) = 36.35338 42.45374 39.40356
#
# Velocity S-wave (km/s) = 3.81042 4.11774 3.96706
# Velocity P-wave (km/s) = 6.72548 7.06243 6.89601
#
# Compressibility (1/GPa) = 0.01543672
#
# Stress axis : x y z
#
# Youngs Moduli (GPa) = 84.63193 106.22529 110.78174
#
# Poissons Ratio (x) = 0.39860 0.17836
# Poissons Ratio (y) = 0.31757 0.22682
# Poissons Ratio (z) = 0.13626 0.21749
#
# Static dielectric constant tensor:
#      x y z
#    x 1.911280 -0.355830 0.384330 
#    y -0.355830 1.655340 0.660190 
#    z 0.384330 0.660190 1.096350 
# 
# From -- ./inp_files/494193.got.cif
#   From: 2010.05.17/outbox.cif.g08.bks.cpg/sg2_248_cif.got.tgz:494193.got - 2010.06.03 11:33:40.
