data_PCOD9047223
_publ_section_title
;
Structure prediction by ZEFSAII (Michael W. Deem and Ramdas Pophale) SiO2 
 PCOD9047223
Probable space group: P -1
;
_chemical_formula_sum "Si O2"
_cell_formula_units_Z 12
_cell_length_a 5.068492
_cell_length_b 8.037807
_cell_length_c 21.280015
_cell_angle_alpha 38.235335
_cell_angle_beta 73.476886
_cell_angle_gamma 60.386349
_cell_volume 457.705235
_symmetry_space_group_name_H-M "P -1"
_symmetry_group_IT_number 2
_symmetry_cell_setting 'triclinic'
loop_
_space_group_symop_operation_xyz
x,y,z
-x,-y,-z
loop_
_atom_site_type_symbol
_atom_site_label
_atom_site_fract_x
_atom_site_fract_y
_atom_site_fract_z
Si Si1 0.356545 0.805982 0.031772
Si Si2 0.851478 0.866949 0.729745
Si Si3 0.512129 0.456919 0.772711
Si Si4 0.176991 0.278510 0.611459
Si Si5 0.717737 0.789085 0.902032
Si Si6 0.819190 0.793870 0.575246
O O1 0.668085 0.123223 0.829045
O O2 0.500000 0.000000 0.000000
O O3 0.445200 0.545252 0.154001
O O4 0.000000 0.000000 0.000000
O O5 0.549425 0.095820 0.643185
O O6 0.022112 0.057343 0.687628
O O7 0.136990 0.612142 0.745950
O O8 0.749140 0.765570 0.831733
O O9 0.671259 0.649526 0.677858
O O10 0.557797 0.233507 0.035012
O O11 0.000000 0.500000 0.500000
O O12 0.072604 0.493041 0.614463
O O13 0.000000 0.500000 0.000000
O O14 0.500000 0.000000 0.500000
O O15 0.000000 0.000000 0.500000
#
# Coordination Sequence:
#
# PCOD9047223 Si02
#       6
#     2   2   2   2   2   2
#     4  10  24  43  74 110 154 206 258 324 391 477
#     4  12  27  49  83 120 164 218 269 345 409 494
#     4  11  26  50  79 121 166 215 277 336 412 493
#     4  12  28  54  79 118 164 216 281 342 413 495
#     4  11  24  51  82 123 167 216 274 338 417 494
#     4  12  28  50  83 120 162 215 274 344 414 489
#
# _framework density 26.217748
#
# number of rings (size 3 to 8) (size 9 to 14) (size 15 to 20)
#    0.000    0.667    3.333    2.500    2.333    8.000 
#    0.000    4.167    0.000    0.000    0.000    0.000 
#    0.000    0.000    0.000    0.000    0.000    0.000 
#
# Total GULP energy -67082.728894 kJ/mol
# GULP energy per Si atom -5590.227408 kJ/mol
# Density = 2.615807 g / cm^3
# Si number density = 26.217748 Si / 1000 Ang^3
#
#
#
# Elastic Constant Matrix: (Units=GPa)
#
#
# Indices 1 2 3 4 5 6 
#
# 1 189.2238 73.0840 65.5501 -12.6344 -4.1516 -40.4133
# 2 73.0840 189.9064 61.3312 -15.2837 -12.8416 -21.1460
# 3 65.5501 61.3312 224.2570 17.9319 -8.5831 -12.9282
# 4 -12.6344 -15.2837 17.9319 51.8976 -12.3668 -1.5364
# 5 -4.1516 -12.8416 -8.5831 -12.3668 31.2361 -5.6216
# 6 -40.4133 -21.1460 -12.9282 -1.5364 -5.6216 63.5536
#
#
#
# Elastic Compliance Matrix: (Units=1/GPa)
#
#
# Indices 1 2 3 4 5 6 
#
# 1 0.007565 -0.001607 -0.001668 0.002449 0.001601 0.004138
# 2 -0.001607 0.007025 -0.001476 0.003127 0.003763 0.001424
# 3 -0.001668 -0.001476 0.005529 -0.002900 -0.000555 -0.000546
# 4 0.002449 0.003127 -0.002900 0.024559 0.011184 0.003591
# 5 0.001601 0.003763 -0.000555 0.011184 0.039109 0.005887
# 6 0.004138 0.001424 -0.000546 0.003591 0.005887 0.019336
#
#
# Mechanical properties :
#
#
# Convention : Reuss Voigt Hill
#
# Bulk Modulus (GPa) = 94.16511 111.47976 102.82244
# Shear Modulus (GPa) = 43.04243 56.23225 49.63734
#
# Velocity S-wave (km/s) = 4.05622 4.63624 4.35590
# Velocity P-wave (km/s) = 7.61129 8.44231 8.03755
#
# Compressibility (1/GPa) = 0.01061964
#
# Stress axis : x y z
#
# Youngs Moduli (GPa) = 132.17922 142.34242 180.85196
#
# Poissons Ratio (x) = 0.22871 0.30165
# Poissons Ratio (y) = 0.21238 0.26685
# Poissons Ratio (z) = 0.22047 0.21003
#
# Static dielectric constant tensor:
#      x y z
#    x 2.075610 0.023830 0.008450 
#    y 0.023830 2.029320 0.013370 
#    z 0.008450 0.013370 2.073190 
# 
# From -- ./inp_files/615392.got.cif
#   From: 2010.05.17/outbox.cif.g08.bks.cpg/sg2_308_cif.got.tgz:615392.got - 2010.06.03 11:33:40.
