data_PCOD9047295
_publ_section_title
;
Structure prediction by ZEFSAII (Michael W. Deem and Ramdas Pophale) SiO2 
 PCOD9047295
Probable space group: P -1
;
_chemical_formula_sum "Si O2"
_cell_formula_units_Z 15
_cell_length_a 7.215913
_cell_length_b 17.967488
_cell_length_c 9.719667
_cell_angle_alpha 136.381911
_cell_angle_beta 104.552352
_cell_angle_gamma 48.104160
_cell_volume 577.169499
_symmetry_space_group_name_H-M "P -1"
_symmetry_group_IT_number 2
_symmetry_cell_setting 'triclinic'
loop_
_space_group_symop_operation_xyz
x,y,z
-x,-y,-z
loop_
_atom_site_type_symbol
_atom_site_label
_atom_site_fract_x
_atom_site_fract_y
_atom_site_fract_z
Si Si1 0.960429 0.242080 0.523981
Si Si2 0.954267 0.423473 0.601578
Si Si3 0.454932 0.928204 0.509707
Si Si4 0.833066 0.061473 0.911360
Si Si5 0.500000 0.500000 0.000000
Si Si6 0.906830 0.234449 0.970064
Si Si7 0.626659 0.622259 0.070327
Si Si8 0.244049 0.294917 0.224688
O O1 0.839463 0.348011 0.504870
O O2 0.266198 0.172963 0.483346
O O3 0.789078 0.352386 0.767921
O O4 0.006711 0.096976 0.353068
O O5 0.235086 0.299784 0.395192
O O6 0.795622 0.569535 0.663538
O O7 0.867391 0.510600 0.852482
O O8 0.487255 0.795712 0.275261
O O9 0.500000 0.000000 0.500000
O O10 0.163591 0.073701 0.722023
O O11 0.821535 0.180644 0.994491
O O12 0.531634 0.140239 0.002732
O O13 0.000000 0.000000 0.000000
O O14 0.647340 0.564569 0.147777
O O15 0.626718 0.362408 0.995017
O O16 0.013525 0.303332 0.141819
#
# Coordination Sequence:
#
# PCOD9047295 Si02
#       8
#     2   2   2   2   1   2   2   2
#     4  11  24  46  69 101 138 179 226 280 342 397
#     4  10  24  45  68 100 138 179 223 279 341 402
#     4  12  24  41  71  99 137 177 228 279 334 398
#     4  12  26  46  72 104 133 177 230 281 335 406
#     4  10  24  44  64 100 140 174 226 276 338 400
#     4  12  24  43  74  97 139 177 226 280 337 401
#     4  11  23  43  64 101 133 181 224 273 336 403
#     4  11  24  48  70 100 137 179 226 278 342 400
#
# _framework density 25.988899
#
# number of rings (size 3 to 8) (size 9 to 14) (size 15 to 20)
#    0.000    0.800    2.667    4.400    1.867    4.800 
#   12.000    0.000    0.000    0.000    0.000    0.000 
#    0.000    0.000    0.000    0.000    0.000    0.000 
#
# Total GULP energy -83643.919332 kJ/mol
# GULP energy per Si atom -5576.261289 kJ/mol
# Density = 2.592975 g / cm^3
# Si number density = 25.988899 Si / 1000 Ang^3
#
#
#
# Elastic Constant Matrix: (Units=GPa)
#
#
# Indices 1 2 3 4 5 6 
#
# 1 129.4378 35.9686 15.0845 9.6055 3.9292 13.3379
# 2 35.9686 102.0898 4.5108 6.3513 16.6022 47.6767
# 3 15.0845 4.5108 111.5695 28.9147 -4.9333 14.6831
# 4 9.6055 6.3513 28.9147 37.1079 6.8610 -5.1456
# 5 3.9292 16.6022 -4.9333 6.8610 41.7750 -3.2545
# 6 13.3379 47.6767 14.6831 -5.1456 -3.2545 58.3803
#
#
#
# Elastic Compliance Matrix: (Units=1/GPa)
#
#
# Indices 1 2 3 4 5 6 
#
# 1 0.008776 -0.003680 -0.000930 -0.000893 0.000767 0.001198
# 2 -0.003680 0.021210 0.003333 -0.006323 -0.008079 -0.018327
# 3 -0.000930 0.003333 0.012926 -0.011640 0.001680 -0.006693
# 4 -0.000893 -0.006323 -0.011640 0.039748 -0.004406 0.011553
# 5 0.000767 -0.008079 0.001680 -0.004406 0.028560 0.007204
# 6 0.001198 -0.018327 -0.006693 0.011553 0.007204 0.034925
#
#
# Mechanical properties :
#
#
# Convention : Reuss Voigt Hill
#
# Bulk Modulus (GPa) = 24.77726 50.46944 37.62335
# Shear Modulus (GPa) = 30.83528 46.62154 38.72841
#
# Velocity S-wave (km/s) = 3.44827 4.24004 3.86449
# Velocity P-wave (km/s) = 5.04069 6.59033 5.86690
#
# Compressibility (1/GPa) = 0.04035959
#
# Stress axis : x y z
#
# Youngs Moduli (GPa) = 113.94540 47.14656 77.36464
#
# Poissons Ratio (x) = 0.17348 0.07196
# Poissons Ratio (y) = 0.41926 -0.25787
# Poissons Ratio (z) = 0.10598 -0.15715
#
# Static dielectric constant tensor:
#      x y z
#    x 2.329980 0.012790 0.288350 
#    y 0.012790 2.401640 0.059970 
#    z 0.288350 0.059970 2.319570 
# 
# From -- ./inp_files/369154.got.cif
#   From: 2010.05.17/outbox.cif.g08.bks.cpg/sg2_185_cif.got.tgz:369154.got - 2010.06.03 11:33:40.
