data_PCOD9047931
_publ_section_title
;
Structure prediction by ZEFSAII (Michael W. Deem and Ramdas Pophale) SiO2 
 PCOD9047931
Probable space group: P -1
;
_chemical_formula_sum "Si O2"
_cell_formula_units_Z 15
_cell_length_a 9.410394
_cell_length_b 9.638471
_cell_length_c 13.688218
_cell_angle_alpha 81.439495
_cell_angle_beta 42.070155
_cell_angle_gamma 57.081131
_cell_volume 622.703925
_symmetry_space_group_name_H-M "P -1"
_symmetry_group_IT_number 2
_symmetry_cell_setting 'triclinic'
loop_
_space_group_symop_operation_xyz
x,y,z
-x,-y,-z
loop_
_atom_site_type_symbol
_atom_site_label
_atom_site_fract_x
_atom_site_fract_y
_atom_site_fract_z
Si Si1 0.046539 0.313853 0.982867
Si Si2 0.000000 0.500000 0.500000
Si Si3 0.790728 0.332249 0.920883
Si Si4 0.916963 0.742183 0.805518
Si Si5 0.197616 0.729712 0.372499
Si Si6 0.689212 0.128561 0.877989
Si Si7 0.247530 0.343054 0.593404
Si Si8 0.393981 0.866747 0.395140
O O1 0.349923 0.172878 0.790976
O O2 0.827537 0.342969 0.015732
O O3 0.035962 0.259389 0.102766
O O4 0.000000 0.500000 0.000000
O O5 0.827897 0.424606 0.603699
O O6 0.216588 0.354645 0.492731
O O7 0.828027 0.153763 0.892555
O O8 0.020286 0.331419 0.752885
O O9 0.500000 0.500000 0.000000
O O10 0.141270 0.542890 0.663115
O O11 0.865952 0.919341 0.772542
O O12 0.616421 0.793772 0.942973
O O13 0.339007 0.750072 0.208173
O O14 0.350277 0.729706 0.388257
O O15 0.880740 0.926186 0.508660
O O16 0.474123 0.818618 0.473068
#
# Coordination Sequence:
#
# PCOD9047931 Si02
#       8
#     2   1   2   2   2   2   2   2
#     4  11  20  40  70 100 132 176 222 277 338 401
#     4  12  28  44  70  96 138 178 230 282 346 400
#     4  11  21  40  67  96 136 172 218 280 343 391
#     4  11  23  41  72  98 134 174 231 276 346 408
#     4  11  25  46  68  97 135 186 228 278 343 403
#     4  11  23  42  67 101 137 178 220 286 340 405
#     4  11  24  45  67 101 133 181 229 281 337 412
#     4  10  24  44  71  96 139 179 229 279 336 412
#
# _framework density 24.088495999999999
#
# number of rings (size 3 to 8) (size 9 to 14) (size 15 to 20)
#    0.000    1.067    6.667    0.000    3.733    1.600 
#    0.000    0.000    0.000    0.000    0.000    0.000 
#    0.000    0.000    0.000    0.000    0.000    0.000 
#
# Total GULP energy -83697.097322 kJ/mol
# GULP energy per Si atom -5579.806488 kJ/mol
# Density = 2.403367 g / cm^3
# Si number density = 24.088496 Si / 1000 Ang^3
#
#
#
# Elastic Constant Matrix: (Units=GPa)
#
#
# Indices 1 2 3 4 5 6 
#
# 1 168.7062 13.1813 13.4440 -20.1251 -7.5667 1.4325
# 2 13.1813 68.0071 21.4409 -28.0711 -13.4564 19.1968
# 3 13.4440 21.4409 36.0038 -5.9093 -10.6081 1.3743
# 4 -20.1251 -28.0711 -5.9093 44.6552 -3.9118 -8.3674
# 5 -7.5667 -13.4564 -10.6081 -3.9118 31.3620 -4.2090
# 6 1.4325 19.1968 1.3743 -8.3674 -4.2090 40.7099
#
#
#
# Elastic Compliance Matrix: (Units=1/GPa)
#
#
# Indices 1 2 3 4 5 6 
#
# 1 0.006507 0.001161 -0.001985 0.003607 0.001877 0.000226
# 2 0.001161 0.029774 -0.012177 0.016760 0.009790 -0.009213
# 3 -0.001985 -0.012177 0.037413 -0.002038 0.007353 0.004890
# 4 0.003607 0.016760 -0.002038 0.035427 0.011864 0.000547
# 5 0.001877 0.009790 0.007353 0.011864 0.040737 0.001719
# 6 0.000226 -0.009213 0.004890 0.000547 0.001719 0.029025
#
#
# Mechanical properties :
#
#
# Convention : Reuss Voigt Hill
#
# Bulk Modulus (GPa) = 20.96804 40.98327 30.97565
# Shear Modulus (GPa) = 22.64656 38.32216 30.48436
#
# Velocity S-wave (km/s) = 3.06950 3.99292 3.56127
# Velocity P-wave (km/s) = 4.61366 6.18938 5.45868
#
# Compressibility (1/GPa) = 0.04769163
#
# Stress axis : x y z
#
# Youngs Moduli (GPa) = 153.67045 33.58624 26.72851
#
# Poissons Ratio (x) = -0.03898 0.05305
# Poissons Ratio (y) = -0.17836 0.32549
# Poissons Ratio (z) = 0.30501 0.40899
#
# Static dielectric constant tensor:
#      x y z
#    x 1.964360 0.028470 0.045100 
#    y 0.028470 1.928610 0.059620 
#    z 0.045100 0.059620 1.994120 
# 
# From -- ./inp_files/492673.got.cif
#   From: 2010.05.17/outbox.cif.g08.bks.cpg/sg2_247_cif.got.tgz:492673.got - 2010.06.03 11:33:40.
