data_PCOD9047322
_publ_section_title
;
Structure prediction by ZEFSAII (Michael W. Deem and Ramdas Pophale) SiO2 
 PCOD9047322
Probable space group: P -1
;
_chemical_formula_sum "Si O2"
_cell_formula_units_Z 16
_cell_length_a 14.322871
_cell_length_b 11.726188
_cell_length_c 14.379387
_cell_angle_alpha 31.898465
_cell_angle_beta 45.656365
_cell_angle_gamma 69.283742
_cell_volume 705.633378
_symmetry_space_group_name_H-M "P -1"
_symmetry_group_IT_number 2
_symmetry_cell_setting 'triclinic'
loop_
_space_group_symop_operation_xyz
x,y,z
-x,-y,-z
loop_
_atom_site_type_symbol
_atom_site_label
_atom_site_fract_x
_atom_site_fract_y
_atom_site_fract_z
Si Si1 0.408839 0.992037 0.659531
Si Si2 0.142318 0.272743 0.771822
Si Si3 0.814232 0.053030 0.891250
Si Si4 0.239741 0.118692 0.151329
Si Si5 0.964939 0.452910 0.215370
Si Si6 0.239663 0.619455 0.771547
Si Si7 0.395475 0.476381 0.302589
Si Si8 0.794889 0.457364 0.750370
O O1 0.559160 0.149190 0.522718
O O2 0.355436 0.181854 0.549235
O O3 0.500000 0.000000 0.500000
O O4 0.262349 0.684109 0.011354
O O5 0.060635 0.389436 0.799381
O O6 0.287900 0.485956 0.450232
O O7 0.215871 0.185501 0.857666
O O8 0.000000 0.000000 0.000000
O O9 0.781891 0.232074 0.849839
O O10 0.013791 0.261960 0.582763
O O11 0.720661 0.942330 0.935020
O O12 0.092029 0.831262 0.502603
O O13 0.196162 0.321209 0.020505
O O14 0.406764 0.287348 0.981525
O O15 0.835537 0.370865 0.278134
O O16 0.145181 0.636460 0.911692
O O17 0.328155 0.491526 0.241211
#
# Coordination Sequence:
#
# PCOD9047322 Si02
#       8
#     2   2   2   2   2   2   2   2
#     4  11  26  43  68  97 137 177 222 277 332 395
#     4  12  24  43  70 102 134 173 227 279 339 393
#     4  11  24  41  69 100 136 172 222 286 327 396
#     4  11  24  43  66 101 130 175 223 272 337 393
#     4  11  24  43  71  91 138 178 221 274 332 401
#     4  10  24  44  64  99 132 180 222 270 328 402
#     4  11  25  44  68  97 135 172 223 278 336 402
#     4  11  24  44  66  99 134 175 226 272 340 397
#
# _framework density 22.674664
#
# number of rings (size 3 to 8) (size 9 to 14) (size 15 to 20)
#    0.000    1.000    3.750    1.875    5.250    4.000 
#    0.000    0.000    0.000    0.000    0.000    0.000 
#    0.000    0.000    0.000    0.000    0.000    0.000 
#
# Total GULP energy -89619.632824 kJ/mol
# GULP energy per Si atom -5601.227051 kJ/mol
# Density = 2.262306 g / cm^3
# Si number density = 22.674664 Si / 1000 Ang^3
#
#
#
# Elastic Constant Matrix: (Units=GPa)
#
#
# Indices 1 2 3 4 5 6 
#
# 1 88.0930 -5.9764 9.4523 -3.0968 10.9408 -5.7607
# 2 -5.9764 72.6744 -0.3268 14.2643 7.5074 6.4921
# 3 9.4523 -0.3268 62.7333 0.4897 18.8409 1.1856
# 4 -3.0968 14.2643 0.4897 22.9261 4.3587 5.6938
# 5 10.9408 7.5074 18.8409 4.3587 26.9230 1.2100
# 6 -5.7607 6.4921 1.1856 5.6938 1.2100 27.0228
#
#
#
# Elastic Compliance Matrix: (Units=1/GPa)
#
#
# Indices 1 2 3 4 5 6 
#
# 1 0.012336 0.001084 -0.000265 0.001462 -0.005471 0.002318
# 2 0.001084 0.016165 0.001344 -0.008684 -0.004407 -0.001684
# 3 -0.000265 0.001344 0.020440 0.001751 -0.014811 -0.000982
# 4 0.001462 -0.008684 0.001751 0.052715 -0.007552 -0.008448
# 5 -0.005471 -0.004407 -0.014811 -0.007552 0.052192 -0.000203
# 6 0.002318 -0.001684 -0.000982 -0.008448 -0.000203 0.039737
#
#
# Mechanical properties :
#
#
# Convention : Reuss Voigt Hill
#
# Bulk Modulus (GPa) = 18.77281 25.53322 22.15301
# Shear Modulus (GPa) = 24.15278 30.06448 27.10863
#
# Velocity S-wave (km/s) = 3.26726 3.64525 3.46142
# Velocity P-wave (km/s) = 4.74663 5.38537 5.07606
#
# Compressibility (1/GPa) = 0.05326854
#
# Stress axis : x y z
#
# Youngs Moduli (GPa) = 81.06310 61.86033 48.92249
#
# Poissons Ratio (x) = -0.06708 0.01298
# Poissons Ratio (y) = -0.08791 -0.06576
# Poissons Ratio (z) = 0.02151 -0.08315
#
# Static dielectric constant tensor:
#      x y z
#    x 1.844880 0.008910 -0.020140 
#    y 0.008910 1.836660 0.000100 
#    z -0.020140 0.000100 1.817870 
# 
# From -- ./inp_files/400148.got.cif
#   From: 2010.05.17/outbox.cif.g08.bks.cpg/sg2_201_cif.got.tgz:400148.got - 2010.06.03 11:33:40.
