data_PCOD9047505
_publ_section_title
;
Structure prediction by ZEFSAII (Michael W. Deem and Ramdas Pophale) SiO2 
 PCOD9047505
Probable space group: P -1
;
_chemical_formula_sum "Si O2"
_cell_formula_units_Z 14
_cell_length_a 20.929400
_cell_length_b 5.006898
_cell_length_c 9.180060
_cell_angle_alpha 78.033830
_cell_angle_beta 40.903559
_cell_angle_gamma 92.802320
_cell_volume 583.609603
_symmetry_space_group_name_H-M "P -1"
_symmetry_group_IT_number 2
_symmetry_cell_setting 'triclinic'
loop_
_space_group_symop_operation_xyz
x,y,z
-x,-y,-z
loop_
_atom_site_type_symbol
_atom_site_label
_atom_site_fract_x
_atom_site_fract_y
_atom_site_fract_z
Si Si1 0.196448 0.640116 0.406317
Si Si2 0.069158 0.292215 0.913729
Si Si3 0.196571 0.697395 0.077550
Si Si4 0.485075 0.476879 0.733285
Si Si5 0.988612 0.753773 0.667690
Si Si6 0.568947 0.123515 0.006059
Si Si7 0.322099 0.363693 0.777660
O O1 0.162289 0.421457 0.625616
O O2 0.101981 0.766974 0.527203
O O3 0.206406 0.543303 0.232693
O O4 0.310897 0.837776 0.226388
O O5 0.076662 0.224068 0.078330
O O6 0.000000 0.500000 0.000000
O O7 0.000000 0.000000 0.000000
O O8 0.259430 0.587488 0.860210
O O9 0.246799 0.039396 0.974514
O O10 0.078178 0.558348 0.247664
O O11 0.446998 0.591214 0.932291
O O12 0.406852 0.501706 0.740881
O O13 0.605161 0.644816 0.482262
O O14 0.472553 0.140201 0.781750
O O15 0.000000 0.000000 0.500000
O O16 0.500000 0.000000 0.000000
#
# Coordination Sequence:
#
# PCOD9047505 Si02
#       7
#     2   2   2   2   2   2   2
#     4  11  24  46  70 101 149 190 233 301 364 428
#     4  10  24  44  67  98 138 189 234 284 358 430
#     4  12  23  41  70 110 140 184 240 292 365 430
#     4  11  23  46  68 102 141 183 241 294 361 416
#     4  11  25  45  74 110 146 188 243 299 366 440
#     4  12  26  45  72 102 139 194 246 290 358 437
#     4  11  23  41  72 101 139 185 227 300 357 420
#
# _framework density 23.988641000000001
#
# number of rings (size 3 to 8) (size 9 to 14) (size 15 to 20)
#    0.000    0.857    2.857    3.429    0.000   11.429 
#    0.000    1.429    0.000    0.000    0.000    0.000 
#    0.000    0.000    0.000    0.000    0.000    0.000 
#
# Total GULP energy -78147.643752 kJ/mol
# GULP energy per Si atom -5581.974554 kJ/mol
# Density = 2.393404 g / cm^3
# Si number density = 23.988641 Si / 1000 Ang^3
#
#
#
# Elastic Constant Matrix: (Units=GPa)
#
#
# Indices 1 2 3 4 5 6 
#
# 1 106.3090 13.9827 48.2878 -6.3960 -12.0855 18.0059
# 2 13.9827 108.0350 33.4052 -14.1302 -11.2286 10.7541
# 3 48.2878 33.4052 155.6355 -20.0125 -1.3388 7.3371
# 4 -6.3960 -14.1302 -20.0125 34.9267 -7.8965 -4.3485
# 5 -12.0855 -11.2286 -1.3388 -7.8965 40.9249 -6.4396
# 6 18.0059 10.7541 7.3371 -4.3485 -6.4396 36.9313
#
#
#
# Elastic Compliance Matrix: (Units=1/GPa)
#
#
# Indices 1 2 3 4 5 6 
#
# 1 0.012126 0.000350 -0.003537 0.000396 0.002888 -0.004761
# 2 0.000350 0.010839 -0.001806 0.003967 0.003486 -0.001893
# 3 -0.003537 -0.001806 0.008298 0.003384 -0.000471 0.000918
# 4 0.000396 0.003967 0.003384 0.034624 0.008555 0.003548
# 5 0.002888 0.003486 -0.000471 0.008555 0.028452 0.003639
# 6 -0.004761 -0.001893 0.000918 0.003548 0.003639 0.030820
#
#
# Mechanical properties :
#
#
# Convention : Reuss Voigt Hill
#
# Bulk Modulus (GPa) = 46.99848 62.37010 54.68429
# Shear Modulus (GPa) = 35.15284 40.84350 37.99817
#
# Velocity S-wave (km/s) = 3.83220 4.13076 3.98428
# Velocity P-wave (km/s) = 6.26223 6.98621 6.63410
#
# Compressibility (1/GPa) = 0.02127728
#
# Stress axis : x y z
#
# Youngs Moduli (GPa) = 82.46982 92.26045 120.50935
#
# Poissons Ratio (x) = -0.03231 0.42626
# Poissons Ratio (y) = -0.02888 0.21761
# Poissons Ratio (z) = 0.29171 0.16660
#
# Static dielectric constant tensor:
#      x y z
#    x 2.057000 -0.075650 0.027970 
#    y -0.075650 1.900680 0.057280 
#    z 0.027970 0.057280 2.062210 
# 
# From -- ./inp_files/340303.got.cif
#   From: 2010.05.17/outbox.cif.g08.bks.cpg/sg2_171_cif.got.tgz:340303.got - 2010.06.03 11:33:40.
