data_PCOD9047358
_publ_section_title
;
Structure prediction by ZEFSAII (Michael W. Deem and Ramdas Pophale) SiO2 
 PCOD9047358
Probable space group: P -1
;
_chemical_formula_sum "Si O2"
_cell_formula_units_Z 16
_cell_length_a 9.360233
_cell_length_b 7.765010
_cell_length_c 19.860067
_cell_angle_alpha 138.090602
_cell_angle_beta 139.168799
_cell_angle_gamma 51.983414
_cell_volume 625.786253
_symmetry_space_group_name_H-M "P -1"
_symmetry_group_IT_number 2
_symmetry_cell_setting 'triclinic'
loop_
_space_group_symop_operation_xyz
x,y,z
-x,-y,-z
loop_
_atom_site_type_symbol
_atom_site_label
_atom_site_fract_x
_atom_site_fract_y
_atom_site_fract_z
Si Si1 0.367413 0.836614 0.053579
Si Si2 0.843660 0.104243 0.641919
Si Si3 0.222313 0.433202 0.156800
Si Si4 0.950511 0.732321 0.370460
Si Si5 0.734968 0.076936 0.190467
Si Si6 0.228986 0.401632 0.593663
Si Si7 0.759980 0.349060 0.914695
Si Si8 0.959128 0.191598 0.178966
O O1 0.265948 0.138669 0.111482
O O2 0.588183 0.860055 0.097669
O O3 0.409091 0.707015 0.103456
O O4 0.174539 0.718203 0.910370
O O5 0.017865 0.176091 0.668356
O O6 0.722619 0.362406 0.707719
O O7 0.004014 0.979363 0.720247
O O8 0.707602 0.882152 0.499316
O O9 0.313805 0.490849 0.131560
O O10 0.960287 0.475542 0.057634
O O11 0.783717 0.660675 0.348894
O O12 0.070269 0.434775 0.318505
O O13 0.000000 0.000000 0.500000
O O14 0.664587 0.329115 0.286656
O O15 0.752699 0.123766 0.131289
O O16 0.000000 0.500000 0.500000
O O17 0.872452 0.063382 0.847730
#
# Coordination Sequence:
#
# PCOD9047358 Si02
#       8
#     2   2   2   2   2   2   2   2
#     4  11  22  36  54  83 119 148 179 233 288 327
#     4  10  17  34  57  82 102 143 193 230 265 334
#     4  10  20  36  58  78 109 151 193 224 267 335
#     4   9  17  29  53  85 106 130 185 240 268 310
#     4  10  20  35  54  81 114 143 179 233 287 323
#     4   8  17  32  53  79 108 141 180 227 276 326
#     4  10  20  36  57  79 111 150 193 224 268 338
#     4  10  18  36  56  78 110 152 186 222 280 336
#
# _framework density 25.567836
#
# number of rings (size 3 to 8) (size 9 to 14) (size 15 to 20)
#    0.000    2.250    1.250    3.375    0.000    0.000 
#    4.500    1.875    0.000    0.750    0.000    0.000 
#    0.000    0.000    0.000    0.000    0.000    0.000 
#
# Total GULP energy -89071.240074 kJ/mol
# GULP energy per Si atom -5566.952505 kJ/mol
# Density = 2.550964 g / cm^3
# Si number density = 25.567836 Si / 1000 Ang^3
#
#
#
# Elastic Constant Matrix: (Units=GPa)
#
#
# Indices 1 2 3 4 5 6 
#
# 1 102.1364 20.4138 14.0054 -7.8264 -5.7267 33.7142
# 2 20.4138 82.3324 37.8192 22.7739 -9.9508 9.5452
# 3 14.0054 37.8192 97.7882 40.4177 -6.2696 2.1117
# 4 -7.8264 22.7739 40.4177 54.7478 -1.4569 -12.9852
# 5 -5.7267 -9.9508 -6.2696 -1.4569 38.5124 4.5954
# 6 33.7142 9.5452 2.1117 -12.9852 4.5954 47.3335
#
#
#
# Elastic Compliance Matrix: (Units=1/GPa)
#
#
# Indices 1 2 3 4 5 6 
#
# 1 0.013627 -0.001784 -0.001681 0.001862 0.002436 -0.008997
# 2 -0.001784 0.016599 -0.003695 -0.005211 0.003666 -0.003697
# 3 -0.001681 -0.003695 0.016816 -0.011584 0.001347 -0.002116
# 4 0.001862 -0.005211 -0.011584 0.031337 -0.002858 0.009116
# 5 0.002436 0.003666 0.001347 -0.002858 0.028108 -0.006047
# 6 -0.008997 -0.003697 -0.002116 0.009116 -0.006047 0.031463
#
#
# Mechanical properties :
#
#
# Convention : Reuss Voigt Hill
#
# Bulk Modulus (GPa) = 30.56140 47.41487 38.98814
# Shear Modulus (GPa) = 30.64163 42.11999 36.38081
#
# Velocity S-wave (km/s) = 3.46561 4.06320 3.77624
# Velocity P-wave (km/s) = 5.29084 6.37164 5.85622
#
# Compressibility (1/GPa) = 0.03272101
#
# Stress axis : x y z
#
# Youngs Moduli (GPa) = 73.38398 60.24531 59.46782
#
# Poissons Ratio (x) = 0.10749 0.09995
# Poissons Ratio (y) = 0.13094 0.21975
# Poissons Ratio (z) = 0.12334 0.22262
#
# Static dielectric constant tensor:
#      x y z
#    x 2.073440 -0.050380 0.011970 
#    y -0.050380 2.057870 0.022930 
#    z 0.011970 0.022930 2.001400 
# 
# From -- ./inp_files/206084.got.cif
#   From: 2010.05.17/outbox.cif.g08.bks.cpg/sg2_104_cif.got.tgz:206084.got - 2010.06.03 11:33:40.
