data_PCOD9047780
_publ_section_title
;
Structure prediction by ZEFSAII (Michael W. Deem and Ramdas Pophale) SiO2 
 PCOD9047780
Probable space group: P -1
;
_chemical_formula_sum "Si O2"
_cell_formula_units_Z 14
_cell_length_a 11.836724
_cell_length_b 25.675922
_cell_length_c 9.480684
_cell_angle_alpha 152.879119
_cell_angle_beta 141.936117
_cell_angle_gamma 30.460041
_cell_volume 663.345570
_symmetry_space_group_name_H-M "P -1"
_symmetry_group_IT_number 2
_symmetry_cell_setting 'triclinic'
loop_
_space_group_symop_operation_xyz
x,y,z
-x,-y,-z
loop_
_atom_site_type_symbol
_atom_site_label
_atom_site_fract_x
_atom_site_fract_y
_atom_site_fract_z
Si Si1 0.584116 0.859469 0.161538
Si Si2 0.336771 0.473528 0.859843
Si Si3 0.687508 0.504979 0.779322
Si Si4 0.796319 0.711877 0.291975
Si Si5 0.689131 0.170138 0.392111
Si Si6 0.966860 0.749509 0.049469
Si Si7 0.261651 0.084084 0.043646
O O1 0.724257 0.739874 0.126265
O O2 0.745498 0.834059 0.129878
O O3 0.500000 0.000000 0.500000
O O4 0.385318 0.855845 0.892656
O O5 0.461252 0.307302 0.564299
O O6 0.500000 0.500000 0.000000
O O7 0.324465 0.509829 0.099995
O O8 0.099880 0.586048 0.824606
O O9 0.500000 0.500000 0.500000
O O10 0.934679 0.388191 0.682339
O O11 0.677186 0.644939 0.082188
O O12 0.727085 0.848398 0.639064
O O13 0.870831 0.203933 0.637318
O O14 0.784159 0.031612 0.243932
O O15 0.908291 0.792218 0.931638
O O16 0.500000 0.000000 0.000000
#
# Coordination Sequence:
#
# PCOD9047780 Si02
#       7
#     2   2   2   2   2   2   2
#     4  12  24  46  67 101 138 178 229 286 349 413
#     4  10  24  44  70 104 133 179 239 281 340 409
#     4  11  26  46  70 103 141 182 229 285 349 415
#     4  11  26  44  70 103 141 180 227 285 356 406
#     4  11  25  43  72 101 136 182 236 283 343 411
#     4  11  25  44  71 100 139 183 234 285 344 409
#     4  12  23  47  69 103 141 184 230 288 346 413
#
# _framework density 21.105138
#
# number of rings (size 3 to 8) (size 9 to 14) (size 15 to 20)
#    0.000    0.857    4.286    1.286    8.000    2.286 
#    5.143    0.000    0.000    0.000    0.000    0.000 
#    0.000    0.000    0.000    0.000    0.000    0.000 
#
# Total GULP energy -78235.625321 kJ/mol
# GULP energy per Si atom -5588.258951 kJ/mol
# Density = 2.105710 g / cm^3
# Si number density = 21.105138 Si / 1000 Ang^3
#
#
#
# Elastic Constant Matrix: (Units=GPa)
#
#
# Indices 1 2 3 4 5 6 
#
# 1 86.8470 22.2754 40.0999 -3.3633 11.1859 15.6119
# 2 22.2754 105.4117 30.0081 -15.6711 5.3783 27.2103
# 3 40.0999 30.0081 99.4562 -6.7644 4.5434 3.1555
# 4 -3.3633 -15.6711 -6.7644 41.9649 -2.9795 -0.2335
# 5 11.1859 5.3783 4.5434 -2.9795 35.8686 -2.6116
# 6 15.6119 27.2103 3.1555 -0.2335 -2.6116 38.2831
#
#
#
# Elastic Compliance Matrix: (Units=1/GPa)
#
#
# Indices 1 2 3 4 5 6 
#
# 1 0.016071 0.000300 -0.006142 0.000036 -0.004755 -0.006585
# 2 0.000300 0.013682 -0.003553 0.004362 -0.002037 -0.009667
# 3 -0.006142 -0.003553 0.013458 0.000449 0.001072 0.003996
# 4 0.000036 0.004362 0.000449 0.025602 0.001192 -0.002915
# 5 -0.004755 -0.002037 0.001072 0.001192 0.030021 0.005354
# 6 -0.006585 -0.009667 0.003996 -0.002915 0.005354 0.035695
#
#
# Mechanical properties :
#
#
# Convention : Reuss Voigt Hill
#
# Bulk Modulus (GPa) = 40.94629 52.94240 46.94434
# Shear Modulus (GPa) = 30.96763 36.51207 33.73985
#
# Velocity S-wave (km/s) = 3.83469 4.16385 4.00266
# Velocity P-wave (km/s) = 6.24898 6.94668 6.60705
#
# Compressibility (1/GPa) = 0.02442224
#
# Stress axis : x y z
#
# Youngs Moduli (GPa) = 62.22422 73.08674 74.30735
#
# Poissons Ratio (x) = -0.02193 0.45636
# Poissons Ratio (y) = -0.01867 0.26400
# Poissons Ratio (z) = 0.38215 0.25966
#
# Static dielectric constant tensor:
#      x y z
#    x 1.722450 0.027550 0.013310 
#    y 0.027550 1.771170 0.077200 
#    z 0.013310 0.077200 1.734190 
# 
# From -- ./inp_files/259718.got.cif
#   From: 2010.05.17/outbox.cif.g08.bks.cpg/sg2_130_cif.got.tgz:259718.got - 2010.06.03 11:33:40.
