data_PCOD9047191
_publ_section_title
;
Structure prediction by ZEFSAII (Michael W. Deem and Ramdas Pophale) SiO2 
 PCOD9047191
Probable space group: P -1
;
_chemical_formula_sum "Si O2"
_cell_formula_units_Z 10
_cell_length_a 9.368004
_cell_length_b 9.225057
_cell_length_c 9.458219
_cell_angle_alpha 100.429732
_cell_angle_beta 150.181088
_cell_angle_gamma 74.911882
_cell_volume 390.727274
_symmetry_space_group_name_H-M "P -1"
_symmetry_group_IT_number 2
_symmetry_cell_setting 'triclinic'
loop_
_space_group_symop_operation_xyz
x,y,z
-x,-y,-z
loop_
_atom_site_type_symbol
_atom_site_label
_atom_site_fract_x
_atom_site_fract_y
_atom_site_fract_z
Si Si1 0.084844 0.664848 0.311547
Si Si2 0.556476 0.513081 0.885667
Si Si3 0.559705 0.256200 0.622249
Si Si4 0.374028 0.019477 0.051034
Si Si5 0.844427 0.942071 0.694518
O O1 0.850998 0.819850 0.115664
O O2 0.296689 0.646786 0.626040
O O3 0.314872 0.654801 0.378891
O O4 0.873869 0.547329 0.127484
O O5 0.530656 0.364492 0.750274
O O6 0.500000 0.500000 0.000000
O O7 0.251583 0.200190 0.339653
O O8 0.772372 0.089339 0.760530
O O9 0.160673 0.908240 0.888929
O O10 0.500000 0.000000 0.000000
O O11 0.624019 0.995898 0.380884
#
# Coordination Sequence:
#
# PCOD9047191 Si02
#       5
#     2   2   2   2   2
#     4  11  25  47  73 103 141 191 240 281 360 423
#     4  12  27  46  72 106 145 186 236 297 353 416
#     4  10  24  47  74 104 145 184 240 287 350 430
#     4  11  24  45  72 106 147 181 234 297 352 419
#     4  10  24  43  73 107 138 190 235 286 354 419
#
# _framework density 25.593298999999998
#
# number of rings (size 3 to 8) (size 9 to 14) (size 15 to 20)
#    0.000    1.200    0.000    4.800    2.800   13.600 
#    0.000    0.000    0.000    0.000    0.000    0.000 
#    0.000    0.000    0.000    0.000    0.000    0.000 
#
# Total GULP energy -55977.183570 kJ/mol
# GULP energy per Si atom -5597.718357 kJ/mol
# Density = 2.553505 g / cm^3
# Si number density = 25.593299 Si / 1000 Ang^3
#
#
#
# Elastic Constant Matrix: (Units=GPa)
#
#
# Indices 1 2 3 4 5 6 
#
# 1 212.6369 63.0958 59.7409 42.6608 -3.7422 11.4497
# 2 63.0958 84.8244 27.4122 8.7590 9.5917 12.2815
# 3 59.7409 27.4122 119.3334 -0.5243 6.0809 18.0534
# 4 42.6608 8.7590 -0.5243 63.5502 18.5089 9.0468
# 5 -3.7422 9.5917 6.0809 18.5089 52.5430 12.0345
# 6 11.4497 12.2815 18.0534 9.0468 12.0345 31.1144
#
#
#
# Elastic Compliance Matrix: (Units=1/GPa)
#
#
# Indices 1 2 3 4 5 6 
#
# 1 0.008476 -0.005151 -0.003478 -0.006320 0.003883 0.001268
# 2 -0.005151 0.016415 -0.000430 0.002725 -0.003401 -0.003811
# 3 -0.003478 -0.000430 0.011147 0.003708 -0.001502 -0.005515
# 4 -0.006320 0.002725 0.003708 0.022683 -0.008394 -0.004250
# 5 0.003883 -0.003401 -0.001502 -0.008394 0.024491 -0.006247
# 6 0.001268 -0.003811 -0.005515 -0.004250 -0.006247 0.040029
#
#
# Mechanical properties :
#
#
# Convention : Reuss Voigt Hill
#
# Bulk Modulus (GPa) = 55.80259 79.69917 67.75088
# Shear Modulus (GPa) = 33.93689 47.21127 40.57408
#
# Velocity S-wave (km/s) = 3.64539 4.29963 3.98595
# Velocity P-wave (km/s) = 6.29042 7.47377 6.90748
#
# Compressibility (1/GPa) = 0.01792031
#
# Stress axis : x y z
#
# Youngs Moduli (GPa) = 117.97326 60.92112 89.71118
#
# Poissons Ratio (x) = 0.31382 0.31198
# Poissons Ratio (y) = 0.60771 0.03857
# Poissons Ratio (z) = 0.41027 0.02619
#
# Static dielectric constant tensor:
#      x y z
#    x 1.969690 0.066210 0.028200 
#    y 0.066210 2.095890 -0.029410 
#    z 0.028200 -0.029410 2.168500 
# 
# From -- ./inp_files/39394.got.cif
#   From: 2010.05.17/outbox.cif.g08.bks.cpg/sg2_20_cif.got.tgz:39394.got - 2010.06.03 11:33:40.
