data_PCOD9047201
_publ_section_title
;
Structure prediction by ZEFSAII (Michael W. Deem and Ramdas Pophale) SiO2 
 PCOD9047201
Probable space group: P -1
;
_chemical_formula_sum "Si O2"
_cell_formula_units_Z 14
_cell_length_a 11.131508
_cell_length_b 12.150826
_cell_length_c 8.633411
_cell_angle_alpha 94.538044
_cell_angle_beta 40.611363
_cell_angle_gamma 113.023828
_cell_volume 651.689968
_symmetry_space_group_name_H-M "P -1"
_symmetry_group_IT_number 2
_symmetry_cell_setting 'triclinic'
loop_
_space_group_symop_operation_xyz
x,y,z
-x,-y,-z
loop_
_atom_site_type_symbol
_atom_site_label
_atom_site_fract_x
_atom_site_fract_y
_atom_site_fract_z
Si Si1 0.972846 0.368633 0.579250
Si Si2 0.722998 0.195219 0.306336
Si Si3 0.338908 0.359655 0.066684
Si Si4 0.848706 0.615544 0.248688
Si Si5 0.532622 0.663504 0.410851
Si Si6 0.468105 0.165385 0.046668
Si Si7 0.456503 0.996471 0.290122
O O1 0.102248 0.331393 0.329791
O O2 0.079604 0.385184 0.645675
O O3 0.000000 0.500000 0.500000
O O4 0.723547 0.263540 0.825838
O O5 0.542414 0.233657 0.513934
O O6 0.726081 0.117770 0.443130
O O7 0.640718 0.095384 0.234962
O O8 0.945206 0.317925 0.055321
O O9 0.500000 0.500000 0.000000
O O10 0.393785 0.357756 0.832428
O O11 0.370014 0.252112 0.108229
O O12 0.716428 0.688330 0.356597
O O13 0.679939 0.469941 0.350519
O O14 0.447270 0.067273 0.923012
O O15 0.381916 0.078794 0.273902
#
# Coordination Sequence:
#
# PCOD9047201 Si02
#       7
#     2   2   2   2   2   2   2
#     4  12  25  42  72 104 134 178 227 283 355 409
#     4  11  23  47  68  96 140 185 232 275 343 402
#     4  12  24  43  71 102 137 175 224 290 344 405
#     4  11  25  42  69 105 137 179 223 285 358 404
#     4  11  25  43  67 106 141 172 228 287 348 413
#     4  11  23  47  69 100 143 175 237 280 340 400
#     4  10  24  43  73  95 136 196 227 281 325 411
#
# _framework density 21.482607999999999
#
# number of rings (size 3 to 8) (size 9 to 14) (size 15 to 20)
#    0.000    0.857    5.714    0.429    4.000    2.286 
#    0.000    8.571    0.000    0.000    0.000    0.000 
#    0.000    0.000    0.000    0.000    0.000    0.000 
#
# Total GULP energy -78314.841954 kJ/mol
# GULP energy per Si atom -5593.917282 kJ/mol
# Density = 2.143371 g / cm^3
# Si number density = 21.482608 Si / 1000 Ang^3
#
#
#
# Elastic Constant Matrix: (Units=GPa)
#
#
# Indices 1 2 3 4 5 6 
#
# 1 124.9082 64.0763 66.0271 -1.4992 14.2478 -24.9028
# 2 64.0763 103.0716 27.8196 7.4098 10.4023 -34.7658
# 3 66.0271 27.8196 100.1074 -3.3330 17.2682 -29.2513
# 4 -1.4992 7.4098 -3.3330 17.1338 -14.6484 12.9906
# 5 14.2478 10.4023 17.2682 -14.6484 37.6688 -5.4429
# 6 -24.9028 -34.7658 -29.2513 12.9906 -5.4429 37.0485
#
#
#
# Elastic Compliance Matrix: (Units=1/GPa)
#
#
# Indices 1 2 3 4 5 6 
#
# 1 0.004013 0.026657 0.012848 -0.093130 -0.041681 0.064387
# 2 0.026657 -0.079623 -0.057137 0.252870 0.111258 -0.174232
# 3 0.012848 -0.057137 -0.020266 0.160901 0.067243 -0.107520
# 4 -0.093130 0.252870 0.160901 -0.640811 -0.287601 0.484168
# 5 -0.041681 0.111258 0.067243 -0.287601 -0.099919 0.215641
# 6 0.064387 -0.174232 -0.107520 0.484168 0.215641 -0.316204
#
#
# Mechanical properties :
#
#
# Convention : Reuss Voigt Hill
#
# Bulk Modulus (GPa) = -7.62539 71.54813 31.96137
# Shear Modulus (GPa) = -4.30567 29.71450 12.70442
#
# Velocity S-wave (km/s) = -1.41725 3.72316 2.43447
# Velocity P-wave (km/s) = 2.49708 7.20139 4.77622
#
# Compressibility (1/GPa) = -0.13114082
#
# Stress axis : x y z
#
# Youngs Moduli (GPa) = 249.18655 -12.55917 -49.34343
#
# Poissons Ratio (x) = 0.33479 0.63398
# Poissons Ratio (y) = -6.64249 -2.81935
# Poissons Ratio (z) = -3.20163 -0.71760
#
# Static dielectric constant tensor:
#      x y z
#    x 1.800680 0.002260 0.017530 
#    y 0.002260 1.779880 -0.007000 
#    z 0.017530 -0.007000 1.783130 
# 
# From -- ./inp_files/258434.got.cif
#   From: 2010.05.17/outbox.cif.g08.bks.cpg/sg2_130_cif.got.tgz:258434.got - 2010.06.03 11:33:40.
