data_PCOD9047647
_publ_section_title
;
Structure prediction by ZEFSAII (Michael W. Deem and Ramdas Pophale) SiO2 
 PCOD9047647
Probable space group: P -1
;
_chemical_formula_sum "Si O2"
_cell_formula_units_Z 14
_cell_length_a 11.503031
_cell_length_b 9.755695
_cell_length_c 4.908489
_cell_angle_alpha 97.962974
_cell_angle_beta 100.447478
_cell_angle_gamma 107.251188
_cell_volume 506.368595
_symmetry_space_group_name_H-M "P -1"
_symmetry_group_IT_number 2
_symmetry_cell_setting 'triclinic'
loop_
_space_group_symop_operation_xyz
x,y,z
-x,-y,-z
loop_
_atom_site_type_symbol
_atom_site_label
_atom_site_fract_x
_atom_site_fract_y
_atom_site_fract_z
Si Si1 0.822068 0.473700 0.668271
Si Si2 0.718457 0.812387 0.527746
Si Si3 0.058763 0.722294 0.070994
Si Si4 0.987448 0.851605 0.609108
Si Si5 0.313062 0.471459 0.884050
Si Si6 0.495496 0.759231 0.827941
Si Si7 0.383109 0.969976 0.647154
O O1 0.787267 0.488287 0.345969
O O2 0.830063 0.327325 0.776751
O O3 0.958642 0.590464 0.823914
O O4 0.719392 0.515523 0.813765
O O5 0.852788 0.814230 0.692736
O O6 0.696918 0.693729 0.242109
O O7 0.592472 0.754081 0.634436
O O8 0.727605 0.981323 0.514312
O O9 0.994256 0.751996 0.327001
O O10 0.085183 0.848185 0.886071
O O11 0.000000 0.000000 0.500000
O O12 0.438812 0.602476 0.898875
O O13 0.376749 0.811337 0.706557
O O14 0.570463 0.900319 0.076580
O O15 0.500000 0.000000 0.500000
#
# Coordination Sequence:
#
# PCOD9047647 Si02
#       7
#     2   2   2   2   2   2   2
#     4  11  24  43  73 100 141 183 226 293 347 408
#     4  11  24  42  69  99 141 180 224 294 346 408
#     4  11  23  48  69  99 141 183 232 286 348 409
#     4  12  26  45  70 104 138 183 233 286 348 415
#     4  12  25  42  72 109 139 180 237 286 348 415
#     4  10  24  44  68  99 140 184 230 281 348 424
#     4   9  22  44  65  94 137 185 230 280 342 418
#
# _framework density 27.647846999999999
#
# number of rings (size 3 to 8) (size 9 to 14) (size 15 to 20)
#    0.000    1.143    2.857    1.714    8.000    5.143 
#    5.143    0.000    0.000    0.000    0.000    0.000 
#    0.000    0.000    0.000    0.000    0.000    0.000 
#
# Total GULP energy -78350.912447 kJ/mol
# GULP energy per Si atom -5596.493746 kJ/mol
# Density = 2.758492 g / cm^3
# Si number density = 27.647847 Si / 1000 Ang^3
#
#
#
# Elastic Constant Matrix: (Units=GPa)
#
#
# Indices 1 2 3 4 5 6 
#
# 1 76.6504 27.9998 25.7840 2.6792 6.7283 -25.4900
# 2 27.9998 172.5318 20.9545 -23.1805 -12.3565 -36.0784
# 3 25.7840 20.9545 101.2492 -9.9963 0.2458 -10.1709
# 4 2.6792 -23.1805 -9.9963 41.3497 -10.0177 -0.1697
# 5 6.7283 -12.3565 0.2458 -10.0177 58.0911 -8.2767
# 6 -25.4900 -36.0784 -10.1709 -0.1697 -8.2767 54.3874
#
#
#
# Elastic Compliance Matrix: (Units=1/GPa)
#
#
# Indices 1 2 3 4 5 6 
#
# 1 0.017208 -0.001721 -0.003773 -0.003478 -0.002104 0.005886
# 2 -0.001721 0.008184 -0.000198 0.005553 0.003633 0.005155
# 3 -0.003773 -0.000198 0.011214 0.003070 0.000926 0.000348
# 4 -0.003478 0.005553 0.003070 0.030048 0.007299 0.003832
# 5 -0.002104 0.003633 0.000926 0.007299 0.020153 0.004687
# 6 0.005886 0.005155 0.000348 0.003832 0.004687 0.025355
#
#
# Mechanical properties :
#
#
# Convention : Reuss Voigt Hill
#
# Bulk Modulus (GPa) = 39.64925 55.54532 47.59729
# Shear Modulus (GPa) = 37.89179 49.14519 43.51849
#
# Velocity S-wave (km/s) = 3.70606 4.22066 3.97171
# Velocity P-wave (km/s) = 5.71709 6.62464 6.18753
#
# Compressibility (1/GPa) = 0.02522116
#
# Stress axis : x y z
#
# Youngs Moduli (GPa) = 58.11256 122.19454 89.17224
#
# Poissons Ratio (x) = 0.21036 0.33643
# Poissons Ratio (y) = 0.10004 0.01766
# Poissons Ratio (z) = 0.21925 0.02420
#
# Static dielectric constant tensor:
#      x y z
#    x 2.204380 -0.017380 0.113200 
#    y -0.017380 2.257160 -0.089750 
#    z 0.113200 -0.089750 2.042060 
# 
# From -- ./inp_files/45736.got.cif
#   From: 2010.05.17/outbox.cif.g08.bks.cpg/sg2_23_cif.got.tgz:45736.got - 2010.06.03 11:33:40.
