data_PCOD9047254
_publ_section_title
;
Structure prediction by ZEFSAII (Michael W. Deem and Ramdas Pophale) SiO2 
 PCOD9047254
Probable space group: P -1
;
_chemical_formula_sum "Si O2"
_cell_formula_units_Z 12
_cell_length_a 9.195371
_cell_length_b 7.222893
_cell_length_c 13.869812
_cell_angle_alpha 141.273436
_cell_angle_beta 64.427669
_cell_angle_gamma 109.212049
_cell_volume 519.800734
_symmetry_space_group_name_H-M "P -1"
_symmetry_group_IT_number 2
_symmetry_cell_setting 'triclinic'
loop_
_space_group_symop_operation_xyz
x,y,z
-x,-y,-z
loop_
_atom_site_type_symbol
_atom_site_label
_atom_site_fract_x
_atom_site_fract_y
_atom_site_fract_z
Si Si1 0.260803 0.652411 0.671349
Si Si2 0.066027 0.306336 0.145701
Si Si3 0.593286 0.961580 0.057771
Si Si4 0.651619 0.152910 0.470244
Si Si5 0.685071 0.807880 0.671954
Si Si6 0.990726 0.928966 0.359718
O O1 0.326186 0.879771 0.665282
O O2 0.671206 0.666568 0.511114
O O3 0.067025 0.639170 0.710324
O O4 0.319455 0.755649 0.800933
O O5 0.256925 0.266275 0.090021
O O6 0.029466 0.580652 0.197952
O O7 0.000000 0.000000 0.000000
O O8 0.500000 0.000000 0.000000
O O9 0.441842 0.933484 0.162748
O O10 0.652303 0.512822 0.624821
O O11 0.500000 0.000000 0.500000
O O12 0.815074 0.022185 0.414471
O O13 0.866739 0.909284 0.671268
O O14 0.000000 0.000000 0.500000
#
# Coordination Sequence:
#
# PCOD9047254 Si02
#       6
#     2   2   2   2   2   2
#     4   9  22  46  73 101 142 193 245 295 360 436
#     4  10  24  45  69 104 148 195 233 300 377 431
#     4  11  25  42  73 103 152 190 240 300 374 426
#     4  10  25  41  75 110 138 184 255 300 357 421
#     4  10  24  43  77 105 145 183 254 300 360 427
#     4  12  24  42  76 108 145 190 250 304 357 438
#
# _framework density 23.085768000000002
#
# number of rings (size 3 to 8) (size 9 to 14) (size 15 to 20)
#    1.000    0.667    1.667    1.000   11.667    0.667 
#    0.000    6.667    0.000    0.000    0.000    0.000 
#    0.000    0.000    0.000    0.000    0.000    0.000 
#
# Total GULP energy -66841.996080 kJ/mol
# GULP energy per Si atom -5570.166340 kJ/mol
# Density = 2.303322 g / cm^3
# Si number density = 23.085768 Si / 1000 Ang^3
#
#
#
# Elastic Constant Matrix: (Units=GPa)
#
#
# Indices 1 2 3 4 5 6 
#
# 1 198.4037 68.1729 50.4941 -14.0284 -42.1690 26.1855
# 2 68.1729 152.7555 30.3100 8.3224 -20.6776 42.9778
# 3 50.4941 30.3100 83.4260 -10.7409 -16.9172 2.7910
# 4 -14.0284 8.3224 -10.7409 42.3613 7.3126 -6.6796
# 5 -42.1690 -20.6776 -16.9172 7.3126 50.5343 -18.6713
# 6 26.1855 42.9778 2.7910 -6.6796 -18.6713 44.7567
#
#
#
# Elastic Compliance Matrix: (Units=1/GPa)
#
#
# Indices 1 2 3 4 5 6 
#
# 1 0.007525 -0.002350 -0.002647 0.001557 0.004209 0.000008
# 2 -0.002350 0.011368 -0.003364 -0.005282 -0.001668 -0.010815
# 3 -0.002647 -0.003364 0.015808 0.004142 0.003236 0.005761
# 4 0.001557 -0.005282 0.004142 0.027537 -0.000590 0.007766
# 5 0.004209 -0.001668 0.003236 -0.000590 0.027619 0.010371
# 6 0.000008 -0.010815 0.005761 0.007766 0.010371 0.037850
#
#
# Mechanical properties :
#
#
# Convention : Reuss Voigt Hill
#
# Bulk Modulus (GPa) = 55.62339 81.39325 68.50832
# Shear Modulus (GPa) = 33.24005 46.57101 39.90553
#
# Velocity S-wave (km/s) = 3.79865 4.49631 4.16213
# Velocity P-wave (km/s) = 6.58682 7.89235 7.26896
#
# Compressibility (1/GPa) = 0.01797805
#
# Stress axis : x y z
#
# Youngs Moduli (GPa) = 132.88630 87.96889 63.26062
#
# Poissons Ratio (x) = 0.20677 0.16745
# Poissons Ratio (y) = 0.31234 0.21280
# Poissons Ratio (z) = 0.35174 0.29591
#
# Static dielectric constant tensor:
#      x y z
#    x 1.941480 0.018250 -0.025140 
#    y 0.018250 1.926140 -0.062220 
#    z -0.025140 -0.062220 1.982510 
# 
# From -- ./inp_files/422935.got.cif
#   From: 2010.05.17/outbox.cif.g08.bks.cpg/sg2_212_cif.got.tgz:422935.got - 2010.06.03 11:33:40.
