data_PCOD9047249
_publ_section_title
;
Structure prediction by ZEFSAII (Michael W. Deem and Ramdas Pophale) SiO2 
 PCOD9047249
Probable space group: P -1
;
_chemical_formula_sum "Si O2"
_cell_formula_units_Z 16
_cell_length_a 5.278070
_cell_length_b 8.835472
_cell_length_c 15.008835
_cell_angle_alpha 104.768889
_cell_angle_beta 88.716027
_cell_angle_gamma 102.752142
_cell_volume 659.681873
_symmetry_space_group_name_H-M "P -1"
_symmetry_group_IT_number 2
_symmetry_cell_setting 'triclinic'
loop_
_space_group_symop_operation_xyz
x,y,z
-x,-y,-z
loop_
_atom_site_type_symbol
_atom_site_label
_atom_site_fract_x
_atom_site_fract_y
_atom_site_fract_z
Si Si1 0.373146 0.445775 0.148768
Si Si2 0.090295 0.126280 0.654133
Si Si3 0.833275 0.244142 0.827913
Si Si4 0.150769 0.161451 0.971783
Si Si5 0.274239 0.572884 0.554679
Si Si6 0.385814 0.993120 0.790258
Si Si7 0.159387 0.617980 0.760021
Si Si8 0.639368 0.875033 0.525459
O O1 0.339343 0.622459 0.146742
O O2 0.663031 0.444288 0.177262
O O3 0.145313 0.405835 0.219502
O O4 0.292268 0.300801 0.057501
O O5 0.981291 0.255993 0.733112
O O6 0.274185 0.061374 0.713226
O O7 0.234052 0.195910 0.571711
O O8 0.869858 0.974124 0.599417
O O9 0.693289 0.054820 0.792598
O O10 0.984673 0.248506 0.919528
O O11 0.327695 0.089872 0.891651
O O12 0.000000 0.000000 0.000000
O O13 0.500000 0.500000 0.500000
O O14 0.223361 0.551139 0.655464
O O15 0.408797 0.758281 0.562110
O O16 0.000000 0.500000 0.500000
O O17 0.273796 0.808899 0.780132
O O18 0.500000 0.000000 0.500000
#
# Coordination Sequence:
#
# PCOD9047249 Si02
#       8
#     2   2   2   2   2   2   2   2
#     4  12  29  47  76 111 155 196 250 310 379 446
#     4  10  24  43  76 106 144 196 264 312 381 451
#     4  11  26  45  73 110 149 196 248 315 375 447
#     4  11  24  47  76 110 148 199 248 306 374 455
#     4  12  30  48  74 111 154 198 250 315 382 447
#     4  11  25  45  78 102 149 193 258 306 375 454
#     4  12  28  49  75 107 152 201 250 307 376 450
#     4  11  25  45  75 103 146 198 259 315 380 458
#
# _framework density 24.254114999999999
#
# number of rings (size 3 to 8) (size 9 to 14) (size 15 to 20)
#    0.000    0.750    1.250    4.125   15.750    3.500 
#    0.000    0.000    0.000    0.000    0.000    0.000 
#    0.000    0.000    0.000    0.000    0.000    0.000 
#
# Total GULP energy -89495.661136 kJ/mol
# GULP energy per Si atom -5593.478821 kJ/mol
# Density = 2.419891 g / cm^3
# Si number density = 24.254115 Si / 1000 Ang^3
#
#
#
# Elastic Constant Matrix: (Units=GPa)
#
#
# Indices 1 2 3 4 5 6 
#
# 1 55.5960 -3.3317 22.0390 9.9546 2.9869 11.0371
# 2 -3.3317 100.3769 19.2581 7.7657 -8.7871 13.6279
# 3 22.0390 19.2581 145.6825 7.3859 -9.0670 4.4235
# 4 9.9546 7.7657 7.3859 37.9645 3.2601 -7.9079
# 5 2.9869 -8.7871 -9.0670 3.2601 28.1352 4.3982
# 6 11.0371 13.6279 4.4235 -7.9079 4.3982 52.0052
#
#
#
# Elastic Compliance Matrix: (Units=1/GPa)
#
#
# Indices 1 2 3 4 5 6 
#
# 1 0.021865 0.002612 -0.003173 -0.006838 -0.000793 -0.006028
# 2 0.002612 0.011579 -0.001331 -0.004069 0.004075 -0.004439
# 3 -0.003173 -0.001331 0.007701 -0.000591 0.002461 0.000069
# 4 -0.006838 -0.004069 -0.000591 0.031179 -0.005564 0.007779
# 5 -0.000793 0.004075 0.002461 -0.005564 0.039161 -0.005267
# 6 -0.006028 -0.004439 0.000069 0.007779 -0.005267 0.023294
#
#
# Mechanical properties :
#
#
# Convention : Reuss Voigt Hill
#
# Bulk Modulus (GPa) = 26.76541 41.95402 34.35972
# Shear Modulus (GPa) = 33.10936 41.20031 37.15484
#
# Velocity S-wave (km/s) = 3.69874 4.12599 3.91819
# Velocity P-wave (km/s) = 5.41297 6.32722 5.88787
#
# Compressibility (1/GPa) = 0.03736165
#
# Stress axis : x y z
#
# Youngs Moduli (GPa) = 45.73584 86.36522 129.85020
#
# Poissons Ratio (x) = -0.22562 0.41198
# Poissons Ratio (y) = -0.11948 0.17284
# Poissons Ratio (z) = 0.14511 0.11496
#
# Static dielectric constant tensor:
#      x y z
#    x 1.919160 0.030900 -0.105560 
#    y 0.030900 2.025650 -0.049310 
#    z -0.105560 -0.049310 1.915820 
# 
# From -- ./inp_files/480648.got.cif
#   From: 2010.05.17/outbox.cif.g08.bks.cpg/sg2_241_cif.got.tgz:480648.got - 2010.06.03 11:33:40.
