data_PCOD9047145
_publ_section_title
;
Structure prediction by ZEFSAII (Michael W. Deem and Ramdas Pophale) SiO2 
 PCOD9047145
Probable space group: P -1
;
_chemical_formula_sum "Si O2"
_cell_formula_units_Z 16
_cell_length_a 13.937855
_cell_length_b 8.570308
_cell_length_c 12.430498
_cell_angle_alpha 78.666467
_cell_angle_beta 149.015165
_cell_angle_gamma 110.127551
_cell_volume 702.674634
_symmetry_space_group_name_H-M "P -1"
_symmetry_group_IT_number 2
_symmetry_cell_setting 'triclinic'
loop_
_space_group_symop_operation_xyz
x,y,z
-x,-y,-z
loop_
_atom_site_type_symbol
_atom_site_label
_atom_site_fract_x
_atom_site_fract_y
_atom_site_fract_z
Si Si1 0.711567 0.811253 0.808447
Si Si2 0.471305 0.564466 0.798681
Si Si3 0.399047 0.710605 0.937452
Si Si4 0.791829 0.011156 0.261053
Si Si5 0.455917 0.169867 0.586000
Si Si6 0.812015 0.672327 0.597035
Si Si7 0.790701 0.517133 0.814185
Si Si8 0.210740 0.935852 0.989890
O O1 0.567163 0.702037 0.779167
O O2 0.610609 0.859578 0.598852
O O3 0.816199 0.685443 0.881659
O O4 0.855436 0.975271 0.986137
O O5 0.422637 0.647803 0.848297
O O6 0.268715 0.427520 0.575061
O O7 0.611441 0.452797 0.977763
O O8 0.238876 0.807124 0.775815
O O9 0.602138 0.862363 0.146361
O O10 0.777258 0.975152 0.124290
O O11 0.000000 0.000000 0.500000
O O12 0.275696 0.178092 0.484796
O O13 0.627495 0.355171 0.729376
O O14 0.573079 0.058540 0.764804
O O15 0.718967 0.543797 0.622735
O O16 0.046069 0.752949 0.831542
O O17 0.000000 0.500000 0.000000
#
# Coordination Sequence:
#
# PCOD9047145 Si02
#       8
#     2   2   2   2   2   2   2   2
#     4  11  23  42  66  98 138 171 220 271 323 402
#     4  11  20  44  71  99 126 182 229 270 336 398
#     4  10  24  43  72  93 134 175 225 285 333 390
#     4  11  24  46  66 100 137 172 221 283 343 390
#     4  11  22  42  67  96 135 176 217 262 330 397
#     4  11  22  40  67  93 132 172 219 264 329 390
#     4  11  21  40  64  94 135 171 212 267 320 386
#     4  12  25  42  67  98 133 175 217 274 332 391
#
# _framework density 22.770140999999999
#
# number of rings (size 3 to 8) (size 9 to 14) (size 15 to 20)
#    0.000    1.000    5.000    2.625    0.000    3.000 
#    4.500    6.875    0.000    0.000    0.000    0.000 
#    0.000    0.000    0.000    0.000    0.000    0.000 
#
# Total GULP energy -89358.898576 kJ/mol
# GULP energy per Si atom -5584.931161 kJ/mol
# Density = 2.271832 g / cm^3
# Si number density = 22.770141 Si / 1000 Ang^3
#
#
#
# Elastic Constant Matrix: (Units=GPa)
#
#
# Indices 1 2 3 4 5 6 
#
# 1 60.6201 22.2398 50.5630 -10.2427 -16.1994 -15.4101
# 2 22.2398 86.3574 59.6327 -9.9368 -9.0293 -22.6625
# 3 50.5630 59.6327 143.4841 -17.4551 -14.8444 -24.6104
# 4 -10.2427 -9.9368 -17.4551 38.5902 -6.7917 0.7854
# 5 -16.1994 -9.0293 -14.8444 -6.7917 43.1629 1.4174
# 6 -15.4101 -22.6625 -24.6104 0.7854 1.4174 43.0851
#
#
#
# Elastic Compliance Matrix: (Units=1/GPa)
#
#
# Indices 1 2 3 4 5 6 
#
# 1 0.026896 0.001227 -0.007490 0.005439 0.008446 0.005610
# 2 0.001227 0.017640 -0.006219 0.002315 0.002177 0.006051
# 3 -0.007490 -0.006219 0.012746 0.002253 0.000584 0.001270
# 4 0.005439 0.002315 0.002253 0.030297 0.007948 0.003636
# 5 0.008446 0.002177 0.000584 0.007948 0.028133 0.003430
# 6 0.005610 0.006051 0.001270 0.003636 0.003430 0.028946
#
#
# Mechanical properties :
#
#
# Convention : Reuss Voigt Hill
#
# Bulk Modulus (GPa) = 30.94307 61.70362 46.32335
# Shear Modulus (GPa) = 27.71716 35.50272 31.60994
#
# Velocity S-wave (km/s) = 3.49271 3.95293 3.72992
# Velocity P-wave (km/s) = 5.46664 6.92759 6.24002
#
# Compressibility (1/GPa) = 0.03231741
#
# Stress axis : x y z
#
# Youngs Moduli (GPa) = 37.18068 56.68843 78.45718
#
# Poissons Ratio (x) = -0.06954 0.58765
# Poissons Ratio (y) = -0.04561 0.48791
# Poissons Ratio (z) = 0.27849 0.35254
#
# Static dielectric constant tensor:
#      x y z
#    x 1.934240 -0.039000 0.052070 
#    y -0.039000 2.038380 -0.089870 
#    z 0.052070 -0.089870 1.873970 
# 
# From -- ./inp_files/217382.got.cif
#   From: 2010.05.17/outbox.cif.g08.bks.cpg/sg2_109_cif.got.tgz:217382.got - 2010.06.03 11:33:40.
