data_PCOD9047353
_publ_section_title
;
Structure prediction by ZEFSAII (Michael W. Deem and Ramdas Pophale) SiO2 
 PCOD9047353
Probable space group: P -1
;
_chemical_formula_sum "Si O2"
_cell_formula_units_Z 16
_cell_length_a 7.989872
_cell_length_b 8.960387
_cell_length_c 18.049013
_cell_angle_alpha 30.044694
_cell_angle_beta 89.240758
_cell_angle_gamma 89.800520
_cell_volume 646.819143
_symmetry_space_group_name_H-M "P -1"
_symmetry_group_IT_number 2
_symmetry_cell_setting 'triclinic'
loop_
_space_group_symop_operation_xyz
x,y,z
-x,-y,-z
loop_
_atom_site_type_symbol
_atom_site_label
_atom_site_fract_x
_atom_site_fract_y
_atom_site_fract_z
Si Si1 0.338050 0.711623 0.462909
Si Si2 0.973744 0.248464 0.453366
Si Si3 0.184281 0.081030 0.188004
Si Si4 0.521313 0.660790 0.619761
Si Si5 0.834040 0.872339 0.349379
Si Si6 0.344061 0.078407 0.912821
Si Si7 0.666756 0.315565 0.066698
Si Si8 0.169112 0.762411 0.172901
O O1 0.504734 0.669680 0.526624
O O2 0.258770 0.403604 0.569028
O O3 0.202247 0.819823 0.476862
O O4 0.331535 0.930191 0.299796
O O5 0.111404 0.205554 0.535245
O O6 0.003165 0.574200 0.277195
O O7 0.000000 0.000000 0.500000
O O8 0.205723 0.994906 0.139395
O O9 0.192396 0.428563 0.057363
O O10 0.010013 0.935862 0.278651
O O11 0.374747 0.430330 0.747418
O O12 0.689466 0.496559 0.714665
O O13 0.500000 0.000000 0.500000
O O14 0.720455 0.151512 0.211965
O O15 0.348899 0.907903 0.906956
O O16 0.500000 0.000000 0.000000
O O17 0.189116 0.939412 0.020029
O O18 0.500000 0.500000 0.000000
#
# Coordination Sequence:
#
# PCOD9047353 Si02
#       8
#     2   2   2   2   2   2   2   2
#     4  11  22  45  70  94 137 181 232 286 333 402
#     4  11  23  43  71 102 136 179 235 282 339 405
#     4  11  24  44  70  98 137 185 225 282 342 406
#     4  11  24  42  69 100 132 180 234 286 343 404
#     4  11  23  48  70  98 138 180 236 282 333 410
#     4  10  24  44  65  96 146 175 220 286 346 404
#     4  12  26  46  72 100 136 183 231 284 343 409
#     4  11  23  45  65 100 142 179 225 284 344 409
#
# _framework density 24.736433999999999
#
# number of rings (size 3 to 8) (size 9 to 14) (size 15 to 20)
#    0.000    1.000    3.750    3.375    7.000    1.500 
#    9.000    1.250    0.000    0.000    0.000    0.000 
#    0.000    0.000    0.000    0.000    0.000    0.000 
#
# Total GULP energy -89608.126423 kJ/mol
# GULP energy per Si atom -5600.507901 kJ/mol
# Density = 2.468013 g / cm^3
# Si number density = 24.736434 Si / 1000 Ang^3
#
#
#
# Elastic Constant Matrix: (Units=GPa)
#
#
# Indices 1 2 3 4 5 6 
#
# 1 84.0754 18.1292 14.2240 1.4237 -0.9464 -4.4897
# 2 18.1292 138.5473 49.1311 -12.5737 -15.8521 1.4238
# 3 14.2240 49.1311 149.9765 -7.1427 -4.6024 6.3796
# 4 1.4237 -12.5737 -7.1427 45.7556 5.4878 -10.8472
# 5 -0.9464 -15.8521 -4.6024 5.4878 44.4499 2.6995
# 6 -4.4897 1.4238 6.3796 -10.8472 2.6995 37.0785
#
#
#
# Elastic Compliance Matrix: (Units=1/GPa)
#
#
# Indices 1 2 3 4 5 6 
#
# 1 0.012431 -0.001443 -0.000808 -0.000490 -0.000369 0.001583
# 2 -0.001443 0.008782 -0.002586 0.001808 0.002593 0.000273
# 3 -0.000808 -0.002586 0.007652 0.000227 -0.000100 -0.001242
# 4 -0.000490 0.001808 0.000227 0.024442 -0.002796 0.007186
# 5 -0.000369 0.002593 -0.000100 -0.002796 0.023912 -0.002686
# 6 0.001583 0.000273 -0.001242 0.007186 -0.002686 0.029663
#
#
# Mechanical properties :
#
#
# Convention : Reuss Voigt Hill
#
# Bulk Modulus (GPa) = 52.11001 59.50755 55.80878
# Shear Modulus (GPa) = 40.66640 44.86444 42.76542
#
# Velocity S-wave (km/s) = 4.05901 4.26337 4.16245
# Velocity P-wave (km/s) = 6.56348 6.95299 6.76104
#
# Compressibility (1/GPa) = 0.01919017
#
# Stress axis : x y z
#
# Youngs Moduli (GPa) = 80.44627 113.87491 130.68447
#
# Poissons Ratio (x) = 0.16431 0.10563
# Poissons Ratio (y) = 0.11608 0.33793
# Poissons Ratio (z) = 0.06502 0.29446
#
# Static dielectric constant tensor:
#      x y z
#    x 2.124850 -0.044230 0.001150 
#    y -0.044230 1.891820 0.006300 
#    z 0.001150 0.006300 1.989910 
# 
# From -- ./inp_files/186757.got.cif
#   From: 2010.05.17/outbox.cif.g08.bks.cpg/sg2_94_cif.got.tgz:186757.got - 2010.06.03 11:33:40.
