data_PCOD9047638
_publ_section_title
;
Structure prediction by ZEFSAII (Michael W. Deem and Ramdas Pophale) SiO2 
 PCOD9047638
Probable space group: P -1
;
_chemical_formula_sum "Si O2"
_cell_formula_units_Z 14
_cell_length_a 10.654393
_cell_length_b 5.326101
_cell_length_c 25.906393
_cell_angle_alpha 51.061143
_cell_angle_beta 30.576102
_cell_angle_gamma 48.447521
_cell_volume 553.221273
_symmetry_space_group_name_H-M "P -1"
_symmetry_group_IT_number 2
_symmetry_cell_setting 'triclinic'
loop_
_space_group_symop_operation_xyz
x,y,z
-x,-y,-z
loop_
_atom_site_type_symbol
_atom_site_label
_atom_site_fract_x
_atom_site_fract_y
_atom_site_fract_z
Si Si1 0.475608 0.604427 0.934523
Si Si2 0.278505 0.401770 0.888123
Si Si3 0.760319 0.085704 0.409151
Si Si4 0.994357 0.409244 0.140492
Si Si5 0.279634 0.229454 0.436241
Si Si6 0.595992 0.689006 0.319718
Si Si7 0.808478 0.276723 0.774015
O O1 0.741849 0.494678 0.822325
O O2 0.357273 0.994452 0.912463
O O3 0.500000 0.500000 0.000000
O O4 0.255009 0.437342 0.018336
O O5 0.208851 0.579914 0.834282
O O6 0.531442 0.436985 0.822690
O O7 0.000000 0.500000 0.000000
O O8 0.725288 0.462175 0.352777
O O9 0.500000 0.000000 0.500000
O O10 0.771739 0.051678 0.470680
O O11 0.983268 0.801594 0.335739
O O12 0.827323 0.714900 0.197067
O O13 0.097983 0.092075 0.183160
O O14 0.461438 0.439846 0.369246
O O15 0.000000 0.500000 0.500000
O O16 0.396719 0.030199 0.368408
#
# Coordination Sequence:
#
# PCOD9047638 Si02
#       7
#     2   2   2   2   2   2   2
#     4  12  24  43  68  98 136 181 224 285 345 416
#     4  12  25  42  68  96 140 180 227 283 345 417
#     4   9  22  45  69  94 133 182 228 287 348 415
#     4  11  24  44  67 100 135 181 228 284 349 418
#     4  11  23  43  68 102 136 176 231 294 345 411
#     4  10  24  44  68  98 135 183 228 280 355 416
#     4  11  24  46  66 100 135 178 232 281 348 415
#
# _framework density 25.306327
#
# number of rings (size 3 to 8) (size 9 to 14) (size 15 to 20)
#    0.000    1.143    2.857    2.571    2.000    5.714 
#    5.143    0.000    0.000    0.000    0.000    0.000 
#    0.000    0.000    0.000    0.000    0.000    0.000 
#
# Total GULP energy -78083.678531 kJ/mol
# GULP energy per Si atom -5577.405609 kJ/mol
# Density = 2.524873 g / cm^3
# Si number density = 25.306327 Si / 1000 Ang^3
#
#
#
# Elastic Constant Matrix: (Units=GPa)
#
#
# Indices 1 2 3 4 5 6 
#
# 1 106.8468 10.5213 23.0090 4.7258 -3.8395 -15.7951
# 2 10.5213 58.1348 14.1607 43.3526 -6.4008 29.2269
# 3 23.0090 14.1607 149.1593 50.0218 4.9701 15.3130
# 4 4.7258 43.3526 50.0218 56.8263 2.9882 7.3823
# 5 -3.8395 -6.4008 4.9701 2.9882 31.8365 15.2535
# 6 -15.7951 29.2269 15.3130 7.3823 15.2535 11.6672
#
#
#
# Elastic Compliance Matrix: (Units=1/GPa)
#
#
# Indices 1 2 3 4 5 6 
#
# 1 0.008339 0.005149 0.000060 -0.004182 0.005259 -0.005918
# 2 0.005149 -0.000737 -0.003508 -0.000257 -0.014626 0.032706
# 3 0.000060 -0.003508 0.008027 -0.005328 -0.006070 0.009641
# 4 -0.004182 -0.000257 -0.005328 0.026245 0.012907 -0.031505
# 5 0.005259 -0.014626 -0.006070 0.012907 0.021334 0.015667
# 6 -0.005918 0.032706 0.009641 -0.031505 0.015667 -0.017434
#
#
# Mechanical properties :
#
#
# Convention : Reuss Voigt Hill
#
# Bulk Modulus (GPa) = 52.55221 45.50253 49.02737
# Shear Modulus (GPa) = 102.63262 37.82931 70.23097
#
# Velocity S-wave (km/s) = 6.37528 3.87053 5.27376
# Velocity P-wave (km/s) = 8.66047 6.16396 7.51659
#
# Compressibility (1/GPa) = 0.01902870
#
# Stress axis : x y z
#
# Youngs Moduli (GPa) = 119.92536 -1356.32271 124.57390
#
# Poissons Ratio (x) = 6.98352 -0.00742
# Poissons Ratio (y) = -0.61748 0.43705
# Poissons Ratio (z) = -0.00714 -4.75847
#
# Static dielectric constant tensor:
#      x y z
#    x 1.843510 0.157170 0.173070 
#    y 0.157170 2.033710 -0.033490 
#    z 0.173070 -0.033490 1.986670 
# 
# From -- ./inp_files/49116.got.cif
#   From: 2010.05.17/outbox.cif.g08.bks.cpg/sg2_25_cif.got.tgz:49116.got - 2010.06.03 11:33:40.
