data_PCOD9047460
_publ_section_title
;
Structure prediction by ZEFSAII (Michael W. Deem and Ramdas Pophale) SiO2 
 PCOD9047460
Probable space group: P -1
;
_chemical_formula_sum "Si O2"
_cell_formula_units_Z 16
_cell_length_a 4.974071
_cell_length_b 5.841979
_cell_length_c 24.307849
_cell_angle_alpha 62.955384
_cell_angle_beta 69.528718
_cell_angle_gamma 86.197443
_cell_volume 585.731960
_symmetry_space_group_name_H-M "P -1"
_symmetry_group_IT_number 2
_symmetry_cell_setting 'triclinic'
loop_
_space_group_symop_operation_xyz
x,y,z
-x,-y,-z
loop_
_atom_site_type_symbol
_atom_site_label
_atom_site_fract_x
_atom_site_fract_y
_atom_site_fract_z
Si Si1 0.852687 0.195659 0.603536
Si Si2 0.453734 0.482451 0.268271
Si Si3 0.421355 0.026482 0.245932
Si Si4 0.196940 0.753893 0.637097
Si Si5 0.231630 0.774747 0.046930
Si Si6 0.837544 0.776146 0.854727
Si Si7 0.741636 0.320154 0.484171
Si Si8 0.231888 0.879611 0.917841
O O1 0.773610 0.125685 0.553661
O O2 0.954963 0.496898 0.561540
O O3 0.630384 0.115016 0.676044
O O4 0.116244 0.042514 0.620423
O O5 0.537890 0.317047 0.227175
O O6 0.592827 0.354111 0.323770
O O7 0.109160 0.422815 0.309897
O O8 0.543727 0.789718 0.229873
O O9 0.145970 0.092707 0.220965
O O10 0.306847 0.760478 0.566060
O O11 0.281533 0.526053 0.106018
O O12 0.185402 0.694992 0.994991
O O13 0.946030 0.887286 0.076853
O O14 0.500000 0.000000 0.000000
O O15 0.576855 0.915078 0.884521
O O16 0.097925 0.791531 0.877853
O O17 0.500000 0.500000 0.500000
#
# Coordination Sequence:
#
# PCOD9047460 Si02
#       8
#     2   2   2   2   2   2   2   2
#     4  10  24  44  67 104 142 195 248 315 381 454
#     4  11  27  47  78 101 149 196 251 309 382 448
#     4  11  27  53  73 109 153 204 252 313 379 460
#     4  11  25  44  73 102 140 189 252 315 384 449
#     4  11  25  46  81 113 158 193 256 313 383 440
#     4  12  28  45  76 109 157 200 256 309 382 458
#     4  11  23  40  71 100 145 184 258 311 392 444
#     4  11  26  46  74 113 150 198 248 311 375 452
#
# _framework density 27.316248999999999
#
# number of rings (size 3 to 8) (size 9 to 14) (size 15 to 20)
#    0.000    1.000    2.500    1.875   12.250    3.500 
#    2.250    0.000    0.000    0.000    0.000    0.000 
#    0.000    0.000    0.000    0.000    0.000    0.000 
#
# Total GULP energy -89468.902253 kJ/mol
# GULP energy per Si atom -5591.806391 kJ/mol
# Density = 2.725408 g / cm^3
# Si number density = 27.316249 Si / 1000 Ang^3
#
#
#
# Elastic Constant Matrix: (Units=GPa)
#
#
# Indices 1 2 3 4 5 6 
#
# 1 94.9738 30.8122 35.0590 3.1572 14.4746 11.3826
# 2 30.8122 127.1803 50.0940 -0.6866 -1.4871 5.7988
# 3 35.0590 50.0940 163.6978 -10.5794 23.3035 5.8572
# 4 3.1572 -0.6866 -10.5794 51.4673 -2.2741 -1.9878
# 5 14.4746 -1.4871 23.3035 -2.2741 56.5737 3.8137
# 6 11.3826 5.7988 5.8572 -1.9878 3.8137 44.5528
#
#
#
# Elastic Compliance Matrix: (Units=1/GPa)
#
#
# Indices 1 2 3 4 5 6 
#
# 1 0.012620 -0.002337 -0.001627 -0.001349 -0.002502 -0.002552
# 2 -0.002337 0.009534 -0.002697 -0.000214 0.001982 -0.000469
# 3 -0.001627 -0.002697 0.007779 0.001541 -0.002800 0.000053
# 4 -0.001349 -0.000214 0.001541 0.019885 0.000435 0.001020
# 5 -0.002502 0.001982 -0.002800 0.000435 0.019601 -0.000909
# 6 -0.002552 -0.000469 0.000053 0.001020 -0.000909 0.023275
#
#
# Mechanical properties :
#
#
# Convention : Reuss Voigt Hill
#
# Bulk Modulus (GPa) = 60.19650 68.64249 64.41949
# Shear Modulus (GPa) = 44.82193 48.51122 46.66657
#
# Velocity S-wave (km/s) = 4.05514 4.21873 4.13774
# Velocity P-wave (km/s) = 6.63402 6.99382 6.81630
#
# Compressibility (1/GPa) = 0.01661226
#
# Stress axis : x y z
#
# Youngs Moduli (GPa) = 79.23861 104.88283 128.55278
#
# Poissons Ratio (x) = 0.24507 0.20921
# Poissons Ratio (y) = 0.18515 0.34664
# Poissons Ratio (z) = 0.12896 0.28282
#
# Static dielectric constant tensor:
#      x y z
#    x 2.199300 0.104810 -0.074680 
#    y 0.104810 2.166760 0.057410 
#    z -0.074680 0.057410 2.147620 
# 
# From -- ./inp_files/603088.got.cif
#   From: 2010.05.17/outbox.cif.g08.bks.cpg/sg2_302_cif.got.tgz:603088.got - 2010.06.03 11:33:40.
