data_PCOD9047834
_publ_section_title
;
Structure prediction by ZEFSAII (Michael W. Deem and Ramdas Pophale) SiO2 
 PCOD9047834
Probable space group: P -1
;
_chemical_formula_sum "Si O2"
_cell_formula_units_Z 15
_cell_length_a 13.508020
_cell_length_b 18.219450
_cell_length_c 9.722977
_cell_angle_alpha 42.410347
_cell_angle_beta 124.406754
_cell_angle_gamma 152.814026
_cell_volume 703.931561
_symmetry_space_group_name_H-M "P -1"
_symmetry_group_IT_number 2
_symmetry_cell_setting 'triclinic'
loop_
_space_group_symop_operation_xyz
x,y,z
-x,-y,-z
loop_
_atom_site_type_symbol
_atom_site_label
_atom_site_fract_x
_atom_site_fract_y
_atom_site_fract_z
Si Si1 0.244412 0.300674 0.516823
Si Si2 0.811211 0.476653 0.450877
Si Si3 0.000000 0.000000 0.000000
Si Si4 0.361829 0.843486 0.733713
Si Si5 0.917082 0.193196 0.270145
Si Si6 0.672616 0.834451 0.403994
Si Si7 0.227137 0.967916 0.076718
Si Si8 0.934977 0.513851 0.210934
O O1 0.500000 0.500000 0.500000
O O2 0.253005 0.229546 0.487791
O O3 0.137109 0.331657 0.340924
O O4 0.087865 0.130548 0.748197
O O5 0.595128 0.369011 0.493757
O O6 0.768390 0.402945 0.363267
O O7 0.028457 0.723738 0.269048
O O8 0.875179 0.420801 0.669422
O O9 0.149318 0.006070 0.061627
O O10 0.247563 0.851792 0.717665
O O11 0.173034 0.624738 0.815029
O O12 0.500000 0.000000 0.500000
O O13 0.537998 0.907622 0.868864
O O14 0.793044 0.986280 0.415966
O O15 0.982446 0.306879 0.025579
O O16 0.733607 0.950596 0.155342
#
# Coordination Sequence:
#
# PCOD9047834 Si02
#       8
#     2   2   1   2   2   2   2   2
#     4  11  26  47  72  99 134 180 231 285 343 408
#     4  11  23  45  69 100 140 178 229 271 345 411
#     4  10  24  44  70  98 132 176 222 278 338 400
#     4  12  24  40  67 101 138 179 225 288 341 400
#     4  12  26  45  67 102 140 177 233 284 341 407
#     4  11  25  44  70  97 136 186 223 284 341 405
#     4  11  23  44  69 100 138 178 230 278 342 407
#     4  11  25  41  67 100 139 178 223 283 338 408
#
# _framework density 21.308888
#
# number of rings (size 3 to 8) (size 9 to 14) (size 15 to 20)
#    0.000    0.800    2.667    4.000    7.467    1.067 
#    0.000    0.667    0.000    0.000    0.000    0.000 
#    0.000    0.000    0.000    0.000    0.000    0.000 
#
# Total GULP energy -83609.443853 kJ/mol
# GULP energy per Si atom -5573.962924 kJ/mol
# Density = 2.126039 g / cm^3
# Si number density = 21.308888 Si / 1000 Ang^3
#
#
#
# Elastic Constant Matrix: (Units=GPa)
#
#
# Indices 1 2 3 4 5 6 
#
# 1 170.0087 59.8657 22.7659 15.3002 1.3982 22.3638
# 2 59.8657 77.9493 15.5911 10.9908 0.0501 6.2417
# 3 22.7659 15.5911 75.1296 9.2824 5.5095 25.4976
# 4 15.3002 10.9908 9.2824 20.5143 8.5350 9.2655
# 5 1.3982 0.0501 5.5095 8.5350 35.7454 -1.8895
# 6 22.3638 6.2417 25.4976 9.2655 -1.8895 35.1575
#
#
#
# Elastic Compliance Matrix: (Units=1/GPa)
#
#
# Indices 1 2 3 4 5 6 
#
# 1 0.008724 -0.006243 0.000305 -0.001193 -0.000325 -0.004365
# 2 -0.006243 0.018873 -0.002957 -0.007445 0.002709 0.004873
# 3 0.000305 -0.002957 0.018625 0.000597 -0.003737 -0.013535
# 4 -0.001193 -0.007445 0.000597 0.068350 -0.017269 -0.017294
# 5 -0.000325 0.002709 -0.003737 -0.017269 0.033147 0.008769
# 6 -0.004365 0.004873 -0.013535 -0.017294 0.008769 0.045200
#
#
# Mechanical properties :
#
#
# Convention : Reuss Voigt Hill
#
# Bulk Modulus (GPa) = 35.17326 57.72588 46.44957
# Shear Modulus (GPa) = 22.70785 33.27444 27.99114
#
# Velocity S-wave (km/s) = 3.26797 3.95590 3.62828
# Velocity P-wave (km/s) = 5.54813 6.92924 6.27679
#
# Compressibility (1/GPa) = 0.02843069
#
# Stress axis : x y z
#
# Youngs Moduli (GPa) = 114.62851 52.98617 53.68995
#
# Poissons Ratio (x) = 0.33079 -0.01636
# Poissons Ratio (y) = 0.71563 0.15878
# Poissons Ratio (z) = -0.03493 0.15670
#
# Static dielectric constant tensor:
#      x y z
#    x 1.785790 -0.058320 0.023230 
#    y -0.058320 2.090190 -0.128220 
#    z 0.023230 -0.128220 1.794350 
# 
# From -- ./inp_files/278859.got.cif
#   From: 2010.05.17/outbox.cif.g08.bks.cpg/sg2_140_cif.got.tgz:278859.got - 2010.06.03 11:33:40.
