data_PCOD9047153
_publ_section_title
;
Structure prediction by ZEFSAII (Michael W. Deem and Ramdas Pophale) SiO2 
 PCOD9047153
Probable space group: P -1
;
_chemical_formula_sum "Si O2"
_cell_formula_units_Z 12
_cell_length_a 9.136210
_cell_length_b 9.086582
_cell_length_c 11.921830
_cell_angle_alpha 101.855646
_cell_angle_beta 129.936543
_cell_angle_gamma 47.019832
_cell_volume 505.386744
_symmetry_space_group_name_H-M "P -1"
_symmetry_group_IT_number 2
_symmetry_cell_setting 'triclinic'
loop_
_space_group_symop_operation_xyz
x,y,z
-x,-y,-z
loop_
_atom_site_type_symbol
_atom_site_label
_atom_site_fract_x
_atom_site_fract_y
_atom_site_fract_z
Si Si1 0.560081 0.375020 0.758743
Si Si2 0.212076 0.467070 0.021258
Si Si3 0.518329 0.812896 0.466531
Si Si4 0.164269 0.423887 0.727891
Si Si5 0.216375 0.789477 0.491235
Si Si6 0.320445 0.030980 0.816082
O O1 0.780638 0.361817 0.918672
O O2 0.661356 0.163995 0.715780
O O3 0.339374 0.450079 0.755836
O O4 0.399820 0.562699 0.612844
O O5 0.511154 0.219139 0.161189
O O6 0.157537 0.467593 0.863897
O O7 0.000000 0.500000 0.000000
O O8 0.415323 0.790857 0.525281
O O9 0.842680 0.597770 0.561162
O O10 0.500000 0.000000 0.500000
O O11 0.304721 0.177778 0.743459
O O12 0.005226 0.825346 0.306322
O O13 0.000000 0.000000 0.500000
O O14 0.500000 0.000000 0.000000
#
# Coordination Sequence:
#
# PCOD9047153 Si02
#       6
#     2   2   2   2   2   2
#     4  12  25  44  73 100 142 187 230 289 350 412
#     4  11  25  46  73 104 140 186 234 285 350 418
#     4  12  28  44  70 104 141 181 241 290 344 416
#     4  11  25  46  69 105 145 181 231 289 350 413
#     4  12  24  44  72 101 138 183 235 288 352 413
#     4  10  24  43  72  97 142 179 230 283 352 407
#
# _framework density 23.744192999999999
#
# number of rings (size 3 to 8) (size 9 to 14) (size 15 to 20)
#    0.000    0.667    3.333    3.500    7.000    0.000 
#    0.000    1.667    0.000    0.000    0.000    0.000 
#    0.000    0.000    0.000    0.000    0.000    0.000 
#
# Total GULP energy -67117.854847 kJ/mol
# GULP energy per Si atom -5593.154571 kJ/mol
# Density = 2.369015 g / cm^3
# Si number density = 23.744193 Si / 1000 Ang^3
#
#
#
# Elastic Constant Matrix: (Units=GPa)
#
#
# Indices 1 2 3 4 5 6 
#
# 1 189.5277 6.4129 9.9973 18.7345 1.6124 20.7253
# 2 6.4129 81.8707 6.1889 30.6040 -2.3334 23.3126
# 3 9.9973 6.1889 68.5289 20.5045 7.0944 11.4579
# 4 18.7345 30.6040 20.5045 48.1098 4.4875 5.6137
# 5 1.6124 -2.3334 7.0944 4.4875 30.8705 9.9954
# 6 20.7253 23.3126 11.4579 5.6137 9.9954 39.4269
#
#
#
# Elastic Compliance Matrix: (Units=1/GPa)
#
#
# Indices 1 2 3 4 5 6 
#
# 1 0.006009 0.002170 0.000586 -0.003600 0.001706 -0.004532
# 2 0.002170 0.022107 0.004083 -0.015607 0.007794 -0.015152
# 3 0.000586 0.004083 0.018195 -0.009785 -0.000369 -0.006523
# 4 -0.003600 -0.015607 -0.009785 0.035723 -0.007419 0.010759
# 5 0.001706 0.007794 -0.000369 -0.007419 0.038634 -0.014136
# 6 -0.004532 -0.015152 -0.006523 0.010759 -0.014136 0.040653
#
#
# Mechanical properties :
#
#
# Convention : Reuss Voigt Hill
#
# Bulk Modulus (GPa) = 16.66998 42.79173 29.73085
# Shear Modulus (GPa) = 29.82630 44.83665 37.33148
#
# Velocity S-wave (km/s) = 3.54807 4.35020 3.96944
# Velocity P-wave (km/s) = 4.88067 6.57977 5.79285
#
# Compressibility (1/GPa) = 0.05998807
#
# Stress axis : x y z
#
# Youngs Moduli (GPa) = 166.41990 45.23553 54.96115
#
# Poissons Ratio (x) = -0.09816 -0.03219
# Poissons Ratio (y) = -0.36113 -0.22442
# Poissons Ratio (z) = -0.09748 -0.18471
#
# Static dielectric constant tensor:
#      x y z
#    x 1.863100 -0.007230 -0.023440 
#    y -0.007230 1.994510 0.069150 
#    z -0.023440 0.069150 1.960400 
# 
# From -- ./inp_files/155036.got.cif
#   From: 2010.05.17/outbox.cif.g08.bks.cpg/sg2_78_cif.got.tgz:155036.got - 2010.06.03 11:33:40.
