data_PCOD9047842
_publ_section_title
;
Structure prediction by ZEFSAII (Michael W. Deem and Ramdas Pophale) SiO2 
 PCOD9047842
Probable space group: P -1
;
_chemical_formula_sum "Si O2"
_cell_formula_units_Z 16
_cell_length_a 17.983004
_cell_length_b 11.722101
_cell_length_c 8.665244
_cell_angle_alpha 49.923726
_cell_angle_beta 105.831118
_cell_angle_gamma 145.709731
_cell_volume 629.343522
_symmetry_space_group_name_H-M "P -1"
_symmetry_group_IT_number 2
_symmetry_cell_setting 'triclinic'
loop_
_space_group_symop_operation_xyz
x,y,z
-x,-y,-z
loop_
_atom_site_type_symbol
_atom_site_label
_atom_site_fract_x
_atom_site_fract_y
_atom_site_fract_z
Si Si1 0.399085 0.673788 0.196438
Si Si2 0.906839 0.789511 0.382096
Si Si3 0.956165 0.603246 0.781371
Si Si4 0.215629 0.822285 0.667064
Si Si5 0.735419 0.518956 0.058661
Si Si6 0.678343 0.966296 0.990894
Si Si7 0.234821 0.679314 0.533399
Si Si8 0.572089 0.508973 0.162044
O O1 0.259469 0.417855 0.470862
O O2 0.321052 0.557585 0.082777
O O3 0.525545 0.751840 0.198626
O O4 0.500000 0.000000 0.000000
O O5 0.956978 0.767929 0.571248
O O6 0.865821 0.606555 0.379269
O O7 0.065550 0.153212 0.112606
O O8 0.137583 0.842884 0.667329
O O9 0.844450 0.306461 0.867857
O O10 0.860217 0.425819 0.041453
O O11 0.148526 0.660457 0.601545
O O12 0.411318 0.171307 0.453168
O O13 0.676489 0.270999 0.331198
O O14 0.677925 0.562871 0.089860
O O15 0.655719 0.040187 0.767777
O O16 0.675919 0.793593 0.084823
O O17 0.500000 0.500000 0.000000
#
# Coordination Sequence:
#
# PCOD9047842 Si02
#       8
#     2   2   2   2   2   2   2   2
#     4  12  23  44  68 100 138 181 234 278 343 418
#     4  11  25  45  69 102 140 184 233 282 352 406
#     4  10  24  44  70  98 139 189 227 281 350 415
#     4  11  24  43  70 101 140 180 237 281 343 418
#     4  12  27  44  74 101 142 184 232 291 342 409
#     4  11  25  46  72 102 137 186 228 288 347 412
#     4  11  24  43  70 104 136 183 235 283 345 413
#     4  12  24  46  70 105 138 175 234 285 347 407
#
# _framework density 25.423318999999999
#
# number of rings (size 3 to 8) (size 9 to 14) (size 15 to 20)
#    0.000    0.750    5.000    2.250    1.750    5.500 
#    2.250    0.000    0.000    0.000    0.000    0.000 
#    0.000    0.000    0.000    0.000    0.000    0.000 
#
# Total GULP energy -89619.154893 kJ/mol
# GULP energy per Si atom -5601.197181 kJ/mol
# Density = 2.536545 g / cm^3
# Si number density = 25.423319 Si / 1000 Ang^3
#
#
#
# Elastic Constant Matrix: (Units=GPa)
#
#
# Indices 1 2 3 4 5 6 
#
# 1 98.8192 21.1950 46.8255 -15.3193 -12.9888 -22.1015
# 2 21.1950 68.8889 35.7855 -16.8746 -15.6395 -32.7959
# 3 46.8255 35.7855 134.3311 -4.4422 -29.9791 -7.2167
# 4 -15.3193 -16.8746 -4.4422 40.4026 2.1354 0.9893
# 5 -12.9888 -15.6395 -29.9791 2.1354 41.9241 -0.7793
# 6 -22.1015 -32.7959 -7.2167 0.9893 -0.7793 38.8220
#
#
#
# Elastic Compliance Matrix: (Units=1/GPa)
#
#
# Indices 1 2 3 4 5 6 
#
# 1 0.016271 0.007918 -0.005909 0.008275 0.003622 0.014716
# 2 0.007918 0.041558 -0.008626 0.017874 0.011580 0.037789
# 3 -0.005909 -0.008626 0.012019 -0.004512 0.003623 -0.008229
# 4 0.008275 0.017874 -0.004512 0.034169 0.004603 0.018194
# 5 0.003622 0.011580 0.003623 0.004603 0.031893 0.013041
# 6 0.014716 0.037789 -0.008229 0.018194 0.013041 0.064328
#
#
# Mechanical properties :
#
#
# Convention : Reuss Voigt Hill
#
# Bulk Modulus (GPa) = 17.66272 56.62792 37.14532
# Shear Modulus (GPa) = 21.51992 37.44526 29.48259
#
# Velocity S-wave (km/s) = 2.91256 3.84196 3.40908
# Velocity P-wave (km/s) = 4.27472 6.48099 5.48983
#
# Compressibility (1/GPa) = 0.05661641
#
# Stress axis : x y z
#
# Youngs Moduli (GPa) = 61.45813 24.06279 83.20050
#
# Poissons Ratio (x) = -0.19054 0.49161
# Poissons Ratio (y) = -0.48665 0.71765
# Poissons Ratio (z) = 0.36314 0.20756
#
# Static dielectric constant tensor:
#      x y z
#    x 2.004280 0.001750 -0.025330 
#    y 0.001750 2.065930 0.042730 
#    z -0.025330 0.042730 1.967380 
# 
# From -- ./inp_files/332909.got.cif
#   From: 2010.05.17/outbox.cif.g08.bks.cpg/sg2_167_cif.got.tgz:332909.got - 2010.06.03 11:33:40.
