data_PCOD9047216
_publ_section_title
;
Structure prediction by ZEFSAII (Michael W. Deem and Ramdas Pophale) SiO2 
 PCOD9047216
Probable space group: P -1
;
_chemical_formula_sum "Si O2"
_cell_formula_units_Z 14
_cell_length_a 9.231195
_cell_length_b 15.963940
_cell_length_c 13.829341
_cell_angle_alpha 40.197344
_cell_angle_beta 147.381515
_cell_angle_gamma 143.711789
_cell_volume 626.728680
_symmetry_space_group_name_H-M "P -1"
_symmetry_group_IT_number 2
_symmetry_cell_setting 'triclinic'
loop_
_space_group_symop_operation_xyz
x,y,z
-x,-y,-z
loop_
_atom_site_type_symbol
_atom_site_label
_atom_site_fract_x
_atom_site_fract_y
_atom_site_fract_z
Si Si1 0.111687 0.311173 0.021055
Si Si2 0.265298 0.628232 0.762470
Si Si3 0.311035 0.996073 0.992606
Si Si4 0.887051 0.074159 0.787214
Si Si5 0.681043 0.152484 0.251342
Si Si6 0.133887 0.405073 0.602654
Si Si7 0.852944 0.611642 0.813729
O O1 0.444628 0.327630 0.180101
O O2 0.049237 0.298827 0.110137
O O3 0.128723 0.461004 0.863027
O O4 0.877281 0.177619 0.943949
O O5 0.383787 0.727939 0.835406
O O6 0.014030 0.641922 0.545551
O O7 0.534362 0.086484 0.124189
O O8 0.048156 0.049041 0.803688
O O9 0.500000 0.000000 0.000000
O O10 0.028396 0.247212 0.731542
O O11 0.517008 0.988014 0.664940
O O12 0.000000 0.000000 0.000000
O O13 0.029040 0.267100 0.313568
O O14 0.492986 0.506450 0.705684
O O15 0.000000 0.500000 0.500000
O O16 0.000000 0.500000 0.000000
#
# Coordination Sequence:
#
# PCOD9047216 Si02
#       7
#     2   2   2   2   2   2   2
#     4  11  23  41  74 106 144 194 252 287 377 447
#     4  11  25  43  72 106 144 197 245 305 365 449
#     4  11  22  39  72 108 138 192 250 306 352 448
#     4  10  24  43  74 104 144 194 246 302 372 440
#     4  11  23  41  68 102 143 187 244 299 364 428
#     4  12  28  47  76 110 153 193 252 312 372 435
#     4  12  23  45  75 109 146 197 250 306 365 457
#
# _framework density 22.338215999999999
#
# number of rings (size 3 to 8) (size 9 to 14) (size 15 to 20)
#    0.000    0.857    5.714    1.714    4.000    1.143 
#    0.000    0.714    0.000    0.000    0.000    0.000 
#    0.000    0.000    0.000    0.000    0.000    0.000 
#
# Total GULP energy -77968.845694 kJ/mol
# GULP energy per Si atom -5569.203264 kJ/mol
# Density = 2.228737 g / cm^3
# Si number density = 22.338216 Si / 1000 Ang^3
#
#
#
# Elastic Constant Matrix: (Units=GPa)
#
#
# Indices 1 2 3 4 5 6 
#
# 1 147.4189 53.6108 24.5244 -2.1581 31.7704 2.8038
# 2 53.6108 207.4965 43.7615 -1.6775 19.4816 7.1148
# 3 24.5244 43.7615 57.9538 7.4866 5.0619 2.0675
# 4 -2.1581 -1.6775 7.4866 26.9314 3.7382 6.2398
# 5 31.7704 19.4816 5.0619 3.7382 33.1862 5.0253
# 6 2.8038 7.1148 2.0675 6.2398 5.0253 57.6464
#
#
#
# Elastic Compliance Matrix: (Units=1/GPa)
#
#
# Indices 1 2 3 4 5 6 
#
# 1 0.009467 -0.001054 -0.002824 0.002585 -0.008338 0.000218
# 2 -0.001054 0.006235 -0.004305 0.001931 -0.002123 -0.000588
# 3 -0.002824 -0.004305 0.022388 -0.007170 0.002560 0.000419
# 4 0.002585 0.001931 -0.007170 0.041290 -0.006559 -0.004005
# 5 -0.008338 -0.002123 0.002560 -0.006559 0.040043 -0.002205
# 6 0.000218 -0.000588 0.000419 -0.004005 -0.002205 0.018020
#
#
# Mechanical properties :
#
#
# Convention : Reuss Voigt Hill
#
# Bulk Modulus (GPa) = 46.03029 72.96253 59.49641
# Shear Modulus (GPa) = 31.04607 42.95096 36.99852
#
# Velocity S-wave (km/s) = 3.73207 4.38968 4.07417
# Velocity P-wave (km/s) = 6.26274 7.64369 6.98741
#
# Compressibility (1/GPa) = 0.02172483
#
# Stress axis : x y z
#
# Youngs Moduli (GPa) = 105.62916 160.39185 44.66590
#
# Poissons Ratio (x) = 0.16910 0.12612
# Poissons Ratio (y) = 0.11136 0.19228
# Poissons Ratio (z) = 0.29825 0.69047
#
# Static dielectric constant tensor:
#      x y z
#    x 1.917730 0.050980 0.004750 
#    y 0.050980 1.724050 -0.052370 
#    z 0.004750 -0.052370 1.794400 
# 
# From -- ./inp_files/505336.got.cif
#   From: 2010.05.17/outbox.cif.g08.bks.cpg/sg2_253_cif.got.tgz:505336.got - 2010.06.03 11:33:40.
