data_PCOD9047691
_publ_section_title
;
Structure prediction by ZEFSAII (Michael W. Deem and Ramdas Pophale) SiO2 
 PCOD9047691
Probable space group: P -1
;
_chemical_formula_sum "Si O2"
_cell_formula_units_Z 14
_cell_length_a 13.422203
_cell_length_b 11.637005
_cell_length_c 21.635152
_cell_angle_alpha 33.238784
_cell_angle_beta 161.471661
_cell_angle_gamma 147.736491
_cell_volume 561.168492
_symmetry_space_group_name_H-M "P -1"
_symmetry_group_IT_number 2
_symmetry_cell_setting 'triclinic'
loop_
_space_group_symop_operation_xyz
x,y,z
-x,-y,-z
loop_
_atom_site_type_symbol
_atom_site_label
_atom_site_fract_x
_atom_site_fract_y
_atom_site_fract_z
Si Si1 0.213950 0.060229 0.768676
Si Si2 0.633550 0.679887 0.580517
Si Si3 0.415666 0.487390 0.238651
Si Si4 0.586384 0.493174 0.126804
Si Si5 0.013360 0.382103 0.933392
Si Si6 0.720685 0.960197 0.803562
Si Si7 0.176543 0.792674 0.417290
O O1 0.399980 0.265833 0.744320
O O2 0.004868 0.134536 0.665325
O O3 0.976040 0.857958 0.683779
O O4 0.500000 0.000000 0.000000
O O5 0.632974 0.657555 0.664287
O O6 0.372074 0.813885 0.355992
O O7 0.679061 0.444073 0.692587
O O8 0.668738 0.399245 0.386782
O O9 0.123527 0.474079 0.025370
O O10 0.277378 0.504122 0.981921
O O11 0.909610 0.679981 0.257485
O O12 0.500000 0.500000 0.000000
O O13 0.583043 0.244906 0.257360
O O14 0.087393 0.145318 0.087296
O O15 0.000000 0.000000 0.000000
O O16 0.500000 0.000000 0.500000
#
# Coordination Sequence:
#
# PCOD9047691 Si02
#       7
#     2   2   2   2   2   2   2
#     4  12  23  42  66 106 154 188 244 313 385 457
#     4  12  24  45  72 109 153 195 244 318 392 448
#     4  12  24  40  71 108 149 188 247 307 385 459
#     4  10  24  47  72 103 155 202 261 313 375 465
#     4  10  24  44  69 106 157 187 252 317 378 461
#     4  10  25  47  71 104 147 202 259 309 371 463
#     4  12  24  41  71 109 146 197 252 315 388 443
#
# _framework density 24.947942999999999
#
# number of rings (size 3 to 8) (size 9 to 14) (size 15 to 20)
#    0.857    0.000    4.286    2.571    2.000    0.571 
#    0.000    2.143    0.000    0.000    0.000    0.000 
#    0.000    0.000    0.000    0.000    0.000    0.000 
#
# Total GULP energy -78001.866566 kJ/mol
# GULP energy per Si atom -5571.561898 kJ/mol
# Density = 2.489116 g / cm^3
# Si number density = 24.947943 Si / 1000 Ang^3
#
#
#
# Elastic Constant Matrix: (Units=GPa)
#
#
# Indices 1 2 3 4 5 6 
#
# 1 88.1967 13.4282 28.9725 -6.8286 -13.0554 -1.7628
# 2 13.4282 115.1388 23.0142 -7.5554 -6.7325 4.0618
# 3 28.9725 23.0142 195.4748 -38.6183 4.6309 -0.7259
# 4 -6.8286 -7.5554 -38.6183 45.2546 -11.5832 -5.3458
# 5 -13.0554 -6.7325 4.6309 -11.5832 37.7682 -1.0225
# 6 -1.7628 4.0618 -0.7259 -5.3458 -1.0225 31.3094
#
#
#
# Elastic Compliance Matrix: (Units=1/GPa)
#
#
# Indices 1 2 3 4 5 6 
#
# 1 0.012910 -0.000813 -0.001547 0.001962 0.005144 0.001299
# 2 -0.000813 0.009145 -0.000793 0.001054 0.001742 -0.001014
# 3 -0.001547 -0.000793 0.006496 0.005357 0.000200 0.001088
# 4 0.001962 0.001054 0.005357 0.030268 0.009643 0.005581
# 5 0.005144 0.001742 0.000200 0.009643 0.031573 0.002746
# 6 0.001299 -0.001014 0.001088 0.005581 0.002746 0.033212
#
#
# Mechanical properties :
#
#
# Convention : Reuss Voigt Hill
#
# Bulk Modulus (GPa) = 44.95353 58.84890 51.90122
# Shear Modulus (GPa) = 36.40983 45.09282 40.75132
#
# Velocity S-wave (km/s) = 3.82440 4.25605 4.04599
# Velocity P-wave (km/s) = 6.12857 6.91317 6.53266
#
# Compressibility (1/GPa) = 0.02224519
#
# Stress axis : x y z
#
# Youngs Moduli (GPa) = 77.46143 109.34637 153.93771
#
# Poissons Ratio (x) = 0.08886 0.23816
# Poissons Ratio (y) = 0.06295 0.12210
# Poissons Ratio (z) = 0.11984 0.08673
#
# Static dielectric constant tensor:
#      x y z
#    x 2.162670 -0.062010 0.052150 
#    y -0.062010 2.122170 -0.034640 
#    z 0.052150 -0.034640 2.092500 
# 
# From -- ./inp_files/619505.got.cif
#   From: 2010.05.17/outbox.cif.g08.bks.cpg/sg2_310_cif.got.tgz:619505.got - 2010.06.03 11:33:40.
