data_PCOD9047106
_publ_section_title
;
Structure prediction by ZEFSAII (Michael W. Deem and Ramdas Pophale) SiO2 
 PCOD9047106
Probable space group: P -1
;
_chemical_formula_sum "Si O2"
_cell_formula_units_Z 12
_cell_length_a 12.044353
_cell_length_b 7.755678
_cell_length_c 9.747176
_cell_angle_alpha 115.967135
_cell_angle_beta 36.686528
_cell_angle_gamma 116.660599
_cell_volume 480.914100
_symmetry_space_group_name_H-M "P -1"
_symmetry_group_IT_number 2
_symmetry_cell_setting 'triclinic'
loop_
_space_group_symop_operation_xyz
x,y,z
-x,-y,-z
loop_
_atom_site_type_symbol
_atom_site_label
_atom_site_fract_x
_atom_site_fract_y
_atom_site_fract_z
Si Si1 0.609700 0.702645 0.085815
Si Si2 0.782327 0.018363 0.238357
Si Si3 0.326942 0.924772 0.320183
Si Si4 0.832865 0.448913 0.256334
Si Si5 0.144015 0.577092 0.205109
Si Si6 0.539290 0.644067 0.723033
O O1 0.514359 0.828791 0.119140
O O2 0.661990 0.565903 0.456224
O O3 0.455804 0.512447 0.213918
O O4 0.794537 0.607898 0.842870
O O5 0.735134 0.034708 0.450050
O O6 0.944493 0.517529 0.311341
O O7 0.373538 0.130626 0.270476
O O8 0.000000 0.000000 0.000000
O O9 0.177559 0.765933 0.332909
O O10 0.659808 0.837484 0.217644
O O11 0.758846 0.218989 0.258194
O O12 0.000000 0.500000 0.000000
O O13 0.311236 0.624874 0.938777
#
# Coordination Sequence:
#
# PCOD9047106 Si02
#       6
#     2   2   2   2   2   2
#     4  10  24  43  71  99 140 178 232 277 344 407
#     4  12  23  44  66 106 134 182 233 279 343 406
#     4  12  24  45  73 100 140 184 226 285 346 410
#     4  12  26  45  70 104 141 180 235 286 339 413
#     4  10  25  48  69 102 141 182 228 284 349 402
#     4  10  25  45  68 102 141 179 231 273 353 398
#
# _framework density 24.952480999999999
#
# number of rings (size 3 to 8) (size 9 to 14) (size 15 to 20)
#    1.000    0.000    3.333    2.500    2.333    2.667 
#    3.000    0.000    0.000    0.000    0.000    0.000 
#    0.000    0.000    0.000    0.000    0.000    0.000 
#
# Total GULP energy -67123.506180 kJ/mol
# GULP energy per Si atom -5593.625515 kJ/mol
# Density = 2.489569 g / cm^3
# Si number density = 24.952481 Si / 1000 Ang^3
#
#
#
# Elastic Constant Matrix: (Units=GPa)
#
#
# Indices 1 2 3 4 5 6 
#
# 1 108.2696 29.5830 36.3993 16.3810 3.0716 6.8892
# 2 29.5830 168.7939 60.7675 28.8890 16.0632 6.9447
# 3 36.3993 60.7675 122.7122 -0.9572 -3.7045 5.4525
# 4 16.3810 28.8890 -0.9572 45.7451 6.6078 12.0981
# 5 3.0716 16.0632 -3.7045 6.6078 36.4250 -0.4777
# 6 6.8892 6.9447 5.4525 12.0981 -0.4777 18.6762
#
#
#
# Elastic Compliance Matrix: (Units=1/GPa)
#
#
# Indices 1 2 3 4 5 6 
#
# 1 0.010959 -0.000033 -0.003249 -0.003703 -0.000577 -0.000697
# 2 -0.000033 0.008767 -0.004546 -0.005568 -0.003295 0.001602
# 3 -0.003249 -0.004546 0.011638 0.004862 0.002533 -0.003594
# 4 -0.003703 -0.005568 0.004862 0.032219 -0.002831 -0.018926
# 5 -0.000577 -0.003295 0.002533 -0.002831 0.029770 0.003294
# 6 -0.000697 0.001602 -0.003594 -0.018926 0.003294 0.066599
#
#
# Mechanical properties :
#
#
# Convention : Reuss Voigt Hill
#
# Bulk Modulus (GPa) = 63.66537 72.58614 68.12576
# Shear Modulus (GPa) = 27.64806 38.37098 33.00952
#
# Velocity S-wave (km/s) = 3.33232 3.92569 3.64111
# Velocity P-wave (km/s) = 6.35420 7.04989 6.71106
#
# Compressibility (1/GPa) = 0.01570713
#
# Stress axis : x y z
#
# Youngs Moduli (GPa) = 91.25072 114.06032 85.92423
#
# Poissons Ratio (x) = 0.00381 0.27921
# Poissons Ratio (y) = 0.00304 0.39059
# Poissons Ratio (z) = 0.29651 0.51849
#
# Static dielectric constant tensor:
#      x y z
#    x 1.934010 -0.033680 0.045430 
#    y -0.033680 1.921560 -0.023170 
#    z 0.045430 -0.023170 2.057310 
# 
# From -- ./inp_files/249743.got.cif
#   From: 2010.05.17/outbox.cif.g08.bks.cpg/sg2_125_cif.got.tgz:249743.got - 2010.06.03 11:33:40.
