data_PCOD9047513
_publ_section_title
;
Structure prediction by ZEFSAII (Michael W. Deem and Ramdas Pophale) SiO2 
 PCOD9047513
Probable space group: P -1
;
_chemical_formula_sum "Si O2"
_cell_formula_units_Z 14
_cell_length_a 12.032288
_cell_length_b 5.655087
_cell_length_c 13.415172
_cell_angle_alpha 102.499397
_cell_angle_beta 114.083197
_cell_angle_gamma 44.150129
_cell_volume 576.268754
_symmetry_space_group_name_H-M "P -1"
_symmetry_group_IT_number 2
_symmetry_cell_setting 'triclinic'
loop_
_space_group_symop_operation_xyz
x,y,z
-x,-y,-z
loop_
_atom_site_type_symbol
_atom_site_label
_atom_site_fract_x
_atom_site_fract_y
_atom_site_fract_z
Si Si1 0.329521 0.143536 0.005930
Si Si2 0.933875 0.496130 0.666147
Si Si3 0.645210 0.740148 0.445852
Si Si4 0.707953 0.198554 0.177687
Si Si5 0.218971 0.513546 0.204834
Si Si6 0.457290 0.669949 0.677985
Si Si7 0.911610 0.278796 0.181990
O O1 0.161051 0.477268 0.916192
O O2 0.318763 0.877504 0.947959
O O3 0.303830 0.254773 0.120130
O O4 0.500000 0.000000 0.000000
O O5 0.834259 0.520049 0.540592
O O6 0.810279 0.626660 0.727609
O O7 0.980476 0.711950 0.700697
O O8 0.116368 0.121931 0.728775
O O9 0.613967 0.497619 0.390576
O O10 0.500000 0.000000 0.500000
O O11 0.624901 0.979536 0.375529
O O12 0.564573 0.305841 0.208513
O O13 0.741195 0.430776 0.191379
O O14 0.342888 0.558036 0.288072
O O15 0.033419 0.893503 0.152589
#
# Coordination Sequence:
#
# PCOD9047513 Si02
#       7
#     2   2   2   2   2   2   2
#     4  11  23  43  69 101 142 178 239 291 366 417
#     4  10  24  44  70  95 146 178 239 291 355 422
#     4  12  26  45  73 106 141 187 242 295 354 421
#     4  10  25  45  66 104 139 182 232 295 356 430
#     4  11  23  43  70 102 137 189 234 295 353 426
#     4  12  27  44  75 107 142 186 243 294 358 418
#     4  10  24  44  67  99 142 185 234 290 355 433
#
# _framework density 24.294219999999999
#
# number of rings (size 3 to 8) (size 9 to 14) (size 15 to 20)
#    0.000    1.143    2.857    1.714    8.000    8.000 
#    0.000    0.000    0.000    0.000    0.000    0.000 
#    0.000    0.000    0.000    0.000    0.000    0.000 
#
# Total GULP energy -78143.213782 kJ/mol
# GULP energy per Si atom -5581.658127 kJ/mol
# Density = 2.423893 g / cm^3
# Si number density = 24.294220 Si / 1000 Ang^3
#
#
#
# Elastic Constant Matrix: (Units=GPa)
#
#
# Indices 1 2 3 4 5 6 
#
# 1 133.7984 12.3793 17.3935 15.1419 14.8512 28.3434
# 2 12.3793 66.6332 26.2482 0.9386 4.2262 10.6318
# 3 17.3935 26.2482 62.3391 8.8682 14.7668 21.3611
# 4 15.1419 0.9386 8.8682 31.6670 -0.2034 8.8554
# 5 14.8512 4.2262 14.7668 -0.2034 43.0773 0.1331
# 6 28.3434 10.6318 21.3611 8.8554 0.1331 37.0285
#
#
#
# Elastic Compliance Matrix: (Units=1/GPa)
#
#
# Indices 1 2 3 4 5 6 
#
# 1 0.009659 -0.000950 0.001507 -0.003007 -0.003745 -0.007258
# 2 -0.000950 0.018252 -0.007856 0.002269 0.001242 -0.000528
# 3 0.001507 -0.007856 0.025975 -0.004227 -0.008633 -0.012840
# 4 -0.003007 0.002269 -0.004227 0.035373 0.002444 -0.004380
# 5 -0.003745 0.001242 -0.008633 0.002444 0.027333 0.006808
# 6 -0.007258 -0.000528 -0.012840 -0.004380 0.006808 0.041144
#
#
# Mechanical properties :
#
#
# Convention : Reuss Voigt Hill
#
# Bulk Modulus (GPa) = 25.45335 41.64586 33.54961
# Shear Modulus (GPa) = 26.96407 36.13787 31.55097
#
# Velocity S-wave (km/s) = 3.33513 3.86101 3.60766
# Velocity P-wave (km/s) = 5.03295 6.08737 5.58510
#
# Compressibility (1/GPa) = 0.03928757
#
# Stress axis : x y z
#
# Youngs Moduli (GPa) = 103.52597 54.78750 38.49865
#
# Poissons Ratio (x) = 0.05206 -0.05801
# Poissons Ratio (y) = 0.09837 0.30245
# Poissons Ratio (z) = -0.15600 0.43042
#
# Static dielectric constant tensor:
#      x y z
#    x 1.967850 0.036070 0.009330 
#    y 0.036070 2.023100 0.023430 
#    z 0.009330 0.023430 1.955380 
# 
# From -- ./inp_files/38868.got.cif
#   From: 2010.05.17/outbox.cif.g08.bks.cpg/sg2_20_cif.got.tgz:38868.got - 2010.06.03 11:33:40.
