data_PCOD9047495
_publ_section_title
;
Structure prediction by ZEFSAII (Michael W. Deem and Ramdas Pophale) SiO2 
 PCOD9047495
Probable space group: P -1
;
_chemical_formula_sum "Si O2"
_cell_formula_units_Z 15
_cell_length_a 11.938493
_cell_length_b 8.424986
_cell_length_c 14.271848
_cell_angle_alpha 122.257894
_cell_angle_beta 30.626992
_cell_angle_gamma 119.630303
_cell_volume 616.371258
_symmetry_space_group_name_H-M "P -1"
_symmetry_group_IT_number 2
_symmetry_cell_setting 'triclinic'
loop_
_space_group_symop_operation_xyz
x,y,z
-x,-y,-z
loop_
_atom_site_type_symbol
_atom_site_label
_atom_site_fract_x
_atom_site_fract_y
_atom_site_fract_z
Si Si1 0.740004 0.990518 0.366462
Si Si2 0.632486 0.175404 0.187439
Si Si3 0.820427 0.063424 0.534710
Si Si4 0.768227 0.582513 0.174112
Si Si5 0.261933 0.897779 0.116158
Si Si6 0.692897 0.529826 0.004455
Si Si7 0.000000 0.000000 0.000000
Si Si8 0.196422 0.529712 0.293219
O O1 0.750691 0.766323 0.306589
O O2 0.500000 0.000000 0.500000
O O3 0.776727 0.108134 0.470877
O O4 0.914409 0.046240 0.179110
O O5 0.610995 0.399472 0.257135
O O6 0.785021 0.113767 0.142819
O O7 0.384016 0.081851 0.339709
O O8 0.746469 0.097212 0.988290
O O9 0.803432 0.251036 0.664543
O O10 0.063213 0.993751 0.338322
O O11 0.750701 0.646869 0.096058
O O12 0.000000 0.500000 0.000000
O O13 0.243753 0.676690 0.080485
O O14 0.500000 0.000000 0.000000
O O15 0.431137 0.511248 0.168331
O O16 0.801871 0.583471 0.842076
O O17 0.000000 0.500000 0.500000
#
# Coordination Sequence:
#
# PCOD9047495 Si02
#       8
#     2   2   2   2   2   2   1   2
#     4  12  24  42  70 106 140 180 231 290 346 417
#     4  11  25  43  71  99 143 187 230 289 348 414
#     4  12  25  43  69 105 135 176 239 285 346 417
#     4  11  23  47  70 100 145 189 233 278 349 423
#     4  11  23  44  68  96 135 181 230 284 348 412
#     4  10  24  44  67  97 136 178 226 284 342 410
#     4  12  22  44  68 102 140 186 230 286 358 402
#     4  11  25  45  70 101 134 179 230 289 352 410
#
# _framework density 24.335982999999999
#
# number of rings (size 3 to 8) (size 9 to 14) (size 15 to 20)
#    0.000    0.800    4.000    3.200    0.000    6.933 
#    0.000    0.000    0.000    0.000    0.000    0.000 
#    0.000    0.000    0.000    0.000    0.000    0.000 
#
# Total GULP energy -83679.000131 kJ/mol
# GULP energy per Si atom -5578.600009 kJ/mol
# Density = 2.428059 g / cm^3
# Si number density = 24.335983 Si / 1000 Ang^3
#
#
#
# Elastic Constant Matrix: (Units=GPa)
#
#
# Indices 1 2 3 4 5 6 
#
# 1 133.2679 14.5555 35.9145 -0.8924 4.4534 -6.5929
# 2 14.5555 58.7355 12.8621 -0.7399 -0.1723 15.4180
# 3 35.9145 12.8621 113.7539 -18.0657 -6.5043 -3.8159
# 4 -0.8924 -0.7399 -18.0657 44.9457 -9.3103 -2.5905
# 5 4.4534 -0.1723 -6.5043 -9.3103 54.8526 3.1343
# 6 -6.5929 15.4180 -3.8159 -2.5905 3.1343 30.0963
#
#
#
# Elastic Compliance Matrix: (Units=1/GPa)
#
#
# Indices 1 2 3 4 5 6 
#
# 1 0.008638 -0.002321 -0.002613 -0.001036 -0.001354 0.002802
# 2 -0.002321 0.021165 -0.002215 -0.001170 0.000467 -0.011781
# 3 -0.002613 -0.002215 0.010832 0.004841 0.002190 0.002124
# 4 -0.001036 -0.001170 0.004841 0.025302 0.004797 0.002665
# 5 -0.001354 0.000467 0.002190 0.004797 0.019523 -0.001878
# 6 0.002802 -0.011781 0.002124 0.002665 -0.001878 0.040570
#
#
# Mechanical properties :
#
#
# Convention : Reuss Voigt Hill
#
# Bulk Modulus (GPa) = 37.96844 48.04682 43.00763
# Shear Modulus (GPa) = 33.53303 42.14060 37.83682
#
# Velocity S-wave (km/s) = 3.71606 4.16578 3.94733
# Velocity P-wave (km/s) = 5.83505 6.55167 6.20371
#
# Compressibility (1/GPa) = 0.02633766
#
# Stress axis : x y z
#
# Youngs Moduli (GPa) = 115.76407 47.24830 92.32255
#
# Poissons Ratio (x) = 0.10967 0.24122
# Poissons Ratio (y) = 0.26869 0.20446
# Poissons Ratio (z) = 0.30247 0.10464
#
# Static dielectric constant tensor:
#      x y z
#    x 1.977170 -0.009450 -0.038720 
#    y -0.009450 2.027370 -0.132470 
#    z -0.038720 -0.132470 1.887980 
# 
# From -- ./inp_files/182087.got.cif
#   From: 2010.05.17/outbox.cif.g08.bks.cpg/sg2_92_cif.got.tgz:182087.got - 2010.06.03 11:33:40.
