data_PCOD9047129
_publ_section_title
;
Structure prediction by ZEFSAII (Michael W. Deem and Ramdas Pophale) SiO2 
 PCOD9047129
Probable space group: P -1
;
_chemical_formula_sum "Si O2"
_cell_formula_units_Z 16
_cell_length_a 10.966155
_cell_length_b 11.562323
_cell_length_c 7.827892
_cell_angle_alpha 84.126538
_cell_angle_beta 120.408923
_cell_angle_gamma 63.232928
_cell_volume 690.390215
_symmetry_space_group_name_H-M "P -1"
_symmetry_group_IT_number 2
_symmetry_cell_setting 'triclinic'
loop_
_space_group_symop_operation_xyz
x,y,z
-x,-y,-z
loop_
_atom_site_type_symbol
_atom_site_label
_atom_site_fract_x
_atom_site_fract_y
_atom_site_fract_z
Si Si1 0.760339 0.574745 0.050905
Si Si2 0.533310 0.270194 0.907302
Si Si3 0.355485 0.574625 0.241461
Si Si4 0.376526 0.134386 0.625395
Si Si5 0.070233 0.916733 0.738252
Si Si6 0.720961 0.840308 0.845538
Si Si7 0.956325 0.177168 0.802613
Si Si8 0.996160 0.282939 0.452300
O O1 0.584432 0.676139 0.018329
O O2 0.901044 0.445790 0.295373
O O3 0.715360 0.511350 0.871460
O O4 0.804565 0.680955 0.998864
O O5 0.553120 0.393554 0.844857
O O6 0.448647 0.226361 0.713654
O O7 0.731329 0.138070 0.098146
O O8 0.500000 0.500000 0.500000
O O9 0.196481 0.720903 0.190985
O O10 0.316301 0.157129 0.382362
O O11 0.205629 0.192858 0.609642
O O12 0.536465 0.966390 0.781315
O O13 0.053895 0.787596 0.718378
O O14 0.959515 0.039742 0.779170
O O15 0.000000 0.000000 0.500000
O O16 0.861589 0.871030 0.979775
O O17 0.937007 0.260978 0.598006
#
# Coordination Sequence:
#
# PCOD9047129 Si02
#       8
#     2   2   2   2   2   2   2   2
#     4  12  27  45  71 103 143 188 228 289 353 419
#     4  12  25  46  74 102 139 183 239 285 345 415
#     4  12  27  43  68 103 144 184 230 287 351 417
#     4  11  26  48  72 105 138 185 240 287 345 414
#     4  10  24  43  72 105 135 182 232 293 341 408
#     4  11  26  45  72 103 145 181 232 294 350 412
#     4  11  25  46  73 103 138 188 238 287 347 409
#     4  11  25  46  73 105 141 186 233 286 349 423
#
# _framework density 23.175298999999999
#
# number of rings (size 3 to 8) (size 9 to 14) (size 15 to 20)
#    0.000    0.750    2.500    3.375    7.000    8.500 
#    0.000    0.000    0.000    0.000    0.000    0.000 
#    0.000    0.000    0.000    0.000    0.000    0.000 
#
# Total GULP energy -89582.382021 kJ/mol
# GULP energy per Si atom -5598.898876 kJ/mol
# Density = 2.312255 g / cm^3
# Si number density = 23.175299 Si / 1000 Ang^3
#
#
#
# Elastic Constant Matrix: (Units=GPa)
#
#
# Indices 1 2 3 4 5 6 
#
# 1 55.7246 10.5704 5.5963 3.1213 3.2809 4.9261
# 2 10.5704 102.9263 13.5489 9.7852 3.3571 6.2008
# 3 5.5963 13.5489 94.6173 5.0410 6.1168 2.6423
# 4 3.1213 9.7852 5.0410 38.9256 7.1336 -0.6698
# 5 3.2809 3.3571 6.1168 7.1336 36.1359 -0.7934
# 6 4.9261 6.2008 2.6423 -0.6698 -0.7934 38.9521
#
#
#
# Elastic Compliance Matrix: (Units=1/GPa)
#
#
# Indices 1 2 3 4 5 6 
#
# 1 0.018621 -0.001576 -0.000689 -0.000803 -0.001315 -0.002098
# 2 -0.001576 0.010348 -0.001214 -0.002307 -0.000188 -0.001409
# 3 -0.000689 -0.001214 0.010939 -0.000784 -0.001533 -0.000506
# 4 -0.000803 -0.002307 -0.000784 0.027361 -0.004962 0.000891
# 5 -0.001315 -0.000188 -0.001533 -0.004962 0.029067 0.000807
# 6 -0.002098 -0.001409 -0.000506 0.000891 0.000807 0.026228
#
#
# Mechanical properties :
#
#
# Convention : Reuss Voigt Hill
#
# Bulk Modulus (GPa) = 30.35017 34.74439 32.54728
# Shear Modulus (GPa) = 35.58585 37.70624 36.64604
#
# Velocity S-wave (km/s) = 3.92281 4.03799 3.98081
# Velocity P-wave (km/s) = 5.80019 6.06341 5.93326
#
# Compressibility (1/GPa) = 0.03294874
#
# Stress axis : x y z
#
# Youngs Moduli (GPa) = 53.70154 96.63926 91.42021
#
# Poissons Ratio (x) = 0.15231 0.06302
# Poissons Ratio (y) = 0.08464 0.11099
# Poissons Ratio (z) = 0.03702 0.11733
#
# Static dielectric constant tensor:
#      x y z
#    x 1.819630 0.001850 -0.040520 
#    y 0.001850 1.862910 -0.030610 
#    z -0.040520 -0.030610 1.869420 
# 
# From -- ./inp_files/262618.got.cif
#   From: 2010.05.17/outbox.cif.g08.bks.cpg/sg2_132_cif.got.tgz:262618.got - 2010.06.03 11:33:40.
