data_PCOD9047506
_publ_section_title
;
Structure prediction by ZEFSAII (Michael W. Deem and Ramdas Pophale) SiO2 
 PCOD9047506
Probable space group: P -1
;
_chemical_formula_sum "Si O2"
_cell_formula_units_Z 14
_cell_length_a 6.984140
_cell_length_b 14.110162
_cell_length_c 15.786274
_cell_angle_alpha 31.701371
_cell_angle_beta 60.731647
_cell_angle_gamma 46.150151
_cell_volume 568.437739
_symmetry_space_group_name_H-M "P -1"
_symmetry_group_IT_number 2
_symmetry_cell_setting 'triclinic'
loop_
_space_group_symop_operation_xyz
x,y,z
-x,-y,-z
loop_
_atom_site_type_symbol
_atom_site_label
_atom_site_fract_x
_atom_site_fract_y
_atom_site_fract_z
Si Si1 0.194902 0.017556 0.701861
Si Si2 0.614568 0.694703 0.524874
Si Si3 0.288556 0.717485 0.123744
Si Si4 0.780753 0.114749 0.382280
Si Si5 0.586580 0.256526 0.642017
Si Si6 0.710920 0.543423 0.032315
Si Si7 0.242892 0.132083 0.894133
O O1 0.197529 0.036945 0.583813
O O2 0.211856 0.209449 0.592416
O O3 0.465862 0.771523 0.862680
O O4 0.898094 0.080641 0.742441
O O5 0.725354 0.433961 0.688008
O O6 0.492607 0.763321 0.593877
O O7 0.391124 0.808111 0.412346
O O8 0.592186 0.581090 0.124284
O O9 0.057401 0.738944 0.097244
O O10 0.240213 0.949304 0.980011
O O11 0.769662 0.304535 0.184374
O O12 0.000000 0.000000 0.500000
O O13 0.500000 0.500000 0.500000
O O14 0.328568 0.263726 0.722981
O O15 0.000000 0.500000 0.000000
O O16 0.500000 0.000000 0.000000
#
# Coordination Sequence:
#
# PCOD9047506 Si02
#       7
#     2   2   2   2   2   2   2
#     4  12  25  45  74 107 149 195 239 306 371 431
#     4  11  24  44  68 103 143 186 246 293 366 439
#     4  10  24  44  67  98 141 189 233 303 357 429
#     4  11  23  46  71 103 147 191 245 298 367 442
#     4  12  26  43  74 109 145 191 248 303 365 439
#     4  11  25  44  72 109 144 192 244 298 366 438
#     4  11  23  43  68  97 140 185 243 293 363 427
#
# _framework density 24.628907999999999
#
# number of rings (size 3 to 8) (size 9 to 14) (size 15 to 20)
#    0.000    0.857    1.429    5.143    2.000    4.571 
#    5.143    0.000    0.000    0.000    0.000    0.000 
#    0.000    0.000    0.000    0.000    0.000    0.000 
#
# Total GULP energy -77946.409223 kJ/mol
# GULP energy per Si atom -5567.600659 kJ/mol
# Density = 2.457285 g / cm^3
# Si number density = 24.628908 Si / 1000 Ang^3
#
#
#
# Elastic Constant Matrix: (Units=GPa)
#
#
# Indices 1 2 3 4 5 6 
#
# 1 171.2784 47.1258 83.1099 3.5229 -23.2192 -32.2277
# 2 47.1258 76.6284 23.5227 0.0724 -12.0729 -20.8006
# 3 83.1099 23.5227 134.4478 -5.8773 -13.9594 -12.8479
# 4 3.5229 0.0724 -5.8773 32.0973 -6.3963 1.2085
# 5 -23.2192 -12.0729 -13.9594 -6.3963 52.3018 1.2127
# 6 -32.2277 -20.8006 -12.8479 1.2085 1.2127 52.5707
#
#
#
# Elastic Compliance Matrix: (Units=1/GPa)
#
#
# Indices 1 2 3 4 5 6 
#
# 1 0.010381 -0.003412 -0.005329 -0.001831 0.002089 0.003706
# 2 -0.003412 0.016754 -0.000134 0.000601 0.002287 0.004438
# 3 -0.005329 -0.000134 0.010897 0.002782 0.000869 -0.000741
# 4 -0.001831 0.000601 0.002782 0.032720 0.004094 -0.001051
# 5 0.002089 0.002287 0.000869 0.004094 0.021266 0.001813
# 6 0.003706 0.004438 -0.000741 -0.001051 0.001813 0.022851
#
#
# Mechanical properties :
#
#
# Convention : Reuss Voigt Hill
#
# Bulk Modulus (GPa) = 49.30733 76.65238 62.97986
# Shear Modulus (GPa) = 35.87334 42.63371 39.25353
#
# Velocity S-wave (km/s) = 3.82062 4.16509 3.99657
# Velocity P-wave (km/s) = 6.28701 7.37029 6.85010
#
# Compressibility (1/GPa) = 0.02028096
#
# Stress axis : x y z
#
# Youngs Moduli (GPa) = 96.32792 59.68745 91.77099
#
# Poissons Ratio (x) = 0.20363 0.48908
# Poissons Ratio (y) = 0.32864 0.01233
# Poissons Ratio (z) = 0.51337 0.00802
#
# Static dielectric constant tensor:
#      x y z
#    x 1.909260 0.028410 0.075000 
#    y 0.028410 2.151940 -0.136980 
#    z 0.075000 -0.136980 2.148190 
# 
# From -- ./inp_files/109533.got.cif
#   From: 2010.05.17/outbox.cif.g08.bks.cpg/sg2_55_cif.got.tgz:109533.got - 2010.06.03 11:33:40.
