data_PCOD9047620
_publ_section_title
;
Structure prediction by ZEFSAII (Michael W. Deem and Ramdas Pophale) SiO2 
 PCOD9047620
Probable space group: P -1
;
_chemical_formula_sum "Si O2"
_cell_formula_units_Z 16
_cell_length_a 9.017983
_cell_length_b 19.436301
_cell_length_c 4.984887
_cell_angle_alpha 121.452845
_cell_angle_beta 80.084581
_cell_angle_gamma 115.787816
_cell_volume 669.415084
_symmetry_space_group_name_H-M "P -1"
_symmetry_group_IT_number 2
_symmetry_cell_setting 'triclinic'
loop_
_space_group_symop_operation_xyz
x,y,z
-x,-y,-z
loop_
_atom_site_type_symbol
_atom_site_label
_atom_site_fract_x
_atom_site_fract_y
_atom_site_fract_z
Si Si1 0.993641 0.328804 0.834830
Si Si2 0.489130 0.315729 0.297012
Si Si3 0.163425 0.550159 0.729460
Si Si4 0.442778 0.196843 0.564399
Si Si5 0.791892 0.619210 0.603635
Si Si6 0.920452 0.937283 0.645795
Si Si7 0.146310 0.854203 0.251160
Si Si8 0.348587 0.910915 0.788064
O O1 0.067777 0.314044 0.502448
O O2 0.871143 0.241862 0.850826
O O3 0.143213 0.369436 0.087520
O O4 0.896783 0.391013 0.940070
O O5 0.679272 0.383016 0.346388
O O6 0.450351 0.273807 0.517456
O O7 0.370864 0.364112 0.352223
O O8 0.452143 0.234647 0.936555
O O9 0.219576 0.476698 0.680756
O O10 0.000000 0.500000 0.500000
O O11 0.275613 0.109746 0.390579
O O12 0.589172 0.167340 0.395731
O O13 0.021160 0.141422 0.586187
O O14 0.000000 0.000000 0.500000
O O15 0.000000 0.000000 0.000000
O O16 0.286339 0.921806 0.536940
O O17 0.200477 0.882880 0.991480
O O18 0.500000 0.000000 0.000000
#
# Coordination Sequence:
#
# PCOD9047620 Si02
#       8
#     2   2   2   2   2   2   2   2
#     4  11  23  42  65  95 127 166 214 267 321 381
#     4  12  25  44  67  97 133 173 217 268 326 389
#     4  10  24  44  68  97 131 172 218 270 325 385
#     4  12  26  45  68  98 133 173 217 270 327 386
#     4  11  23  42  66  95 129 167 212 265 321 385
#     4  12  25  44  68  99 135 174 217 269 326 387
#     4  12  24  42  67  94 126 170 216 265 321 384
#     4  12  25  43  64  93 128 169 216 266 319 383
#
# _framework density 23.901463
#
# number of rings (size 3 to 8) (size 9 to 14) (size 15 to 20)
#    0.000    0.500    0.000    9.375    0.000    5.000 
#    0.000    4.375    0.000    0.000    0.000    0.000 
#    0.000    0.000    0.000    0.000    0.000    0.000 
#
# Total GULP energy -89603.869273 kJ/mol
# GULP energy per Si atom -5600.241830 kJ/mol
# Density = 2.384706 g / cm^3
# Si number density = 23.901463 Si / 1000 Ang^3
#
#
#
# Elastic Constant Matrix: (Units=GPa)
#
#
# Indices 1 2 3 4 5 6 
#
# 1 109.5330 5.2383 27.7422 1.6642 -14.4959 3.8826
# 2 5.2383 78.0783 9.0173 -5.0743 6.0238 14.3335
# 3 27.7422 9.0173 67.4985 -9.5196 -9.1893 3.2561
# 4 1.6642 -5.0743 -9.5196 40.4288 -3.5123 -0.7981
# 5 -14.4959 6.0238 -9.1893 -3.5123 40.8453 9.5490
# 6 3.8826 14.3335 3.2561 -0.7981 9.5490 47.8513
#
#
#
# Elastic Compliance Matrix: (Units=1/GPa)
#
#
# Indices 1 2 3 4 5 6 
#
# 1 0.010629 -0.000359 -0.004014 -0.001182 0.003081 -0.001116
# 2 -0.000359 0.013889 -0.001577 0.001178 -0.001566 -0.003692
# 3 -0.004014 -0.001577 0.017820 0.004442 0.003439 -0.001027
# 4 -0.001182 0.001178 0.004442 0.026209 0.002820 -0.000685
# 5 0.003081 -0.001566 0.003439 0.002820 0.028128 -0.005581
# 6 -0.001116 -0.003692 -0.001027 -0.000685 -0.005581 0.023267
#
#
# Mechanical properties :
#
#
# Convention : Reuss Voigt Hill
#
# Bulk Modulus (GPa) = 32.85402 37.67837 35.26620
# Shear Modulus (GPa) = 35.21461 40.03254 37.62358
#
# Velocity S-wave (km/s) = 3.84256 4.09699 3.97181
# Velocity P-wave (km/s) = 5.78467 6.17889 5.98503
#
# Compressibility (1/GPa) = 0.03043767
#
# Stress axis : x y z
#
# Youngs Moduli (GPa) = 94.08407 71.99964 56.11777
#
# Poissons Ratio (x) = 0.02586 0.22525
# Poissons Ratio (y) = 0.03379 0.08849
# Poissons Ratio (z) = 0.37764 0.11353
#
# Static dielectric constant tensor:
#      x y z
#    x 1.956470 -0.051640 -0.040230 
#    y -0.051640 1.894900 0.071300 
#    z -0.040230 0.071300 1.922550 
# 
# From -- ./inp_files/48936.got.cif
#   From: 2010.05.17/outbox.cif.g08.bks.cpg/sg2_25_cif.got.tgz:48936.got - 2010.06.03 11:33:40.
