data_PCOD9047198
_publ_section_title
;
Structure prediction by ZEFSAII (Michael W. Deem and Ramdas Pophale) SiO2 
 PCOD9047198
Probable space group: P -1
;
_chemical_formula_sum "Si O2"
_cell_formula_units_Z 14
_cell_length_a 5.548115
_cell_length_b 13.033577
_cell_length_c 11.741458
_cell_angle_alpha 120.684023
_cell_angle_beta 56.285081
_cell_angle_gamma 97.077643
_cell_volume 591.972430
_symmetry_space_group_name_H-M "P -1"
_symmetry_group_IT_number 2
_symmetry_cell_setting 'triclinic'
loop_
_space_group_symop_operation_xyz
x,y,z
-x,-y,-z
loop_
_atom_site_type_symbol
_atom_site_label
_atom_site_fract_x
_atom_site_fract_y
_atom_site_fract_z
Si Si1 0.271868 0.976143 0.649287
Si Si2 0.149706 0.418229 0.021865
Si Si3 0.253879 0.575381 0.478127
Si Si4 0.232013 0.932668 0.999351
Si Si5 0.230832 0.648525 0.270515
Si Si6 0.729733 0.324816 0.234497
Si Si7 0.876807 0.895439 0.539329
O O1 0.521911 0.931412 0.654933
O O2 0.076754 0.887695 0.595668
O O3 0.500000 0.000000 0.500000
O O4 0.995121 0.070617 0.835445
O O5 0.184032 0.521239 0.162158
O O6 0.983402 0.329471 0.079929
O O7 0.464096 0.337054 0.855802
O O8 0.000000 0.500000 0.000000
O O9 0.271753 0.632619 0.384199
O O10 0.537345 0.463401 0.352397
O O11 0.199929 0.673603 0.649225
O O12 0.000000 0.500000 0.500000
O O13 0.381954 0.794802 0.839717
O O14 0.500000 0.000000 0.000000
O O15 0.000000 0.000000 0.000000
O O16 0.968976 0.764439 0.379470
O O17 0.000000 0.000000 0.500000
#
# Coordination Sequence:
#
# PCOD9047198 Si02
#       7
#     2   2   2   2   2   2   2
#     4  10  24  48  72 110 144 203 259 304 385 453
#     4  11  24  45  71 115 140 197 249 333 389 454
#     4  11  24  47  73 110 144 205 252 318 384 464
#     4  12  30  52  77 115 158 210 260 324 394 471
#     4  11  25  42  74 108 154 190 266 313 393 466
#     4  11  27  47  79 104 156 199 265 317 399 462
#     4  10  24  43  73 109 148 200 247 316 377 461
#
# _framework density 23.649750000000001
#
# number of rings (size 3 to 8) (size 9 to 14) (size 15 to 20)
#    0.000    1.143    2.857    0.857   10.000    2.286 
#    0.000    0.000    0.000    0.000    0.000    0.000 
#    0.000    0.000    0.000    0.000    0.000    0.000 
#
# Total GULP energy -78065.083483 kJ/mol
# GULP energy per Si atom -5576.077392 kJ/mol
# Density = 2.359592 g / cm^3
# Si number density = 23.649750 Si / 1000 Ang^3
#
#
#
# Elastic Constant Matrix: (Units=GPa)
#
#
# Indices 1 2 3 4 5 6 
#
# 1 132.0426 25.3095 42.0172 -9.3770 3.6431 22.7795
# 2 25.3095 82.8933 61.3293 -5.6760 13.4679 8.4810
# 3 42.0172 61.3293 137.6513 2.9254 10.0143 18.7742
# 4 -9.3770 -5.6760 2.9254 21.5206 -0.8892 -3.9197
# 5 3.6431 13.4679 10.0143 -0.8892 44.0525 -3.5843
# 6 22.7795 8.4810 18.7742 -3.9197 -3.5843 34.3688
#
#
#
# Elastic Compliance Matrix: (Units=1/GPa)
#
#
# Indices 1 2 3 4 5 6 
#
# 1 0.009374 -0.000611 -0.001995 0.003331 -0.000445 -0.004639
# 2 -0.000611 0.019432 -0.008382 0.005925 -0.003827 0.000465
# 3 -0.001995 -0.008382 0.012310 -0.005505 -0.000509 -0.004015
# 4 0.003331 0.005925 -0.005505 0.051211 0.000625 0.005243
# 5 -0.000445 -0.003827 -0.000509 0.000625 0.024371 0.004130
# 6 -0.004639 0.000465 -0.004015 0.005243 0.004130 0.035278
#
#
# Mechanical properties :
#
#
# Convention : Reuss Voigt Hill
#
# Bulk Modulus (GPa) = 52.24740 67.76659 60.00700
# Shear Modulus (GPa) = 27.72666 34.91712 31.32189
#
# Velocity S-wave (km/s) = 3.42773 3.84660 3.64319
# Velocity P-wave (km/s) = 6.14865 6.96024 6.56699
#
# Compressibility (1/GPa) = 0.01913971
#
# Stress axis : x y z
#
# Youngs Moduli (GPa) = 106.67290 51.46222 81.23667
#
# Poissons Ratio (x) = 0.03146 0.16205
# Poissons Ratio (y) = 0.06521 0.68092
# Poissons Ratio (z) = 0.21279 0.43136
#
# Static dielectric constant tensor:
#      x y z
#    x 2.332250 -0.228700 -0.074110 
#    y -0.228700 2.039110 0.145290 
#    z -0.074110 0.145290 2.130810 
# 
# From -- ./inp_files/367119.got.cif
#   From: 2010.05.17/outbox.cif.g08.bks.cpg/sg2_184_cif.got.tgz:367119.got - 2010.06.03 11:33:40.
