data_PCOD9047192
_publ_section_title
;
Structure prediction by ZEFSAII (Michael W. Deem and Ramdas Pophale) SiO2 
 PCOD9047192
Probable space group: P -1
;
_chemical_formula_sum "Si O2"
_cell_formula_units_Z 12
_cell_length_a 7.632139
_cell_length_b 8.877424
_cell_length_c 8.914453
_cell_angle_alpha 101.020778
_cell_angle_beta 73.010282
_cell_angle_gamma 127.485948
_cell_volume 458.278312
_symmetry_space_group_name_H-M "P -1"
_symmetry_group_IT_number 2
_symmetry_cell_setting 'triclinic'
loop_
_space_group_symop_operation_xyz
x,y,z
-x,-y,-z
loop_
_atom_site_type_symbol
_atom_site_label
_atom_site_fract_x
_atom_site_fract_y
_atom_site_fract_z
Si Si1 0.264680 0.171241 0.492041
Si Si2 0.574391 0.029403 0.733779
Si Si3 0.175221 0.331020 0.041245
Si Si4 0.026146 0.533470 0.322890
Si Si5 0.251612 0.016941 0.018308
Si Si6 0.389097 0.497991 0.728239
O O1 0.316590 0.292880 0.650702
O O2 0.369519 0.337514 0.371488
O O3 0.407665 0.084686 0.425334
O O4 0.000000 0.000000 0.500000
O O5 0.787942 0.244010 0.704662
O O6 0.364003 0.030779 0.832304
O O7 0.599525 0.941626 0.864003
O O8 0.116637 0.425584 0.199022
O O9 0.191418 0.165231 0.062544
O O10 0.369013 0.485544 0.909322
O O11 0.956396 0.203749 0.962604
O O12 0.000000 0.500000 0.500000
O O13 0.793419 0.474879 0.292688
#
# Coordination Sequence:
#
# PCOD9047192 Si02
#       6
#     2   2   2   2   2   2
#     4  11  23  44  76 105 146 193 244 298 369 432
#     4  11  24  44  70 104 150 189 237 303 374 426
#     4  11  24  47  72 106 145 188 255 297 361 445
#     4  12  27  44  71 111 148 191 244 304 369 437
#     4  10  24  43  73 107 140 196 242 302 364 432
#     4  11  25  45  75 109 146 198 240 305 370 426
#
# _framework density 26.184961000000001
#
# number of rings (size 3 to 8) (size 9 to 14) (size 15 to 20)
#    0.000    1.000    3.333    1.500    7.000    6.000 
#    0.000    2.500    0.000    0.000    0.000    0.000 
#    0.000    0.000    0.000    0.000    0.000    0.000 
#
# Total GULP energy -67279.412100 kJ/mol
# GULP energy per Si atom -5606.617675 kJ/mol
# Density = 2.612536 g / cm^3
# Si number density = 26.184961 Si / 1000 Ang^3
#
#
#
# Elastic Constant Matrix: (Units=GPa)
#
#
# Indices 1 2 3 4 5 6 
#
# 1 70.6791 44.4214 59.4575 4.8352 -6.1789 -26.8168
# 2 44.4214 165.1152 62.3818 3.7575 -22.1645 2.6070
# 3 59.4575 62.3818 194.1038 11.3453 -21.9614 -25.1937
# 4 4.8352 3.7575 11.3453 59.5909 -13.9187 -21.9530
# 5 -6.1789 -22.1645 -21.9614 -13.9187 45.0226 4.4351
# 6 -26.8168 2.6070 -25.1937 -21.9530 4.4351 53.5325
#
#
#
# Elastic Compliance Matrix: (Units=1/GPa)
#
#
# Indices 1 2 3 4 5 6 
#
# 1 0.026378 -0.005733 -0.004997 0.003422 -0.001833 0.012697
# 2 -0.005733 0.008536 -0.001170 -0.000761 0.003043 -0.004403
# 3 -0.004997 -0.001170 0.007425 -0.000109 0.002246 0.000818
# 4 0.003422 -0.000761 -0.000109 0.021631 0.005734 0.010095
# 5 -0.001833 0.003043 0.002246 0.005734 0.026310 0.000163
# 6 0.012697 -0.004403 0.000818 0.010095 0.000163 0.029766
#
#
# Mechanical properties :
#
#
# Convention : Reuss Voigt Hill
#
# Bulk Modulus (GPa) = 53.93839 84.71328 69.32584
# Shear Modulus (GPa) = 33.32752 49.20502 41.26627
#
# Velocity S-wave (km/s) = 3.57147 4.33960 3.97413
# Velocity P-wave (km/s) = 6.13603 7.58496 6.89864
#
# Compressibility (1/GPa) = 0.01853967
#
# Stress axis : x y z
#
# Youngs Moduli (GPa) = 37.90993 117.14991 134.67805
#
# Poissons Ratio (x) = 0.67163 0.67299
# Poissons Ratio (y) = 0.21734 0.15755
# Poissons Ratio (z) = 0.18944 0.13705
#
# Static dielectric constant tensor:
#      x y z
#    x 2.143330 0.053230 -0.026590 
#    y 0.053230 2.017240 0.003470 
#    z -0.026590 0.003470 2.098700 
# 
# From -- ./inp_files/159164.got.cif
#   From: 2010.05.17/outbox.cif.g08.bks.cpg/sg2_80_cif.got.tgz:159164.got - 2010.06.03 11:33:40.
