data_PCOD9047902
_publ_section_title
;
Structure prediction by ZEFSAII (Michael W. Deem and Ramdas Pophale) SiO2 
 PCOD9047902
Probable space group: P -1
;
_chemical_formula_sum "Si O2"
_cell_formula_units_Z 10
_cell_length_a 9.593938
_cell_length_b 9.204863
_cell_length_c 9.691658
_cell_angle_alpha 125.457189
_cell_angle_beta 65.679562
_cell_angle_gamma 145.550280
_cell_volume 390.237674
_symmetry_space_group_name_H-M "P -1"
_symmetry_group_IT_number 2
_symmetry_cell_setting 'triclinic'
loop_
_space_group_symop_operation_xyz
x,y,z
-x,-y,-z
loop_
_atom_site_type_symbol
_atom_site_label
_atom_site_fract_x
_atom_site_fract_y
_atom_site_fract_z
Si Si1 0.787575 0.945369 0.576779
Si Si2 0.775197 0.171288 0.468096
Si Si3 0.486441 0.598764 0.757618
Si Si4 0.787447 0.308235 0.095388
Si Si5 0.792980 0.963257 0.082852
O O1 0.717322 0.885907 0.731864
O O2 0.558311 0.638541 0.417183
O O3 0.832425 0.166220 0.598077
O O4 0.000000 0.000000 0.500000
O O5 0.763222 0.990663 0.269514
O O6 0.000000 0.500000 0.500000
O O7 0.500000 0.000000 0.500000
O O8 0.263936 0.527857 0.769139
O O9 0.555516 0.675109 0.932197
O O10 0.848531 0.208488 0.125316
O O11 0.000000 0.500000 0.000000
O O12 0.500000 0.000000 0.000000
O O13 0.000000 0.000000 0.000000
#
# Coordination Sequence:
#
# PCOD9047902 Si02
#       5
#     2   2   2   2   2
#     4  11  26  47  79 107 156 199 258 314 386 453
#     4  12  31  52  76 114 162 203 248 323 400 451
#     4  10  25  47  77 113 145 205 258 314 374 464
#     4  10  24  44  71 105 147 190 249 303 368 442
#     4  11  26  48  80 114 151 200 257 319 377 456
#
# _framework density 25.625406000000002
#
# number of rings (size 3 to 8) (size 9 to 14) (size 15 to 20)
#    0.000    1.200    0.000    2.400   19.600    4.000 
#    0.000    0.000    0.000    0.000    0.000    0.000 
#    0.000    0.000    0.000    0.000    0.000    0.000 
#
# Total GULP energy -55886.269099 kJ/mol
# GULP energy per Si atom -5588.626910 kJ/mol
# Density = 2.556708 g / cm^3
# Si number density = 25.625406 Si / 1000 Ang^3
#
#
#
# Elastic Constant Matrix: (Units=GPa)
#
#
# Indices 1 2 3 4 5 6 
#
# 1 159.6000 22.4603 -1.8271 -11.6630 -9.1498 22.3090
# 2 22.4603 129.5630 8.6144 -10.0043 -6.5068 0.3887
# 3 -1.8271 8.6144 116.1748 5.3573 -9.9709 12.0976
# 4 -11.6630 -10.0043 5.3573 59.8052 1.4465 -12.5170
# 5 -9.1498 -6.5068 -9.9709 1.4465 56.4683 -10.6338
# 6 22.3090 0.3887 12.0976 -12.5170 -10.6338 51.3608
#
#
#
# Elastic Compliance Matrix: (Units=1/GPa)
#
#
# Indices 1 2 3 4 5 6 
#
# 1 0.006903 -0.001158 0.000517 0.000490 0.000521 -0.002884
# 2 -0.001158 0.008113 -0.000734 0.001413 0.000793 0.001123
# 3 0.000517 -0.000734 0.009090 -0.001378 0.001178 -0.002452
# 4 0.000490 0.001413 -0.001378 0.018130 0.000401 0.004603
# 5 0.000521 0.000793 0.001178 0.000401 0.018735 0.003467
# 6 -0.002884 0.001123 -0.002452 0.004603 0.003467 0.023132
#
#
# Mechanical properties :
#
#
# Convention : Reuss Voigt Hill
#
# Bulk Modulus (GPa) = 46.82478 51.53700 49.18089
# Shear Modulus (GPa) = 53.20645 58.59954 55.90300
#
# Velocity S-wave (km/s) = 4.56160 4.78721 4.67577
# Velocity P-wave (km/s) = 6.78651 7.12123 6.95588
#
# Compressibility (1/GPa) = 0.02135621
#
# Stress axis : x y z
#
# Youngs Moduli (GPa) = 144.85528 123.25241 110.00811
#
# Poissons Ratio (x) = 0.14279 -0.05687
# Poissons Ratio (y) = 0.16781 0.08073
# Poissons Ratio (z) = -0.07488 0.09045
#
# Static dielectric constant tensor:
#      x y z
#    x 1.947200 -0.098380 -0.043020 
#    y -0.098380 2.220500 0.412020 
#    z -0.043020 0.412020 2.576130 
# 
# From -- ./inp_files/16279.got.cif
#   From: 2010.05.17/outbox.cif.g08.bks.cpg/sg2_9_cif.got.tgz:16279.got - 2010.06.03 11:33:40.
