data_PCOD9047663
_publ_section_title
;
Structure prediction by ZEFSAII (Michael W. Deem and Ramdas Pophale) SiO2 
 PCOD9047663
Probable space group: P -1
;
_chemical_formula_sum "Si O2"
_cell_formula_units_Z 14
_cell_length_a 5.162437
_cell_length_b 14.849879
_cell_length_c 9.655374
_cell_angle_alpha 67.876878
_cell_angle_beta 104.914902
_cell_angle_gamma 123.818932
_cell_volume 568.581427
_symmetry_space_group_name_H-M "P -1"
_symmetry_group_IT_number 2
_symmetry_cell_setting 'triclinic'
loop_
_space_group_symop_operation_xyz
x,y,z
-x,-y,-z
loop_
_atom_site_type_symbol
_atom_site_label
_atom_site_fract_x
_atom_site_fract_y
_atom_site_fract_z
Si Si1 0.160556 0.418829 0.238111
Si Si2 0.545278 0.017650 0.725901
Si Si3 0.555509 0.677601 0.114286
Si Si4 0.697294 0.911062 0.590180
Si Si5 0.229565 0.753941 0.244667
Si Si6 0.913557 0.780840 0.824369
Si Si7 0.721269 0.394825 0.438350
O O1 0.322948 0.545447 0.127093
O O2 0.038379 0.319253 0.165636
O O3 0.429083 0.411626 0.365167
O O4 0.888275 0.400099 0.313905
O O5 0.557221 0.087480 0.545166
O O6 0.657819 0.113626 0.800348
O O7 0.727743 0.960647 0.719867
O O8 0.227070 0.904071 0.792709
O O9 0.371868 0.726695 0.145278
O O10 0.853138 0.689779 0.233038
O O11 0.728219 0.745743 0.961306
O O12 0.700905 0.797500 0.672976
O O13 0.000000 0.000000 0.500000
O O14 0.351486 0.710771 0.412723
O O15 0.000000 0.500000 0.500000
#
# Coordination Sequence:
#
# PCOD9047663 Si02
#       7
#     2   2   2   2   2   2   2
#     4  12  25  45  72 102 134 181 229 284 335 394
#     4  10  24  44  69 102 132 175 230 286 339 397
#     4  12  27  47  66 101 140 186 225 272 336 414
#     4   9  21  43  66 100 130 171 229 279 338 389
#     4  12  27  44  72 100 140 178 226 282 341 406
#     4  11  27  43  70  97 140 181 226 275 338 408
#     4  12  23  45  72 103 137 173 230 285 343 391
#
# _framework density 24.622679999999999
#
# number of rings (size 3 to 8) (size 9 to 14) (size 15 to 20)
#    0.000    0.857    2.857    2.571   14.000    1.143 
#    0.000    2.857    0.000    0.000    0.000    0.000 
#    0.000    0.000    0.000    0.000    0.000    0.000 
#
# Total GULP energy -78281.132805 kJ/mol
# GULP energy per Si atom -5591.509486 kJ/mol
# Density = 2.456664 g / cm^3
# Si number density = 24.622680 Si / 1000 Ang^3
#
#
#
# Elastic Constant Matrix: (Units=GPa)
#
#
# Indices 1 2 3 4 5 6 
#
# 1 110.4033 39.0743 8.3258 -9.1515 -25.4397 -9.3659
# 2 39.0743 171.2660 26.7121 -25.4651 -19.5633 -25.0616
# 3 8.3258 26.7121 83.7621 -21.6085 -16.0315 -3.8997
# 4 -9.1515 -25.4651 -21.6085 32.8766 7.8505 -3.9157
# 5 -25.4397 -19.5633 -16.0315 7.8505 39.4068 8.2902
# 6 -9.3659 -25.0616 -3.8997 -3.9157 8.2902 44.6193
#
#
#
# Elastic Compliance Matrix: (Units=1/GPa)
#
#
# Indices 1 2 3 4 5 6 
#
# 1 0.011214 -0.001796 0.000928 0.000823 0.006500 0.000291
# 2 -0.001796 0.007874 -0.000587 0.005626 0.000464 0.004402
# 3 0.000928 -0.000587 0.015239 0.008881 0.004498 0.001140
# 4 0.000823 0.005626 0.008881 0.042648 -0.003341 0.008473
# 5 0.006500 0.000464 0.004498 -0.003341 0.033235 -0.004450
# 6 0.000291 0.004402 0.001140 0.008473 -0.004450 0.026615
#
#
# Mechanical properties :
#
#
# Convention : Reuss Voigt Hill
#
# Bulk Modulus (GPa) = 31.83063 57.07288 44.45175
# Shear Modulus (GPa) = 33.28747 42.80181 38.04464
#
# Velocity S-wave (km/s) = 3.68081 4.17383 3.93505
# Velocity P-wave (km/s) = 5.56955 6.81594 6.22403
#
# Compressibility (1/GPa) = 0.03141628
#
# Stress axis : x y z
#
# Youngs Moduli (GPa) = 89.17424 127.00218 65.62267
#
# Poissons Ratio (x) = 0.22807 -0.06090
# Poissons Ratio (y) = 0.16014 0.03854
# Poissons Ratio (z) = -0.08275 0.07459
#
# Static dielectric constant tensor:
#      x y z
#    x 1.974930 -0.011640 0.117100 
#    y -0.011640 2.063170 0.056830 
#    z 0.117100 0.056830 2.066700 
# 
# From -- ./inp_files/138769.got.cif
#   From: 2010.05.17/outbox.cif.g08.bks.cpg/sg2_70_cif.got.tgz:138769.got - 2010.06.03 11:33:40.
