data_PCOD9047048
_publ_section_title
;
Structure prediction by ZEFSAII (Michael W. Deem and Ramdas Pophale) SiO2 
 PCOD9047048
Probable space group: P -1
;
_chemical_formula_sum "Si O2"
_cell_formula_units_Z 14
_cell_length_a 14.192131
_cell_length_b 5.037650
_cell_length_c 17.122284
_cell_angle_alpha 97.341957
_cell_angle_beta 149.170393
_cell_angle_gamma 100.349069
_cell_volume 511.536339
_symmetry_space_group_name_H-M "P -1"
_symmetry_group_IT_number 2
_symmetry_cell_setting 'triclinic'
loop_
_space_group_symop_operation_xyz
x,y,z
-x,-y,-z
loop_
_atom_site_type_symbol
_atom_site_label
_atom_site_fract_x
_atom_site_fract_y
_atom_site_fract_z
Si Si1 0.193678 0.168717 0.458074
Si Si2 0.147930 0.784360 0.677513
Si Si3 0.109782 0.483088 0.910529
Si Si4 0.233542 0.322608 0.315594
Si Si5 0.601837 0.347394 0.017265
Si Si6 0.518082 0.062628 0.307765
Si Si7 0.809327 0.559880 0.873616
O O1 0.163483 0.117924 0.339413
O O2 0.269325 0.957898 0.545516
O O3 0.005717 0.135524 0.380701
O O4 0.391383 0.561662 0.612651
O O5 0.271646 0.731525 0.833537
O O6 0.000000 0.500000 0.500000
O O7 0.372002 0.062728 0.801840
O O8 0.205256 0.436062 0.898479
O O9 0.886845 0.483126 0.750099
O O10 0.314964 0.861456 0.094537
O O11 0.151698 0.313750 0.005504
O O12 0.500000 0.500000 0.500000
O O13 0.179345 0.231003 0.181635
O O14 0.500000 0.500000 0.000000
O O15 0.406568 0.818374 0.294648
O O16 0.000000 0.500000 0.000000
#
# Coordination Sequence:
#
# PCOD9047048 Si02
#       7
#     2   2   2   2   2   2   2
#     4  12  25  44  71 107 145 191 246 314 369 452
#     4  11  27  46  72 108 152 199 257 313 388 454
#     4   9  20  44  66 100 145 185 246 303 373 452
#     4  11  19  40  70 102 142 185 240 302 374 448
#     4  11  25  46  74 109 148 200 256 315 387 454
#     4  10  24  43  70  99 145 194 244 297 385 437
#     4   8  18  38  66  94 137 187 238 296 370 441
#
# _framework density 27.368532999999999
#
# number of rings (size 3 to 8) (size 9 to 14) (size 15 to 20)
#    0.857    0.857    2.857    0.857    4.000    1.143 
#    0.000    4.286    0.000    0.000    0.000    0.000 
#    0.000    0.000    0.000    0.000    0.000    0.000 
#
# Total GULP energy -78083.540851 kJ/mol
# GULP energy per Si atom -5577.395775 kJ/mol
# Density = 2.730624 g / cm^3
# Si number density = 27.368533 Si / 1000 Ang^3
#
#
#
# Elastic Constant Matrix: (Units=GPa)
#
#
# Indices 1 2 3 4 5 6 
#
# 1 184.6261 26.0239 67.2013 -15.1036 19.7626 7.9015
# 2 26.0239 88.5685 26.1917 -14.7006 6.1357 -13.1726
# 3 67.2013 26.1917 163.6128 -19.4317 15.3570 -4.6721
# 4 -15.1036 -14.7006 -19.4317 49.8706 1.9117 14.2133
# 5 19.7626 6.1357 15.3570 1.9117 65.3474 -0.9022
# 6 7.9015 -13.1726 -4.6721 14.2133 -0.9022 41.7974
#
#
#
# Elastic Compliance Matrix: (Units=1/GPa)
#
#
# Indices 1 2 3 4 5 6 
#
# 1 0.006854 -0.001337 -0.002351 0.001545 -0.001475 -0.002537
# 2 -0.001337 0.012906 -0.001130 0.001981 -0.000551 0.003509
# 3 -0.002351 -0.001130 0.007584 0.001869 -0.001016 0.000279
# 4 0.001545 0.001981 0.001869 0.024098 -0.001904 -0.007695
# 5 -0.001475 -0.000551 -0.001016 -0.001904 0.016109 0.000986
# 6 -0.002537 0.003509 0.000279 -0.007695 0.000986 0.028179
#
#
# Mechanical properties :
#
#
# Convention : Reuss Voigt Hill
#
# Bulk Modulus (GPa) = 56.47390 75.07126 65.77258
# Shear Modulus (GPa) = 44.93618 52.56244 48.74931
#
# Velocity S-wave (km/s) = 4.05642 4.38715 4.22503
# Velocity P-wave (km/s) = 6.52831 7.29055 6.91993
#
# Compressibility (1/GPa) = 0.01770729
#
# Stress axis : x y z
#
# Youngs Moduli (GPa) = 145.90987 77.48083 131.85640
#
# Poissons Ratio (x) = 0.10360 0.31006
# Poissons Ratio (y) = 0.19510 0.14896
# Poissons Ratio (z) = 0.34310 0.08753
#
# Static dielectric constant tensor:
#      x y z
#    x 2.287070 -0.002140 -0.067300 
#    y -0.002140 2.138060 0.229710 
#    z -0.067300 0.229710 2.389190 
# 
# From -- ./inp_files/596589.got.cif
#   From: 2010.05.17/outbox.cif.g08.bks.cpg/sg2_299_cif.got.tgz:596589.got - 2010.06.03 11:33:40.
