data_PCOD9047737
_publ_section_title
;
Structure prediction by ZEFSAII (Michael W. Deem and Ramdas Pophale) SiO2 
 PCOD9047737
Probable space group: P -1
;
_chemical_formula_sum "Si O2"
_cell_formula_units_Z 15
_cell_length_a 12.335337
_cell_length_b 8.317110
_cell_length_c 15.055618
_cell_angle_alpha 119.826039
_cell_angle_beta 50.953338
_cell_angle_gamma 145.667079
_cell_volume 675.657854
_symmetry_space_group_name_H-M "P -1"
_symmetry_group_IT_number 2
_symmetry_cell_setting 'triclinic'
loop_
_space_group_symop_operation_xyz
x,y,z
-x,-y,-z
loop_
_atom_site_type_symbol
_atom_site_label
_atom_site_fract_x
_atom_site_fract_y
_atom_site_fract_z
Si Si1 0.713246 0.210224 0.387402
Si Si2 0.341271 0.503558 0.113798
Si Si3 0.161946 0.323118 0.974984
Si Si4 0.000000 0.500000 0.000000
Si Si5 0.464084 0.545594 0.720063
Si Si6 0.924859 0.059225 0.309954
Si Si7 0.881707 0.723271 0.539675
Si Si8 0.566934 0.094737 0.228610
O O1 0.831788 0.136239 0.322693
O O2 0.861610 0.521372 0.435302
O O3 0.648461 0.179687 0.311037
O O4 0.500000 0.000000 0.500000
O O5 0.141707 0.214896 0.191278
O O6 0.439850 0.774181 0.191749
O O7 0.500000 0.500000 0.000000
O O8 0.257673 0.505796 0.065280
O O9 0.355143 0.449768 0.847083
O O10 0.027469 0.335765 0.994942
O O11 0.000000 0.000000 0.000000
O O12 0.233609 0.701323 0.885548
O O13 0.645379 0.571763 0.636998
O O14 0.550875 0.830684 0.716969
O O15 0.265319 0.283255 0.687281
O O16 0.994447 0.186460 0.407483
O O17 0.000000 0.000000 0.500000
#
# Coordination Sequence:
#
# PCOD9047737 Si02
#       8
#     2   2   2   1   2   2   2   2
#     4  12  26  48  78 102 148 194 247 306 366 442
#     4  12  26  43  79 107 146 189 256 306 363 462
#     4  11  22  45  72 105 144 195 243 303 379 439
#     4  10  24  44  70 100 152 188 238 302 378 442
#     4  11  26  48  73 106 152 194 242 308 369 447
#     4  12  26  47  75 108 142 196 249 301 370 439
#     4  12  28  47  73 106 146 194 246 302 369 440
#     4  11  27  46  71 110 145 192 244 305 375 435
#
# _framework density 22.200585
#
# number of rings (size 3 to 8) (size 9 to 14) (size 15 to 20)
#    0.000    0.533    2.667    4.400    7.467    3.200 
#    7.200    0.000    0.000    0.000    0.000    0.000 
#    0.000    0.000    0.000    0.000    0.000    0.000 
#
# Total GULP energy -83714.842120 kJ/mol
# GULP energy per Si atom -5580.989475 kJ/mol
# Density = 2.215006 g / cm^3
# Si number density = 22.200585 Si / 1000 Ang^3
#
#
#
# Elastic Constant Matrix: (Units=GPa)
#
#
# Indices 1 2 3 4 5 6 
#
# 1 84.2374 16.5644 7.9513 -0.3871 10.6414 -20.4990
# 2 16.5644 87.6719 13.0004 16.0058 18.8590 0.0620
# 3 7.9513 13.0004 34.8427 5.4164 2.3628 11.4807
# 4 -0.3871 16.0058 5.4164 38.9106 9.0490 4.7272
# 5 10.6414 18.8590 2.3628 9.0490 38.3854 8.3515
# 6 -20.4990 0.0620 11.4807 4.7272 8.3515 33.2647
#
#
#
# Elastic Compliance Matrix: (Units=1/GPa)
#
#
# Indices 1 2 3 4 5 6 
#
# 1 0.017581 -0.000675 -0.008594 0.001567 -0.007761 0.015527
# 2 -0.000675 0.014458 -0.005346 -0.004161 -0.006389 0.003597
# 3 -0.008594 -0.005346 0.039266 -0.002656 0.007652 -0.020381
# 4 0.001567 -0.004161 -0.002656 0.029049 -0.004853 -0.001020
# 5 -0.007761 -0.006389 0.007652 -0.004853 0.035412 -0.015613
# 6 0.015527 0.003597 -0.020381 -0.001020 -0.015613 0.050722
#
#
# Mechanical properties :
#
#
# Convention : Reuss Voigt Hill
#
# Bulk Modulus (GPa) = 23.76662 31.30935 27.53799
# Shear Modulus (GPa) = 21.76348 33.39452 27.57900
#
# Velocity S-wave (km/s) = 3.13439 3.88263 3.52840
# Velocity P-wave (km/s) = 4.88138 5.85093 5.38800
#
# Compressibility (1/GPa) = 0.04207582
#
# Stress axis : x y z
#
# Youngs Moduli (GPa) = 56.87862 69.16705 25.46750
#
# Poissons Ratio (x) = 0.04669 0.21886
# Poissons Ratio (y) = 0.03840 0.13614
# Poissons Ratio (z) = 0.48881 0.36974
#
# Static dielectric constant tensor:
#      x y z
#    x 1.954630 0.021180 -0.069140 
#    y 0.021180 1.863950 0.016110 
#    z -0.069140 0.016110 1.851490 
# 
# From -- ./inp_files/419540.got.cif
#   From: 2010.05.17/outbox.cif.g08.bks.cpg/sg2_210_cif.got.tgz:419540.got - 2010.06.03 11:33:40.
