data_PCOD9047859
_publ_section_title
;
Structure prediction by ZEFSAII (Michael W. Deem and Ramdas Pophale) SiO2 
 PCOD9047859
Probable space group: P -1
;
_chemical_formula_sum "Si O2"
_cell_formula_units_Z 14
_cell_length_a 16.984915
_cell_length_b 11.717024
_cell_length_c 8.985355
_cell_angle_alpha 125.434009
_cell_angle_beta 43.913547
_cell_angle_gamma 149.642204
_cell_volume 622.335083
_symmetry_space_group_name_H-M "P -1"
_symmetry_group_IT_number 2
_symmetry_cell_setting 'triclinic'
loop_
_space_group_symop_operation_xyz
x,y,z
-x,-y,-z
loop_
_atom_site_type_symbol
_atom_site_label
_atom_site_fract_x
_atom_site_fract_y
_atom_site_fract_z
Si Si1 0.185763 0.270698 0.430874
Si Si2 0.327653 0.841338 0.500763
Si Si3 0.791475 0.971078 0.311297
Si Si4 0.839257 0.443915 0.224748
Si Si5 0.416522 0.266295 0.272760
Si Si6 0.789278 0.682985 0.921450
Si Si7 0.429431 0.992532 0.938880
O O1 0.156474 0.386144 0.647808
O O2 0.342709 0.332541 0.343268
O O3 0.239033 0.347743 0.242846
O O4 0.000000 0.000000 0.500000
O O5 0.174360 0.613813 0.628352
O O6 0.500000 0.000000 0.500000
O O7 0.272857 0.943831 0.606006
O O8 0.388610 0.808630 0.255661
O O9 0.656748 0.807610 0.513069
O O10 0.788564 0.845703 0.097418
O O11 0.005789 0.181011 0.229406
O O12 0.679062 0.231822 0.173184
O O13 0.000000 0.500000 0.000000
O O14 0.632940 0.470454 0.087507
O O15 0.330837 0.043397 0.142510
O O16 0.500000 0.000000 0.000000
#
# Coordination Sequence:
#
# PCOD9047859 Si02
#       7
#     2   2   2   2   2   2   2
#     4  12  26  48  76 109 154 199 257 307 380 456
#     4  10  24  44  71 100 153 188 252 299 380 441
#     4  11  25  47  73 112 153 195 253 319 372 454
#     4  11  27  45  75 108 145 200 248 308 379 449
#     4  12  25  45  78 109 153 195 252 312 377 454
#     4  11  27  45  74 112 152 200 250 310 386 439
#     4  11  24  46  71 110 145 190 248 306 377 447
#
# _framework density 22.495920999999999
#
# number of rings (size 3 to 8) (size 9 to 14) (size 15 to 20)
#    0.000    0.857    2.857    2.571   10.000    2.286 
#    0.000    2.143    0.000    0.000    0.000    0.000 
#    0.000    0.000    0.000    0.000    0.000    0.000 
#
# Total GULP energy -78133.220263 kJ/mol
# GULP energy per Si atom -5580.944304 kJ/mol
# Density = 2.244472 g / cm^3
# Si number density = 22.495921 Si / 1000 Ang^3
#
#
#
# Elastic Constant Matrix: (Units=GPa)
#
#
# Indices 1 2 3 4 5 6 
#
# 1 140.0966 35.8677 62.1594 7.2487 -16.8471 -16.0385
# 2 35.8677 80.8217 55.1993 7.7741 -5.2357 -7.9758
# 3 62.1594 55.1993 170.3948 12.3625 -7.7801 -10.0623
# 4 7.2487 7.7741 12.3625 59.1179 -11.2780 -6.2040
# 5 -16.8471 -5.2357 -7.7801 -11.2780 46.3138 3.0359
# 6 -16.0385 -7.9758 -10.0623 -6.2040 3.0359 23.6381
#
#
#
# Elastic Compliance Matrix: (Units=1/GPa)
#
#
# Indices 1 2 3 4 5 6 
#
# 1 0.009568 -0.001969 -0.002504 0.000601 0.002684 0.004575
# 2 -0.001969 0.016591 -0.004470 -0.000765 0.000081 0.002148
# 3 -0.002504 -0.004470 0.008290 -0.000872 -0.000244 0.000124
# 4 0.000601 -0.000765 -0.000872 0.018349 0.004188 0.004057
# 5 0.002684 0.000081 -0.000244 0.004188 0.023568 -0.000183
# 6 0.004575 0.002148 0.000124 0.004057 -0.000183 0.047275
#
#
# Mechanical properties :
#
#
# Convention : Reuss Voigt Hill
#
# Bulk Modulus (GPa) = 60.37535 77.52955 68.95245
# Shear Modulus (GPa) = 34.00279 41.68641 37.84460
#
# Velocity S-wave (km/s) = 3.89203 4.30939 4.10602
# Velocity P-wave (km/s) = 6.86249 7.70064 7.29362
#
# Compressibility (1/GPa) = 0.01656305
#
# Stress axis : x y z
#
# Youngs Moduli (GPa) = 104.51279 60.27545 120.63310
#
# Poissons Ratio (x) = 0.11868 0.30201
# Poissons Ratio (y) = 0.20577 0.53926
# Poissons Ratio (z) = 0.26165 0.26944
#
# Static dielectric constant tensor:
#      x y z
#    x 1.764920 -0.027760 0.021300 
#    y -0.027760 1.990620 -0.034300 
#    z 0.021300 -0.034300 1.794010 
# 
# From -- ./inp_files/333683.got.cif
#   From: 2010.05.17/outbox.cif.g08.bks.cpg/sg2_167_cif.got.tgz:333683.got - 2010.06.03 11:33:40.
