data_PCOD9047075
_publ_section_title
;
Structure prediction by ZEFSAII (Michael W. Deem and Ramdas Pophale) SiO2 
 PCOD9047075
Probable space group: P -1
;
_chemical_formula_sum "Si O2"
_cell_formula_units_Z 16
_cell_length_a 8.579944
_cell_length_b 9.558127
_cell_length_c 11.072394
_cell_angle_alpha 70.457175
_cell_angle_beta 72.425686
_cell_angle_gamma 113.001572
_cell_volume 682.717404
_symmetry_space_group_name_H-M "P -1"
_symmetry_group_IT_number 2
_symmetry_cell_setting 'triclinic'
loop_
_space_group_symop_operation_xyz
x,y,z
-x,-y,-z
loop_
_atom_site_type_symbol
_atom_site_label
_atom_site_fract_x
_atom_site_fract_y
_atom_site_fract_z
Si Si1 0.216503 0.011660 0.273331
Si Si2 0.815745 0.908666 0.265576
Si Si3 0.611080 0.796084 0.578795
Si Si4 0.424965 0.335648 0.975202
Si Si5 0.012702 0.268435 0.013116
Si Si6 0.468532 0.584660 0.330768
Si Si7 0.821099 0.331362 0.528589
Si Si8 0.845529 0.378441 0.239490
O O1 0.234319 0.846791 0.340206
O O2 0.011788 0.947587 0.273922
O O3 0.247353 0.104384 0.369965
O O4 0.383556 0.165524 0.106226
O O5 0.690841 0.915058 0.404930
O O6 0.689432 0.718303 0.286252
O O7 0.866647 0.055696 0.108314
O O8 0.603603 0.619085 0.595915
O O9 0.389583 0.724660 0.689708
O O10 0.220961 0.301276 0.986174
O O11 0.500000 0.500000 0.000000
O O12 0.551826 0.374195 0.815196
O O13 0.937803 0.324555 0.129589
O O14 0.050171 0.408193 0.860048
O O15 0.347965 0.630926 0.433008
O O16 0.874816 0.326460 0.379548
O O17 0.000000 0.500000 0.500000
#
# Coordination Sequence:
#
# PCOD9047075 Si02
#       8
#     2   2   2   2   2   2   2   2
#     4  11  26  45  74 104 147 192 241 293 357 433
#     4  11  25  43  73 109 144 182 243 298 362 422
#     4  12  23  45  75 103 142 195 243 287 353 439
#     4  11  23  47  72 104 141 189 247 293 355 435
#     4  10  24  43  71 105 139 194 233 302 350 427
#     4  12  26  45  75 104 147 191 236 299 367 422
#     4  12  29  45  69 110 150 188 235 305 365 418
#     4  11  24  45  72 102 149 188 246 288 361 428
#
# _framework density 23.435759999999998
#
# number of rings (size 3 to 8) (size 9 to 14) (size 15 to 20)
#    0.000    0.750    3.750    2.250    5.250    5.500 
#    0.000    0.000    0.000    0.000    0.000    0.000 
#    0.000    0.000    0.000    0.000    0.000    0.000 
#
# Total GULP energy -89539.433315 kJ/mol
# GULP energy per Si atom -5596.214582 kJ/mol
# Density = 2.338242 g / cm^3
# Si number density = 23.435760 Si / 1000 Ang^3
#
#
#
# Elastic Constant Matrix: (Units=GPa)
#
#
# Indices 1 2 3 4 5 6 
#
# 1 44.4470 21.2928 2.6455 -6.2567 1.6769 3.9956
# 2 21.2928 111.7292 11.0298 -19.7866 8.7602 10.0152
# 3 2.6455 11.0298 101.0412 -11.1140 12.8319 -2.1340
# 4 -6.2567 -19.7866 -11.1140 48.1193 -10.4767 4.9365
# 5 1.6769 8.7602 12.8319 -10.4767 33.7373 1.3465
# 6 3.9956 10.0152 -2.1340 4.9365 1.3465 42.2717
#
#
#
# Elastic Compliance Matrix: (Units=1/GPa)
#
#
# Indices 1 2 3 4 5 6 
#
# 1 0.024945 -0.004344 -0.000089 0.001707 0.000514 -0.001549
# 2 -0.004344 0.010822 -0.000567 0.003780 -0.001101 -0.002588
# 3 -0.000089 -0.000567 0.010566 0.001377 -0.003464 0.000626
# 4 0.001707 0.003780 0.001377 0.024649 0.006226 -0.004064
# 5 0.000514 -0.001101 -0.003464 0.006226 0.033222 -0.001748
# 6 -0.001549 -0.002588 0.000626 -0.004064 -0.001748 0.024978
#
#
# Mechanical properties :
#
#
# Convention : Reuss Voigt Hill
#
# Bulk Modulus (GPa) = 27.52314 36.35042 31.93678
# Shear Modulus (GPa) = 33.04851 39.64228 36.34539
#
# Velocity S-wave (km/s) = 3.75930 4.11728 3.94236
# Velocity P-wave (km/s) = 5.53288 6.17633 5.86344
#
# Compressibility (1/GPa) = 0.03633307
#
# Stress axis : x y z
#
# Youngs Moduli (GPa) = 40.08758 92.40587 94.64488
#
# Poissons Ratio (x) = 0.40144 0.00843
# Poissons Ratio (y) = 0.17415 0.05363
# Poissons Ratio (z) = 0.00357 0.05236
#
# Static dielectric constant tensor:
#      x y z
#    x 2.016320 0.039150 0.193650 
#    y 0.039150 1.859500 0.023860 
#    z 0.193650 0.023860 2.309030 
# 
# From -- ./inp_files/381666.got.cif
#   From: 2010.05.17/outbox.cif.g08.bks.cpg/sg2_191_cif.got.tgz:381666.got - 2010.06.03 11:33:40.
