data_PCOD9047168
_publ_section_title
;
Structure prediction by ZEFSAII (Michael W. Deem and Ramdas Pophale) SiO2 
 PCOD9047168
Probable space group: P -1
;
_chemical_formula_sum "Si O2"
_cell_formula_units_Z 12
_cell_length_a 13.765924
_cell_length_b 12.189905
_cell_length_c 9.234111
_cell_angle_alpha 109.360732
_cell_angle_beta 47.066371
_cell_angle_gamma 146.843867
_cell_volume 498.138025
_symmetry_space_group_name_H-M "P -1"
_symmetry_group_IT_number 2
_symmetry_cell_setting 'triclinic'
loop_
_space_group_symop_operation_xyz
x,y,z
-x,-y,-z
loop_
_atom_site_type_symbol
_atom_site_label
_atom_site_fract_x
_atom_site_fract_y
_atom_site_fract_z
Si Si1 0.759298 0.160688 0.707135
Si Si2 0.902836 0.217806 0.092106
Si Si3 0.276990 0.730817 0.498219
Si Si4 0.096048 0.195400 0.418038
Si Si5 0.604022 0.468384 0.472156
Si Si6 0.022162 0.911272 0.825816
O O1 0.704989 0.155424 0.594017
O O2 0.838961 0.089682 0.624376
O O3 0.041704 0.453711 0.582929
O O4 0.500000 0.000000 0.000000
O O5 0.822241 0.282672 0.259833
O O6 0.590841 0.919716 0.259381
O O7 0.053054 0.264144 0.089876
O O8 0.101625 0.354406 0.812834
O O9 0.331329 0.435736 0.389561
O O10 0.152646 0.215031 0.199803
O O11 0.000000 0.000000 0.500000
O O12 0.500000 0.500000 0.500000
O O13 0.360213 0.183998 0.569656
O O14 0.000000 0.000000 0.000000
#
# Coordination Sequence:
#
# PCOD9047168 Si02
#       6
#     2   2   2   2   2   2
#     4  11  24  44  71 109 142 185 246 298 362 440
#     4  11  23  46  69 104 143 186 243 296 363 431
#     4  10  24  43  73 102 143 190 235 301 362 430
#     4  12  25  45  72 106 144 191 240 297 369 428
#     4  12  25  44  69 103 145 192 240 298 359 433
#     4  12  25  46  70 104 146 187 240 300 363 434
#
# _framework density 24.089711000000001
#
# number of rings (size 3 to 8) (size 9 to 14) (size 15 to 20)
#    0.000    0.667    5.000    2.000    2.333    0.667 
#    0.000    5.833    0.000    0.000    0.000    0.000 
#    0.000    0.000    0.000    0.000    0.000    0.000 
#
# Total GULP energy -67135.493290 kJ/mol
# GULP energy per Si atom -5594.624441 kJ/mol
# Density = 2.403488 g / cm^3
# Si number density = 24.089711 Si / 1000 Ang^3
#
#
#
# Elastic Constant Matrix: (Units=GPa)
#
#
# Indices 1 2 3 4 5 6 
#
# 1 129.0983 29.9147 21.9656 8.8013 1.4440 3.3421
# 2 29.9147 116.7278 37.9501 16.5692 12.0834 33.2477
# 3 21.9656 37.9501 156.2948 19.2662 -9.7601 10.4632
# 4 8.8013 16.5692 19.2662 33.8803 4.5714 6.1357
# 5 1.4440 12.0834 -9.7601 4.5714 31.8307 9.4190
# 6 3.3421 33.2477 10.4632 6.1357 9.4190 46.0778
#
#
#
# Elastic Compliance Matrix: (Units=1/GPa)
#
#
# Indices 1 2 3 4 5 6 
#
# 1 0.008386 -0.002158 -0.000610 -0.001001 0.000036 0.001213
# 2 -0.002158 0.012615 -0.002092 -0.002684 -0.002710 -0.007559
# 3 -0.000610 -0.002092 0.007715 -0.003635 0.003858 -0.000503
# 4 -0.001001 -0.002684 -0.003635 0.033921 -0.004709 -0.000719
# 5 0.000036 -0.002710 0.003858 -0.004709 0.035974 -0.005650
# 6 0.001213 -0.007559 -0.000503 -0.000719 -0.005650 0.028434
#
#
# Mechanical properties :
#
#
# Convention : Reuss Voigt Hill
#
# Bulk Modulus (GPa) = 52.64512 64.64240 58.64376
# Shear Modulus (GPa) = 34.94123 43.17713 39.05918
#
# Velocity S-wave (km/s) = 3.81263 4.23821 4.03104
# Velocity P-wave (km/s) = 6.42516 7.13037 6.78693
#
# Compressibility (1/GPa) = 0.01899511
#
# Stress axis : x y z
#
# Youngs Moduli (GPa) = 119.24131 79.27147 129.62584
#
# Poissons Ratio (x) = 0.17108 0.07909
# Poissons Ratio (y) = 0.25734 0.27118
# Poissons Ratio (z) = 0.07276 0.16583
#
# Static dielectric constant tensor:
#      x y z
#    x 1.979020 0.032340 -0.003600 
#    y 0.032340 1.918120 0.010990 
#    z -0.003600 0.010990 1.952570 
# 
# From -- ./inp_files/310016.got.cif
#   From: 2010.05.17/outbox.cif.g08.bks.cpg/sg2_156_cif.got.tgz:310016.got - 2010.06.03 11:33:40.
