data_PCOD9047196
_publ_section_title
;
Structure prediction by ZEFSAII (Michael W. Deem and Ramdas Pophale) SiO2 
 PCOD9047196
Probable space group: P -1
;
_chemical_formula_sum "Si O2"
_cell_formula_units_Z 14
_cell_length_a 12.127098
_cell_length_b 11.558433
_cell_length_c 5.411245
_cell_angle_alpha 97.243843
_cell_angle_beta 72.653039
_cell_angle_gamma 126.865265
_cell_volume 577.847248
_symmetry_space_group_name_H-M "P -1"
_symmetry_group_IT_number 2
_symmetry_cell_setting 'triclinic'
loop_
_space_group_symop_operation_xyz
x,y,z
-x,-y,-z
loop_
_atom_site_type_symbol
_atom_site_label
_atom_site_fract_x
_atom_site_fract_y
_atom_site_fract_z
Si Si1 0.095303 0.118316 0.676417
Si Si2 0.120933 0.672130 0.492774
Si Si3 0.458573 0.235869 0.084642
Si Si4 0.884628 0.113664 0.153620
Si Si5 0.630490 0.330916 0.509126
Si Si6 0.370276 0.410374 0.367503
Si Si7 0.332467 0.934946 0.066700
O O1 0.239382 0.263654 0.533762
O O2 0.136873 0.033040 0.795107
O O3 0.000000 0.000000 0.500000
O O4 0.000742 0.163236 0.875605
O O5 0.056424 0.754536 0.661789
O O6 0.236791 0.675922 0.587759
O O7 0.222986 0.780482 0.229893
O O8 0.000000 0.500000 0.500000
O O9 0.562901 0.295467 0.270500
O O10 0.415054 0.345028 0.108487
O O11 0.334094 0.070016 0.201982
O O12 0.522261 0.232174 0.778433
O O13 0.735382 0.081224 0.159055
O O14 0.677707 0.486891 0.616557
O O15 0.500000 0.500000 0.500000
O O16 0.500000 0.000000 0.000000
#
# Coordination Sequence:
#
# PCOD9047196 Si02
#       7
#     2   2   2   2   2   2   2
#     4  11  25  51  75 113 149 204 264 327 402 478
#     4  12  29  47  70 110 156 205 258 318 401 477
#     4  11  24  47  76 110 150 198 267 322 396 458
#     4  11  27  47  82 105 152 206 261 326 397 481
#     4  11  26  46  72 111 154 204 250 328 392 476
#     4  10  24  43  73 108 152 197 261 328 395 466
#     4  12  26  48  76 108 150 203 266 328 392 475
#
# _framework density 24.227854000000001
#
# number of rings (size 3 to 8) (size 9 to 14) (size 15 to 20)
#    0.000    0.857    1.429    3.857   10.000    4.000 
#    5.143    0.000    0.000    0.000    0.000    0.000 
#    0.000    0.000    0.000    0.000    0.000    0.000 
#
# Total GULP energy -78146.135623 kJ/mol
# GULP energy per Si atom -5581.866830 kJ/mol
# Density = 2.417271 g / cm^3
# Si number density = 24.227854 Si / 1000 Ang^3
#
#
#
# Elastic Constant Matrix: (Units=GPa)
#
#
# Indices 1 2 3 4 5 6 
#
# 1 98.3947 39.6074 19.8848 -0.4139 -5.6390 -9.4025
# 2 39.6074 187.0998 27.7996 -13.1679 -14.0050 -7.8245
# 3 19.8848 27.7996 79.1499 5.3101 -19.9096 9.9635
# 4 -0.4139 -13.1679 5.3101 29.8828 -10.7307 -9.0611
# 5 -5.6390 -14.0050 -19.9096 -10.7307 39.5571 0.2754
# 6 -9.4025 -7.8245 9.9635 -9.0611 0.2754 44.7734
#
#
#
# Elastic Compliance Matrix: (Units=1/GPa)
#
#
# Indices 1 2 3 4 5 6 
#
# 1 0.011758 -0.001943 -0.002733 0.000567 -0.000253 0.002854
# 2 -0.001943 0.006626 -0.001809 0.004719 0.002424 0.002093
# 3 -0.002733 -0.001809 0.016438 -0.003011 0.006463 -0.005197
# 4 0.000567 0.004719 -0.003011 0.043523 0.011970 0.010348
# 5 -0.000253 0.002424 0.006463 0.011970 0.032594 0.001154
# 6 0.002854 0.002093 -0.005197 0.010348 0.001154 0.026544
#
#
# Mechanical properties :
#
#
# Convention : Reuss Voigt Hill
#
# Bulk Modulus (GPa) = 45.76130 59.91422 52.83776
# Shear Modulus (GPa) = 31.69841 41.33282 36.51561
#
# Velocity S-wave (km/s) = 3.62103 4.13486 3.88645
# Velocity P-wave (km/s) = 6.03418 6.89777 6.48038
#
# Compressibility (1/GPa) = 0.02185253
#
# Stress axis : x y z
#
# Youngs Moduli (GPa) = 85.04835 150.92156 60.83378
#
# Poissons Ratio (x) = 0.29320 0.16623
# Poissons Ratio (y) = 0.16523 0.11008
# Poissons Ratio (z) = 0.23240 0.27309
#
# Static dielectric constant tensor:
#      x y z
#    x 2.001370 -0.058220 -0.009510 
#    y -0.058220 2.005230 0.114700 
#    z -0.009510 0.114700 2.212720 
# 
# From -- ./inp_files/71136.got.cif
#   From: 2010.05.17/outbox.cif.g08.bks.cpg/sg2_36_cif.got.tgz:71136.got - 2010.06.03 11:33:40.
