data_PCOD9047222
_publ_section_title
;
Structure prediction by ZEFSAII (Michael W. Deem and Ramdas Pophale) SiO2 
 PCOD9047222
Probable space group: P -1
;
_chemical_formula_sum "Si O2"
_cell_formula_units_Z 14
_cell_length_a 9.799138
_cell_length_b 4.976791
_cell_length_c 15.021402
_cell_angle_alpha 85.744440
_cell_angle_beta 132.684637
_cell_angle_gamma 82.433834
_cell_volume 520.213175
_symmetry_space_group_name_H-M "P -1"
_symmetry_group_IT_number 2
_symmetry_cell_setting 'triclinic'
loop_
_space_group_symop_operation_xyz
x,y,z
-x,-y,-z
loop_
_atom_site_type_symbol
_atom_site_label
_atom_site_fract_x
_atom_site_fract_y
_atom_site_fract_z
Si Si1 0.257666 0.694819 0.039472
Si Si2 0.702403 0.551967 0.228748
Si Si3 0.946951 0.839158 0.563398
Si Si4 0.728139 0.356238 0.757876
Si Si5 0.053548 0.125880 0.783988
Si Si6 0.475126 0.236579 0.054276
Si Si7 0.488792 0.957121 0.602043
O O1 0.176878 0.692286 0.101767
O O2 0.292037 0.375708 0.028163
O O3 0.500000 0.500000 0.000000
O O4 0.146330 0.900744 0.908791
O O5 0.483467 0.726052 0.153145
O O6 0.651672 0.249520 0.197080
O O7 0.798593 0.701290 0.190591
O O8 0.897360 0.456294 0.372128
O O9 0.977122 0.974096 0.671081
O O10 0.719395 0.875387 0.460852
O O11 0.000000 0.000000 0.500000
O O12 0.880283 0.349845 0.747536
O O13 0.554735 0.632524 0.666114
O O14 0.646739 0.091001 0.711168
O O15 0.500000 0.000000 0.000000
O O16 0.500000 0.000000 0.500000
#
# Coordination Sequence:
#
# PCOD9047222 Si02
#       7
#     2   2   2   2   2   2   2
#     4  10  26  50  83 120 163 209 264 333 408 483
#     4  10  26  46  78 115 160 202 268 329 409 466
#     4  12  28  46  78 118 159 209 276 335 402 476
#     4  12  28  54  82 116 164 213 276 330 394 487
#     4  12  26  50  82 118 161 216 266 332 407 483
#     4  10  24  43  74 109 157 202 255 316 400 470
#     4  12  27  54  82 114 159 220 270 334 398 473
#
# _framework density 26.912042
#
# number of rings (size 3 to 8) (size 9 to 14) (size 15 to 20)
#    0.857    0.000    1.429    3.857    8.000    1.714 
#    2.571    1.429    0.000    0.857    0.000    0.000 
#    0.000    0.000    0.000    0.000    0.000    0.000 
#
# Total GULP energy -78083.638839 kJ/mol
# GULP energy per Si atom -5577.402774 kJ/mol
# Density = 2.685079 g / cm^3
# Si number density = 26.912042 Si / 1000 Ang^3
#
#
#
# Elastic Constant Matrix: (Units=GPa)
#
#
# Indices 1 2 3 4 5 6 
#
# 1 95.8889 -4.4783 25.8940 -5.3334 6.1451 1.3579
# 2 -4.4783 81.7315 28.8163 8.4553 -6.2500 -7.0825
# 3 25.8940 28.8163 116.6379 -15.6365 -21.4553 -7.9624
# 4 -5.3334 8.4553 -15.6365 66.4179 -0.8189 4.0498
# 5 6.1451 -6.2500 -21.4553 -0.8189 60.0178 -5.9020
# 6 1.3579 -7.0825 -7.9624 4.0498 -5.9020 28.6408
#
#
#
# Elastic Compliance Matrix: (Units=1/GPa)
#
#
# Indices 1 2 3 4 5 6 
#
# 1 0.011635 0.001556 -0.003535 -0.000026 -0.002456 -0.001652
# 2 0.001556 0.014284 -0.004042 -0.002812 0.000116 0.002756
# 3 -0.003535 -0.004042 0.011768 0.002876 0.004478 0.002956
# 4 -0.000026 -0.002812 0.002876 0.016222 0.000760 -0.002032
# 5 -0.002456 0.000116 0.004478 0.000760 0.019049 0.005208
# 6 -0.001652 0.002756 0.002956 -0.002032 0.005208 0.037857
#
#
# Mechanical properties :
#
#
# Convention : Reuss Voigt Hill
#
# Bulk Modulus (GPa) = 38.99477 43.85803 41.42640
# Shear Modulus (GPa) = 38.04966 47.28373 42.66669
#
# Velocity S-wave (km/s) = 3.76420 4.19617 3.98604
# Velocity P-wave (km/s) = 5.78044 6.30946 6.05074
#
# Compressibility (1/GPa) = 0.02564446
#
# Stress axis : x y z
#
# Youngs Moduli (GPa) = 85.94393 70.00822 84.97598
#
# Poissons Ratio (x) = -0.10891 0.30043
# Poissons Ratio (y) = -0.13370 0.34345
# Poissons Ratio (z) = 0.30385 0.28296
#
# Static dielectric constant tensor:
#      x y z
#    x 2.236700 -0.194550 0.045900 
#    y -0.194550 2.761380 -0.063540 
#    z 0.045900 -0.063540 2.640890 
# 
# From -- ./inp_files/552723.got.cif
#   From: 2010.05.17/outbox.cif.g08.bks.cpg/sg2_277_cif.got.tgz:552723.got - 2010.06.03 11:33:40.
