data_PCOD9047170
_publ_section_title
;
Structure prediction by ZEFSAII (Michael W. Deem and Ramdas Pophale) SiO2 
 PCOD9047170
Probable space group: P -1
;
_chemical_formula_sum "Si O2"
_cell_formula_units_Z 16
_cell_length_a 9.089423
_cell_length_b 20.387304
_cell_length_c 5.211026
_cell_angle_alpha 61.499714
_cell_angle_beta 118.205060
_cell_angle_gamma 128.344413
_cell_volume 643.355650
_symmetry_space_group_name_H-M "P -1"
_symmetry_group_IT_number 2
_symmetry_cell_setting 'triclinic'
loop_
_space_group_symop_operation_xyz
x,y,z
-x,-y,-z
loop_
_atom_site_type_symbol
_atom_site_label
_atom_site_fract_x
_atom_site_fract_y
_atom_site_fract_z
Si Si1 0.039180 0.929885 0.517459
Si Si2 0.420630 0.862866 0.791192
Si Si3 0.896473 0.288575 0.850884
Si Si4 0.723286 0.038038 0.859382
Si Si5 0.150414 0.571277 0.183539
Si Si6 0.484340 0.547593 0.648141
Si Si7 0.240871 0.269048 0.286957
Si Si8 0.426411 0.729177 0.767368
O O1 0.143106 0.961571 0.268001
O O2 0.868306 0.830412 0.520701
O O3 0.172887 0.922828 0.861426
O O4 0.000000 0.000000 0.500000
O O5 0.369531 0.909826 0.439690
O O6 0.531024 0.817526 0.848761
O O7 0.559847 0.938414 0.956618
O O8 0.227582 0.784576 0.901196
O O9 0.941397 0.381538 0.821391
O O10 0.744017 0.268955 0.536185
O O11 0.086788 0.283122 0.970257
O O12 0.274980 0.540624 0.503509
O O13 0.318652 0.647848 0.012792
O O14 0.000000 0.500000 0.000000
O O15 0.500000 0.500000 0.500000
O O16 0.659126 0.648359 0.595573
O O17 0.500000 0.500000 0.000000
O O18 0.422527 0.279466 0.262219
#
# Coordination Sequence:
#
# PCOD9047170 Si02
#       8
#     2   2   2   2   2   2   2   2
#     4  12  27  45  73 115 156 213 265 327 397 473
#     4  10  24  43  73 102 152 201 262 328 386 473
#     4  11  24  47  74 109 146 207 258 324 398 470
#     4  11  25  45  71 107 154 204 269 319 400 462
#     4  11  26  49  75 112 157 201 262 326 403 483
#     4  12  28  50  80 120 156 208 261 327 403 476
#     4  12  26  49  79 112 162 200 271 328 399 476
#     4  11  25  47  75 110 149 208 261 323 405 466
#
# _framework density 24.869605
#
# number of rings (size 3 to 8) (size 9 to 14) (size 15 to 20)
#    0.000    0.750    2.500    3.375    5.250    3.500 
#    4.500    0.000    0.000    0.000    0.000    0.000 
#    0.000    0.000    0.000    0.000    0.000    0.000 
#
# Total GULP energy -89648.064507 kJ/mol
# GULP energy per Si atom -5603.004032 kJ/mol
# Density = 2.481300 g / cm^3
# Si number density = 24.869605 Si / 1000 Ang^3
#
#
#
# Elastic Constant Matrix: (Units=GPa)
#
#
# Indices 1 2 3 4 5 6 
#
# 1 92.7916 48.9265 25.5597 -4.4172 6.5513 -10.9734
# 2 48.9265 194.0254 41.5321 -5.6960 8.2960 -23.1732
# 3 25.5597 41.5321 112.7498 8.5767 16.7207 5.3964
# 4 -4.4172 -5.6960 8.5767 31.6209 2.3971 1.0477
# 5 6.5513 8.2960 16.7207 2.3971 42.5777 -0.9477
# 6 -10.9734 -23.1732 5.3964 1.0477 -0.9477 39.1267
#
#
#
# Elastic Compliance Matrix: (Units=1/GPa)
#
#
# Indices 1 2 3 4 5 6 
#
# 1 0.013119 -0.002446 -0.002234 0.001971 -0.000721 0.002468
# 2 -0.002446 0.006703 -0.002176 0.001344 -0.000072 0.003546
# 3 -0.002234 -0.002176 0.011113 -0.003340 -0.003485 -0.003443
# 4 0.001971 0.001344 -0.003340 0.033101 -0.001097 0.000896
# 5 -0.000721 -0.000072 -0.003485 -0.001097 0.025061 0.000872
# 6 0.002468 0.003546 -0.003443 0.000896 0.000872 0.028822
#
#
# Mechanical properties :
#
#
# Convention : Reuss Voigt Hill
#
# Bulk Modulus (GPa) = 58.06538 70.17814 64.12176
# Shear Modulus (GPa) = 36.39766 41.56829 38.98297
#
# Velocity S-wave (km/s) = 3.82977 4.09277 3.96345
# Velocity P-wave (km/s) = 6.55399 7.11436 6.83992
#
# Compressibility (1/GPa) = 0.01722197
#
# Stress axis : x y z
#
# Youngs Moduli (GPa) = 76.22704 149.19594 89.98728
#
# Poissons Ratio (x) = 0.36500 0.20103
# Poissons Ratio (y) = 0.18649 0.19578
# Poissons Ratio (z) = 0.17029 0.32459
#
# Static dielectric constant tensor:
#      x y z
#    x 1.907820 0.054940 0.070970 
#    y 0.054940 1.930050 0.004780 
#    z 0.070970 0.004780 2.023080 
# 
# From -- ./inp_files/52576.got.cif
#   From: 2010.05.17/outbox.cif.g08.bks.cpg/sg2_27_cif.got.tgz:52576.got - 2010.06.03 11:33:40.
