data_PCOD9047786
_publ_section_title
;
Structure prediction by ZEFSAII (Michael W. Deem and Ramdas Pophale) SiO2 
 PCOD9047786
Probable space group: P -1
;
_chemical_formula_sum "Si O2"
_cell_formula_units_Z 15
_cell_length_a 9.061477
_cell_length_b 22.625105
_cell_length_c 16.071770
_cell_angle_alpha 153.041388
_cell_angle_beta 137.966395
_cell_angle_gamma 27.797729
_cell_volume 680.137079
_symmetry_space_group_name_H-M "P -1"
_symmetry_group_IT_number 2
_symmetry_cell_setting 'triclinic'
loop_
_space_group_symop_operation_xyz
x,y,z
-x,-y,-z
loop_
_atom_site_type_symbol
_atom_site_label
_atom_site_fract_x
_atom_site_fract_y
_atom_site_fract_z
Si Si1 0.106513 0.099969 0.697873
Si Si2 0.833469 0.313514 0.023880
Si Si3 0.840289 0.023263 0.146772
Si Si4 0.873644 0.409664 0.855422
Si Si5 0.889491 0.560359 0.625032
Si Si6 0.149111 0.216085 0.396266
Si Si7 0.151805 0.150407 0.498261
Si Si8 0.000000 0.000000 0.000000
O O1 0.072632 0.228338 0.774418
O O2 0.484469 0.928021 0.663699
O O3 0.000000 0.000000 0.500000
O O4 0.901495 0.240738 0.867005
O O5 0.479528 0.425703 0.046563
O O6 0.880161 0.444907 0.230126
O O7 0.094143 0.128791 0.959168
O O8 0.472982 0.229951 0.257863
O O9 0.061064 0.042302 0.302269
O O10 0.929901 0.953905 0.002377
O O11 0.887076 0.325049 0.668621
O O12 0.000000 0.500000 0.000000
O O13 0.000000 0.500000 0.500000
O O14 0.912744 0.413014 0.495908
O O15 0.161427 0.231410 0.520035
O O16 0.031808 0.120831 0.215747
O O17 0.500000 0.000000 0.500000
#
# Coordination Sequence:
#
# PCOD9047786 Si02
#       8
#     2   2   2   2   2   2   2   1
#     4  12  26  47  72 104 151 196 243 299 377 444
#     4  12  26  44  71 104 147 190 246 301 367 438
#     4  11  24  44  72  99 143 192 236 304 358 436
#     4  12  27  42  72 105 146 190 243 300 365 440
#     4  12  25  45  70 105 142 191 247 296 369 436
#     4  11  25  44  76 102 146 190 242 304 365 443
#     4  11  23  45  70 103 144 186 239 297 370 429
#     4  10  24  44  70 104 140 184 246 288 374 414
#
# _framework density 22.054376999999999
#
# number of rings (size 3 to 8) (size 9 to 14) (size 15 to 20)
#    0.000    0.533    1.333    6.400    5.600    3.200 
#    0.000    0.000    0.000    0.000    0.000    0.000 
#    0.000    0.000    0.000    0.000    0.000    0.000 
#
# Total GULP energy -83690.835082 kJ/mol
# GULP energy per Si atom -5579.389005 kJ/mol
# Density = 2.200418 g / cm^3
# Si number density = 22.054377 Si / 1000 Ang^3
#
#
#
# Elastic Constant Matrix: (Units=GPa)
#
#
# Indices 1 2 3 4 5 6 
#
# 1 80.6026 14.2607 28.9245 -12.3048 -10.8807 19.4462
# 2 14.2607 52.2625 12.0701 6.4484 0.6510 16.1662
# 3 28.9245 12.0701 88.1031 -18.1524 -10.3738 16.5420
# 4 -12.3048 6.4484 -18.1524 40.7728 8.5396 -8.1714
# 5 -10.8807 0.6510 -10.3738 8.5396 59.7963 -9.0758
# 6 19.4462 16.1662 16.5420 -8.1714 -9.0758 33.8148
#
#
#
# Elastic Compliance Matrix: (Units=1/GPa)
#
#
# Indices 1 2 3 4 5 6 
#
# 1 0.015807 -0.002123 -0.003232 0.002297 0.001156 -0.005628
# 2 -0.002123 0.024863 -0.002251 -0.007584 -0.001766 -0.011871
# 3 -0.003232 -0.002251 0.014357 0.005074 0.000801 -0.002647
# 4 0.002297 -0.007584 0.005074 0.030420 -0.001954 0.006649
# 5 0.001156 -0.001766 0.000801 -0.001954 0.018000 0.004147
# 6 -0.005628 -0.011871 -0.002647 0.006649 0.004147 0.042500
#
#
# Mechanical properties :
#
#
# Convention : Reuss Voigt Hill
#
# Bulk Modulus (GPa) = 25.11718 36.83100 30.97409
# Shear Modulus (GPa) = 28.66458 37.92429 33.29444
#
# Velocity S-wave (km/s) = 3.60908 4.15128 3.88964
# Velocity P-wave (km/s) = 5.36477 6.30189 5.85212
#
# Compressibility (1/GPa) = 0.03981338
#
# Stress axis : x y z
#
# Youngs Moduli (GPa) = 63.26379 40.21990 69.65433
#
# Poissons Ratio (x) = 0.08541 0.22515
# Poissons Ratio (y) = 0.13434 0.15678
# Poissons Ratio (z) = 0.20449 0.09053
#
# Static dielectric constant tensor:
#      x y z
#    x 1.814120 0.001490 0.009210 
#    y 0.001490 1.762470 -0.043880 
#    z 0.009210 -0.043880 1.824580 
# 
# From -- ./inp_files/508156.got.cif
#   From: 2010.05.17/outbox.cif.g08.bks.cpg/sg2_255_cif.got.tgz:508156.got - 2010.06.03 11:33:40.
