data_PCOD9047367
_publ_section_title
;
Structure prediction by ZEFSAII (Michael W. Deem and Ramdas Pophale) SiO2 
 PCOD9047367
Probable space group: P -1
;
_chemical_formula_sum "Si O2"
_cell_formula_units_Z 16
_cell_length_a 18.080776
_cell_length_b 6.330343
_cell_length_c 20.185245
_cell_angle_alpha 112.122282
_cell_angle_beta 160.034988
_cell_angle_gamma 67.566230
_cell_volume 727.987114
_symmetry_space_group_name_H-M "P -1"
_symmetry_group_IT_number 2
_symmetry_cell_setting 'triclinic'
loop_
_space_group_symop_operation_xyz
x,y,z
-x,-y,-z
loop_
_atom_site_type_symbol
_atom_site_label
_atom_site_fract_x
_atom_site_fract_y
_atom_site_fract_z
Si Si1 0.467123 0.247075 0.916657
Si Si2 0.126217 0.303347 0.538153
Si Si3 0.938348 0.191040 0.091928
Si Si4 0.836705 0.719175 0.909393
Si Si5 0.071166 0.432862 0.354345
Si Si6 0.369190 0.299464 0.398507
Si Si7 0.553927 0.383142 0.698838
Si Si8 0.160469 0.091225 0.755320
O O1 0.373182 0.276067 0.767535
O O2 0.288804 0.155211 0.805198
O O3 0.500000 0.500000 0.000000
O O4 0.675794 0.070128 0.080607
O O5 0.088883 0.366639 0.438200
O O6 0.000000 0.500000 0.500000
O O7 0.029420 0.063966 0.441588
O O8 0.952994 0.256528 0.188537
O O9 0.129682 0.322811 0.233945
O O10 0.715118 0.266630 0.875437
O O11 0.969032 0.917720 0.074535
O O12 0.703905 0.817346 0.744749
O O13 0.662125 0.614479 0.797247
O O14 0.000000 0.500000 0.000000
O O15 0.315982 0.437337 0.534836
O O16 0.936325 0.678117 0.264436
O O17 0.500000 0.500000 0.500000
O O18 0.518032 0.243365 0.582768
#
# Coordination Sequence:
#
# PCOD9047367 Si02
#       8
#     2   2   2   2   2   2   2   2
#     4  11  23  42  72 110 130 172 240 295 348 407
#     4  12  24  45  72 101 138 181 239 289 344 414
#     4  11  24  45  67  99 145 184 225 288 355 413
#     4  11  22  43  76 100 134 183 235 286 335 414
#     4  11  27  46  65 100 148 187 230 289 356 419
#     4   9  20  41  67 104 129 173 230 285 336 404
#     4  10  24  44  66 100 142 180 229 282 356 414
#     4  11  24  43  73  98 137 180 229 295 348 416
#
# _framework density 21.97841
#
# number of rings (size 3 to 8) (size 9 to 14) (size 15 to 20)
#    0.000    1.250    3.750    0.750    0.000    5.500 
#   11.250    0.000    0.000    0.000    0.000    0.000 
#    0.000    0.000    0.000    0.000    0.000    0.000 
#
# Total GULP energy -89304.353054 kJ/mol
# GULP energy per Si atom -5581.522066 kJ/mol
# Density = 2.192839 g / cm^3
# Si number density = 21.978410 Si / 1000 Ang^3
#
#
#
# Elastic Constant Matrix: (Units=GPa)
#
#
# Indices 1 2 3 4 5 6 
#
# 1 126.7956 59.1918 57.3362 5.4618 -26.3457 0.0691
# 2 59.1918 124.5918 65.1758 -7.5166 -17.0144 -13.4154
# 3 57.3362 65.1758 142.9547 -5.5613 -25.5864 -9.7267
# 4 5.4618 -7.5166 -5.5613 35.3462 5.4838 -12.8653
# 5 -26.3457 -17.0144 -25.5864 5.4838 47.0983 4.1760
# 6 0.0691 -13.4154 -9.7267 -12.8653 4.1760 23.6375
#
#
#
# Elastic Compliance Matrix: (Units=1/GPa)
#
#
# Indices 1 2 3 4 5 6 
#
# 1 0.013311 -0.005672 -0.002711 -0.008158 0.005746 -0.009829
# 2 -0.005672 0.013846 -0.003326 0.007566 -0.001829 0.010947
# 3 -0.002711 -0.003326 0.010314 0.002089 0.002369 0.003083
# 4 -0.008158 0.007566 0.002089 0.043953 -0.008527 0.030606
# 5 0.005746 -0.001829 0.002369 -0.008527 0.026905 -0.009475
# 6 -0.009829 0.010947 0.003083 0.030606 -0.009475 0.068148
#
#
# Mechanical properties :
#
#
# Convention : Reuss Voigt Hill
#
# Bulk Modulus (GPa) = 71.15476 84.19443 77.67459
# Shear Modulus (GPa) = 24.44052 35.39228 29.91640
#
# Velocity S-wave (km/s) = 3.33832 4.01723 3.69341
# Velocity P-wave (km/s) = 6.87781 7.74006 7.32164
#
# Compressibility (1/GPa) = 0.01405387
#
# Stress axis : x y z
#
# Youngs Moduli (GPa) = 75.12734 72.22255 96.95762
#
# Poissons Ratio (x) = 0.40962 0.26281
# Poissons Ratio (y) = 0.42610 0.32249
# Poissons Ratio (z) = 0.20364 0.24022
#
# Static dielectric constant tensor:
#      x y z
#    x 1.832560 -0.009940 0.001100 
#    y -0.009940 1.825660 -0.027740 
#    z 0.001100 -0.027740 1.839270 
# 
# From -- ./inp_files/599042.got.cif
#   From: 2010.05.17/outbox.cif.g08.bks.cpg/sg2_300_cif.got.tgz:599042.got - 2010.06.03 11:33:40.
