data_PCOD9047270
_publ_section_title
;
Structure prediction by ZEFSAII (Michael W. Deem and Ramdas Pophale) SiO2 
 PCOD9047270
Probable space group: P -1
;
_chemical_formula_sum "Si O2"
_cell_formula_units_Z 14
_cell_length_a 12.484589
_cell_length_b 5.697926
_cell_length_c 14.173513
_cell_angle_alpha 120.841125
_cell_angle_beta 131.726145
_cell_angle_gamma 49.745038
_cell_volume 568.217626
_symmetry_space_group_name_H-M "P -1"
_symmetry_group_IT_number 2
_symmetry_cell_setting 'triclinic'
loop_
_space_group_symop_operation_xyz
x,y,z
-x,-y,-z
loop_
_atom_site_type_symbol
_atom_site_label
_atom_site_fract_x
_atom_site_fract_y
_atom_site_fract_z
Si Si1 0.882157 0.450646 0.794452
Si Si2 0.490869 0.085432 0.902811
Si Si3 0.132528 0.449379 0.820713
Si Si4 0.743023 0.110774 0.935200
Si Si5 0.940647 0.376800 0.529113
Si Si6 0.632079 0.642504 0.510557
Si Si7 0.375258 0.564112 0.253957
O O1 0.751254 0.555230 0.652148
O O2 0.808266 0.278871 0.780215
O O3 0.065310 0.290832 0.827201
O O4 0.855632 0.750362 0.901766
O O5 0.297008 0.269230 0.818735
O O6 0.612173 0.210041 0.963936
O O7 0.570420 0.771900 0.825234
O O8 0.500000 0.000000 0.000000
O O9 0.998881 0.520664 0.677861
O O10 0.154499 0.710897 0.944003
O O11 0.634898 0.238693 0.803280
O O12 0.000000 0.500000 0.500000
O O13 0.746968 0.536345 0.463337
O O14 0.000000 0.000000 0.500000
O O15 0.511533 0.497461 0.398151
O O16 0.500000 0.000000 0.500000
#
# Coordination Sequence:
#
# PCOD9047270 Si02
#       7
#     2   2   2   2   2   2   2
#     4  10  24  44  62 100 132 178 228 285 358 411
#     4  11  24  42  65  98 133 180 228 285 351 428
#     4  11  24  44  69  99 138 176 230 292 352 428
#     4  11  23  42  65  97 132 172 225 281 350 407
#     4  11  28  50  73 108 147 193 238 301 371 426
#     4  11  23  43  73 101 137 190 240 297 349 433
#     4  11  23  41  68  94 134 174 230 283 342 423
#
# _framework density 24.638445999999998
#
# number of rings (size 3 to 8) (size 9 to 14) (size 15 to 20)
#    0.000    1.143    2.857    2.143    2.000    5.143 
#    2.571    0.000    0.000    0.000    0.000    0.000 
#    0.000    0.000    0.000    0.000    0.000    0.000 
#
# Total GULP energy -78050.163921 kJ/mol
# GULP energy per Si atom -5575.011709 kJ/mol
# Density = 2.458237 g / cm^3
# Si number density = 24.638446 Si / 1000 Ang^3
#
#
#
# Elastic Constant Matrix: (Units=GPa)
#
#
# Indices 1 2 3 4 5 6 
#
# 1 223.5636 28.4036 31.8614 -7.7689 14.6903 -14.0798
# 2 28.4036 66.3869 5.1014 -2.4687 3.7208 -17.5805
# 3 31.8614 5.1014 113.5783 3.3832 3.4133 8.9710
# 4 -7.7689 -2.4687 3.3832 28.1210 -5.4674 0.6739
# 5 14.6903 3.7208 3.4133 -5.4674 39.2257 -4.8769
# 6 -14.0798 -17.5805 8.9710 0.6739 -4.8769 29.5879
#
#
#
# Elastic Compliance Matrix: (Units=1/GPa)
#
#
# Indices 1 2 3 4 5 6 
#
# 1 0.005111 -0.001488 -0.001504 0.001175 -0.001258 0.001770
# 2 -0.001488 0.018695 -0.001327 0.001211 0.000417 0.010844
# 3 -0.001504 -0.001327 0.009730 -0.001782 -0.000975 -0.004574
# 4 0.001175 0.001211 -0.001782 0.037135 0.005000 0.001797
# 5 -0.001258 0.000417 -0.000975 0.005000 0.027244 0.004321
# 6 0.001770 0.010844 -0.004574 0.001797 0.004321 0.043141
#
#
# Mechanical properties :
#
#
# Convention : Reuss Voigt Hill
#
# Bulk Modulus (GPa) = 40.16530 59.36238 49.76384
# Shear Modulus (GPa) = 31.64656 41.93106 36.78881
#
# Velocity S-wave (km/s) = 3.58779 4.12983 3.86832
# Velocity P-wave (km/s) = 5.78794 6.84736 6.33982
#
# Compressibility (1/GPa) = 0.02489711
#
# Stress axis : x y z
#
# Youngs Moduli (GPa) = 195.63954 53.48937 102.77788
#
# Poissons Ratio (x) = 0.07962 0.15458
# Poissons Ratio (y) = 0.29120 0.13641
# Poissons Ratio (z) = 0.29424 0.07099
#
# Static dielectric constant tensor:
#      x y z
#    x 2.192560 0.015340 0.230890 
#    y 0.015340 2.105130 -0.072150 
#    z 0.230890 -0.072150 2.155170 
# 
# From -- ./inp_files/70923.got.cif
#   From: 2010.05.17/outbox.cif.g08.bks.cpg/sg2_36_cif.got.tgz:70923.got - 2010.06.03 11:33:40.
