data_PCOD9047740
_publ_section_title
;
Structure prediction by ZEFSAII (Michael W. Deem and Ramdas Pophale) SiO2 
 PCOD9047740
Probable space group: P -1
;
_chemical_formula_sum "Si O2"
_cell_formula_units_Z 16
_cell_length_a 11.582115
_cell_length_b 10.306044
_cell_length_c 15.883031
_cell_angle_alpha 40.427575
_cell_angle_beta 116.380079
_cell_angle_gamma 141.011314
_cell_volume 721.324869
_symmetry_space_group_name_H-M "P -1"
_symmetry_group_IT_number 2
_symmetry_cell_setting 'triclinic'
loop_
_space_group_symop_operation_xyz
x,y,z
-x,-y,-z
loop_
_atom_site_type_symbol
_atom_site_label
_atom_site_fract_x
_atom_site_fract_y
_atom_site_fract_z
Si Si1 0.686778 0.881147 0.273020
Si Si2 0.048206 0.233709 0.103215
Si Si3 0.527106 0.103333 0.053900
Si Si4 0.096606 0.730278 0.131895
Si Si5 0.457660 0.252171 0.426031
Si Si6 0.668994 0.115870 0.585263
Si Si7 0.884150 0.065982 0.416904
Si Si8 0.987935 0.264285 0.714183
O O1 0.579410 0.586906 0.327986
O O2 0.901254 0.152767 0.165085
O O3 0.567245 0.947018 0.196595
O O4 0.728110 0.864091 0.390056
O O5 0.992982 0.273883 0.977721
O O6 0.012342 0.955450 0.217797
O O7 0.273483 0.536486 0.050855
O O8 0.333060 0.995557 0.071555
O O9 0.500000 0.000000 0.000000
O O10 0.015471 0.743559 0.182437
O O11 0.022836 0.415069 0.269282
O O12 0.536649 0.148777 0.551786
O O13 0.458463 0.190248 0.359266
O O14 0.235064 0.030634 0.489510
O O15 0.790593 0.150608 0.679338
O O16 0.830336 0.402338 0.432365
O O17 0.000000 0.000000 0.500000
#
# Coordination Sequence:
#
# PCOD9047740 Si02
#       8
#     2   2   2   2   2   2   2   2
#     4  12  25  45  72 103 143 181 233 288 351 426
#     4  12  26  48  71 102 141 188 234 288 349 416
#     4  12  26  45  70 103 141 188 232 281 348 423
#     4  12  26  48  70 102 144 184 235 291 348 417
#     4  11  24  44  70 103 137 178 232 288 354 414
#     4  10  24  44  70 101 132 185 231 294 346 413
#     4  12  27  43  71 105 145 183 230 292 354 419
#     4  11  25  45  72  95 139 182 236 293 347 405
#
# _framework density 22.181405999999999
#
# number of rings (size 3 to 8) (size 9 to 14) (size 15 to 20)
#    0.000    0.500    5.000    2.625    7.000    0.500 
#    0.000    0.000    0.000    0.000    0.000    0.000 
#    0.000    0.000    0.000    0.000    0.000    0.000 
#
# Total GULP energy -89604.147189 kJ/mol
# GULP energy per Si atom -5600.259199 kJ/mol
# Density = 2.213092 g / cm^3
# Si number density = 22.181406 Si / 1000 Ang^3
#
#
#
# Elastic Constant Matrix: (Units=GPa)
#
#
# Indices 1 2 3 4 5 6 
#
# 1 76.6929 -1.0677 -3.2992 2.3061 -0.7356 8.3492
# 2 -1.0677 91.3367 13.0509 -15.4764 -0.2708 0.0548
# 3 -3.2992 13.0509 29.6354 -8.7391 -1.5366 -1.1496
# 4 2.3061 -15.4764 -8.7391 37.9108 -0.6919 2.2287
# 5 -0.7356 -0.2708 -1.5366 -0.6919 30.8010 -1.0823
# 6 8.3492 0.0548 -1.1496 2.2287 -1.0823 37.5187
#
#
#
# Elastic Compliance Matrix: (Units=1/GPa)
#
#
# Indices 1 2 3 4 5 6 
#
# 1 0.013426 -0.000093 0.001327 -0.000372 0.000275 -0.002917
# 2 -0.000093 0.012237 -0.004221 0.004049 -0.000027 -0.000368
# 3 0.001327 -0.004221 0.037925 0.006946 0.002061 0.000520
# 4 -0.000372 0.004049 0.006946 0.029758 0.000991 -0.001449
# 5 0.000275 -0.000027 0.002061 0.000991 0.032629 0.000884
# 6 -0.002917 -0.000368 0.000520 -0.001449 0.000884 0.027431
#
#
# Mechanical properties :
#
#
# Convention : Reuss Voigt Hill
#
# Bulk Modulus (GPa) = 17.35683 23.89254 20.62468
# Shear Modulus (GPa) = 27.99802 33.84485 30.92143
#
# Velocity S-wave (km/s) = 3.55664 3.91041 3.73771
# Velocity P-wave (km/s) = 4.97073 5.58420 5.28637
#
# Compressibility (1/GPa) = 0.05761422
#
# Stress axis : x y z
#
# Youngs Moduli (GPa) = 74.48123 81.72089 26.36773
#
# Poissons Ratio (x) = 0.00762 -0.03499
# Poissons Ratio (y) = 0.00694 0.11129
# Poissons Ratio (z) = -0.09884 0.34493
#
# Static dielectric constant tensor:
#      x y z
#    x 1.795070 0.019910 0.031410 
#    y 0.019910 1.810170 0.002870 
#    z 0.031410 0.002870 1.913130 
# 
# From -- ./inp_files/515080.got.cif
#   From: 2010.05.17/outbox.cif.g08.bks.cpg/sg2_258_cif.got.tgz:515080.got - 2010.06.03 11:33:40.
