data_PCOD9047635
_publ_section_title
;
Structure prediction by ZEFSAII (Michael W. Deem and Ramdas Pophale) SiO2 
 PCOD9047635
Probable space group: P -1
;
_chemical_formula_sum "Si O2"
_cell_formula_units_Z 14
_cell_length_a 11.857857
_cell_length_b 14.956970
_cell_length_c 7.182958
_cell_angle_alpha 65.265269
_cell_angle_beta 62.716454
_cell_angle_gamma 32.447412
_cell_volume 606.132451
_symmetry_space_group_name_H-M "P -1"
_symmetry_group_IT_number 2
_symmetry_cell_setting 'triclinic'
loop_
_space_group_symop_operation_xyz
x,y,z
-x,-y,-z
loop_
_atom_site_type_symbol
_atom_site_label
_atom_site_fract_x
_atom_site_fract_y
_atom_site_fract_z
Si Si1 0.867484 0.393257 0.798213
Si Si2 0.868688 0.070110 0.728342
Si Si3 0.198980 0.779930 0.022614
Si Si4 0.876684 0.656653 0.592049
Si Si5 0.494443 0.238487 0.313935
Si Si6 0.863015 0.725548 0.949308
Si Si7 0.581977 0.096019 0.759439
O O1 0.697060 0.565361 0.663727
O O2 0.082932 0.267229 0.618140
O O3 0.750351 0.363393 0.937881
O O4 0.948653 0.382100 0.946381
O O5 0.652032 0.146658 0.781785
O O6 0.844974 0.187831 0.751385
O O7 0.000000 0.000000 0.500000
O O8 0.004654 0.922134 0.903485
O O9 0.347287 0.782724 0.880914
O O10 0.632321 0.768866 0.691257
O O11 0.946061 0.629047 0.775697
O O12 0.000000 0.500000 0.500000
O O13 0.598154 0.122090 0.513009
O O14 0.749990 0.902672 0.842849
O O15 0.661422 0.787663 0.123143
#
# Coordination Sequence:
#
# PCOD9047635 Si02
#       7
#     2   2   2   2   2   2   2
#     4  11  24  44  66 101 134 176 220 273 334 398
#     4  11  23  41  66  93 132 174 223 271 333 392
#     4  11  24  41  68  96 133 178 217 276 330 396
#     4  10  24  44  68  98 133 178 220 273 333 400
#     4  11  23  44  66  98 137 171 224 270 335 399
#     4  11  24  43  72  98 136 171 228 278 333 397
#     4  11  23  43  68 103 131 175 225 280 333 393
#
# _framework density 23.097263999999999
#
# number of rings (size 3 to 8) (size 9 to 14) (size 15 to 20)
#    0.000    1.143    4.286    1.286    2.000    2.857 
#    5.143    0.714    0.000    0.000    0.000    0.000 
#    0.000    0.000    0.000    0.000    0.000    0.000 
#
# Total GULP energy -78038.322635 kJ/mol
# GULP energy per Si atom -5574.165902 kJ/mol
# Density = 2.304469 g / cm^3
# Si number density = 23.097264 Si / 1000 Ang^3
#
#
#
# Elastic Constant Matrix: (Units=GPa)
#
#
# Indices 1 2 3 4 5 6 
#
# 1 140.5889 5.4121 60.3573 9.5737 -1.2857 -4.8951
# 2 5.4121 32.6562 7.8350 -1.1035 -1.7720 0.3380
# 3 60.3573 7.8350 113.7387 18.2405 3.2197 9.2028
# 4 9.5737 -1.1035 18.2405 28.7302 6.0752 -0.5274
# 5 -1.2857 -1.7720 3.2197 6.0752 40.6187 8.3399
# 6 -4.8951 0.3380 9.2028 -0.5274 8.3399 19.3544
#
#
#
# Elastic Compliance Matrix: (Units=1/GPa)
#
#
# Indices 1 2 3 4 5 6 
#
# 1 0.009684 -0.000318 -0.005619 0.000518 -0.000433 0.005327
# 2 -0.000318 0.031415 -0.002460 0.002637 0.001136 0.000123
# 3 -0.005619 -0.002460 0.013812 -0.007481 0.001549 -0.008817
# 4 0.000518 0.002637 -0.007481 0.041113 -0.007024 0.007789
# 5 -0.000433 0.001136 0.001549 -0.007024 0.028304 -0.013254
# 6 0.005327 0.000123 -0.008817 0.007789 -0.013254 0.063129
#
#
# Mechanical properties :
#
#
# Convention : Reuss Voigt Hill
#
# Bulk Modulus (GPa) = 26.23509 48.24363 37.23936
# Shear Modulus (GPa) = 23.04612 31.96596 27.50604
#
# Velocity S-wave (km/s) = 3.16220 3.72421 3.45465
# Velocity P-wave (km/s) = 4.97151 6.27897 5.66310
#
# Compressibility (1/GPa) = 0.03811689
#
# Stress axis : x y z
#
# Youngs Moduli (GPa) = 103.26711 31.83242 72.39825
#
# Poissons Ratio (x) = 0.01012 0.40678
# Poissons Ratio (y) = 0.03284 0.17812
# Poissons Ratio (z) = 0.58022 0.07832
#
# Static dielectric constant tensor:
#      x y z
#    x -0.154410 -0.043000 0.291670 
#    y -0.043000 1.953860 0.054470 
#    z 0.291670 0.054470 1.848430 
# 
# From -- ./inp_files/77337.got.cif
#   From: 2010.05.17/outbox.cif.g08.bks.cpg/sg2_39_cif.got.tgz:77337.got - 2010.06.03 11:33:40.
