data_PCOD9047916
_publ_section_title
;
Structure prediction by ZEFSAII (Michael W. Deem and Ramdas Pophale) SiO2 
 PCOD9047916
Probable space group: P -1
;
_chemical_formula_sum "Si O2"
_cell_formula_units_Z 16
_cell_length_a 8.055719
_cell_length_b 19.303810
_cell_length_c 5.673012
_cell_angle_alpha 58.033285
_cell_angle_beta 115.830208
_cell_angle_gamma 98.385534
_cell_volume 669.464113
_symmetry_space_group_name_H-M "P -1"
_symmetry_group_IT_number 2
_symmetry_cell_setting 'triclinic'
loop_
_space_group_symop_operation_xyz
x,y,z
-x,-y,-z
loop_
_atom_site_type_symbol
_atom_site_label
_atom_site_fract_x
_atom_site_fract_y
_atom_site_fract_z
Si Si1 0.106188 0.980521 0.343865
Si Si2 0.903355 0.169883 0.147046
Si Si3 0.979487 0.404218 0.160347
Si Si4 0.790851 0.330961 0.548360
Si Si5 0.417128 0.591755 0.340152
Si Si6 0.319851 0.280159 0.608505
Si Si7 0.712172 0.864238 0.799437
Si Si8 0.388118 0.808357 0.427078
O O1 0.142309 0.881695 0.562738
O O2 0.266815 0.040271 0.316292
O O3 0.000000 0.000000 0.500000
O O4 0.000000 0.000000 0.000000
O O5 0.843171 0.266137 0.908316
O O6 0.770271 0.137485 0.917637
O O7 0.119860 0.158422 0.240404
O O8 0.958268 0.372906 0.471836
O O9 0.152090 0.342286 0.286053
O O10 0.780353 0.398688 0.930043
O O11 0.000000 0.500000 0.000000
O O12 0.634670 0.397337 0.433684
O O13 0.717635 0.268818 0.423970
O O14 0.500000 0.500000 0.500000
O O15 0.560785 0.659966 0.270767
O O16 0.251181 0.204331 0.849483
O O17 0.459979 0.235297 0.585327
O O18 0.509992 0.853244 0.598574
#
# Coordination Sequence:
#
# PCOD9047916 Si02
#       8
#     2   2   2   2   2   2   2   2
#     4  10  24  44  71 109 145 189 237 296 357 422
#     4   9  21  45  64  96 136 180 228 283 358 415
#     4  12  24  40  64  94 127 178 229 283 353 419
#     4   9  22  45  62  91 137 176 220 288 350 411
#     4  11  24  43  62  94 132 169 230 291 352 410
#     4  11  23  40  62  97 126 174 232 284 347 428
#     4  11  22  40  72  93 137 181 231 286 351 423
#     4   9  22  41  65  97 128 180 234 276 358 413
#
# _framework density 23.899711
#
# number of rings (size 3 to 8) (size 9 to 14) (size 15 to 20)
#    0.750    1.000    2.500    0.750    5.250    1.500 
#    6.750    0.625    0.000    0.000    0.000    0.000 
#    0.000    0.000    0.000    0.000    0.000    0.000 
#
# Total GULP energy -89164.475337 kJ/mol
# GULP energy per Si atom -5572.779709 kJ/mol
# Density = 2.384531 g / cm^3
# Si number density = 23.899711 Si / 1000 Ang^3
#
#
#
# Elastic Constant Matrix: (Units=GPa)
#
#
# Indices 1 2 3 4 5 6 
#
# 1 88.1529 39.7731 30.6889 -14.3552 10.9572 14.1605
# 2 39.7731 128.4775 46.1094 -23.7296 -14.1064 24.0914
# 3 30.6889 46.1094 110.6317 -9.8755 12.7826 20.1958
# 4 -14.3552 -23.7296 -9.8755 35.5882 16.7451 -3.5057
# 5 10.9572 -14.1064 12.7826 16.7451 36.0893 -2.3644
# 6 14.1605 24.0914 20.1958 -3.5057 -2.3644 42.2372
#
#
#
# Elastic Compliance Matrix: (Units=1/GPa)
#
#
# Indices 1 2 3 4 5 6 
#
# 1 0.016460 -0.003988 -0.000378 0.008569 -0.010591 -0.002945
# 2 -0.003988 0.012068 -0.003845 0.002208 0.006057 -0.003186
# 3 -0.000378 -0.003845 0.012782 0.004287 -0.008160 -0.003893
# 4 0.008569 0.002208 0.004287 0.045407 -0.024574 -0.003789
# 5 -0.010591 0.006057 -0.008160 -0.024574 0.047888 0.004639
# 6 -0.002945 -0.003186 -0.003893 -0.003789 0.004639 0.028287
#
#
# Mechanical properties :
#
#
# Convention : Reuss Voigt Hill
#
# Bulk Modulus (GPa) = 40.17758 62.26720 51.22239
# Shear Modulus (GPa) = 26.65131 36.82901 31.74016
#
# Velocity S-wave (km/s) = 3.34298 3.92979 3.64820
# Velocity P-wave (km/s) = 5.63454 6.83382 6.26296
#
# Compressibility (1/GPa) = 0.02488950
#
# Stress axis : x y z
#
# Youngs Moduli (GPa) = 60.75515 82.86418 78.23310
#
# Poissons Ratio (x) = 0.33046 0.02953
# Poissons Ratio (y) = 0.24229 0.30078
# Poissons Ratio (z) = 0.02294 0.31858
#
# Static dielectric constant tensor:
#      x y z
#    x 1.953200 -0.038700 -0.009840 
#    y -0.038700 1.982310 0.019270 
#    z -0.009840 0.019270 2.019610 
# 
# From -- ./inp_files/51086.got.cif
#   From: 2010.05.17/outbox.cif.g08.bks.cpg/sg2_26_cif.got.tgz:51086.got - 2010.06.03 11:33:40.
