data_PCOD9047514
_publ_section_title
;
Structure prediction by ZEFSAII (Michael W. Deem and Ramdas Pophale) SiO2 
 PCOD9047514
Probable space group: P -1
;
_chemical_formula_sum "Si O2"
_cell_formula_units_Z 16
_cell_length_a 18.152803
_cell_length_b 7.225874
_cell_length_c 10.515978
_cell_angle_alpha 58.515317
_cell_angle_beta 54.824417
_cell_angle_gamma 34.198601
_cell_volume 630.565401
_symmetry_space_group_name_H-M "P -1"
_symmetry_group_IT_number 2
_symmetry_cell_setting 'triclinic'
loop_
_space_group_symop_operation_xyz
x,y,z
-x,-y,-z
loop_
_atom_site_type_symbol
_atom_site_label
_atom_site_fract_x
_atom_site_fract_y
_atom_site_fract_z
Si Si1 0.935515 0.817279 0.169068
Si Si2 0.749213 0.944272 0.494908
Si Si3 0.718807 0.302213 0.030859
Si Si4 0.419010 0.110021 0.409321
Si Si5 0.465477 0.811458 0.962681
Si Si6 0.802393 0.683498 0.074232
Si Si7 0.190098 0.702805 0.580770
Si Si8 0.101644 0.695556 0.281240
O O1 0.865278 0.748971 0.339258
O O2 0.022288 0.792659 0.193288
O O3 0.043779 0.567375 0.041296
O O4 0.803676 0.188230 0.115175
O O5 0.612627 0.081674 0.525932
O O6 0.809173 0.672709 0.637280
O O7 0.742887 0.195523 0.469977
O O8 0.560721 0.659596 0.047641
O O9 0.800288 0.279962 0.847592
O O10 0.744790 0.000830 0.089423
O O11 0.484583 0.120077 0.224005
O O12 0.270306 0.480559 0.456956
O O13 0.500000 0.000000 0.500000
O O14 0.302426 0.143095 0.004073
O O15 0.500000 0.500000 0.000000
O O16 0.796387 0.503256 0.248229
O O17 0.029675 0.031957 0.596999
#
# Coordination Sequence:
#
# PCOD9047514 Si02
#       8
#     2   2   2   2   2   2   2   2
#     4  11  23  41  72  98 139 181 231 289 350 410
#     4  11  27  45  71 108 142 179 234 297 351 413
#     4  11  22  40  69  98 138 181 231 293 343 413
#     4  12  25  47  73  99 138 190 235 280 357 420
#     4  10  24  44  67  99 144 176 233 296 337 423
#     4  11  23  42  69 107 133 186 243 283 344 424
#     4  11  24  43  72 103 141 183 236 292 345 418
#     4  11  24  44  66 106 142 174 235 297 350 414
#
# _framework density 25.374053
#
# number of rings (size 3 to 8) (size 9 to 14) (size 15 to 20)
#    0.000    1.000    3.750    3.000    5.250    5.000 
#    0.000    0.625    5.500    0.000    0.000    0.000 
#    0.000    0.000    0.000    0.000    0.000    0.000 
#
# Total GULP energy -89583.441014 kJ/mol
# GULP energy per Si atom -5598.965063 kJ/mol
# Density = 2.531630 g / cm^3
# Si number density = 25.374053 Si / 1000 Ang^3
#
#
#
# Elastic Constant Matrix: (Units=GPa)
#
#
# Indices 1 2 3 4 5 6 
#
# 1 115.3671 31.3659 38.2841 -24.3843 -9.5504 -11.0908
# 2 31.3659 83.4876 12.0638 -19.3949 0.7651 -2.0893
# 3 38.2841 12.0638 87.1579 -23.4188 -15.7801 16.5538
# 4 -24.3843 -19.3949 -23.4188 44.2108 1.7423 4.3820
# 5 -9.5504 0.7651 -15.7801 1.7423 53.4108 -14.5116
# 6 -11.0908 -2.0893 16.5538 4.3820 -14.5116 47.1948
#
#
#
# Elastic Compliance Matrix: (Units=1/GPa)
#
#
# Indices 1 2 3 4 5 6 
#
# 1 0.012297 -0.003303 -0.004924 0.002159 0.002053 0.004901
# 2 -0.003303 0.014245 0.000889 0.005062 -0.001036 -0.001246
# 3 -0.004924 0.000889 0.017253 0.007453 0.001992 -0.007249
# 4 0.002159 0.005062 0.007453 0.030426 0.000266 -0.004626
# 5 0.002053 -0.001036 0.001992 0.000266 0.021394 0.006292
# 6 0.004901 -0.001246 -0.007249 -0.004626 0.006292 0.027192
#
#
# Mechanical properties :
#
#
# Convention : Reuss Voigt Hill
#
# Bulk Modulus (GPa) = 34.34236 49.93780 42.14008
# Shear Modulus (GPa) = 33.96957 42.58321 38.27639
#
# Velocity S-wave (km/s) = 3.66287 4.10105 3.88814
# Velocity P-wave (km/s) = 5.60826 6.49216 6.06633
#
# Compressibility (1/GPa) = 0.02911856
#
# Stress axis : x y z
#
# Youngs Moduli (GPa) = 81.31824 70.20131 57.96022
#
# Poissons Ratio (x) = 0.23190 0.28538
# Poissons Ratio (y) = 0.26862 -0.05150
# Poissons Ratio (z) = 0.40038 -0.06238
#
# Static dielectric constant tensor:
#      x y z
#    x 2.136330 -0.049680 0.022920 
#    y -0.049680 1.992370 0.005680 
#    z 0.022920 0.005680 1.958520 
# 
# From -- ./inp_files/416526.got.cif
#   From: 2010.05.17/outbox.cif.g08.bks.cpg/sg2_209_cif.got.tgz:416526.got - 2010.06.03 11:33:40.
