data_PCOD9047489
_publ_section_title
;
Structure prediction by ZEFSAII (Michael W. Deem and Ramdas Pophale) SiO2 
 PCOD9047489
Probable space group: P -1
;
_chemical_formula_sum "Si O2"
_cell_formula_units_Z 14
_cell_length_a 13.515508
_cell_length_b 9.502888
_cell_length_c 9.846732
_cell_angle_alpha 137.212855
_cell_angle_beta 84.073576
_cell_angle_gamma 69.075560
_cell_volume 656.032951
_symmetry_space_group_name_H-M "P -1"
_symmetry_group_IT_number 2
_symmetry_cell_setting 'triclinic'
loop_
_space_group_symop_operation_xyz
x,y,z
-x,-y,-z
loop_
_atom_site_type_symbol
_atom_site_label
_atom_site_fract_x
_atom_site_fract_y
_atom_site_fract_z
Si Si1 0.641159 0.705623 0.265939
Si Si2 0.184582 0.548320 0.478617
Si Si3 0.992949 0.809595 0.460545
Si Si4 0.751430 0.725834 0.997911
Si Si5 0.230388 0.193447 0.454894
Si Si6 0.548014 0.388162 0.065206
Si Si7 0.374848 0.657767 0.532620
O O1 0.689693 0.657809 0.070708
O O2 0.732722 0.717993 0.358501
O O3 0.628075 0.488162 0.164080
O O4 0.500000 0.000000 0.500000
O O5 0.055173 0.780987 0.578590
O O6 0.157920 0.428971 0.520594
O O7 0.269793 0.628065 0.570330
O O8 0.267621 0.321801 0.188130
O O9 0.854121 0.891276 0.550918
O O10 0.093405 0.503647 0.171609
O O11 0.000000 0.000000 0.500000
O O12 0.693168 0.028781 0.241797
O O13 0.361391 0.932457 0.182578
O O14 0.430377 0.527915 0.284641
O O15 0.500000 0.500000 0.000000
O O16 0.500000 0.500000 0.500000
#
# Coordination Sequence:
#
# PCOD9047489 Si02
#       7
#     2   2   2   2   2   2   2
#     4  12  23  40  66 103 137 173 227 279 338 402
#     4  10  26  45  69  97 138 176 225 281 337 398
#     4  10  25  48  73  94 133 184 234 275 336 401
#     4  10  24  44  67  96 139 174 228 275 335 398
#     4  12  25  45  69 100 137 181 225 284 334 396
#     4  12  24  39  68  98 140 176 223 274 338 407
#     4  12  24  41  68 101 136 174 219 272 348 403
#
# _framework density 21.340391
#
# number of rings (size 3 to 8) (size 9 to 14) (size 15 to 20)
#    0.857    0.000    2.857    3.857    4.000    1.714 
#    2.571    0.714    0.000    0.000    0.000    0.000 
#    0.000    0.000    0.000    0.000    0.000    0.000 
#
# Total GULP energy -78243.908442 kJ/mol
# GULP energy per Si atom -5588.850603 kJ/mol
# Density = 2.129182 g / cm^3
# Si number density = 21.340391 Si / 1000 Ang^3
#
#
#
# Elastic Constant Matrix: (Units=GPa)
#
#
# Indices 1 2 3 4 5 6 
#
# 1 93.9542 21.3222 -1.1290 -8.0365 21.1281 2.5000
# 2 21.3222 111.2347 3.5822 -7.7299 12.0279 -3.3752
# 3 -1.1290 3.5822 48.4028 3.6402 -2.9905 -5.2541
# 4 -8.0365 -7.7299 3.6402 36.3067 -0.1769 -0.2086
# 5 21.1281 12.0279 -2.9905 -0.1769 24.8703 -0.8815
# 6 2.5000 -3.3752 -5.2541 -0.2086 -0.8815 38.7898
#
#
#
# Elastic Compliance Matrix: (Units=1/GPa)
#
#
# Indices 1 2 3 4 5 6 
#
# 1 0.013694 -0.001249 -0.000627 0.002766 -0.011132 -0.001314
# 2 -0.001249 0.009826 -0.001055 0.001907 -0.003779 0.000717
# 3 -0.000627 -0.001055 0.021457 -0.002480 0.003709 0.002926
# 4 0.002766 0.001907 -0.002480 0.028792 -0.003375 -0.000270
# 5 -0.011132 -0.003779 0.003709 -0.003375 0.051988 0.002054
# 6 -0.001314 0.000717 0.002926 -0.000270 0.002054 0.026369
#
#
# Mechanical properties :
#
#
# Convention : Reuss Voigt Hill
#
# Bulk Modulus (GPa) = 25.56527 33.46027 29.51277
# Shear Modulus (GPa) = 29.23520 35.31443 32.27482
#
# Velocity S-wave (km/s) = 3.70529 4.07236 3.89315
# Velocity P-wave (km/s) = 5.50558 6.15024 5.83682
#
# Compressibility (1/GPa) = 0.03911557
#
# Stress axis : x y z
#
# Youngs Moduli (GPa) = 73.02309 101.76761 46.60549
#
# Poissons Ratio (x) = 0.12708 0.02921
# Poissons Ratio (y) = 0.09119 0.04919
# Poissons Ratio (z) = 0.04576 0.10741
#
# Static dielectric constant tensor:
#      x y z
#    x 1.787090 -0.006350 -0.001570 
#    y -0.006350 1.761420 -0.001640 
#    z -0.001570 -0.001640 1.780080 
# 
# From -- ./inp_files/299657.got.cif
#   From: 2010.05.17/outbox.cif.g08.bks.cpg/sg2_150_cif.got.tgz:299657.got - 2010.06.03 11:33:40.
