data_PCOD9047934
_publ_section_title
;
Structure prediction by ZEFSAII (Michael W. Deem and Ramdas Pophale) SiO2 
 PCOD9047934
Probable space group: P -1
;
_chemical_formula_sum "Si O2"
_cell_formula_units_Z 14
_cell_length_a 11.362056
_cell_length_b 9.518801
_cell_length_c 9.020713
_cell_angle_alpha 49.449659
_cell_angle_beta 124.271380
_cell_angle_gamma 115.231311
_cell_volume 609.782331
_symmetry_space_group_name_H-M "P -1"
_symmetry_group_IT_number 2
_symmetry_cell_setting 'triclinic'
loop_
_space_group_symop_operation_xyz
x,y,z
-x,-y,-z
loop_
_atom_site_type_symbol
_atom_site_label
_atom_site_fract_x
_atom_site_fract_y
_atom_site_fract_z
Si Si1 0.420871 0.508270 0.136083
Si Si2 0.784191 0.527940 0.727279
Si Si3 0.779585 0.222411 0.355426
Si Si4 0.874197 0.937582 0.068435
Si Si5 0.237139 0.466837 0.642976
Si Si6 0.959626 0.208170 0.203060
Si Si7 0.651854 0.922528 0.683039
O O1 0.365579 0.505357 0.269016
O O2 0.590504 0.533203 0.216212
O O3 0.364133 0.301000 0.182141
O O4 0.345087 0.672722 0.888083
O O5 0.779481 0.522508 0.551893
O O6 0.875104 0.715829 0.718005
O O7 0.878979 0.367617 0.956707
O O8 0.817794 0.363644 0.420953
O O9 0.896035 0.196838 0.330716
O O10 0.736504 0.027473 0.536355
O O11 0.846547 0.719342 0.226453
O O12 0.914035 0.034431 0.185858
O O13 0.729628 0.986005 0.848564
O O14 0.000000 0.000000 0.000000
O O15 0.500000 0.000000 0.500000
#
# Coordination Sequence:
#
# PCOD9047934 Si02
#       7
#     2   2   2   2   2   2   2
#     4  11  23  47  68 107 145 182 234 299 350 422
#     4  10  24  44  71  96 141 186 233 295 349 423
#     4  11  24  44  72 102 143 187 229 295 353 419
#     4  12  28  46  70 107 145 187 239 298 351 430
#     4  12  24  43  71 100 140 186 233 287 360 411
#     4  10  25  46  67 101 139 181 243 286 352 426
#     4  12  24  44  76 104 143 187 243 289 354 424
#
# _framework density 22.959012999999999
#
# number of rings (size 3 to 8) (size 9 to 14) (size 15 to 20)
#    0.000    0.857    2.857    3.429    8.000    1.143 
#    0.000    2.143    0.000    0.000    0.000    0.000 
#    0.000    0.000    0.000    0.000    0.000    0.000 
#
# Total GULP energy -78357.491715 kJ/mol
# GULP energy per Si atom -5596.963694 kJ/mol
# Density = 2.290676 g / cm^3
# Si number density = 22.959013 Si / 1000 Ang^3
#
#
#
# Elastic Constant Matrix: (Units=GPa)
#
#
# Indices 1 2 3 4 5 6 
#
# 1 129.8393 63.6367 50.3679 4.5930 -23.3117 -1.7412
# 2 63.6367 144.7252 55.0569 -2.0554 -8.7205 -1.7687
# 3 50.3679 55.0569 133.0010 11.3744 -24.1835 -0.1878
# 4 4.5930 -2.0554 11.3744 41.5500 7.2174 -7.4609
# 5 -23.3117 -8.7205 -24.1835 7.2174 38.6401 -2.2642
# 6 -1.7412 -1.7687 -0.1878 -7.4609 -2.2642 33.1362
#
#
#
# Elastic Compliance Matrix: (Units=1/GPa)
#
#
# Indices 1 2 3 4 5 6 
#
# 1 0.011322 -0.004134 -0.001431 -0.001946 0.005383 0.000296
# 2 -0.004134 0.009822 -0.003193 0.002400 -0.002686 0.000646
# 3 -0.001431 -0.003193 0.010807 -0.004111 0.005906 -0.000706
# 4 -0.001946 0.002400 -0.004111 0.027964 -0.008092 0.005746
# 5 0.005383 -0.002686 0.005906 -0.008092 0.033768 0.000658
# 6 0.000296 0.000646 -0.000706 0.005746 0.000658 0.031563
#
#
# Mechanical properties :
#
#
# Convention : Reuss Voigt Hill
#
# Bulk Modulus (GPa) = 69.27269 82.85429 76.06349
# Shear Modulus (GPa) = 33.88125 38.56554 36.22340
#
# Velocity S-wave (km/s) = 3.84569 4.10293 3.97639
# Velocity P-wave (km/s) = 7.06802 7.65582 7.36779
#
# Compressibility (1/GPa) = 0.01443570
#
# Stress axis : x y z
#
# Youngs Moduli (GPa) = 88.32142 101.81017 92.53277
#
# Poissons Ratio (x) = 0.42086 0.13240
# Poissons Ratio (y) = 0.36510 0.29548
# Poissons Ratio (z) = 0.12638 0.32510
#
# Static dielectric constant tensor:
#      x y z
#    x 1.876760 0.018570 0.002330 
#    y 0.018570 1.849520 0.009970 
#    z 0.002330 0.009970 1.872450 
# 
# From -- ./inp_files/242301.got.cif
#   From: 2010.05.17/outbox.cif.g08.bks.cpg/sg2_122_cif.got.tgz:242301.got - 2010.06.03 11:33:40.
