data_PCOD9047827
_publ_section_title
;
Structure prediction by ZEFSAII (Michael W. Deem and Ramdas Pophale) SiO2 
 PCOD9047827
Probable space group: P -1
;
_chemical_formula_sum "Si O2"
_cell_formula_units_Z 14
_cell_length_a 14.336881
_cell_length_b 12.663420
_cell_length_c 7.142240
_cell_angle_alpha 100.269724
_cell_angle_beta 113.169517
_cell_angle_gamma 134.529598
_cell_volume 612.664926
_symmetry_space_group_name_H-M "P -1"
_symmetry_group_IT_number 2
_symmetry_cell_setting 'triclinic'
loop_
_space_group_symop_operation_xyz
x,y,z
-x,-y,-z
loop_
_atom_site_type_symbol
_atom_site_label
_atom_site_fract_x
_atom_site_fract_y
_atom_site_fract_z
Si Si1 0.502107 0.100575 0.778100
Si Si2 0.003772 0.946797 0.231187
Si Si3 0.393129 0.470815 0.066737
Si Si4 0.042268 0.205218 0.483463
Si Si5 0.502232 0.141919 0.210714
Si Si6 0.327009 0.116288 0.373482
Si Si7 0.874782 0.494197 0.395046
O O1 0.376940 0.059430 0.526877
O O2 0.503184 0.973633 0.713832
O O3 0.422892 0.046690 0.910189
O O4 0.726234 0.341808 0.053418
O O5 0.769927 0.732896 0.995325
O O6 0.073529 0.955716 0.487725
O O7 0.066331 0.127150 0.337779
O O8 0.110298 0.966637 0.174949
O O9 0.253030 0.417205 0.810837
O O10 0.500000 0.500000 0.000000
O O11 0.539700 0.668523 0.371283
O O12 0.991150 0.279290 0.415604
O O13 0.394433 0.140158 0.230249
O O14 0.727525 0.370144 0.415951
O O15 0.000000 0.500000 0.500000
#
# Coordination Sequence:
#
# PCOD9047827 Si02
#       7
#     2   2   2   2   2   2   2
#     4   9  20  40  56  83 123 160 197 249 307 343
#     4   9  20  32  60  96 113 156 206 246 299 362
#     4  10  17  34  57  92 119 151 198 246 300 353
#     4   9  17  35  55  88 118 154 201 240 302 352
#     4   9  22  38  55  90 120 159 206 240 307 359
#     4  12  19  37  66  86 125 156 202 253 296 366
#     4  10  20  38  60  83 121 162 196 248 304 358
#
# _framework density 22.850988000000001
#
# number of rings (size 3 to 8) (size 9 to 14) (size 15 to 20)
#    1.714    0.571    2.857    0.429    2.000    0.000 
#    2.571    1.429    0.000    0.857    0.000    3.000 
#    0.000    0.000    0.000    0.000    0.000    0.000 
#
# Total GULP energy -77956.942154 kJ/mol
# GULP energy per Si atom -5568.353011 kJ/mol
# Density = 2.279898 g / cm^3
# Si number density = 22.850988 Si / 1000 Ang^3
#
#
#
# Elastic Constant Matrix: (Units=GPa)
#
#
# Indices 1 2 3 4 5 6 
#
# 1 195.0997 55.8250 28.8361 13.6480 -15.1750 7.0730
# 2 55.8250 80.9700 28.5700 16.0750 -3.3560 -23.2535
# 3 28.8361 28.5700 46.2806 1.7843 3.9009 3.1426
# 4 13.6480 16.0750 1.7843 28.0957 4.4492 -3.6044
# 5 -15.1750 -3.3560 3.9009 4.4492 23.8471 4.9240
# 6 7.0730 -23.2535 3.1426 -3.6044 4.9240 41.8385
#
#
#
# Elastic Compliance Matrix: (Units=1/GPa)
#
#
# Indices 1 2 3 4 5 6 
#
# 1 0.007747 -0.005745 -0.001335 -0.001983 0.005795 -0.005255
# 2 -0.005745 0.028611 -0.014931 -0.010667 0.001309 0.016922
# 3 -0.001335 -0.014931 0.032645 0.007196 -0.007777 -0.008989
# 4 -0.001983 -0.010667 0.007196 0.043974 -0.011951 -0.000939
# 5 0.005795 0.001309 -0.007777 -0.011951 0.050683 -0.006662
# 6 -0.005255 0.016922 -0.008989 -0.000939 -0.006662 0.035573
#
#
# Mechanical properties :
#
#
# Convention : Reuss Voigt Hill
#
# Bulk Modulus (GPa) = 40.03141 60.97918 50.50530
# Shear Modulus (GPa) = 19.87414 32.69754 26.28584
#
# Velocity S-wave (km/s) = 2.95231 3.78683 3.39531
# Velocity P-wave (km/s) = 5.40167 6.77227 6.12543
#
# Compressibility (1/GPa) = 0.02498038
#
# Stress axis : x y z
#
# Youngs Moduli (GPa) = 129.08476 34.95105 30.63272
#
# Poissons Ratio (x) = 0.20081 0.04090
# Poissons Ratio (y) = 0.74164 0.45737
# Poissons Ratio (z) = 0.17235 0.52185
#
# Static dielectric constant tensor:
#      x y z
#    x 1.896260 0.000320 0.024310 
#    y 0.000320 1.938260 -0.042240 
#    z 0.024310 -0.042240 1.914700 
# 
# From -- ./inp_files/259567.got.cif
#   From: 2010.05.17/outbox.cif.g08.bks.cpg/sg2_130_cif.got.tgz:259567.got - 2010.06.03 11:33:40.
