data_PCOD9047359
_publ_section_title
;
Structure prediction by ZEFSAII (Michael W. Deem and Ramdas Pophale) SiO2 
 PCOD9047359
Probable space group: P -1
;
_chemical_formula_sum "Si O2"
_cell_formula_units_Z 14
_cell_length_a 14.071594
_cell_length_b 15.778090
_cell_length_c 12.826314
_cell_angle_alpha 132.631804
_cell_angle_beta 46.932814
_cell_angle_gamma 162.575999
_cell_volume 618.627986
_symmetry_space_group_name_H-M "P -1"
_symmetry_group_IT_number 2
_symmetry_cell_setting 'triclinic'
loop_
_space_group_symop_operation_xyz
x,y,z
-x,-y,-z
loop_
_atom_site_type_symbol
_atom_site_label
_atom_site_fract_x
_atom_site_fract_y
_atom_site_fract_z
Si Si1 0.603614 0.431597 0.159416
Si Si2 0.679715 0.316083 0.572880
Si Si3 0.127593 0.594733 0.101312
Si Si4 0.540641 0.419358 0.969942
Si Si5 0.100360 0.850504 0.773920
Si Si6 0.836893 0.972639 0.659905
Si Si7 0.518519 0.137331 0.309018
O O1 0.335522 0.219186 0.270486
O O2 0.648556 0.336020 0.008574
O O3 0.525816 0.436023 0.116493
O O4 0.918175 0.734949 0.233439
O O5 0.537675 0.179567 0.451617
O O6 0.000000 0.500000 0.500000
O O7 0.812332 0.556298 0.677587
O O8 0.422325 0.072028 0.652517
O O9 0.848037 0.357790 0.197255
O O10 0.285029 0.842291 0.218267
O O11 0.000000 0.500000 0.000000
O O12 0.904725 0.667024 0.876742
O O13 0.248026 0.096765 0.890843
O O14 0.500000 0.500000 0.000000
O O15 0.594494 0.844345 0.658473
O O16 0.000000 0.000000 0.500000
#
# Coordination Sequence:
#
# PCOD9047359 Si02
#       7
#     2   2   2   2   2   2   2
#     4  12  26  44  71 105 135 180 229 288 351 403
#     4  11  25  42  66 101 142 183 228 277 347 420
#     4  12  23  43  72 101 142 173 229 284 347 416
#     4  11  25  45  72 101 137 183 237 288 345 407
#     4  10  24  44  65  98 136 182 231 277 340 403
#     4  12  26  46  69 102 138 182 230 281 344 424
#     4  12  25  43  69 103 140 185 224 282 352 407
#
# _framework density 22.630725000000002
#
# number of rings (size 3 to 8) (size 9 to 14) (size 15 to 20)
#    0.000    0.571    2.857    4.286    6.000    3.429 
#    0.000    0.000    0.000    0.000    0.000    0.000 
#    0.000    0.000    0.000    0.000    0.000    0.000 
#
# Total GULP energy -78094.203656 kJ/mol
# GULP energy per Si atom -5578.157404 kJ/mol
# Density = 2.257922 g / cm^3
# Si number density = 22.630725 Si / 1000 Ang^3
#
#
#
# Elastic Constant Matrix: (Units=GPa)
#
#
# Indices 1 2 3 4 5 6 
#
# 1 145.9445 -15.2384 17.7361 -0.1791 47.9979 -0.9858
# 2 -15.2384 174.2566 82.1481 -17.5819 -14.2724 -18.5114
# 3 17.7361 82.1481 173.1655 -18.5263 -32.5932 -13.1248
# 4 -0.1791 -17.5819 -18.5263 67.9631 10.7490 7.6178
# 5 47.9979 -14.2724 -32.5932 10.7490 57.5324 8.3672
# 6 -0.9858 -18.5114 -13.1248 7.6178 8.3672 25.7106
#
#
#
# Elastic Compliance Matrix: (Units=1/GPa)
#
#
# Indices 1 2 3 4 5 6 
#
# 1 0.011747 0.002575 -0.004355 0.001041 -0.012376 0.003801
# 2 0.002575 0.008362 -0.004418 0.000984 -0.003443 0.004693
# 3 -0.004355 -0.004418 0.009812 0.000349 0.008192 -0.001108
# 4 0.001041 0.000984 0.000349 0.015852 -0.002981 -0.002800
# 5 -0.012376 -0.003443 0.008192 -0.002981 0.033320 -0.008732
# 6 0.003801 0.004693 -0.001108 -0.002800 -0.008732 0.045525
#
#
# Mechanical properties :
#
#
# Convention : Reuss Voigt Hill
#
# Bulk Modulus (GPa) = 57.05563 73.62870 65.34217
# Shear Modulus (GPa) = 35.00052 57.48927 46.24490
#
# Velocity S-wave (km/s) = 3.93694 5.04563 4.52536
# Velocity P-wave (km/s) = 6.77734 8.15781 7.49941
#
# Compressibility (1/GPa) = 0.01752675
#
# Stress axis : x y z
#
# Youngs Moduli (GPa) = 85.12694 119.58216 101.91749
#
# Poissons Ratio (x) = -0.30797 0.44383
# Poissons Ratio (y) = -0.21924 0.45026
# Poissons Ratio (z) = 0.37071 0.52831
#
# Static dielectric constant tensor:
#      x y z
#    x 1.919040 0.030630 -0.049890 
#    y 0.030630 1.813770 -0.002720 
#    z -0.049890 -0.002720 1.878480 
# 
# From -- ./inp_files/454944.got.cif
#   From: 2010.05.17/outbox.cif.g08.bks.cpg/sg2_228_cif.got.tgz:454944.got - 2010.06.03 11:33:40.
