data_PCOD9047982
_publ_section_title
;
Structure prediction by ZEFSAII (Michael W. Deem and Ramdas Pophale) SiO2 
 PCOD9047982
Probable space group: P -1
;
_chemical_formula_sum "Si O2"
_cell_formula_units_Z 15
_cell_length_a 6.080868
_cell_length_b 29.827713
_cell_length_c 29.859971
_cell_angle_alpha 170.513537
_cell_angle_beta 129.423543
_cell_angle_gamma 49.266698
_cell_volume 674.800188
_symmetry_space_group_name_H-M "P -1"
_symmetry_group_IT_number 2
_symmetry_cell_setting 'triclinic'
loop_
_space_group_symop_operation_xyz
x,y,z
-x,-y,-z
loop_
_atom_site_type_symbol
_atom_site_label
_atom_site_fract_x
_atom_site_fract_y
_atom_site_fract_z
Si Si1 0.228914 0.702102 0.050437
Si Si2 0.268814 0.556958 0.377776
Si Si3 0.343268 0.488887 0.532590
Si Si4 0.500000 0.000000 0.000000
Si Si5 0.945945 0.052415 0.435515
Si Si6 0.348599 0.546185 0.276035
Si Si7 0.130716 0.487667 0.053843
Si Si8 0.119189 0.884845 0.117187
O O1 0.533116 0.488351 0.881501
O O2 0.209174 0.860149 0.156481
O O3 0.192206 0.910631 0.292849
O O4 0.952141 0.558392 0.873212
O O5 0.529049 0.531243 0.420660
O O6 0.352748 0.637977 0.418431
O O7 0.001723 0.796430 0.596165
O O8 0.147497 0.275444 0.080706
O O9 0.487319 0.221577 0.258785
O O10 0.000000 0.500000 0.500000
O O11 0.413161 0.763813 0.789931
O O12 0.682197 0.211182 0.525983
O O13 0.868442 0.806589 0.212761
O O14 0.029197 0.274393 0.699060
O O15 0.614366 0.292937 0.051053
O O16 0.000000 0.500000 0.000000
#
# Coordination Sequence:
#
# PCOD9047982 Si02
#       8
#     2   2   2   1   2   2   2   2
#     4  11  24  43  72  95 138 176 227 279 348 412
#     4  11  26  42  68 110 138 180 231 285 342 419
#     4  11  24  47  75 104 148 192 239 294 352 416
#     4  10  24  44  72 104 136 198 240 276 358 408
#     4  12  24  45  69  98 132 179 227 277 356 404
#     4  11  25  43  72 102 134 184 224 284 354 412
#     4  12  29  46  68  99 136 180 232 283 338 415
#     4  11  24  41  68  99 144 174 227 283 348 413
#
# _framework density 22.228802999999999
#
# number of rings (size 3 to 8) (size 9 to 14) (size 15 to 20)
#    0.000    0.800    4.000    1.600    5.600    4.267 
#    0.000    1.333    0.000    0.000    0.000    0.000 
#    0.000    0.000    0.000    0.000    0.000    0.000 
#
# Total GULP energy -83702.243433 kJ/mol
# GULP energy per Si atom -5580.149562 kJ/mol
# Density = 2.217821 g / cm^3
# Si number density = 22.228803 Si / 1000 Ang^3
#
#
#
# Elastic Constant Matrix: (Units=GPa)
#
#
# Indices 1 2 3 4 5 6 
#
# 1 67.3453 47.5040 24.7870 -1.5815 -9.1413 17.3557
# 2 47.5040 122.4486 31.2012 -17.2349 6.5002 26.4344
# 3 24.7870 31.2012 129.4073 4.9843 12.8030 25.6098
# 4 -1.5815 -17.2349 4.9843 20.2335 3.9390 -4.6666
# 5 -9.1413 6.5002 12.8030 3.9390 34.2949 -4.3416
# 6 17.3557 26.4344 25.6098 -4.6666 -4.3416 28.3276
#
#
#
# Elastic Compliance Matrix: (Units=1/GPa)
#
#
# Indices 1 2 3 4 5 6 
#
# 1 0.024855 -0.010025 -0.002230 -0.008849 0.009893 -0.003799
# 2 -0.010025 0.015978 -0.000052 0.012601 -0.008127 -0.007891
# 3 -0.002230 -0.000052 0.010811 -0.004106 -0.005398 -0.009863
# 4 -0.008849 0.012601 -0.004106 0.063848 -0.009738 0.006400
# 5 0.009893 -0.008127 -0.005398 -0.009738 0.037811 0.010594
# 6 -0.003799 -0.007891 -0.009863 0.006400 0.010594 0.056587
#
#
# Mechanical properties :
#
#
# Convention : Reuss Voigt Hill
#
# Bulk Modulus (GPa) = 36.99521 58.46506 47.73013
# Shear Modulus (GPa) = 20.53276 30.95180 25.74228
#
# Velocity S-wave (km/s) = 3.04254 3.73556 3.40672
# Velocity P-wave (km/s) = 5.38719 6.70556 6.08220
#
# Compressibility (1/GPa) = 0.02703053
#
# Stress axis : x y z
#
# Youngs Moduli (GPa) = 40.23333 62.58745 92.49661
#
# Poissons Ratio (x) = 0.62744 0.20625
# Poissons Ratio (y) = 0.40334 0.00479
# Poissons Ratio (z) = 0.08971 0.00324
#
# Static dielectric constant tensor:
#      x y z
#    x 1.826100 -0.010780 0.014390 
#    y -0.010780 1.780070 0.009470 
#    z 0.014390 0.009470 1.824480 
# 
# From -- ./inp_files/622083.got.cif
#   From: 2010.05.17/outbox.cif.g08.bks.cpg/sg2_312_cif.got.tgz:622083.got - 2010.06.03 11:33:40.
