data_PCOD9047099
_publ_section_title
;
Structure prediction by ZEFSAII (Michael W. Deem and Ramdas Pophale) SiO2 
 PCOD9047099
Probable space group: P -1
;
_chemical_formula_sum "Si O2"
_cell_formula_units_Z 14
_cell_length_a 8.993323
_cell_length_b 6.583258
_cell_length_c 28.686592
_cell_angle_alpha 133.763748
_cell_angle_beta 148.360882
_cell_angle_gamma 50.625865
_cell_volume 638.766656
_symmetry_space_group_name_H-M "P -1"
_symmetry_group_IT_number 2
_symmetry_cell_setting 'triclinic'
loop_
_space_group_symop_operation_xyz
x,y,z
-x,-y,-z
loop_
_atom_site_type_symbol
_atom_site_label
_atom_site_fract_x
_atom_site_fract_y
_atom_site_fract_z
Si Si1 0.183468 0.271630 0.866840
Si Si2 0.749147 0.750560 0.288972
Si Si3 0.886918 0.330634 0.899195
Si Si4 0.156844 0.839417 0.328823
Si Si5 0.291931 0.623967 0.586786
Si Si6 0.202637 0.491576 0.444031
Si Si7 0.687844 0.125003 0.030350
O O1 0.282384 0.546240 0.912008
O O2 0.996092 0.016969 0.897421
O O3 0.966576 0.147664 0.754605
O O4 0.485291 0.075886 0.924450
O O5 0.451518 0.622405 0.186850
O O6 0.932273 0.724661 0.286295
O O7 0.944336 0.606413 0.359733
O O8 0.677288 0.086710 0.332675
O O9 0.000000 0.500000 0.000000
O O10 0.033685 0.355101 0.890802
O O11 0.444411 0.620296 0.373638
O O12 0.189671 0.163355 0.402860
O O13 0.241558 0.690394 0.529714
O O14 0.000000 0.500000 0.500000
O O15 0.500000 0.500000 0.500000
O O16 0.500000 0.000000 0.000000
#
# Coordination Sequence:
#
# PCOD9047099 Si02
#       7
#     2   2   2   2   2   2   2
#     4  10  24  43  71  99 136 187 232 293 358 421
#     4  12  28  46  72 107 147 191 242 301 359 430
#     4  11  27  44  69 103 143 185 244 294 354 426
#     4  12  27  46  72 107 146 185 243 293 364 430
#     4  12  25  49  74 103 150 186 236 301 362 433
#     4  12  26  47  75 105 145 192 237 293 365 434
#     4   9  21  44  68  94 134 182 231 290 353 412
#
# _framework density 21.917235999999999
#
# number of rings (size 3 to 8) (size 9 to 14) (size 15 to 20)
#    0.000    0.857    2.857    2.571   12.000    2.857 
#    0.000    0.000    0.000    0.000    0.000    0.000 
#    0.000    0.000    0.000    0.000    0.000    0.000 
#
# Total GULP energy -78101.177884 kJ/mol
# GULP energy per Si atom -5578.655563 kJ/mol
# Density = 2.186735 g / cm^3
# Si number density = 21.917236 Si / 1000 Ang^3
#
#
#
# Elastic Constant Matrix: (Units=GPa)
#
#
# Indices 1 2 3 4 5 6 
#
# 1 93.8796 -0.3072 30.8195 1.7697 2.8579 -2.3683
# 2 -0.3072 96.2691 20.7649 -16.7888 6.1870 -4.6191
# 3 30.8195 20.7649 136.8376 -21.3891 5.3218 -12.8367
# 4 1.7697 -16.7888 -21.3891 45.3018 -2.1915 2.3434
# 5 2.8579 6.1870 5.3218 -2.1915 46.2337 -0.2829
# 6 -2.3683 -4.6191 -12.8367 2.3434 -0.2829 24.6013
#
#
#
# Elastic Compliance Matrix: (Units=1/GPa)
#
#
# Indices 1 2 3 4 5 6 
#
# 1 0.011666 0.000399 -0.002954 -0.001718 -0.000517 -0.000186
# 2 0.000399 0.011386 -0.001095 0.003562 -0.001246 0.001251
# 3 -0.002954 -0.001095 0.009117 0.003788 -0.000517 0.003901
# 4 -0.001718 0.003562 0.003788 0.025265 0.000392 0.000078
# 5 -0.000517 -0.001246 -0.000517 0.000392 0.021904 -0.000339
# 6 -0.000186 0.001251 0.003901 0.000078 -0.000339 0.042889
#
#
# Mechanical properties :
#
#
# Convention : Reuss Voigt Hill
#
# Bulk Modulus (GPa) = 40.20864 47.72677 43.96770
# Shear Modulus (GPa) = 36.27966 41.60797 38.94381
#
# Velocity S-wave (km/s) = 4.07295 4.36181 4.21985
# Velocity P-wave (km/s) = 6.36428 6.86952 6.62172
#
# Compressibility (1/GPa) = 0.02487027
#
# Stress axis : x y z
#
# Youngs Moduli (GPa) = 85.71586 87.82435 109.67923
#
# Poissons Ratio (x) = -0.03505 0.32399
# Poissons Ratio (y) = -0.03421 0.12011
# Poissons Ratio (z) = 0.25321 0.09618
#
# Static dielectric constant tensor:
#      x y z
#    x 1.807620 -0.110510 -0.023120 
#    y -0.110510 2.236600 0.039440 
#    z -0.023120 0.039440 1.811000 
# 
# From -- ./inp_files/616385.got.cif
#   From: 2010.05.17/outbox.cif.g08.bks.cpg/sg2_309_cif.got.tgz:616385.got - 2010.06.03 11:33:40.
