data_PCOD9047600
_publ_section_title
;
Structure prediction by ZEFSAII (Michael W. Deem and Ramdas Pophale) SiO2 
 PCOD9047600
Probable space group: P -1
;
_chemical_formula_sum "Si O2"
_cell_formula_units_Z 16
_cell_length_a 8.781083
_cell_length_b 7.309837
_cell_length_c 17.994846
_cell_angle_alpha 135.998823
_cell_angle_beta 120.703949
_cell_angle_gamma 55.678718
_cell_volume 651.485782
_symmetry_space_group_name_H-M "P -1"
_symmetry_group_IT_number 2
_symmetry_cell_setting 'triclinic'
loop_
_space_group_symop_operation_xyz
x,y,z
-x,-y,-z
loop_
_atom_site_type_symbol
_atom_site_label
_atom_site_fract_x
_atom_site_fract_y
_atom_site_fract_z
Si Si1 0.665238 0.109864 0.995355
Si Si2 0.027609 0.568375 0.713819
Si Si3 0.882422 0.363708 0.483167
Si Si4 0.748605 0.479458 0.996025
Si Si5 0.059364 0.112198 0.861596
Si Si6 0.694602 0.948630 0.325237
Si Si7 0.466019 0.772302 0.478033
Si Si8 0.338997 0.286915 0.242789
O O1 0.460307 0.331854 0.023270
O O2 0.645537 0.832889 0.870808
O O3 0.748617 0.263339 0.997705
O O4 0.798087 0.006399 0.068458
O O5 0.971651 0.358391 0.584422
O O6 0.862797 0.686009 0.766065
O O7 0.038510 0.827973 0.743694
O O8 0.220954 0.382690 0.744212
O O9 0.851669 0.074559 0.370239
O O10 0.669843 0.572837 0.495665
O O11 0.000000 0.500000 0.500000
O O12 0.854058 0.697531 0.109862
O O13 0.866081 0.309297 0.906399
O O14 0.642263 0.080743 0.432950
O O15 0.506122 0.058864 0.262598
O O16 0.372060 0.578714 0.352785
O O17 0.500000 0.000000 0.500000
#
# Coordination Sequence:
#
# PCOD9047600 Si02
#       8
#     2   2   2   2   2   2   2   2
#     4  11  24  45  71  96 136 179 224 271 341 396
#     4  12  24  41  71  97 131 178 219 267 344 387
#     4  11  23  43  66  98 135 171 222 278 327 400
#     4  10  24  44  68  93 138 173 220 284 334 379
#     4  11  25  45  67 103 137 170 229 280 327 403
#     4  11  24  43  68  91 138 171 219 277 327 397
#     4  11  23  44  65  98 135 173 221 276 326 400
#     4  11  24  44  67  99 130 178 221 268 335 398
#
# _framework density 24.559248
#
# number of rings (size 3 to 8) (size 9 to 14) (size 15 to 20)
#    0.000    1.000    3.750    2.625    5.250    3.000 
#    6.750    0.000    0.000    0.000    0.000    0.000 
#    0.000    0.000    0.000    0.000    0.000    0.000 
#
# Total GULP energy -89651.338345 kJ/mol
# GULP energy per Si atom -5603.208647 kJ/mol
# Density = 2.450335 g / cm^3
# Si number density = 24.559248 Si / 1000 Ang^3
#
#
#
# Elastic Constant Matrix: (Units=GPa)
#
#
# Indices 1 2 3 4 5 6 
#
# 1 107.7853 31.7522 24.8965 13.7818 18.8296 -0.2771
# 2 31.7522 72.7109 28.3762 18.7218 -3.4132 -2.8568
# 3 24.8965 28.3762 99.9462 8.0363 1.8787 -7.1827
# 4 13.7818 18.7218 8.0363 36.3154 12.5001 0.5813
# 5 18.8296 -3.4132 1.8787 12.5001 25.9971 2.7701
# 6 -0.2771 -2.8568 -7.1827 0.5813 2.7701 30.5768
#
#
#
# Elastic Compliance Matrix: (Units=1/GPa)
#
#
# Indices 1 2 3 4 5 6 
#
# 1 0.013181 -0.006392 -0.001447 0.002583 -0.011543 0.000179
# 2 -0.006392 0.022042 -0.003887 -0.012897 0.013998 0.000065
# 3 -0.001447 -0.003887 0.011642 0.000157 -0.000637 0.002413
# 4 0.002583 -0.012897 0.000157 0.041228 -0.023420 0.000193
# 5 -0.011543 0.013998 -0.000637 -0.023420 0.060394 -0.003973
# 6 0.000179 0.000065 0.002413 0.000193 -0.003973 0.033635
#
#
# Mechanical properties :
#
#
# Convention : Reuss Voigt Hill
#
# Bulk Modulus (GPa) = 42.70911 50.05468 46.38189
# Shear Modulus (GPa) = 23.43250 31.60569 27.51910
#
# Velocity S-wave (km/s) = 3.09224 3.59125 3.35105
# Velocity P-wave (km/s) = 5.49338 6.13364 5.82232
#
# Compressibility (1/GPa) = 0.02341421
#
# Stress axis : x y z
#
# Youngs Moduli (GPa) = 75.86457 45.36867 85.89473
#
# Poissons Ratio (x) = 0.28997 0.12426
# Poissons Ratio (y) = 0.48489 0.33390
# Poissons Ratio (z) = 0.10975 0.17636
#
# Static dielectric constant tensor:
#      x y z
#    x 1.936290 0.012800 0.037760 
#    y 0.012800 1.956110 -0.005740 
#    z 0.037760 -0.005740 2.006420 
# 
# From -- ./inp_files/606939.got.cif
#   From: 2010.05.17/outbox.cif.g08.bks.cpg/sg2_304_cif.got.tgz:606939.got - 2010.06.03 11:33:40.
