data_PCOD9047036
_publ_section_title
;
Structure prediction by ZEFSAII (Michael W. Deem and Ramdas Pophale) SiO2 
 PCOD9047036
Probable space group: P -1
;
_chemical_formula_sum "Si O2"
_cell_formula_units_Z 14
_cell_length_a 11.948661
_cell_length_b 10.566841
_cell_length_c 8.599216
_cell_angle_alpha 144.284256
_cell_angle_beta 100.549375
_cell_angle_gamma 76.399736
_cell_volume 615.981604
_symmetry_space_group_name_H-M "P -1"
_symmetry_group_IT_number 2
_symmetry_cell_setting 'triclinic'
loop_
_space_group_symop_operation_xyz
x,y,z
-x,-y,-z
loop_
_atom_site_type_symbol
_atom_site_label
_atom_site_fract_x
_atom_site_fract_y
_atom_site_fract_z
Si Si1 0.795911 0.149436 0.962195
Si Si2 0.645780 0.560141 0.457670
Si Si3 0.368479 0.179289 0.972717
Si Si4 0.976295 0.194320 0.812788
Si Si5 0.264989 0.804019 0.685187
Si Si6 0.427324 0.042628 0.366749
Si Si7 0.169828 0.481756 0.124959
O O1 0.914494 0.115045 0.867668
O O2 0.698816 0.031944 0.734110
O O3 0.749719 0.410627 0.240460
O O4 0.800024 0.067357 0.058945
O O5 0.628302 0.360713 0.374125
O O6 0.578718 0.711564 0.458892
O O7 0.654983 0.737078 0.773502
O O8 0.313963 0.956657 0.727461
O O9 0.499515 0.119700 0.899765
O O10 0.298837 0.355367 0.015637
O O11 0.884804 0.388089 0.906927
O O12 0.000000 0.000000 0.500000
O O13 0.089990 0.304039 0.977152
O O14 0.180771 0.657773 0.437533
O O15 0.500000 0.000000 0.500000
#
# Coordination Sequence:
#
# PCOD9047036 Si02
#       7
#     2   2   2   2   2   2   2
#     4  10  25  44  64  98 129 171 221 270 323 383
#     4   9  21  43  64  92 134 172 216 264 316 383
#     4  11  22  43  68  97 136 172 219 262 325 387
#     4  11  25  46  70  93 135 170 215 277 334 392
#     4   9  21  42  68  95 130 172 217 268 313 389
#     4  12  27  38  66 102 136 176 213 267 321 397
#     4  10  24  43  70  98 122 178 216 268 334 382
#
# _framework density 22.727951000000001
#
# number of rings (size 3 to 8) (size 9 to 14) (size 15 to 20)
#    0.857    0.857    1.429    1.286    6.000    5.714 
#    0.000    1.429    0.000    0.000    0.000    0.000 
#    0.000    0.000    0.000    0.000    0.000    0.000 
#
# Total GULP energy -77971.142214 kJ/mol
# GULP energy per Si atom -5569.367301 kJ/mol
# Density = 2.267622 g / cm^3
# Si number density = 22.727951 Si / 1000 Ang^3
#
#
#
# Elastic Constant Matrix: (Units=GPa)
#
#
# Indices 1 2 3 4 5 6 
#
# 1 39.6889 -6.1128 12.0383 2.4975 5.2627 6.9455
# 2 -6.1128 70.1632 -11.6238 8.4826 -3.2154 -15.1976
# 3 12.0383 -11.6238 81.2966 -9.2080 15.8667 9.8805
# 4 2.4975 8.4826 -9.2080 22.4184 -11.0708 -2.8148
# 5 5.2627 -3.2154 15.8667 -11.0708 41.1484 4.4115
# 6 6.9455 -15.1976 9.8805 -2.8148 4.4115 29.1183
#
#
#
# Elastic Compliance Matrix: (Units=1/GPa)
#
#
# Indices 1 2 3 4 5 6 
#
# 1 0.028334 0.001573 -0.003520 -0.007627 -0.003667 -0.004925
# 2 0.001573 0.016881 0.000875 -0.006055 -0.001686 0.007808
# 3 -0.003520 0.000875 0.014432 0.003809 -0.003735 -0.002666
# 4 -0.007627 -0.006055 0.003809 0.056373 0.014128 0.000675
# 5 -0.003667 -0.001686 -0.003735 0.014128 0.030088 -0.001930
# 6 -0.004925 0.007808 -0.002666 0.000675 -0.001930 0.040855
#
#
# Mechanical properties :
#
#
# Convention : Reuss Voigt Hill
#
# Bulk Modulus (GPa) = 17.39119 19.97247 18.68183
# Shear Modulus (GPa) = 24.00668 31.66015 27.83341
#
# Velocity S-wave (km/s) = 3.25355 3.73635 3.50327
# Velocity P-wave (km/s) = 4.66718 5.23645 4.95999
#
# Compressibility (1/GPa) = 0.05750039
#
# Stress axis : x y z
#
# Youngs Moduli (GPa) = 35.29321 59.23975 69.29247
#
# Poissons Ratio (x) = -0.09316 0.24394
# Poissons Ratio (y) = -0.05550 -0.06062
# Poissons Ratio (z) = 0.12425 -0.05183
#
# Static dielectric constant tensor:
#      x y z
#    x 1.870480 -0.022500 -0.000950 
#    y -0.022500 1.853310 -0.000430 
#    z -0.000950 -0.000430 1.887050 
# 
# From -- ./inp_files/263837.got.cif
#   From: 2010.05.17/outbox.cif.g08.bks.cpg/sg2_132_cif.got.tgz:263837.got - 2010.06.03 11:33:40.
