data_PCOD9047731
_publ_section_title
;
Structure prediction by ZEFSAII (Michael W. Deem and Ramdas Pophale) SiO2 
 PCOD9047731
Probable space group: P -1
;
_chemical_formula_sum "Si O2"
_cell_formula_units_Z 14
_cell_length_a 13.327896
_cell_length_b 19.459816
_cell_length_c 7.522649
_cell_angle_alpha 75.611233
_cell_angle_beta 106.890921
_cell_angle_gamma 160.375458
_cell_volume 625.078728
_symmetry_space_group_name_H-M "P -1"
_symmetry_group_IT_number 2
_symmetry_cell_setting 'triclinic'
loop_
_space_group_symop_operation_xyz
x,y,z
-x,-y,-z
loop_
_atom_site_type_symbol
_atom_site_label
_atom_site_fract_x
_atom_site_fract_y
_atom_site_fract_z
Si Si1 0.824827 0.455553 0.836487
Si Si2 0.658591 0.504023 0.851744
Si Si3 0.126860 0.004816 0.626553
Si Si4 0.326382 0.868818 0.676567
Si Si5 0.896386 0.156031 0.849709
Si Si6 0.951100 0.888299 0.001786
Si Si7 0.075040 0.263244 0.476116
O O1 0.749122 0.477813 0.904898
O O2 0.489057 0.229011 0.720264
O O3 0.061331 0.640865 0.695624
O O4 0.000000 0.500000 0.000000
O O5 0.647368 0.531884 0.631658
O O6 0.342735 0.315880 0.906329
O O7 0.880325 0.687142 0.976866
O O8 0.000000 0.000000 0.500000
O O9 0.939158 0.873543 0.794815
O O10 0.032898 0.884517 0.518065
O O11 0.181429 0.849654 0.675928
O O12 0.500000 0.000000 0.500000
O O13 0.601213 0.012922 0.835752
O O14 0.057682 0.274362 0.666685
O O15 0.802645 0.013986 0.879894
O O16 0.000000 0.000000 0.000000
#
# Coordination Sequence:
#
# PCOD9047731 Si02
#       7
#     2   2   2   2   2   2   2
#     4  11  25  45  74 106 143 190 242 295 364 423
#     4  11  25  43  72 101 139 189 237 297 354 432
#     4  12  26  46  71 105 148 187 236 302 362 426
#     4   9  22  44  68  99 136 183 238 292 350 427
#     4  11  23  44  71 101 139 185 241 295 354 432
#     4  12  24  44  65 100 143 184 239 290 363 417
#     4  10  24  44  70 100 140 182 238 295 356 429
#
# _framework density 22.397179999999999
#
# number of rings (size 3 to 8) (size 9 to 14) (size 15 to 20)
#    0.000    1.143    2.857    2.143    2.000    5.143 
#    0.000    2.857    0.000    0.000    0.000    0.000 
#    0.000    0.000    0.000    0.000    0.000    0.000 
#
# Total GULP energy -77994.831238 kJ/mol
# GULP energy per Si atom -5571.059374 kJ/mol
# Density = 2.234620 g / cm^3
# Si number density = 22.397180 Si / 1000 Ang^3
#
#
#
# Elastic Constant Matrix: (Units=GPa)
#
#
# Indices 1 2 3 4 5 6 
#
# 1 112.7721 34.6478 48.8802 7.9039 28.6501 -8.2012
# 2 34.6478 103.6487 33.5347 -1.2703 13.4655 10.0205
# 3 48.8802 33.5347 104.0992 -13.4279 6.2341 13.5633
# 4 7.9039 -1.2703 -13.4279 36.4680 9.2842 -5.1578
# 5 28.6501 13.4655 6.2341 9.2842 55.2325 -0.4472
# 6 -8.2012 10.0205 13.5633 -5.1578 -0.4472 28.1777
#
#
#
# Elastic Compliance Matrix: (Units=1/GPa)
#
#
# Indices 1 2 3 4 5 6 
#
# 1 0.015265 -0.002788 -0.007460 -0.003519 -0.005738 0.008290
# 2 -0.002788 0.011740 -0.001854 0.000069 -0.001251 -0.004101
# 3 -0.007460 -0.001854 0.015370 0.005704 0.001564 -0.007841
# 4 -0.003519 0.000069 0.005704 0.031612 -0.004133 0.001926
# 5 -0.005738 -0.001251 0.001564 -0.004133 0.021885 -0.002387
# 6 0.008290 -0.004101 -0.007841 0.001926 -0.002387 0.043449
#
#
# Mechanical properties :
#
#
# Convention : Reuss Voigt Hill
#
# Bulk Modulus (GPa) = 55.03707 61.62727 58.33217
# Shear Modulus (GPa) = 29.48410 37.53946 33.51178
#
# Velocity S-wave (km/s) = 3.63219 4.09844 3.87234
# Velocity P-wave (km/s) = 6.49746 7.06906 6.78928
#
# Compressibility (1/GPa) = 0.01816957
#
# Stress axis : x y z
#
# Youngs Moduli (GPa) = 65.51063 85.17924 65.06106
#
# Poissons Ratio (x) = 0.23751 0.48534
# Poissons Ratio (y) = 0.18266 0.12066
# Poissons Ratio (z) = 0.48870 0.15796
#
# Static dielectric constant tensor:
#      x y z
#    x 1.903160 0.118690 -0.005230 
#    y 0.118690 4.062680 -2.449250 
#    z -0.005230 -2.449250 4.652580 
# 
# From -- ./inp_files/279320.got.cif
#   From: 2010.05.17/outbox.cif.g08.bks.cpg/sg2_140_cif.got.tgz:279320.got - 2010.06.03 11:33:40.
