data_PCOD9047994
_publ_section_title
;
Structure prediction by ZEFSAII (Michael W. Deem and Ramdas Pophale) SiO2 
 PCOD9047994
Probable space group: P -1
;
_chemical_formula_sum "Si O2"
_cell_formula_units_Z 16
_cell_length_a 10.998357
_cell_length_b 9.398303
_cell_length_c 16.156258
_cell_angle_alpha 154.669493
_cell_angle_beta 106.395564
_cell_angle_gamma 81.601859
_cell_volume 660.791343
_symmetry_space_group_name_H-M "P -1"
_symmetry_group_IT_number 2
_symmetry_cell_setting 'triclinic'
loop_
_space_group_symop_operation_xyz
x,y,z
-x,-y,-z
loop_
_atom_site_type_symbol
_atom_site_label
_atom_site_fract_x
_atom_site_fract_y
_atom_site_fract_z
Si Si1 0.560165 0.508150 0.772062
Si Si2 0.592491 0.355203 0.880526
Si Si3 0.321362 0.690583 0.742322
Si Si4 0.224784 0.939671 0.701615
Si Si5 0.992426 0.659367 0.264692
Si Si6 0.773965 0.035430 0.838852
Si Si7 0.929046 0.870312 0.624191
Si Si8 0.230711 0.553048 0.341358
O O1 0.537842 0.334227 0.766362
O O2 0.426366 0.500407 0.694767
O O3 0.658480 0.357110 0.658704
O O4 0.635573 0.919529 0.010191
O O5 0.640741 0.056722 0.778009
O O6 0.500000 0.500000 0.000000
O O7 0.727154 0.660428 0.058186
O O8 0.313758 0.755286 0.676475
O O9 0.176253 0.451979 0.607693
O O10 0.240706 0.867872 0.571485
O O11 0.072343 0.805599 0.624780
O O12 0.089198 0.465673 0.225064
O O13 0.049308 0.806283 0.263670
O O14 0.000000 0.000000 0.500000
O O15 0.850419 0.397629 0.086384
O O16 0.869964 0.952760 0.743031
O O17 0.751149 0.753156 0.757799
#
# Coordination Sequence:
#
# PCOD9047994 Si02
#       8
#     2   2   2   2   2   2   2   2
#     4  10  26  46  73 103 147 185 243 297 356 427
#     4  11  26  50  75 101 144 194 239 291 365 432
#     4  10  24  44  72 105 139 196 231 301 358 423
#     4  11  24  46  72 107 146 190 235 297 362 428
#     4  12  26  44  67 108 148 183 233 300 358 422
#     4  12  27  44  73 108 140 197 240 292 357 433
#     4  12  24  45  74 101 146 189 243 286 367 421
#     4  12  26  44  72 109 140 187 241 300 356 423
#
# _framework density 24.213394000000001
#
# number of rings (size 3 to 8) (size 9 to 14) (size 15 to 20)
#    0.000    0.750    3.750    1.875   10.500    2.500 
#    0.000    1.875    0.000    0.000    0.000    0.000 
#    0.000    0.000    0.000    0.000    0.000    0.000 
#
# Total GULP energy -89590.552667 kJ/mol
# GULP energy per Si atom -5599.409542 kJ/mol
# Density = 2.415828 g / cm^3
# Si number density = 24.213394 Si / 1000 Ang^3
#
#
#
# Elastic Constant Matrix: (Units=GPa)
#
#
# Indices 1 2 3 4 5 6 
#
# 1 121.0673 41.8639 19.7824 -26.6727 -13.3964 -15.8999
# 2 41.8639 166.0544 2.9938 -20.4762 -8.4734 -32.1277
# 3 19.7824 2.9938 78.9208 -3.0983 11.6266 -2.9350
# 4 -26.6727 -20.4762 -3.0983 42.6890 8.0273 1.7841
# 5 -13.3964 -8.4734 11.6266 8.0273 43.8219 -9.3361
# 6 -15.8999 -32.1277 -2.9350 1.7841 -9.3361 52.7744
#
#
#
# Elastic Compliance Matrix: (Units=1/GPa)
#
#
# Indices 1 2 3 4 5 6 
#
# 1 0.011149 -0.001380 -0.002953 0.005305 0.003551 0.002804
# 2 -0.001380 0.007583 0.000086 0.002309 0.001536 0.004399
# 3 -0.002953 0.000086 0.014095 0.000170 -0.004852 -0.000917
# 4 0.005305 0.002309 0.000170 0.028328 -0.002835 0.001554
# 5 0.003551 0.001536 -0.004852 -0.002835 0.027433 0.006684
# 6 0.002804 0.004399 -0.000917 0.001554 0.006684 0.023550
#
#
# Mechanical properties :
#
#
# Convention : Reuss Voigt Hill
#
# Bulk Modulus (GPa) = 41.09450 55.03585 48.06518
# Shear Modulus (GPa) = 38.83735 47.95055 43.39395
#
# Velocity S-wave (km/s) = 4.00929 4.45492 4.23797
# Velocity P-wave (km/s) = 6.20010 7.01716 6.62125
#
# Compressibility (1/GPa) = 0.02433415
#
# Stress axis : x y z
#
# Youngs Moduli (GPa) = 89.69073 131.88211 70.94585
#
# Poissons Ratio (x) = 0.18197 0.20950
# Poissons Ratio (y) = 0.12376 -0.00612
# Poissons Ratio (z) = 0.26485 -0.01137
#
# Static dielectric constant tensor:
#      x y z
#    x 1.883500 -0.015100 0.003050 
#    y -0.015100 1.937490 0.031800 
#    z 0.003050 0.031800 1.977660 
# 
# From -- ./inp_files/516492.got.cif
#   From: 2010.05.17/outbox.cif.g08.bks.cpg/sg2_259_cif.got.tgz:516492.got - 2010.06.03 11:33:40.
