data_PCOD9047697
_publ_section_title
;
Structure prediction by ZEFSAII (Michael W. Deem and Ramdas Pophale) SiO2 
 PCOD9047697
Probable space group: P -1
;
_chemical_formula_sum "Si O2"
_cell_formula_units_Z 16
_cell_length_a 5.272049
_cell_length_b 14.933157
_cell_length_c 8.489577
_cell_angle_alpha 102.299732
_cell_angle_beta 104.389994
_cell_angle_gamma 81.545125
_cell_volume 629.407325
_symmetry_space_group_name_H-M "P -1"
_symmetry_group_IT_number 2
_symmetry_cell_setting 'triclinic'
loop_
_space_group_symop_operation_xyz
x,y,z
-x,-y,-z
loop_
_atom_site_type_symbol
_atom_site_label
_atom_site_fract_x
_atom_site_fract_y
_atom_site_fract_z
Si Si1 0.287128 0.100427 0.809568
Si Si2 0.093593 0.594519 0.486626
Si Si3 0.285081 0.609256 0.171792
Si Si4 0.309445 0.821203 0.324044
Si Si5 0.628517 0.422267 0.154266
Si Si6 0.878524 0.073270 0.380524
Si Si7 0.497471 0.756369 0.880345
Si Si8 0.901483 0.773868 0.680964
O O1 0.461884 0.125352 0.695929
O O2 0.982339 0.143473 0.771996
O O3 0.280128 0.990677 0.778291
O O4 0.422487 0.155555 0.983547
O O5 0.145911 0.586801 0.306502
O O6 0.316456 0.599381 0.659298
O O7 0.920220 0.691578 0.525076
O O8 0.000000 0.500000 0.500000
O O9 0.349773 0.713531 0.250048
O O10 0.525202 0.528760 0.173936
O O11 0.171047 0.596735 0.971316
O O12 0.285173 0.846989 0.514424
O O13 0.440485 0.341586 0.058234
O O14 0.103071 0.123949 0.350240
O O15 0.000000 0.000000 0.500000
O O16 0.182762 0.767748 0.813077
O O17 0.671516 0.754252 0.752047
#
# Coordination Sequence:
#
# PCOD9047697 Si02
#       8
#     2   2   2   2   2   2   2   2
#     4  11  24  42  72  97 142 186 236 302 360 425
#     4  11  24  44  69 107 150 192 241 301 364 432
#     4  11  22  44  71 103 143 197 242 296 371 427
#     4  11  23  44  68 105 137 185 244 295 359 430
#     4  10  24  44  69 108 146 189 248 301 356 443
#     4  10  24  47  69 105 141 186 249 304 360 437
#     4  11  24  45  68 103 147 187 238 300 369 425
#     4  11  25  44  72 102 143 190 239 300 366 436
#
# _framework density 25.420739000000001
#
# number of rings (size 3 to 8) (size 9 to 14) (size 15 to 20)
#    0.000    1.250    2.500    2.250    1.750    7.500 
#    0.000    0.000    0.000    0.000    0.000    0.000 
#    0.000    0.000    0.000    0.000    0.000    0.000 
#
# Total GULP energy -89306.514265 kJ/mol
# GULP energy per Si atom -5581.657142 kJ/mol
# Density = 2.536288 g / cm^3
# Si number density = 25.420739 Si / 1000 Ang^3
#
#
#
# Elastic Constant Matrix: (Units=GPa)
#
#
# Indices 1 2 3 4 5 6 
#
# 1 90.9656 29.6578 51.1171 -12.4540 -3.8073 10.1160
# 2 29.6578 155.8719 48.9222 16.7939 -5.5476 28.2465
# 3 51.1171 48.9222 136.9686 28.2135 -31.0549 5.1695
# 4 -12.4540 16.7939 28.2135 54.7119 7.8593 -4.8438
# 5 -3.8073 -5.5476 -31.0549 7.8593 40.0006 -8.8602
# 6 10.1160 28.2465 5.1695 -4.8438 -8.8602 36.7112
#
#
#
# Elastic Compliance Matrix: (Units=1/GPa)
#
#
# Indices 1 2 3 4 5 6 
#
# 1 0.019437 -0.001011 -0.011557 0.011850 -0.010457 -0.003911
# 2 -0.001011 0.008792 -0.002562 -0.001927 -0.002008 -0.006864
# 3 -0.011557 -0.002562 0.019041 -0.013693 0.017079 0.004790
# 4 0.011850 -0.001927 -0.013693 0.030928 -0.015752 0.000424
# 5 -0.010457 -0.002008 0.017079 -0.015752 0.042331 0.010160
# 6 -0.003911 -0.006864 0.004790 0.000424 0.010160 0.035432
#
#
# Mechanical properties :
#
#
# Convention : Reuss Voigt Hill
#
# Bulk Modulus (GPa) = 58.79195 71.46668 65.12931
# Shear Modulus (GPa) = 26.05631 43.22535 34.64083
#
# Velocity S-wave (km/s) = 3.20504 4.12806 3.69548
# Velocity P-wave (km/s) = 6.07241 7.13413 6.62457
#
# Compressibility (1/GPa) = 0.01700913
#
# Stress axis : x y z
#
# Youngs Moduli (GPa) = 51.44847 113.73715 52.51747
#
# Poissons Ratio (x) = 0.11501 0.60695
# Poissons Ratio (y) = 0.05202 0.13456
# Poissons Ratio (z) = 0.59460 0.29143
#
# Static dielectric constant tensor:
#      x y z
#    x 2.046730 -0.045570 0.070430 
#    y -0.045570 2.069180 -0.055370 
#    z 0.070430 -0.055370 2.175950 
# 
# From -- ./inp_files/135699.got.cif
#   From: 2010.05.17/outbox.cif.g08.bks.cpg/sg2_68_cif.got.tgz:135699.got - 2010.06.03 11:33:40.
