data_PCOD9047404
_publ_section_title
;
Structure prediction by ZEFSAII (Michael W. Deem and Ramdas Pophale) SiO2 
 PCOD9047404
Probable space group: P -1
;
_chemical_formula_sum "Si O2"
_cell_formula_units_Z 15
_cell_length_a 7.972737
_cell_length_b 12.167365
_cell_length_c 11.200345
_cell_angle_alpha 146.612971
_cell_angle_beta 92.607432
_cell_angle_gamma 80.220048
_cell_volume 579.838325
_symmetry_space_group_name_H-M "P -1"
_symmetry_group_IT_number 2
_symmetry_cell_setting 'triclinic'
loop_
_space_group_symop_operation_xyz
x,y,z
-x,-y,-z
loop_
_atom_site_type_symbol
_atom_site_label
_atom_site_fract_x
_atom_site_fract_y
_atom_site_fract_z
Si Si1 0.844213 0.406921 0.451808
Si Si2 0.896289 0.225377 0.546702
Si Si3 0.593945 0.770921 0.653708
Si Si4 0.559069 0.698965 0.139636
Si Si5 0.293224 0.127003 0.493965
Si Si6 0.000000 0.500000 0.000000
Si Si7 0.821679 0.807014 0.095109
Si Si8 0.771389 0.008490 0.039473
O O1 0.676352 0.554028 0.520402
O O2 0.000000 0.500000 0.500000
O O3 0.835282 0.368607 0.558817
O O4 0.876188 0.180299 0.191591
O O5 0.101784 0.131663 0.452006
O O6 0.891221 0.347765 0.780986
O O7 0.809583 0.031235 0.359728
O O8 0.607225 0.775840 0.516190
O O9 0.407096 0.867653 0.788501
O O10 0.714486 0.919568 0.836900
O O11 0.718405 0.723242 0.254790
O O12 0.646553 0.729897 0.044868
O O13 0.402588 0.901111 0.327370
O O14 0.500000 0.500000 0.000000
O O15 0.020282 0.352077 0.984330
O O16 0.842700 0.835952 0.982997
#
# Coordination Sequence:
#
# PCOD9047404 Si02
#       8
#     2   2   2   2   2   1   2   2
#     4  11  23  43  65  98 133 167 214 267 324 382
#     4  11  25  44  66  98 134 170 218 269 327 385
#     4  11  22  45  68  93 129 172 217 264 323 384
#     4  11  26  45  67  96 132 173 219 266 327 387
#     4  11  24  45  67  98 133 168 215 278 321 378
#     4  12  24  40  70  94 128 174 218 262 326 392
#     4  11  24  45  66  95 132 172 216 273 322 388
#     4  10  24  44  66  95 128 172 219 263 322 385
#
# _framework density 25.869278999999999
#
# number of rings (size 3 to 8) (size 9 to 14) (size 15 to 20)
#    0.000    1.067    4.000    1.600    1.867    2.667 
#    4.800    0.000    0.000    0.000    0.000    0.000 
#    0.000    0.000    0.000    0.000    0.000    0.000 
#
# Total GULP energy -83821.941616 kJ/mol
# GULP energy per Si atom -5588.129441 kJ/mol
# Density = 2.581040 g / cm^3
# Si number density = 25.869279 Si / 1000 Ang^3
#
#
#
# Elastic Constant Matrix: (Units=GPa)
#
#
# Indices 1 2 3 4 5 6 
#
# 1 74.3022 36.4864 21.2436 17.5417 12.2202 17.9208
# 2 36.4864 152.9082 31.6037 28.7574 -0.5482 -1.0781
# 3 21.2436 31.6037 93.9408 13.3553 14.6200 12.5321
# 4 17.5417 28.7574 13.3553 54.2134 6.0718 -2.9131
# 5 12.2202 -0.5482 14.6200 6.0718 41.0487 8.9228
# 6 17.9208 -1.0781 12.5321 -2.9131 8.9228 49.5021
#
#
#
# Elastic Compliance Matrix: (Units=1/GPa)
#
#
# Indices 1 2 3 4 5 6 
#
# 1 0.018393 -0.003499 -0.001129 -0.003782 -0.003238 -0.006088
# 2 -0.003499 0.008384 -0.002120 -0.002942 0.002029 0.001447
# 3 -0.001129 -0.002120 0.012657 -0.001359 -0.003501 -0.002291
# 4 -0.003782 -0.002942 -0.001359 0.022018 -0.002421 0.003381
# 5 -0.003238 0.002029 -0.003501 -0.002421 0.027613 -0.003017
# 6 -0.006088 0.001447 -0.002291 0.003381 -0.003017 0.023759
#
#
# Mechanical properties :
#
#
# Convention : Reuss Voigt Hill
#
# Bulk Modulus (GPa) = 38.55125 55.53540 47.04333
# Shear Modulus (GPa) = 37.04652 44.40734 40.72693
#
# Velocity S-wave (km/s) = 3.78837 4.14769 3.97209
# Velocity P-wave (km/s) = 5.83698 6.66724 6.26588
#
# Compressibility (1/GPa) = 0.02593949
#
# Stress axis : x y z
#
# Youngs Moduli (GPa) = 54.36821 119.27864 79.00685
#
# Poissons Ratio (x) = 0.41734 0.08916
# Poissons Ratio (y) = 0.19023 0.16748
# Poissons Ratio (z) = 0.06136 0.25284
#
# Static dielectric constant tensor:
#      x y z
#    x 1.954000 0.028410 0.080320 
#    y 0.028410 1.926080 -0.020060 
#    z 0.080320 -0.020060 2.010070 
# 
# From -- ./inp_files/393365.got.cif
#   From: 2010.05.17/outbox.cif.g08.bks.cpg/sg2_197_cif.got.tgz:393365.got - 2010.06.03 11:33:40.
