data_PCOD9047852
_publ_section_title
;
Structure prediction by ZEFSAII (Michael W. Deem and Ramdas Pophale) SiO2 
 PCOD9047852
Probable space group: P -1
;
_chemical_formula_sum "Si O2"
_cell_formula_units_Z 16
_cell_length_a 8.406762
_cell_length_b 9.143010
_cell_length_c 12.109844
_cell_angle_alpha 105.484455
_cell_angle_beta 128.039684
_cell_angle_gamma 67.288657
_cell_volume 675.700037
_symmetry_space_group_name_H-M "P -1"
_symmetry_group_IT_number 2
_symmetry_cell_setting 'triclinic'
loop_
_space_group_symop_operation_xyz
x,y,z
-x,-y,-z
loop_
_atom_site_type_symbol
_atom_site_label
_atom_site_fract_x
_atom_site_fract_y
_atom_site_fract_z
Si Si1 0.349021 0.807437 0.704590
Si Si2 0.517444 0.547794 0.373391
Si Si3 0.188741 0.855983 0.303920
Si Si4 0.854799 0.669527 0.673512
Si Si5 0.863672 0.890935 0.507374
Si Si6 0.169058 0.412281 0.652114
Si Si7 0.717328 0.042058 0.080699
Si Si8 0.696470 0.960875 0.813222
O O1 0.448580 0.637697 0.659519
O O2 0.478437 0.926033 0.746317
O O3 0.105885 0.876192 0.584004
O O4 0.329524 0.803420 0.829718
O O5 0.286572 0.668082 0.312338
O O6 0.333983 0.403842 0.460534
O O7 0.611774 0.581027 0.302256
O O8 0.935856 0.920542 0.195026
O O9 0.251283 0.936564 0.456569
O O10 0.295931 0.923891 0.261585
O O11 0.859387 0.788737 0.597901
O O12 0.828215 0.784086 0.791181
O O13 0.066796 0.521766 0.732766
O O14 0.814550 0.772456 0.371991
O O15 0.000000 0.500000 0.500000
O O16 0.759265 0.036072 0.966647
O O17 0.500000 0.000000 0.000000
#
# Coordination Sequence:
#
# PCOD9047852 Si02
#       8
#     2   2   2   2   2   2   2   2
#     4  10  17  34  58  76 103 145 182 210 258 326
#     4  10  18  32  56  87 105 138 174 221 273 303
#     4  10  20  33  57  83 108 129 178 234 263 298
#     4   9  16  30  55  79 109 139 183 213 250 323
#     4   8  14  29  51  71 100 149 176 194 250 326
#     4   8  13  27  50  75 104 140 183 196 246 325
#     4   9  20  39  61  73  98 149 187 208 256 333
#     4  10  21  33  54  83 106 138 182 220 257 310
#
# _framework density 23.679144999999998
#
# number of rings (size 3 to 8) (size 9 to 14) (size 15 to 20)
#    0.000    3.000    3.750    0.375    0.000    5.000 
#    0.000    3.125    8.250    9.750    0.000    0.000 
#    0.000    0.000    0.000    0.000    0.000    0.000 
#
# Total GULP energy -89166.457779 kJ/mol
# GULP energy per Si atom -5572.903611 kJ/mol
# Density = 2.362525 g / cm^3
# Si number density = 23.679145 Si / 1000 Ang^3
#
#
#
# Elastic Constant Matrix: (Units=GPa)
#
#
# Indices 1 2 3 4 5 6 
#
# 1 101.4557 54.7316 41.0942 9.0719 -22.5527 -14.8613
# 2 54.7316 143.8737 44.3864 20.7670 -10.8146 -50.6337
# 3 41.0942 44.3864 77.7616 16.5929 -29.9893 -0.1146
# 4 9.0719 20.7670 16.5929 20.5020 -9.7950 -7.9187
# 5 -22.5527 -10.8146 -29.9893 -9.7950 50.3236 12.2356
# 6 -14.8613 -50.6337 -0.1146 -7.9187 12.2356 29.8278
#
#
#
# Elastic Compliance Matrix: (Units=1/GPa)
#
#
# Indices 1 2 3 4 5 6 
#
# 1 0.014711 -0.008324 -0.000888 0.002485 0.006945 -0.008994
# 2 -0.008324 0.095524 -0.081549 0.010518 -0.076392 0.191824
# 3 -0.000888 -0.081549 0.094433 -0.025116 0.076381 -0.176512
# 4 0.002485 0.010518 -0.025116 0.069229 -0.008004 0.040658
# 5 0.006945 -0.076392 0.076381 -0.008004 0.090707 -0.165258
# 6 -0.008994 0.191824 -0.176512 0.040658 -0.165258 0.432578
#
#
# Mechanical properties :
#
#
# Convention : Reuss Voigt Hill
#
# Bulk Modulus (GPa) = 43.20352 67.05725 55.13038
# Shear Modulus (GPa) = 5.06883 32.32260 18.69572
#
# Velocity S-wave (km/s) = 1.46468 3.69863 2.81293
# Velocity P-wave (km/s) = 4.59841 6.82792 5.82090
#
# Compressibility (1/GPa) = 0.02314626
#
# Stress axis : x y z
#
# Youngs Moduli (GPa) = 67.97638 10.46852 10.58950
#
# Poissons Ratio (x) = 0.08714 0.00940
# Poissons Ratio (y) = 0.56585 0.86356
# Poissons Ratio (z) = 0.06035 0.85370
#
# Static dielectric constant tensor:
#      x y z
#    x 2.002640 0.051010 -0.042230 
#    y 0.051010 1.957960 -0.033980 
#    z -0.042230 -0.033980 2.030230 
# 
# From -- ./inp_files/493470.got.cif
#   From: 2010.05.17/outbox.cif.g08.bks.cpg/sg2_247_cif.got.tgz:493470.got - 2010.06.03 11:33:40.
