data_PCOD9047517
_publ_section_title
;
Structure prediction by ZEFSAII (Michael W. Deem and Ramdas Pophale) SiO2 
 PCOD9047517
Probable space group: P -1
;
_chemical_formula_sum "Si O2"
_cell_formula_units_Z 16
_cell_length_a 11.301144
_cell_length_b 12.327814
_cell_length_c 21.272476
_cell_angle_alpha 158.038474
_cell_angle_beta 134.405509
_cell_angle_gamma 56.964131
_cell_volume 729.624881
_symmetry_space_group_name_H-M "P -1"
_symmetry_group_IT_number 2
_symmetry_cell_setting 'triclinic'
loop_
_space_group_symop_operation_xyz
x,y,z
-x,-y,-z
loop_
_atom_site_type_symbol
_atom_site_label
_atom_site_fract_x
_atom_site_fract_y
_atom_site_fract_z
Si Si1 0.362025 0.490083 0.595402
Si Si2 0.345446 0.108231 0.911822
Si Si3 0.608146 0.316250 0.671560
Si Si4 0.939525 0.384867 0.147335
Si Si5 0.075999 0.250750 0.255777
Si Si6 0.146559 0.934952 0.432879
Si Si7 0.938132 0.678250 0.499797
Si Si8 0.419780 0.533571 0.921608
O O1 0.506526 0.343787 0.585241
O O2 0.212923 0.358830 0.524924
O O3 0.263869 0.400537 0.443600
O O4 0.439821 0.867012 0.832675
O O5 0.378398 0.387213 0.122548
O O6 0.422397 0.263473 0.957230
O O7 0.135065 0.888685 0.711849
O O8 0.794054 0.295301 0.711474
O O9 0.500000 0.000000 0.500000
O O10 0.056011 0.395781 0.258896
O O11 0.732515 0.318055 0.050859
O O12 0.008798 0.712518 0.312030
O O13 0.957996 0.108895 0.963696
O O14 0.940698 0.343487 0.299441
O O15 0.084393 0.142551 0.474170
O O16 0.317238 0.189042 0.668024
O O17 0.500000 0.500000 0.000000
#
# Coordination Sequence:
#
# PCOD9047517 Si02
#       8
#     2   2   2   2   2   2   2   2
#     4  11  25  44  73  97 141 176 227 281 344 409
#     4  11  25  44  70 101 136 180 222 283 345 397
#     4  12  25  45  65 106 137 170 226 288 342 394
#     4  11  26  45  72  97 138 183 227 278 327 409
#     4  10  24  44  68 100 131 175 237 272 328 398
#     4  12  26  44  73  96 140 180 225 278 339 405
#     4  11  23  46  71  99 137 178 227 279 339 410
#     4  12  26  44  70 101 142 180 228 276 339 405
#
# _framework density 21.929075999999998
#
# number of rings (size 3 to 8) (size 9 to 14) (size 15 to 20)
#    0.000    0.750    3.750    3.000    8.750    3.500 
#    0.000    3.125    0.000    0.000    0.000    0.000 
#    0.000    0.000    0.000    0.000    0.000    0.000 
#
# Total GULP energy -89476.316438 kJ/mol
# GULP energy per Si atom -5592.269777 kJ/mol
# Density = 2.187916 g / cm^3
# Si number density = 21.929076 Si / 1000 Ang^3
#
#
#
# Elastic Constant Matrix: (Units=GPa)
#
#
# Indices 1 2 3 4 5 6 
#
# 1 57.2195 3.4877 22.7053 12.5044 -5.6982 2.4400
# 2 3.4877 135.8008 42.5964 2.8337 -25.3055 6.8298
# 3 22.7053 42.5964 90.4386 9.6624 -22.0915 7.5335
# 4 12.5044 2.8337 9.6624 29.2641 0.0680 -5.2116
# 5 -5.6982 -25.3055 -22.0915 0.0680 26.7633 10.3022
# 6 2.4400 6.8298 7.5335 -5.2116 10.3022 31.1932
#
#
#
# Elastic Compliance Matrix: (Units=1/GPa)
#
#
# Indices 1 2 3 4 5 6 
#
# 1 0.021490 0.001974 -0.003788 -0.008907 0.005008 -0.004340
# 2 0.001974 0.010283 -0.001978 -0.002255 0.010773 -0.005863
# 3 -0.003788 -0.001978 0.018488 -0.006154 0.016536 -0.010225
# 4 -0.008907 -0.002255 -0.006154 0.042892 -0.014901 0.014764
# 5 0.005008 0.010773 0.016536 -0.014901 0.075451 -0.034153
# 6 -0.004340 -0.005863 -0.010225 0.014764 -0.034153 0.049897
#
#
# Mechanical properties :
#
#
# Convention : Reuss Voigt Hill
#
# Bulk Modulus (GPa) = 23.43227 46.78197 35.10712
# Shear Modulus (GPa) = 20.80634 31.75542 26.28088
#
# Velocity S-wave (km/s) = 3.08360 3.80951 3.46562
# Velocity P-wave (km/s) = 4.83599 6.38197 5.66199
#
# Compressibility (1/GPa) = 0.04267618
#
# Stress axis : x y z
#
# Youngs Moduli (GPa) = 46.53357 97.24981 54.08803
#
# Poissons Ratio (x) = -0.19195 0.20490
# Poissons Ratio (y) = -0.09185 0.10698
# Poissons Ratio (z) = 0.17628 0.19235
#
# Static dielectric constant tensor:
#      x y z
#    x 1.819360 0.009450 -0.010640 
#    y 0.009450 1.809910 -0.009260 
#    z -0.010640 -0.009260 1.788760 
# 
# From -- ./inp_files/378018.got.cif
#   From: 2010.05.17/outbox.cif.g08.bks.cpg/sg2_190_cif.got.tgz:378018.got - 2010.06.03 11:33:40.
