data_PCOD9047937
_publ_section_title
;
Structure prediction by ZEFSAII (Michael W. Deem and Ramdas Pophale) SiO2 
 PCOD9047937
Probable space group: P -1
;
_chemical_formula_sum "Si O2"
_cell_formula_units_Z 16
_cell_length_a 20.323001
_cell_length_b 12.671542
_cell_length_c 11.586127
_cell_angle_alpha 36.185938
_cell_angle_beta 150.946428
_cell_angle_gamma 152.110851
_cell_volume 669.923737
_symmetry_space_group_name_H-M "P -1"
_symmetry_group_IT_number 2
_symmetry_cell_setting 'triclinic'
loop_
_space_group_symop_operation_xyz
x,y,z
-x,-y,-z
loop_
_atom_site_type_symbol
_atom_site_label
_atom_site_fract_x
_atom_site_fract_y
_atom_site_fract_z
Si Si1 0.917524 0.646857 0.857779
Si Si2 0.695553 0.815801 0.392560
Si Si3 0.664002 0.726929 0.935441
Si Si4 0.721318 0.954253 0.045610
Si Si5 0.419325 0.794609 0.372778
Si Si6 0.286122 0.892460 0.632758
Si Si7 0.971351 0.209010 0.868855
Si Si8 0.678270 0.497614 0.957604
O O1 0.825946 0.759075 0.649774
O O2 0.772014 0.417049 0.772541
O O3 0.083736 0.825448 0.878582
O O4 0.977083 0.618187 0.098312
O O5 0.497235 0.586018 0.299092
O O6 0.706724 0.900748 0.204656
O O7 0.733051 0.998797 0.381619
O O8 0.506404 0.720327 0.654343
O O9 0.661390 0.538353 0.030096
O O10 0.835952 0.965160 0.937552
O O11 0.677814 0.754293 0.069836
O O12 0.597761 0.019918 0.767348
O O13 0.542879 0.906994 0.351492
O O14 0.128767 0.785312 0.396206
O O15 0.306612 0.701265 0.861136
O O16 0.149042 0.276068 0.030974
#
# Coordination Sequence:
#
# PCOD9047937 Si02
#       8
#     2   2   2   2   2   2   2   2
#     4  11  25  45  70  99 134 181 228 273 335 397
#     4  12  26  44  69 101 141 175 222 277 338 406
#     4  10  24  44  71  98 135 178 227 275 330 403
#     4  11  25  46  65  98 140 180 221 278 330 401
#     4  11  22  46  70 101 132 177 229 278 332 397
#     4  11  26  44  70 103 138 173 220 283 342 395
#     4  10  25  43  68 101 132 176 222 281 330 393
#     4  12  23  45  68 104 134 177 220 279 343 395
#
# _framework density 23.883317999999999
#
# number of rings (size 3 to 8) (size 9 to 14) (size 15 to 20)
#    0.000    1.000    2.500    3.000    8.750    1.500 
#    0.000    0.000    0.000    0.000    0.000    0.000 
#    0.000    0.000    0.000    0.000    0.000    0.000 
#
# Total GULP energy -89620.641128 kJ/mol
# GULP energy per Si atom -5601.290071 kJ/mol
# Density = 2.382896 g / cm^3
# Si number density = 23.883318 Si / 1000 Ang^3
#
#
#
# Elastic Constant Matrix: (Units=GPa)
#
#
# Indices 1 2 3 4 5 6 
#
# 1 103.5008 45.5157 39.6816 7.4395 4.2901 -5.3805
# 2 45.5157 87.3261 30.3768 14.4743 -0.6898 -14.2352
# 3 39.6816 30.3768 76.2431 13.8987 7.6890 2.3887
# 4 7.4395 14.4743 13.8987 41.5118 -8.1256 11.3799
# 5 4.2901 -0.6898 7.6890 -8.1256 37.8979 0.1773
# 6 -5.3805 -14.2352 2.3887 11.3799 0.1773 42.0965
#
#
#
# Elastic Compliance Matrix: (Units=1/GPa)
#
#
# Indices 1 2 3 4 5 6 
#
# 1 0.014126 -0.005776 -0.005226 0.001205 -0.000385 -0.000175
# 2 -0.005776 0.017716 -0.003225 -0.005927 0.000327 0.007036
# 3 -0.005226 -0.003225 0.018407 -0.004484 -0.004156 -0.001573
# 4 0.001205 -0.005927 -0.004484 0.031708 0.007512 -0.010199
# 5 -0.000385 0.000327 -0.004156 0.007512 0.028899 -0.001855
# 6 -0.000175 0.007036 -0.001573 -0.010199 -0.001855 0.028966
#
#
# Mechanical properties :
#
#
# Convention : Reuss Voigt Hill
#
# Bulk Modulus (GPa) = 45.88436 55.35760 50.62098
# Shear Modulus (GPa) = 28.48372 34.40096 31.44234
#
# Velocity S-wave (km/s) = 3.45718 3.79935 3.63229
# Velocity P-wave (km/s) = 5.93209 6.51731 6.23158
#
# Compressibility (1/GPa) = 0.02179392
#
# Stress axis : x y z
#
# Youngs Moduli (GPa) = 70.79330 56.44708 54.32854
#
# Poissons Ratio (x) = 0.32604 0.28392
# Poissons Ratio (y) = 0.40890 0.17521
# Poissons Ratio (z) = 0.36996 0.18205
#
# Static dielectric constant tensor:
#      x y z
#    x 1.908600 0.005060 -0.019080 
#    y 0.005060 1.946080 0.022210 
#    z -0.019080 0.022210 1.885740 
# 
# From -- ./inp_files/471148.got.cif
#   From: 2010.05.17/outbox.cif.g08.bks.cpg/sg2_236_cif.got.tgz:471148.got - 2010.06.03 11:33:40.
