data_PCOD9047877
_publ_section_title
;
Structure prediction by ZEFSAII (Michael W. Deem and Ramdas Pophale) SiO2 
 PCOD9047877
Probable space group: P -1
;
_chemical_formula_sum "Si O2"
_cell_formula_units_Z 16
_cell_length_a 18.269353
_cell_length_b 12.181033
_cell_length_c 7.935516
_cell_angle_alpha 104.196235
_cell_angle_beta 51.368817
_cell_angle_gamma 143.888195
_cell_volume 672.060758
_symmetry_space_group_name_H-M "P -1"
_symmetry_group_IT_number 2
_symmetry_cell_setting 'triclinic'
loop_
_space_group_symop_operation_xyz
x,y,z
-x,-y,-z
loop_
_atom_site_type_symbol
_atom_site_label
_atom_site_fract_x
_atom_site_fract_y
_atom_site_fract_z
Si Si1 0.868642 0.123085 0.301742
Si Si2 0.981570 0.503172 0.299336
Si Si3 0.625914 0.496716 0.742073
Si Si4 0.963333 0.703147 0.234256
Si Si5 0.310069 0.755900 0.096867
Si Si6 0.894099 0.827492 0.938061
Si Si7 0.221202 0.132247 0.175281
Si Si8 0.558503 0.352497 0.176197
O O1 0.908783 0.298531 0.324705
O O2 0.999046 0.178674 0.246880
O O3 0.657485 0.874320 0.556078
O O4 0.925432 0.153163 0.040642
O O5 0.950541 0.554622 0.208798
O O6 0.850648 0.424620 0.599305
O O7 0.201411 0.724738 0.112202
O O8 0.764215 0.555854 0.473523
O O9 0.717806 0.718321 0.706986
O O10 0.421216 0.296784 0.884545
O O11 0.592940 0.417293 0.952373
O O12 0.084982 0.882585 0.280910
O O13 0.363102 0.691153 0.918416
O O14 0.500000 0.000000 0.000000
O O15 0.881029 0.891125 0.816900
O O16 0.681295 0.570166 0.185164
O O17 0.000000 0.000000 0.000000
#
# Coordination Sequence:
#
# PCOD9047877 Si02
#       8
#     2   2   2   2   2   2   2   2
#     4  12  26  46  68 103 142 182 230 290 354 419
#     4  11  25  42  71 101 139 182 232 285 353 418
#     4  10  24  45  69 103 138 177 236 289 348 409
#     4  12  25  44  69 101 144 183 226 286 355 414
#     4  11  22  42  70 102 133 182 237 288 341 409
#     4  11  24  49  71 102 141 188 231 286 351 422
#     4  10  24  44  71 103 134 184 234 289 342 412
#     4  11  24  44  75 102 139 181 237 289 344 414
#
# _framework density 23.807372000000001
#
# number of rings (size 3 to 8) (size 9 to 14) (size 15 to 20)
#    0.000    1.000    5.000    0.750    1.750    6.500 
#    0.000    0.625    0.000    0.000    0.000    0.000 
#    0.000    0.000    0.000    0.000    0.000    0.000 
#
# Total GULP energy -89496.092228 kJ/mol
# GULP energy per Si atom -5593.505764 kJ/mol
# Density = 2.375319 g / cm^3
# Si number density = 23.807372 Si / 1000 Ang^3
#
#
#
# Elastic Constant Matrix: (Units=GPa)
#
#
# Indices 1 2 3 4 5 6 
#
# 1 81.5959 30.4540 41.8745 -6.7045 -24.3615 -13.1233
# 2 30.4540 112.5218 33.6999 -22.8531 -13.2234 -10.0780
# 3 41.8745 33.6999 141.1616 -17.3642 -26.3481 3.1131
# 4 -6.7045 -22.8531 -17.3642 35.1887 11.5778 -7.3762
# 5 -24.3615 -13.2234 -26.3481 11.5778 45.8480 1.1904
# 6 -13.1233 -10.0780 3.1131 -7.3762 1.1904 39.2768
#
#
#
# Elastic Compliance Matrix: (Units=1/GPa)
#
#
# Indices 1 2 3 4 5 6 
#
# 1 0.017915 -0.002772 -0.003659 -0.001371 0.006831 0.005100
# 2 -0.002772 0.011782 -0.001298 0.007512 -0.000812 0.003635
# 3 -0.003659 -0.001298 0.009222 0.001728 0.002598 -0.002041
# 4 -0.001371 0.007512 0.001728 0.038163 -0.007432 0.008725
# 5 0.006831 -0.000812 0.002598 -0.007432 0.028586 -0.000394
# 6 0.005100 0.003635 -0.002041 0.008725 -0.000394 0.029909
#
#
# Mechanical properties :
#
#
# Convention : Reuss Voigt Hill
#
# Bulk Modulus (GPa) = 42.62329 60.81512 51.71921
# Shear Modulus (GPa) = 31.47530 39.34609 35.41069
#
# Velocity S-wave (km/s) = 3.63999 4.06973 3.86084
# Velocity P-wave (km/s) = 5.96727 6.90534 6.45337
#
# Compressibility (1/GPa) = 0.02346135
#
# Stress axis : x y z
#
# Youngs Moduli (GPa) = 55.82034 84.87481 108.43926
#
# Poissons Ratio (x) = 0.23524 0.39674
# Poissons Ratio (y) = 0.15471 0.14078
# Poissons Ratio (z) = 0.20423 0.11019
#
# Static dielectric constant tensor:
#      x y z
#    x 1.937600 0.011310 0.045540 
#    y 0.011310 1.970380 0.036940 
#    z 0.045540 0.036940 1.946510 
# 
# From -- ./inp_files/333357.got.cif
#   From: 2010.05.17/outbox.cif.g08.bks.cpg/sg2_167_cif.got.tgz:333357.got - 2010.06.03 11:33:40.
