data_PCOD9047408
_publ_section_title
;
Structure prediction by ZEFSAII (Michael W. Deem and Ramdas Pophale) SiO2 
 PCOD9047408
Probable space group: P -1
;
_chemical_formula_sum "Si O2"
_cell_formula_units_Z 14
_cell_length_a 8.581441
_cell_length_b 21.109558
_cell_length_c 8.394219
_cell_angle_alpha 137.397496
_cell_angle_beta 133.245852
_cell_angle_gamma 38.508303
_cell_volume 619.019262
_symmetry_space_group_name_H-M "P -1"
_symmetry_group_IT_number 2
_symmetry_cell_setting 'triclinic'
loop_
_space_group_symop_operation_xyz
x,y,z
-x,-y,-z
loop_
_atom_site_type_symbol
_atom_site_label
_atom_site_fract_x
_atom_site_fract_y
_atom_site_fract_z
Si Si1 0.016209 0.781712 0.272689
Si Si2 0.102031 0.389859 0.757498
Si Si3 0.622545 0.732422 0.982798
Si Si4 0.770622 0.310001 0.243698
Si Si5 0.812246 0.923749 0.071403
Si Si6 0.861363 0.085082 0.203333
Si Si7 0.499319 0.396360 0.871513
O O1 0.995047 0.852878 0.542890
O O2 0.320668 0.704225 0.308905
O O3 0.896384 0.863671 0.189613
O O4 0.897653 0.706727 0.067306
O O5 0.233182 0.407787 0.732579
O O6 0.880522 0.375115 0.521828
O O7 0.314256 0.278019 0.801351
O O8 0.000000 0.500000 0.000000
O O9 0.450497 0.680006 0.778434
O O10 0.429054 0.836086 0.923565
O O11 0.633850 0.364618 0.080529
O O12 0.015414 0.181780 0.129075
O O13 0.878484 0.013930 0.237040
O O14 0.500000 0.000000 0.000000
O O15 0.000000 0.000000 0.000000
O O16 0.500000 0.500000 0.000000
#
# Coordination Sequence:
#
# PCOD9047408 Si02
#       7
#     2   2   2   2   2   2   2
#     4  11  25  42  68  99 135 172 225 274 325 396
#     4  11  25  44  69  98 132 174 216 274 336 393
#     4  11  23  42  65  98 129 172 222 267 325 390
#     4  10  24  44  66  96 134 171 224 269 323 404
#     4  11  23  43  64  97 135 177 220 271 334 378
#     4  12  25  42  65  99 134 181 221 268 328 391
#     4  10  24  44  67  99 130 172 220 275 336 385
#
# _framework density 22.616419
#
# number of rings (size 3 to 8) (size 9 to 14) (size 15 to 20)
#    0.000    1.143    2.857    2.143    2.000    5.714 
#    0.000    0.000    0.000    0.000    0.000    0.000 
#    0.000    0.000    0.000    0.000    0.000    0.000 
#
# Total GULP energy -77967.296705 kJ/mol
# GULP energy per Si atom -5569.092622 kJ/mol
# Density = 2.256494 g / cm^3
# Si number density = 22.616419 Si / 1000 Ang^3
#
#
#
# Elastic Constant Matrix: (Units=GPa)
#
#
# Indices 1 2 3 4 5 6 
#
# 1 141.4897 27.6946 49.3705 6.5890 40.1637 9.7210
# 2 27.6946 58.0373 5.8965 11.2810 -0.6816 14.7353
# 3 49.3705 5.8965 119.6421 8.6484 21.0480 -10.4433
# 4 6.5890 11.2810 8.6484 16.2761 3.5653 -0.8138
# 5 40.1637 -0.6816 21.0480 3.5653 42.0617 -2.6616
# 6 9.7210 14.7353 -10.4433 -0.8138 -2.6616 44.1843
#
#
#
# Elastic Compliance Matrix: (Units=1/GPa)
#
#
# Indices 1 2 3 4 5 6 
#
# 1 0.012392 -0.005709 -0.003368 0.002948 -0.010629 -0.002204
# 2 -0.005709 0.025051 0.000605 -0.017157 0.006574 -0.006875
# 3 -0.003368 0.000605 0.010536 -0.004180 -0.001511 0.002861
# 4 0.002948 -0.017157 -0.004180 0.076175 -0.007138 0.005058
# 5 -0.010629 0.006574 -0.001511 -0.007138 0.035506 0.001796
# 6 -0.002204 -0.006875 0.002861 0.005058 0.001796 0.026288
#
#
# Mechanical properties :
#
#
# Convention : Reuss Voigt Hill
#
# Bulk Modulus (GPa) = 32.22234 53.89913 43.06074
# Shear Modulus (GPa) = 23.44818 36.25157 29.84988
#
# Velocity S-wave (km/s) = 3.22340 4.00795 3.63689
# Velocity P-wave (km/s) = 5.30396 6.73066 6.05945
#
# Compressibility (1/GPa) = 0.03103437
#
# Stress axis : x y z
#
# Youngs Moduli (GPa) = 80.69992 39.91881 94.91333
#
# Poissons Ratio (x) = 0.22790 0.31963
# Poissons Ratio (y) = 0.46073 -0.05740
# Poissons Ratio (z) = 0.27177 -0.02414
#
# Static dielectric constant tensor:
#      x y z
#    x 1.857860 -0.000820 -0.039050 
#    y -0.000820 1.908070 0.080000 
#    z -0.039050 0.080000 1.749800 
# 
# From -- ./inp_files/46749.got.cif
#   From: 2010.05.17/outbox.cif.g08.bks.cpg/sg2_24_cif.got.tgz:46749.got - 2010.06.03 11:33:40.
