data_PCOD9047747
_publ_section_title
;
Structure prediction by ZEFSAII (Michael W. Deem and Ramdas Pophale) SiO2 
 PCOD9047747
Probable space group: P -1
;
_chemical_formula_sum "Si O2"
_cell_formula_units_Z 14
_cell_length_a 11.262946
_cell_length_b 11.039642
_cell_length_c 16.105993
_cell_angle_alpha 62.232606
_cell_angle_beta 159.550867
_cell_angle_gamma 115.050050
_cell_volume 618.534345
_symmetry_space_group_name_H-M "P -1"
_symmetry_group_IT_number 2
_symmetry_cell_setting 'triclinic'
loop_
_space_group_symop_operation_xyz
x,y,z
-x,-y,-z
loop_
_atom_site_type_symbol
_atom_site_label
_atom_site_fract_x
_atom_site_fract_y
_atom_site_fract_z
Si Si1 0.636871 0.218021 0.022971
Si Si2 0.352542 0.031349 0.767496
Si Si3 0.610240 0.656844 0.871584
Si Si4 0.630164 0.295954 0.478435
Si Si5 0.044232 0.082884 0.916861
Si Si6 0.826911 0.572334 0.731983
Si Si7 0.827210 0.543014 0.284836
O O1 0.671900 0.079009 0.140394
O O2 0.996264 0.292095 0.230694
O O3 0.394937 0.321897 0.882577
O O4 0.442592 0.176799 0.823140
O O5 0.678681 0.995438 0.934499
O O6 0.000000 0.000000 0.500000
O O7 0.407625 0.721395 0.639462
O O8 0.401977 0.587353 0.831391
O O9 0.804346 0.777673 0.998261
O O10 0.864868 0.540316 0.036494
O O11 0.305183 0.369203 0.285218
O O12 0.731604 0.150942 0.635346
O O13 0.908964 0.414922 0.624863
O O14 0.000000 0.000000 0.000000
O O15 0.500000 0.500000 0.500000
O O16 0.000000 0.500000 0.500000
#
# Coordination Sequence:
#
# PCOD9047747 Si02
#       7
#     2   2   2   2   2   2   2
#     4  10  24  48  68 103 140 179 236 285 355 409
#     4  11  27  46  73  97 139 192 236 286 338 420
#     4  10  24  44  70 101 137 181 230 287 359 409
#     4  11  23  44  70  98 141 181 222 297 349 409
#     4  12  28  45  65 104 139 185 240 278 348 423
#     4  11  23  44  72 107 139 177 229 292 358 418
#     4   9  20  42  71 100 128 174 228 287 348 411
#
# _framework density 22.634150999999999
#
# number of rings (size 3 to 8) (size 9 to 14) (size 15 to 20)
#    0.000    1.429    2.857    0.429    8.000    2.286 
#    5.143    0.000    0.000    0.000    0.000    0.000 
#    0.000    0.000    0.000    0.000    0.000    0.000 
#
# Total GULP energy -78021.239322 kJ/mol
# GULP energy per Si atom -5572.945666 kJ/mol
# Density = 2.258263 g / cm^3
# Si number density = 22.634151 Si / 1000 Ang^3
#
#
#
# Elastic Constant Matrix: (Units=GPa)
#
#
# Indices 1 2 3 4 5 6 
#
# 1 92.6137 37.7287 14.3276 10.1520 11.4473 8.8154
# 2 37.7287 93.1760 12.5710 6.4533 -2.4379 16.9181
# 3 14.3276 12.5710 53.6468 11.7653 -7.4545 6.9349
# 4 10.1520 6.4533 11.7653 17.0419 -1.5996 8.7602
# 5 11.4473 -2.4379 -7.4545 -1.5996 48.2280 1.7902
# 6 8.8154 16.9181 6.9349 8.7602 1.7902 39.1825
#
#
#
# Elastic Compliance Matrix: (Units=1/GPa)
#
#
# Indices 1 2 3 4 5 6 
#
# 1 0.014414 -0.005445 -0.001958 -0.006090 -0.004238 0.001010
# 2 -0.005445 0.013961 -0.001230 0.001585 0.002047 -0.005033
# 3 -0.001958 -0.001230 0.022992 -0.013827 0.003504 -0.000167
# 4 -0.006090 0.001585 -0.013827 0.079023 0.002553 -0.014651
# 5 -0.004238 0.002047 0.003504 0.002553 0.022550 -0.002152
# 6 0.001010 -0.005033 -0.000167 -0.014651 -0.002152 0.030871
#
#
# Mechanical properties :
#
#
# Convention : Reuss Voigt Hill
#
# Bulk Modulus (GPa) = 29.32336 40.96567 35.14452
# Shear Modulus (GPa) = 23.53569 32.54443 28.04006
#
# Velocity S-wave (km/s) = 3.22814 3.79601 3.52353
# Velocity P-wave (km/s) = 5.18440 6.11157 5.66698
#
# Compressibility (1/GPa) = 0.03410250
#
# Stress axis : x y z
#
# Youngs Moduli (GPa) = 69.37806 71.63001 43.49291
#
# Poissons Ratio (x) = 0.39001 0.08514
# Poissons Ratio (y) = 0.37775 0.05349
# Poissons Ratio (z) = 0.13581 0.08809
#
# Static dielectric constant tensor:
#      x y z
#    x 1.869720 -0.002760 -0.023800 
#    y -0.002760 1.837520 0.088490 
#    z -0.023800 0.088490 2.095110 
# 
# From -- ./inp_files/559342.got.cif
#   From: 2010.05.17/outbox.cif.g08.bks.cpg/sg2_280_cif.got.tgz:559342.got - 2010.06.03 11:33:40.
