data_PCOD9047899
_publ_section_title
;
Structure prediction by ZEFSAII (Michael W. Deem and Ramdas Pophale) SiO2 
 PCOD9047899
Probable space group: P -1
;
_chemical_formula_sum "Si O2"
_cell_formula_units_Z 16
_cell_length_a 25.461199
_cell_length_b 9.332199
_cell_length_c 6.791750
_cell_angle_alpha 48.484452
_cell_angle_beta 69.841333
_cell_angle_gamma 40.436977
_cell_volume 740.077366
_symmetry_space_group_name_H-M "P -1"
_symmetry_group_IT_number 2
_symmetry_cell_setting 'triclinic'
loop_
_space_group_symop_operation_xyz
x,y,z
-x,-y,-z
loop_
_atom_site_type_symbol
_atom_site_label
_atom_site_fract_x
_atom_site_fract_y
_atom_site_fract_z
Si Si1 0.298268 0.302286 0.351037
Si Si2 0.876467 0.411000 0.679236
Si Si3 0.525915 0.332111 0.818094
Si Si4 0.616656 0.309524 0.055411
Si Si5 0.999134 0.749306 0.007035
Si Si6 0.397492 0.218992 0.935670
Si Si7 0.723518 0.317645 0.655973
Si Si8 0.109708 0.319671 0.898651
O O1 0.207027 0.472208 0.226234
O O2 0.276097 0.482846 0.409375
O O3 0.347259 0.981735 0.639642
O O4 0.355116 0.276441 0.147518
O O5 0.850379 0.628445 0.346572
O O6 0.931627 0.383390 0.793420
O O7 0.934561 0.095431 0.792475
O O8 0.500000 0.500000 0.500000
O O9 0.443359 0.447387 0.919515
O O10 0.556362 0.412816 0.856121
O O11 0.600399 0.989792 0.992775
O O12 0.684033 0.277447 0.906015
O O13 0.944884 0.693791 0.143555
O O14 0.048299 0.591021 0.881769
O O15 0.337181 0.510693 0.614142
O O16 0.500000 0.000000 0.000000
O O17 0.818260 0.988518 0.796755
#
# Coordination Sequence:
#
# PCOD9047899 Si02
#       8
#     2   2   2   2   2   2   2   2
#     4  12  25  45  68  99 138 180 231 290 339 414
#     4  11  23  45  72 103 138 183 233 283 345 417
#     4  11  22  41  66  93 127 174 230 278 348 409
#     4  11  24  42  69  91 130 180 225 287 343 405
#     4  10  24  44  71 105 140 182 226 282 352 419
#     4  12  27  45  68 100 140 181 235 290 349 411
#     4  12  26  44  67 101 139 178 233 290 345 410
#     4  11  23  45  71 102 142 183 229 281 351 418
#
# _framework density 21.619358999999999
#
# number of rings (size 3 to 8) (size 9 to 14) (size 15 to 20)
#    0.000    0.750    5.000    2.250    1.750    4.000 
#   11.250    0.000    0.000    0.000    0.000    0.000 
#    0.000    0.000    0.000    0.000    0.000    0.000 
#
# Total GULP energy -89365.601968 kJ/mol
# GULP energy per Si atom -5585.350123 kJ/mol
# Density = 2.157015 g / cm^3
# Si number density = 21.619359 Si / 1000 Ang^3
#
#
#
# Elastic Constant Matrix: (Units=GPa)
#
#
# Indices 1 2 3 4 5 6 
#
# 1 90.3372 40.6241 34.4722 -3.2058 4.9145 -8.2423
# 2 40.6241 85.7206 34.3206 -5.3059 7.8127 0.4382
# 3 34.4722 34.3206 110.4998 -9.5541 6.9175 -6.1108
# 4 -3.2058 -5.3059 -9.5541 25.2039 -7.3880 0.2874
# 5 4.9145 7.8127 6.9175 -7.3880 31.6625 -0.2109
# 6 -8.2423 0.4382 -6.1108 0.2874 -0.2109 37.1171
#
#
#
# Elastic Compliance Matrix: (Units=1/GPa)
#
#
# Indices 1 2 3 4 5 6 
#
# 1 0.015109 -0.006104 -0.002675 -0.000515 -0.000355 0.002989
# 2 -0.006104 0.016010 -0.002972 0.000855 -0.002168 -0.002053
# 3 -0.002675 -0.002972 0.011179 0.003092 -0.000564 0.001255
# 4 -0.000515 0.000855 0.003092 0.043716 0.009394 0.000099
# 5 -0.000355 -0.002168 -0.000564 0.009394 0.034488 -0.000023
# 6 0.002989 -0.002053 0.001255 0.000099 -0.000023 0.027835
#
#
# Mechanical properties :
#
#
# Convention : Reuss Voigt Hill
#
# Bulk Modulus (GPa) = 53.20249 56.15459 54.67854
# Shear Modulus (GPa) = 28.07337 30.60607 29.33972
#
# Velocity S-wave (km/s) = 3.60742 3.76663 3.68789
# Velocity P-wave (km/s) = 6.48178 6.70427 6.59397
#
# Compressibility (1/GPa) = 0.01879611
#
# Stress axis : x y z
#
# Youngs Moduli (GPa) = 66.18549 62.46221 89.45089
#
# Poissons Ratio (x) = 0.38129 0.23924
# Poissons Ratio (y) = 0.40402 0.26585
# Poissons Ratio (z) = 0.17702 0.18564
#
# Static dielectric constant tensor:
#      x y z
#    x 1.829760 -0.018970 0.004610 
#    y -0.018970 1.778450 -0.013470 
#    z 0.004610 -0.013470 1.771780 
# 
# From -- ./inp_files/126371.got.cif
#   From: 2010.05.17/outbox.cif.g08.bks.cpg/sg2_64_cif.got.tgz:126371.got - 2010.06.03 11:33:40.
