data_PCOD9047251
_publ_section_title
;
Structure prediction by ZEFSAII (Michael W. Deem and Ramdas Pophale) SiO2 
 PCOD9047251
Probable space group: P -1
;
_chemical_formula_sum "Si O2"
_cell_formula_units_Z 16
_cell_length_a 9.871113
_cell_length_b 11.410197
_cell_length_c 8.980943
_cell_angle_alpha 50.616168
_cell_angle_beta 100.160833
_cell_angle_gamma 95.600690
_cell_volume 769.430133
_symmetry_space_group_name_H-M "P -1"
_symmetry_group_IT_number 2
_symmetry_cell_setting 'triclinic'
loop_
_space_group_symop_operation_xyz
x,y,z
-x,-y,-z
loop_
_atom_site_type_symbol
_atom_site_label
_atom_site_fract_x
_atom_site_fract_y
_atom_site_fract_z
Si Si1 0.382260 0.393096 0.236213
Si Si2 0.903598 0.131465 0.448789
Si Si3 0.377111 0.388510 0.582005
Si Si4 0.124297 0.577146 0.376611
Si Si5 0.580574 0.900119 0.976053
Si Si6 0.393041 0.737265 0.837866
Si Si7 0.906596 0.592696 0.796792
Si Si8 0.865177 0.070755 0.835282
O O1 0.366534 0.337452 0.448961
O O2 0.512023 0.314749 0.243165
O O3 0.229430 0.351864 0.184541
O O4 0.385360 0.577027 0.059631
O O5 0.757846 0.190273 0.295533
O O6 0.876825 0.078126 0.653835
O O7 0.004510 0.273589 0.359506
O O8 0.000000 0.000000 0.500000
O O9 0.500000 0.500000 0.500000
O O10 0.256299 0.494009 0.536310
O O11 0.392528 0.255338 0.806826
O O12 0.126376 0.522379 0.250568
O O13 0.138614 0.755487 0.249794
O O14 0.000000 0.500000 0.500000
O O15 0.482738 0.857500 0.852159
O O16 0.725240 0.980698 0.910059
O O17 0.500000 0.000000 0.000000
O O18 0.000000 0.500000 0.000000
O O19 0.000000 0.000000 0.000000
#
# Coordination Sequence:
#
# PCOD9047251 Si02
#       8
#     2   2   2   2   2   2   2   2
#     4  10  24  43  76 107 142 184 255 306 361 429
#     4  12  30  49  74 108 153 199 244 307 379 447
#     4  11  23  43  72 105 139 188 242 297 360 435
#     4  11  24  45  73 102 140 185 248 299 351 436
#     4  12  29  46  74 108 151 196 239 305 376 440
#     4  11  26  49  72 109 146 195 248 306 368 447
#     4  11  24  44  75 108 141 193 244 305 363 436
#     4  12  30  50  72 109 150 197 244 307 376 445
#
# _framework density 20.794609999999999
#
# number of rings (size 3 to 8) (size 9 to 14) (size 15 to 20)
#    0.000    0.750    3.750    1.500   12.250    1.500 
#    0.000    0.000    0.000    0.000    0.000    0.000 
#    0.000    0.000    0.000    0.000    0.000    0.000 
#
# Total GULP energy -89250.622222 kJ/mol
# GULP energy per Si atom -5578.163889 kJ/mol
# Density = 2.074728 g / cm^3
# Si number density = 20.794610 Si / 1000 Ang^3
#
#
#
# Elastic Constant Matrix: (Units=GPa)
#
#
# Indices 1 2 3 4 5 6 
#
# 1 194.6090 65.5766 58.0620 -20.3810 -3.6229 3.4998
# 2 65.5766 125.7811 51.1723 -15.1408 11.5588 -1.0875
# 3 58.0620 51.1723 105.6582 -16.7981 1.9680 -1.1464
# 4 -20.3810 -15.1408 -16.7981 27.5692 -4.0347 0.1355
# 5 -3.6229 11.5588 1.9680 -4.0347 47.6273 -7.1106
# 6 3.4998 -1.0875 -1.1464 0.1355 -7.1106 37.1770
#
#
#
# Elastic Compliance Matrix: (Units=1/GPa)
#
#
# Indices 1 2 3 4 5 6 
#
# 1 0.006966 -0.002550 -0.002210 0.002607 0.001380 -0.000544
# 2 -0.002550 0.011236 -0.003734 0.001625 -0.002638 -0.000057
# 3 -0.002210 -0.003734 0.013188 0.004445 0.000662 0.000616
# 4 0.002607 0.001625 0.004445 0.042276 0.003263 0.000409
# 5 0.001380 -0.002638 0.000662 0.003263 0.022606 0.004125
# 6 -0.000544 -0.000057 0.000616 0.000409 0.004125 0.027754
#
#
# Mechanical properties :
#
#
# Convention : Reuss Voigt Hill
#
# Bulk Modulus (GPa) = 69.43110 86.18557 77.80833
# Shear Modulus (GPa) = 34.28988 39.22387 36.75687
#
# Velocity S-wave (km/s) = 4.06517 4.34781 4.20886
# Velocity P-wave (km/s) = 7.44954 8.16950 7.81781
#
# Compressibility (1/GPa) = 0.01440277
#
# Stress axis : x y z
#
# Youngs Moduli (GPa) = 143.56165 88.99647 75.82504
#
# Poissons Ratio (x) = 0.22696 0.16756
# Poissons Ratio (y) = 0.36611 0.28311
# Poissons Ratio (z) = 0.31724 0.33229
#
# Static dielectric constant tensor:
#      x y z
#    x 1.656180 -0.042930 -0.007340 
#    y -0.042930 1.731720 -0.010490 
#    z -0.007340 -0.010490 1.573480 
# 
# From -- ./inp_files/184356.got.cif
#   From: 2010.05.17/outbox.cif.g08.bks.cpg/sg2_93_cif.got.tgz:184356.got - 2010.06.03 11:33:40.
