data_PCOD9047345
_publ_section_title
;
Structure prediction by ZEFSAII (Michael W. Deem and Ramdas Pophale) SiO2 
 PCOD9047345
Probable space group: P -1
;
_chemical_formula_sum "Si O2"
_cell_formula_units_Z 16
_cell_length_a 11.717504
_cell_length_b 11.552398
_cell_length_c 8.664813
_cell_angle_alpha 123.476388
_cell_angle_beta 60.749483
_cell_angle_gamma 137.699650
_cell_volume 651.610467
_symmetry_space_group_name_H-M "P -1"
_symmetry_group_IT_number 2
_symmetry_cell_setting 'triclinic'
loop_
_space_group_symop_operation_xyz
x,y,z
-x,-y,-z
loop_
_atom_site_type_symbol
_atom_site_label
_atom_site_fract_x
_atom_site_fract_y
_atom_site_fract_z
Si Si1 0.381144 0.538918 0.293665
Si Si2 0.670855 0.184327 0.450627
Si Si3 0.724896 0.266771 0.977971
Si Si4 0.257275 0.198273 0.936042
Si Si5 0.851985 0.895109 0.387309
Si Si6 0.129979 0.794898 0.424427
Si Si7 0.329936 0.988918 0.955963
Si Si8 0.758809 0.563782 0.368947
O O1 0.308407 0.642650 0.398900
O O2 0.565144 0.673688 0.186393
O O3 0.382289 0.522862 0.466948
O O4 0.269635 0.343479 0.140776
O O5 0.831397 0.211381 0.429758
O O6 0.500000 0.000000 0.500000
O O7 0.653234 0.138327 0.251077
O O8 0.778778 0.439190 0.161637
O O9 0.774747 0.151655 0.938874
O O10 0.802707 0.291878 0.777321
O O11 0.521030 0.149279 0.006809
O O12 0.117270 0.097434 0.814510
O O13 0.266354 0.072569 0.954599
O O14 0.751279 0.689506 0.353509
O O15 0.770810 0.993388 0.523955
O O16 0.000000 0.000000 0.500000
O O17 0.934501 0.688330 0.441386
#
# Coordination Sequence:
#
# PCOD9047345 Si02
#       8
#     2   2   2   2   2   2   2   2
#     4  11  25  41  66 100 129 169 220 274 325 384
#     4  12  20  42  68  94 130 169 219 278 324 383
#     4  11  24  41  67 102 130 169 218 272 326 383
#     4  11  24  44  69  96 129 174 216 267 334 385
#     4  10  24  44  65  93 133 175 215 267 324 388
#     4  11  23  43  68  90 131 181 214 265 336 382
#     4  11  23  41  68  99 131 167 221 270 325 390
#     4  11  26  44  61  96 137 172 220 270 319 393
#
# _framework density 24.554548
#
# number of rings (size 3 to 8) (size 9 to 14) (size 15 to 20)
#    0.000    1.000    5.000    0.375    7.000    1.000 
#    0.000    2.500    0.000    0.000    0.000    0.000 
#    0.000    0.000    0.000    0.000    0.000    0.000 
#
# Total GULP energy -89315.896659 kJ/mol
# GULP energy per Si atom -5582.243541 kJ/mol
# Density = 2.449866 g / cm^3
# Si number density = 24.554548 Si / 1000 Ang^3
#
#
#
# Elastic Constant Matrix: (Units=GPa)
#
#
# Indices 1 2 3 4 5 6 
#
# 1 112.4018 45.3393 22.9705 25.8007 18.0602 -33.0676
# 2 45.3393 71.6223 28.2614 12.4651 -8.6254 -29.4003
# 3 22.9705 28.2614 128.8794 32.8108 -7.9015 -28.8133
# 4 25.8007 12.4651 32.8108 32.2107 -7.2513 1.6366
# 5 18.0602 -8.6254 -7.9015 -7.2513 36.7629 1.1327
# 6 -33.0676 -29.4003 -28.8133 1.6366 1.1327 41.1212
#
#
#
# Elastic Compliance Matrix: (Units=1/GPa)
#
#
# Indices 1 2 3 4 5 6 
#
# 1 0.032851 -0.008216 0.012457 -0.043027 -0.024851 0.031668
# 2 -0.008216 0.025005 -0.001016 -0.000499 0.009268 0.010323
# 3 0.012457 -0.001016 0.018650 -0.031908 -0.009379 0.023888
# 4 -0.043027 -0.000499 -0.031908 0.109896 0.037772 -0.062729
# 5 -0.024851 0.009268 -0.009379 0.037772 0.047720 -0.022747
# 6 0.031668 0.010323 0.023888 -0.062729 -0.022747 0.077026
#
#
# Mechanical properties :
#
#
# Convention : Reuss Voigt Hill
#
# Bulk Modulus (GPa) = 12.05449 56.22733 34.14091
# Shear Modulus (GPa) = 15.04438 36.44110 25.74274
#
# Velocity S-wave (km/s) = 2.47795 3.85656 3.24140
# Velocity P-wave (km/s) = 3.62034 6.54060 5.28613
#
# Compressibility (1/GPa) = 0.08295666
#
# Stress axis : x y z
#
# Youngs Moduli (GPa) = 30.44048 39.99272 53.61791
#
# Poissons Ratio (x) = 0.32858 -0.66792
# Poissons Ratio (y) = 0.25010 0.05445
# Poissons Ratio (z) = -0.37920 0.04061
#
# Static dielectric constant tensor:
#      x y z
#    x 1.964490 -0.034760 0.064540 
#    y -0.034760 2.228280 -0.095140 
#    z 0.064540 -0.095140 1.938140 
# 
# From -- ./inp_files/263445.got.cif
#   From: 2010.05.17/outbox.cif.g08.bks.cpg/sg2_132_cif.got.tgz:263445.got - 2010.06.03 11:33:40.
