data_PCOD9047833
_publ_section_title
;
Structure prediction by ZEFSAII (Michael W. Deem and Ramdas Pophale) SiO2 
 PCOD9047833
Probable space group: P -1
;
_chemical_formula_sum "Si O2"
_cell_formula_units_Z 15
_cell_length_a 13.422525
_cell_length_b 24.183861
_cell_length_c 13.479157
_cell_angle_alpha 161.606324
_cell_angle_beta 147.771379
_cell_angle_gamma 25.004156
_cell_volume 580.331113
_symmetry_space_group_name_H-M "P -1"
_symmetry_group_IT_number 2
_symmetry_cell_setting 'triclinic'
loop_
_space_group_symop_operation_xyz
x,y,z
-x,-y,-z
loop_
_atom_site_type_symbol
_atom_site_label
_atom_site_fract_x
_atom_site_fract_y
_atom_site_fract_z
Si Si1 0.079835 0.326895 0.634908
Si Si2 0.000000 0.500000 0.500000
Si Si3 0.259865 0.887239 0.071999
Si Si4 0.254782 0.565816 0.278136
Si Si5 0.545417 0.267662 0.616470
Si Si6 0.254361 0.404796 0.369382
Si Si7 0.256904 0.913254 0.738658
Si Si8 0.766034 0.220910 0.915194
O O1 0.930098 0.360228 0.663227
O O2 0.890231 0.440838 0.581931
O O3 0.291413 0.064523 0.358852
O O4 0.193479 0.450343 0.951198
O O5 0.290277 0.333776 0.491327
O O6 0.072617 0.410908 0.295576
O O7 0.231558 0.888384 0.167924
O O8 0.480413 0.635485 0.803399
O O9 0.000000 0.000000 0.000000
O O10 0.228636 0.762555 0.532737
O O11 0.714128 0.137320 0.440778
O O12 0.670244 0.153349 0.632103
O O13 0.500000 0.500000 0.000000
O O14 0.491270 0.157681 0.132925
O O15 0.345671 0.530497 0.717385
O O16 0.016434 0.156962 0.975093
#
# Coordination Sequence:
#
# PCOD9047833 Si02
#       8
#     2   1   2   2   2   2   2   2
#     4  11  25  40  63  97 132 173 222 274 333 391
#     4  10  24  44  70  98 132 170 224 276 334 398
#     4  12  23  41  64  93 130 174 217 274 325 395
#     4  11  24  42  63  94 134 175 218 274 333 399
#     4  11  22  45  71  97 132 178 218 278 337 394
#     4  11  24  42  68  97 128 178 219 280 332 391
#     4  11  23  42  67  96 129 175 218 269 339 393
#     4  12  23  41  69  98 129 176 227 268 334 396
#
# _framework density 25.847311999999999
#
# number of rings (size 3 to 8) (size 9 to 14) (size 15 to 20)
#    0.000    0.800    6.667    0.800    5.600    1.067 
#    0.000    4.000    0.000    0.000    0.000    0.000 
#    0.000    0.000    0.000    0.000    0.000    0.000 
#
# Total GULP energy -83610.479969 kJ/mol
# GULP energy per Si atom -5574.031998 kJ/mol
# Density = 2.578848 g / cm^3
# Si number density = 25.847312 Si / 1000 Ang^3
#
#
#
# Elastic Constant Matrix: (Units=GPa)
#
#
# Indices 1 2 3 4 5 6 
#
# 1 98.0974 27.3502 -0.9774 1.9199 -8.9078 6.7373
# 2 27.3502 117.1959 15.7787 -1.3470 -14.0461 8.8075
# 3 -0.9774 15.7787 45.6639 2.7055 -10.6272 3.9405
# 4 1.9199 -1.3470 2.7055 32.7556 -1.2459 -8.7568
# 5 -8.9078 -14.0461 -10.6272 -1.2459 26.5848 -1.5434
# 6 6.7373 8.8075 3.9405 -8.7568 -1.5434 56.5883
#
#
#
# Elastic Compliance Matrix: (Units=1/GPa)
#
#
# Indices 1 2 3 4 5 6 
#
# 1 0.011287 -0.002447 0.001993 -0.001124 0.003164 -0.001189
# 2 -0.002447 0.009938 -0.002672 0.000666 0.003343 -0.000875
# 3 0.001993 -0.002672 0.025286 -0.002424 0.009151 -0.001708
# 4 -0.001124 0.000666 -0.002424 0.032247 0.000820 0.005211
# 5 0.003164 0.003343 0.009151 0.000820 0.044127 -0.000204
# 6 -0.001189 -0.000875 -0.001708 0.005211 -0.000204 0.018869
#
#
# Mechanical properties :
#
#
# Convention : Reuss Voigt Hill
#
# Bulk Modulus (GPa) = 24.83984 38.36226 31.60105
# Shear Modulus (GPa) = 30.97420 37.77280 34.37350
#
# Velocity S-wave (km/s) = 3.46548 3.82695 3.65069
# Velocity P-wave (km/s) = 5.06397 5.86528 5.47929
#
# Compressibility (1/GPa) = 0.04025791
#
# Stress axis : x y z
#
# Youngs Moduli (GPa) = 88.59782 100.62859 39.54797
#
# Poissons Ratio (x) = 0.24620 -0.07880
# Poissons Ratio (y) = 0.21677 0.10568
# Poissons Ratio (z) = -0.17654 0.26889
#
# Static dielectric constant tensor:
#      x y z
#    x 1.988500 0.069070 -0.026990 
#    y 0.069070 2.213430 0.015930 
#    z -0.026990 0.015930 2.069750 
# 
# From -- ./inp_files/535701.got.cif
#   From: 2010.05.17/outbox.cif.g08.bks.cpg/sg2_268_cif.got.tgz:535701.got - 2010.06.03 11:33:40.
