data_PCOD9047897
_publ_section_title
;
Structure prediction by ZEFSAII (Michael W. Deem and Ramdas Pophale) SiO2 
 PCOD9047897
Probable space group: P -1
;
_chemical_formula_sum "Si O2"
_cell_formula_units_Z 14
_cell_length_a 11.142807
_cell_length_b 11.060953
_cell_length_c 14.227969
_cell_angle_alpha 150.815730
_cell_angle_beta 45.959426
_cell_angle_gamma 125.434014
_cell_volume 612.831785
_symmetry_space_group_name_H-M "P -1"
_symmetry_group_IT_number 2
_symmetry_cell_setting 'triclinic'
loop_
_space_group_symop_operation_xyz
x,y,z
-x,-y,-z
loop_
_atom_site_type_symbol
_atom_site_label
_atom_site_fract_x
_atom_site_fract_y
_atom_site_fract_z
Si Si1 0.014130 0.272496 0.632578
Si Si2 0.542190 0.333783 0.133722
Si Si3 0.823339 0.245201 0.077129
Si Si4 0.636517 0.310521 0.849584
Si Si5 0.523264 0.082170 0.437445
Si Si6 0.840369 0.178905 0.234613
Si Si7 0.169542 0.261811 0.341517
O O1 0.826536 0.367826 0.767035
O O2 0.076303 0.505641 0.815682
O O3 0.135668 0.227235 0.446686
O O4 0.000000 0.000000 0.500000
O O5 0.680590 0.265310 0.089857
O O6 0.506826 0.627360 0.357990
O O7 0.363337 0.231828 0.183799
O O8 0.602429 0.288107 0.963508
O O9 0.760867 0.246492 0.220351
O O10 0.913922 0.967847 0.819778
O O11 0.607845 0.047134 0.641737
O O12 0.500000 0.500000 0.000000
O O13 0.711508 0.028284 0.261241
O O14 0.500000 0.000000 0.500000
O O15 0.879636 0.439938 0.439673
O O16 0.000000 0.000000 0.000000
#
# Coordination Sequence:
#
# PCOD9047897 Si02
#       7
#     2   2   2   2   2   2   2
#     4  11  26  45  69 108 146 189 237 301 356 429
#     4  11  24  46  74 107 140 190 239 295 361 435
#     4  11  24  45  75 104 148 187 240 298 363 427
#     4  12  26  44  70 102 147 184 240 295 359 427
#     4  11  24  44  71 103 139 187 234 291 360 426
#     4  10  25  44  70 104 142 183 240 295 353 422
#     4  10  24  44  71 105 138 189 239 290 359 423
#
# _framework density 22.844767000000001
#
# number of rings (size 3 to 8) (size 9 to 14) (size 15 to 20)
#    0.000    1.143    1.429    3.000    4.000   12.571 
#    0.000    0.000    0.000    0.000    0.000    0.000 
#    0.000    0.000    0.000    0.000    0.000    0.000 
#
# Total GULP energy -78221.164382 kJ/mol
# GULP energy per Si atom -5587.226027 kJ/mol
# Density = 2.279277 g / cm^3
# Si number density = 22.844767 Si / 1000 Ang^3
#
#
#
# Elastic Constant Matrix: (Units=GPa)
#
#
# Indices 1 2 3 4 5 6 
#
# 1 93.3335 30.2040 38.1819 2.6109 12.1116 -2.7623
# 2 30.2040 114.6572 31.9419 18.4271 7.4908 -0.6151
# 3 38.1819 31.9419 93.6518 16.1798 21.0386 13.8859
# 4 2.6109 18.4271 16.1798 52.3233 3.3238 19.9552
# 5 12.1116 7.4908 21.0386 3.3238 46.4498 10.4946
# 6 -2.7623 -0.6151 13.8859 19.9552 10.4946 26.2999
#
#
#
# Elastic Compliance Matrix: (Units=1/GPa)
#
#
# Indices 1 2 3 4 5 6 
#
# 1 0.013949 -0.002010 -0.005267 -0.000205 -0.002085 0.005186
# 2 -0.002010 0.010883 -0.002650 -0.004991 -0.000940 0.005604
# 3 -0.005267 -0.002650 0.015717 -0.000837 -0.003724 -0.006792
# 4 -0.000205 -0.004991 -0.000837 0.030157 0.004595 -0.024412
# 5 -0.002085 -0.000940 -0.003724 0.004595 0.026355 -0.012278
# 6 0.005186 0.005604 -0.006792 -0.024412 -0.012278 0.065707
#
#
# Mechanical properties :
#
#
# Convention : Reuss Voigt Hill
#
# Bulk Modulus (GPa) = 48.31987 55.81091 52.06539
# Shear Modulus (GPa) = 26.38234 38.43557 32.40895
#
# Velocity S-wave (km/s) = 3.40200 4.10624 3.77060
# Velocity P-wave (km/s) = 6.05217 6.85311 6.46506
#
# Compressibility (1/GPa) = 0.02069542
#
# Stress axis : x y z
#
# Youngs Moduli (GPa) = 71.68909 91.88645 63.62506
#
# Poissons Ratio (x) = 0.18473 0.33509
# Poissons Ratio (y) = 0.14413 0.16860
# Poissons Ratio (z) = 0.37756 0.24348
#
# Static dielectric constant tensor:
#      x y z
#    x 1.858450 -0.031960 -0.029140 
#    y -0.031960 1.822700 0.090050 
#    z -0.029140 0.090050 1.854020 
# 
# From -- ./inp_files/519316.got.cif
#   From: 2010.05.17/outbox.cif.g08.bks.cpg/sg2_260_cif.got.tgz:519316.got - 2010.06.03 11:33:40.
