data_PCOD9047855
_publ_section_title
;
Structure prediction by ZEFSAII (Michael W. Deem and Ramdas Pophale) SiO2 
 PCOD9047855
Probable space group: P -1
;
_chemical_formula_sum "Si O2"
_cell_formula_units_Z 12
_cell_length_a 19.732181
_cell_length_b 17.853100
_cell_length_c 14.104213
_cell_angle_alpha 20.685636
_cell_angle_beta 160.144554
_cell_angle_gamma 158.424168
_cell_volume 541.859352
_symmetry_space_group_name_H-M "P -1"
_symmetry_group_IT_number 2
_symmetry_cell_setting 'triclinic'
loop_
_space_group_symop_operation_xyz
x,y,z
-x,-y,-z
loop_
_atom_site_type_symbol
_atom_site_label
_atom_site_fract_x
_atom_site_fract_y
_atom_site_fract_z
Si Si1 0.012164 0.647089 0.749503
Si Si2 0.756441 0.870486 0.873701
Si Si3 0.596047 0.498182 0.255363
Si Si4 0.759718 0.324438 0.358611
Si Si5 0.654147 0.384268 0.934721
Si Si6 0.340779 0.119936 0.684775
O O1 0.769179 0.546093 0.508107
O O2 0.107495 0.916905 0.589027
O O3 0.169390 0.609773 0.920549
O O4 0.000000 0.500000 0.000000
O O5 0.558041 0.766680 0.660432
O O6 0.724439 0.072588 0.648186
O O7 0.731692 0.649551 0.165404
O O8 0.000000 0.000000 0.000000
O O9 0.421275 0.599437 0.930530
O O10 0.000000 0.500000 0.500000
O O11 0.729840 0.323518 0.206425
O O12 0.421534 0.196456 0.808697
O O13 0.639440 0.635188 0.623814
O O14 0.500000 0.000000 0.000000
#
# Coordination Sequence:
#
# PCOD9047855 Si02
#       6
#     2   2   2   2   2   2
#     4  11  26  43  69 102 141 181 233 292 350 418
#     4  11  24  48  71  98 143 187 231 291 353 411
#     4  11  27  44  71 105 139 184 241 287 351 420
#     4  12  26  43  74 102 138 184 235 289 358 416
#     4  10  24  44  71 100 138 185 233 287 354 415
#     4   9  22  44  70  96 136 181 235 282 352 409
#
# _framework density 22.145968
#
# number of rings (size 3 to 8) (size 9 to 14) (size 15 to 20)
#    0.000    1.333    1.667    1.500   14.000    3.333 
#    0.000    0.000    0.000    0.000    0.000    0.000 
#    0.000    0.000    0.000    0.000    0.000    0.000 
#
# Total GULP energy -67020.340720 kJ/mol
# GULP energy per Si atom -5585.028393 kJ/mol
# Density = 2.209556 g / cm^3
# Si number density = 22.145968 Si / 1000 Ang^3
#
#
#
# Elastic Constant Matrix: (Units=GPa)
#
#
# Indices 1 2 3 4 5 6 
#
# 1 88.1656 32.6822 11.3561 7.2827 -10.4667 3.9542
# 2 32.6822 208.1655 58.0754 12.2626 -8.7435 -19.2414
# 3 11.3561 58.0754 82.1119 10.7924 -1.4904 -8.8092
# 4 7.2827 12.2626 10.7924 52.1676 -12.5488 2.7049
# 5 -10.4667 -8.7435 -1.4904 -12.5488 40.4754 9.6801
# 6 3.9542 -19.2414 -8.8092 2.7049 9.6801 31.8161
#
#
#
# Elastic Compliance Matrix: (Units=1/GPa)
#
#
# Indices 1 2 3 4 5 6 
#
# 1 0.012838 -0.002043 -0.000708 -0.000022 0.003849 -0.004196
# 2 -0.002043 0.006547 -0.003914 -0.000673 -0.000247 0.003262
# 3 -0.000708 -0.003914 0.015700 -0.002873 -0.002043 0.002933
# 4 -0.000022 -0.000673 -0.002873 0.022112 0.007911 -0.005486
# 5 0.003849 -0.000247 -0.002043 0.007911 0.030706 -0.011208
# 6 -0.004196 0.003262 0.002933 -0.005486 -0.011208 0.038614
#
#
# Mechanical properties :
#
#
# Convention : Reuss Voigt Hill
#
# Bulk Modulus (GPa) = 45.96711 64.74117 55.35414
# Shear Modulus (GPa) = 33.99060 43.31377 38.65218
#
# Velocity S-wave (km/s) = 3.92196 4.42728 4.18226
# Velocity P-wave (km/s) = 6.42732 7.44524 6.95493
#
# Compressibility (1/GPa) = 0.02175468
#
# Stress axis : x y z
#
# Youngs Moduli (GPa) = 77.89526 152.73111 63.69363
#
# Poissons Ratio (x) = 0.31202 0.04510
# Poissons Ratio (y) = 0.15913 0.24932
# Poissons Ratio (z) = 0.05515 0.59785
#
# Static dielectric constant tensor:
#      x y z
#    x 1.875170 -0.003410 0.013590 
#    y -0.003410 1.937290 -0.025050 
#    z 0.013590 -0.025050 1.825840 
# 
# From -- ./inp_files/286828.got.cif
#   From: 2010.05.17/outbox.cif.g08.bks.cpg/sg2_144_cif.got.tgz:286828.got - 2010.06.03 11:33:40.
