data_PCOD9047812
_publ_section_title
;
Structure prediction by ZEFSAII (Michael W. Deem and Ramdas Pophale) SiO2 
 PCOD9047812
Probable space group: P -1
;
_chemical_formula_sum "Si O2"
_cell_formula_units_Z 15
_cell_length_a 8.642907
_cell_length_b 11.220371
_cell_length_c 12.188596
_cell_angle_alpha 128.509866
_cell_angle_beta 64.374877
_cell_angle_gamma 137.185297
_cell_volume 627.950309
_symmetry_space_group_name_H-M "P -1"
_symmetry_group_IT_number 2
_symmetry_cell_setting 'triclinic'
loop_
_space_group_symop_operation_xyz
x,y,z
-x,-y,-z
loop_
_atom_site_type_symbol
_atom_site_label
_atom_site_fract_x
_atom_site_fract_y
_atom_site_fract_z
Si Si1 0.168694 0.645778 0.278251
Si Si2 0.424697 0.941059 0.702256
Si Si3 0.995684 0.287221 0.438411
Si Si4 0.615211 0.499142 0.736546
Si Si5 0.000000 0.500000 0.000000
Si Si6 0.738777 0.059751 0.856705
Si Si7 0.738713 0.893213 0.994028
Si Si8 0.888607 0.906909 0.362724
O O1 0.274086 0.555032 0.244235
O O2 0.983575 0.604960 0.395102
O O3 0.072802 0.557306 0.138394
O O4 0.368763 0.888964 0.342985
O O5 0.210589 0.757100 0.593547
O O6 0.534496 0.905750 0.746056
O O7 0.338079 0.043333 0.847775
O O8 0.215918 0.394065 0.357650
O O9 0.911359 0.071610 0.377865
O O10 0.600657 0.656011 0.887028
O O11 0.369480 0.295576 0.661687
O O12 0.223856 0.738318 0.032474
O O13 0.970995 0.139672 0.772149
O O14 0.723718 0.974307 0.930153
O O15 0.000000 0.000000 0.000000
O O16 0.000000 0.000000 0.500000
#
# Coordination Sequence:
#
# PCOD9047812 Si02
#       8
#     2   2   2   2   1   2   2   2
#     4  11  25  46  77 111 151 198 255 316 382 461
#     4  11  24  45  77 105 149 202 248 314 385 442
#     4  12  25  53  76 112 153 199 257 317 385 458
#     4  12  27  46  80 115 149 206 255 313 391 455
#     4  10  24  44  70 110 140 198 254 302 376 448
#     4  11  25  47  71 108 158 198 252 321 375 453
#     4  12  24  48  74 114 158 199 255 318 381 461
#     4  12  27  49  76 110 156 203 256 320 382 457
#
# _framework density 23.887239000000001
#
# number of rings (size 3 to 8) (size 9 to 14) (size 15 to 20)
#    0.000    0.533    4.000    3.600    5.600    1.067 
#    0.000    0.000    0.000    0.000    0.000    0.000 
#    0.000    0.000    0.000    0.000    0.000    0.000 
#
# Total GULP energy -83875.557803 kJ/mol
# GULP energy per Si atom -5591.703854 kJ/mol
# Density = 2.383287 g / cm^3
# Si number density = 23.887239 Si / 1000 Ang^3
#
#
#
# Elastic Constant Matrix: (Units=GPa)
#
#
# Indices 1 2 3 4 5 6 
#
# 1 91.5282 37.6535 37.6448 -5.3935 27.0966 -3.6770
# 2 37.6535 114.2314 43.4031 -3.3565 25.9701 6.0674
# 3 37.6448 43.4031 102.3174 -18.9327 26.6486 9.3236
# 4 -5.3935 -3.3565 -18.9327 36.5060 7.1529 1.4481
# 5 27.0966 25.9701 26.6486 7.1529 34.2001 -2.4747
# 6 -3.6770 6.0674 9.3236 1.4481 -2.4747 37.9709
#
#
#
# Elastic Compliance Matrix: (Units=1/GPa)
#
#
# Indices 1 2 3 4 5 6 
#
# 1 0.015778 -0.002245 -0.001872 0.003022 -0.009855 0.001589
# 2 -0.002245 0.011805 -0.002442 0.000651 -0.005556 -0.001891
# 3 -0.001872 -0.002442 0.017481 0.011333 -0.013042 -0.005366
# 4 0.003022 0.000651 0.011333 0.037915 -0.020036 -0.005346
# 5 -0.009855 -0.005556 -0.013042 -0.020036 0.056167 0.007561
# 6 0.001589 -0.001891 -0.005366 -0.005346 0.007561 0.028806
#
#
# Mechanical properties :
#
#
# Convention : Reuss Voigt Hill
#
# Bulk Modulus (GPa) = 31.30187 60.60888 45.95537
# Shear Modulus (GPa) = 26.08006 34.36044 30.22025
#
# Velocity S-wave (km/s) = 3.30782 3.79680 3.56071
# Velocity P-wave (km/s) = 5.26511 6.68198 6.01541
#
# Compressibility (1/GPa) = 0.03194698
#
# Stress axis : x y z
#
# Youngs Moduli (GPa) = 63.37767 84.71331 57.20511
#
# Poissons Ratio (x) = 0.19017 0.10708
# Poissons Ratio (y) = 0.14227 0.13969
# Poissons Ratio (z) = 0.11863 0.20686
#
# Static dielectric constant tensor:
#      x y z
#    x 1.953550 -0.007990 -0.066820 
#    y -0.007990 1.925760 0.038190 
#    z -0.066820 0.038190 1.881190 
# 
# From -- ./inp_files/393051.got.cif
#   From: 2010.05.17/outbox.cif.g08.bks.cpg/sg2_197_cif.got.tgz:393051.got - 2010.06.03 11:33:40.
