data_PCOD9047395
_publ_section_title
;
Structure prediction by ZEFSAII (Michael W. Deem and Ramdas Pophale) SiO2 
 PCOD9047395
Probable space group: P -1
;
_chemical_formula_sum "Si O2"
_cell_formula_units_Z 14
_cell_length_a 6.518857
_cell_length_b 9.817260
_cell_length_c 17.640104
_cell_angle_alpha 126.457492
_cell_angle_beta 124.275151
_cell_angle_gamma 45.376883
_cell_volume 624.953314
_symmetry_space_group_name_H-M "P -1"
_symmetry_group_IT_number 2
_symmetry_cell_setting 'triclinic'
loop_
_space_group_symop_operation_xyz
x,y,z
-x,-y,-z
loop_
_atom_site_type_symbol
_atom_site_label
_atom_site_fract_x
_atom_site_fract_y
_atom_site_fract_z
Si Si1 0.551342 0.042730 0.747849
Si Si2 0.250470 0.750311 0.787693
Si Si3 0.642599 0.542096 0.149732
Si Si4 0.247961 0.550804 0.570653
Si Si5 0.996635 0.282562 0.001870
Si Si6 0.256168 0.824258 0.545067
Si Si7 0.509917 0.961403 0.087645
O O1 0.367870 0.270267 0.751388
O O2 0.502784 0.071217 0.837729
O O3 0.442489 0.905467 0.648413
O O4 0.900972 0.924377 0.766237
O O5 0.307889 0.628011 0.837209
O O6 0.322214 0.594219 0.683051
O O7 0.419018 0.864448 0.849295
O O8 0.890304 0.441047 0.101502
O O9 0.314871 0.648221 0.078896
O O10 0.139184 0.749640 0.563227
O O11 0.536804 0.365693 0.528988
O O12 0.000000 0.500000 0.500000
O O13 0.191526 0.063894 0.013349
O O14 0.229648 0.239173 0.968585
O O15 0.000000 0.000000 0.500000
#
# Coordination Sequence:
#
# PCOD9047395 Si02
#       7
#     2   2   2   2   2   2   2
#     4  12  25  46  67 103 142 175 228 285 343 404
#     4  12  25  46  69 103 139 182 224 284 346 400
#     4  11  26  42  72 101 139 181 233 284 338 402
#     4  11  25  46  73 101 140 177 221 280 345 408
#     4  10  24  44  66 107 132 183 238 282 337 402
#     4  11  27  45  72 107 136 175 228 281 337 414
#     4  11  24  44  73  93 143 185 222 289 346 393
#
# _framework density 22.401674
#
# number of rings (size 3 to 8) (size 9 to 14) (size 15 to 20)
#    0.000    0.857    5.714    0.000    2.000   12.000 
#    0.000    0.000    0.000    0.000    0.000    0.000 
#    0.000    0.000    0.000    0.000    0.000    0.000 
#
# Total GULP energy -78313.338241 kJ/mol
# GULP energy per Si atom -5593.809874 kJ/mol
# Density = 2.235069 g / cm^3
# Si number density = 22.401674 Si / 1000 Ang^3
#
#
#
# Elastic Constant Matrix: (Units=GPa)
#
#
# Indices 1 2 3 4 5 6 
#
# 1 73.7409 26.3936 20.9831 5.8162 -6.6696 -2.4771
# 2 26.3936 104.1954 18.5047 7.7275 -1.7584 -2.5334
# 3 20.9831 18.5047 79.2585 11.0043 -13.3358 -0.2885
# 4 5.8162 7.7275 11.0043 38.1298 -0.4740 3.0318
# 5 -6.6696 -1.7584 -13.3358 -0.4740 40.1364 11.1721
# 6 -2.4771 -2.5334 -0.2885 3.0318 11.1721 46.1041
#
#
#
# Elastic Compliance Matrix: (Units=1/GPa)
#
#
# Indices 1 2 3 4 5 6 
#
# 1 0.015842 -0.003374 -0.003057 -0.000863 0.001354 0.000375
# 2 -0.003374 0.010833 -0.001593 -0.001286 -0.000822 0.000688
# 3 -0.003057 -0.001593 0.015056 -0.003413 0.004682 -0.001068
# 4 -0.000863 -0.001286 -0.003413 0.027744 -0.000493 -0.001843
# 5 0.001354 -0.000822 0.004682 -0.000493 0.028555 -0.006830
# 6 0.000375 0.000688 -0.001068 -0.001843 -0.006830 0.023518
#
#
# Mechanical properties :
#
#
# Convention : Reuss Voigt Hill
#
# Bulk Modulus (GPa) = 38.93763 43.21751 41.07757
# Shear Modulus (GPa) = 34.20984 37.62830 35.91907
#
# Velocity S-wave (km/s) = 3.91207 4.10287 4.00860
# Velocity P-wave (km/s) = 6.15020 6.46365 6.30887
#
# Compressibility (1/GPa) = 0.02568210
#
# Stress axis : x y z
#
# Youngs Moduli (GPa) = 63.12452 92.30906 66.41887
#
# Poissons Ratio (x) = 0.31144 0.20305
# Poissons Ratio (y) = 0.21298 0.10583
# Poissons Ratio (z) = 0.19298 0.14708
#
# Static dielectric constant tensor:
#      x y z
#    x 1.783170 -0.006320 -0.043640 
#    y -0.006320 1.813570 -0.008230 
#    z -0.043640 -0.008230 1.793320 
# 
# From -- ./inp_files/106149.got.cif
#   From: 2010.05.17/outbox.cif.g08.bks.cpg/sg2_54_cif.got.tgz:106149.got - 2010.06.03 11:33:40.
