data_PCOD9047379
_publ_section_title
;
Structure prediction by ZEFSAII (Michael W. Deem and Ramdas Pophale) SiO2 
 PCOD9047379
Probable space group: P -1
;
_chemical_formula_sum "Si O2"
_cell_formula_units_Z 16
_cell_length_a 24.709236
_cell_length_b 5.605292
_cell_length_c 6.231888
_cell_angle_alpha 100.742617
_cell_angle_beta 118.039161
_cell_angle_gamma 62.860436
_cell_volume 677.513034
_symmetry_space_group_name_H-M "P -1"
_symmetry_group_IT_number 2
_symmetry_cell_setting 'triclinic'
loop_
_space_group_symop_operation_xyz
x,y,z
-x,-y,-z
loop_
_atom_site_type_symbol
_atom_site_label
_atom_site_fract_x
_atom_site_fract_y
_atom_site_fract_z
Si Si1 0.145516 0.266530 0.698149
Si Si2 0.103414 0.737017 0.020298
Si Si3 0.425794 0.101859 0.279315
Si Si4 0.246380 0.874097 0.087963
Si Si5 0.038013 0.257559 0.187959
Si Si6 0.783273 0.667194 0.554018
Si Si7 0.322312 0.460458 0.496221
Si Si8 0.378661 0.644618 0.001923
O O1 0.136647 0.531089 0.855738
O O2 0.075626 0.312458 0.466434
O O3 0.201159 0.218304 0.612487
O O4 0.175858 0.996795 0.850803
O O5 0.023696 0.805600 0.859189
O O6 0.145010 0.566650 0.276018
O O7 0.096383 0.030639 0.115940
O O8 0.373772 0.227798 0.403032
O O9 0.414180 0.347005 0.130732
O O10 0.500000 0.000000 0.500000
O O11 0.414707 0.847427 0.123343
O O12 0.263087 0.639233 0.250849
O O13 0.309111 0.785559 0.030167
O O14 0.241671 0.119679 0.266436
O O15 0.000000 0.500000 0.000000
O O16 0.720046 0.594384 0.401563
O O17 0.362299 0.606955 0.717340
#
# Coordination Sequence:
#
# PCOD9047379 Si02
#       8
#     2   2   2   2   2   2   2   2
#     4  11  24  44  71  97 135 183 231 294 366 417
#     4  10  25  43  64  97 131 176 233 287 356 430
#     4  11  26  49  74 113 153 194 247 297 353 433
#     4  10  24  44  66 102 143 181 238 293 360 427
#     4  11  23  47  65  92 134 179 232 292 351 434
#     4  11  23  44  66 104 139 176 238 296 358 431
#     4  11  26  44  72 104 151 187 240 299 355 434
#     4  11  25  44  78 106 147 200 238 298 368 420
#
# _framework density 23.615780000000001
#
# number of rings (size 3 to 8) (size 9 to 14) (size 15 to 20)
#    0.000    1.250    2.500    1.500    7.000    2.500 
#    2.250    0.000    0.000    0.000    0.000    0.000 
#    0.000    0.000    0.000    0.000    0.000    0.000 
#
# Total GULP energy -89385.620924 kJ/mol
# GULP energy per Si atom -5586.601308 kJ/mol
# Density = 2.356203 g / cm^3
# Si number density = 23.615780 Si / 1000 Ang^3
#
#
#
# Elastic Constant Matrix: (Units=GPa)
#
#
# Indices 1 2 3 4 5 6 
#
# 1 58.2502 22.2801 29.1464 -3.1456 16.5487 7.8020
# 2 22.2801 117.1509 59.6702 -11.5878 12.8859 -0.3646
# 3 29.1464 59.6702 132.4854 0.3898 17.3604 0.0701
# 4 -3.1456 -11.5878 0.3898 41.4749 4.8597 12.1553
# 5 16.5487 12.8859 17.3604 4.8597 26.4174 3.5869
# 6 7.8020 -0.3646 0.0701 12.1553 3.5869 26.1382
#
#
#
# Elastic Compliance Matrix: (Units=1/GPa)
#
#
# Indices 1 2 3 4 5 6 
#
# 1 0.024039 -0.001086 -0.003196 0.005330 -0.012328 -0.007969
# 2 -0.001086 0.011825 -0.004766 0.003837 -0.002535 -0.000935
# 3 -0.003196 -0.004766 0.010751 -0.001993 -0.002664 0.002151
# 4 0.005330 0.003837 -0.001993 0.030840 -0.007560 -0.014836
# 5 -0.012328 -0.002535 -0.002664 -0.007560 0.049911 0.000318
# 6 -0.007969 -0.000935 0.002151 -0.014836 0.000318 0.047474
#
#
# Mechanical properties :
#
#
# Convention : Reuss Voigt Hill
#
# Bulk Modulus (GPa) = 35.06135 58.89778 46.97956
# Shear Modulus (GPa) = 24.69835 31.92539 28.31187
#
# Velocity S-wave (km/s) = 3.23746 3.68076 3.46620
# Velocity P-wave (km/s) = 5.37156 6.56187 5.99632
#
# Compressibility (1/GPa) = 0.02852144
#
# Stress axis : x y z
#
# Youngs Moduli (GPa) = 41.59907 84.56336 93.01167
#
# Poissons Ratio (x) = 0.09182 0.29723
# Poissons Ratio (y) = 0.04517 0.44328
# Poissons Ratio (z) = 0.13293 0.40301
#
# Static dielectric constant tensor:
#      x y z
#    x 1.944960 0.065890 0.035160 
#    y 0.065890 1.933560 0.047100 
#    z 0.035160 0.047100 2.164800 
# 
# From -- ./inp_files/10632.got.cif
#   From: 2010.05.17/outbox.cif.g08.bks.cpg/sg2_6_cif.got.tgz:10632.got - 2010.06.03 11:33:40.
