data_PCOD9047791
_publ_section_title
;
Structure prediction by ZEFSAII (Michael W. Deem and Ramdas Pophale) SiO2 
 PCOD9047791
Probable space group: P -1
;
_chemical_formula_sum "Si O2"
_cell_formula_units_Z 12
_cell_length_a 12.181950
_cell_length_b 5.107427
_cell_length_c 9.690205
_cell_angle_alpha 99.864486
_cell_angle_beta 96.198383
_cell_angle_gamma 68.388570
_cell_volume 551.576467
_symmetry_space_group_name_H-M "P -1"
_symmetry_group_IT_number 2
_symmetry_cell_setting 'triclinic'
loop_
_space_group_symop_operation_xyz
x,y,z
-x,-y,-z
loop_
_atom_site_type_symbol
_atom_site_label
_atom_site_fract_x
_atom_site_fract_y
_atom_site_fract_z
Si Si1 0.931329 0.285286 0.937393
Si Si2 0.198536 0.332954 0.586770
Si Si3 0.042025 0.726198 0.380531
Si Si4 0.714884 0.518405 0.123609
Si Si5 0.575438 0.131260 0.116335
Si Si6 0.441424 0.824694 0.568856
O O1 0.927291 0.234329 0.768828
O O2 0.805094 0.381319 0.002623
O O3 0.000000 0.500000 0.000000
O O4 0.000000 0.000000 0.000000
O O5 0.151783 0.485462 0.448455
O O6 0.247029 0.519544 0.713278
O O7 0.076689 0.348451 0.644310
O O8 0.300155 0.018883 0.557016
O O9 0.000000 0.000000 0.500000
O O10 0.610469 0.391449 0.091445
O O11 0.691359 0.851441 0.128740
O O12 0.522833 0.187562 0.267088
O O13 0.500000 0.000000 0.000000
O O14 0.500000 0.500000 0.500000
O O15 0.500000 0.000000 0.500000
#
# Coordination Sequence:
#
# PCOD9047791 Si02
#       6
#     2   2   2   2   2   2
#     4  12  25  44  70 105 143 184 239 282 356 436
#     4  10  24  44  70 104 145 189 240 290 371 419
#     4  11  25  43  71 107 147 189 234 301 350 441
#     4  11  23  44  73  97 138 189 226 291 355 423
#     4  11  25  47  70  99 137 180 236 296 355 414
#     4  11  25  45  73 101 137 188 239 299 355 425
#
# _framework density 21.755821000000001
#
# number of rings (size 3 to 8) (size 9 to 14) (size 15 to 20)
#    0.000    1.000    1.667    4.500   11.667    1.333 
#    3.000    0.000    0.000    0.000    0.000    0.000 
#    0.000    0.000    0.000    0.000    0.000    0.000 
#
# Total GULP energy -66961.141868 kJ/mol
# GULP energy per Si atom -5580.095156 kJ/mol
# Density = 2.170630 g / cm^3
# Si number density = 21.755821 Si / 1000 Ang^3
#
#
#
# Elastic Constant Matrix: (Units=GPa)
#
#
# Indices 1 2 3 4 5 6 
#
# 1 86.5483 32.0389 53.8899 -4.1022 5.1371 11.0191
# 2 32.0389 132.1930 71.7170 2.4909 -4.5167 2.7683
# 3 53.8899 71.7170 194.3089 4.4469 -14.5335 -12.4577
# 4 -4.1022 2.4909 4.4469 34.9953 2.1866 2.1876
# 5 5.1371 -4.5167 -14.5335 2.1866 44.0152 0.7596
# 6 11.0191 2.7683 -12.4577 2.1876 0.7596 38.3536
#
#
#
# Elastic Compliance Matrix: (Units=1/GPa)
#
#
# Indices 1 2 3 4 5 6 
#
# 1 0.016161 -0.001423 -0.004698 0.003206 -0.003636 -0.006177
# 2 -0.001423 0.009717 -0.003259 -0.000369 0.000128 -0.001333
# 3 -0.004698 -0.003259 0.008188 -0.001811 0.002933 0.004290
# 4 0.003206 -0.000369 -0.001811 0.029554 -0.002424 -0.003120
# 5 -0.003636 0.000128 0.002933 -0.002424 0.024218 0.001647
# 6 -0.006177 -0.001333 0.004290 -0.003120 0.001647 0.029483
#
#
# Mechanical properties :
#
#
# Convention : Reuss Voigt Hill
#
# Bulk Modulus (GPa) = 65.33819 80.92688 73.13254
# Shear Modulus (GPa) = 35.41511 40.49978 37.95745
#
# Velocity S-wave (km/s) = 4.03903 4.31926 4.18150
# Velocity P-wave (km/s) = 7.20065 7.88373 7.54992
#
# Compressibility (1/GPa) = 0.01530499
#
# Stress axis : x y z
#
# Youngs Moduli (GPa) = 61.87874 102.91245 122.12734
#
# Poissons Ratio (x) = 0.14647 0.57376
# Poissons Ratio (y) = 0.08807 0.39802
# Poissons Ratio (z) = 0.29071 0.33540
#
# Static dielectric constant tensor:
#      x y z
#    x 1.838630 -0.030810 0.087010 
#    y -0.030810 1.923510 -0.130660 
#    z 0.087010 -0.130660 2.052590 
# 
# From -- ./inp_files/18375.got.cif
#   From: 2010.05.17/outbox.cif.g08.bks.cpg/sg2_10_cif.got.tgz:18375.got - 2010.06.03 11:33:40.
