data_PCOD9047503
_publ_section_title
;
Structure prediction by ZEFSAII (Michael W. Deem and Ramdas Pophale) SiO2 
 PCOD9047503
Probable space group: P -1
;
_chemical_formula_sum "Si O2"
_cell_formula_units_Z 14
_cell_length_a 24.119144
_cell_length_b 8.494902
_cell_length_c 11.600861
_cell_angle_alpha 141.821346
_cell_angle_beta 28.788561
_cell_angle_gamma 151.832164
_cell_volume 539.394634
_symmetry_space_group_name_H-M "P -1"
_symmetry_group_IT_number 2
_symmetry_cell_setting 'triclinic'
loop_
_space_group_symop_operation_xyz
x,y,z
-x,-y,-z
loop_
_atom_site_type_symbol
_atom_site_label
_atom_site_fract_x
_atom_site_fract_y
_atom_site_fract_z
Si Si1 0.137757 0.801211 0.001876
Si Si2 0.264162 0.438343 0.573002
Si Si3 0.282687 0.353694 0.874810
Si Si4 0.727308 0.655184 0.759813
Si Si5 0.206278 0.791126 0.530282
Si Si6 0.018338 0.297183 0.259759
Si Si7 0.540416 0.694621 0.773257
O O1 0.251669 0.723523 0.751952
O O2 0.183735 0.116576 0.026424
O O3 0.000000 0.500000 0.000000
O O4 0.164551 0.966623 0.173702
O O5 0.293660 0.368060 0.351671
O O6 0.393946 0.499557 0.451485
O O7 0.102414 0.095263 0.711660
O O8 0.440833 0.627538 0.805171
O O9 0.287344 0.110374 0.647727
O O10 0.187071 0.430948 0.028626
O O11 0.803276 0.492422 0.556450
O O12 0.568606 0.427776 0.988731
O O13 0.046960 0.689743 0.732991
O O14 0.306191 0.924815 0.307961
O O15 0.000000 0.500000 0.500000
#
# Coordination Sequence:
#
# PCOD9047503 Si02
#       7
#     2   2   2   2   2   2   2
#     4  11  23  42  67  99 138 171 223 278 334 395
#     4  11  24  46  68  98 137 176 222 276 334 398
#     4  11  22  43  69  99 135 177 221 279 333 394
#     4  11  24  43  72  97 133 182 225 272 335 394
#     4  11  23  43  69  98 133 179 225 275 335 396
#     4  11  24  43  67  99 133 171 226 276 331 402
#     4  10  24  44  67  98 136 177 225 276 330 396
#
# _framework density 25.955020999999999
#
# number of rings (size 3 to 8) (size 9 to 14) (size 15 to 20)
#    0.000    1.143    2.857    3.429    0.000    5.143 
#    7.714    0.000    0.000    0.000    0.000    0.000 
#    0.000    0.000    0.000    0.000    0.000    0.000 
#
# Total GULP energy -78290.323236 kJ/mol
# GULP energy per Si atom -5592.165945 kJ/mol
# Density = 2.589595 g / cm^3
# Si number density = 25.955021 Si / 1000 Ang^3
#
#
#
# Elastic Constant Matrix: (Units=GPa)
#
#
# Indices 1 2 3 4 5 6 
#
# 1 105.1262 22.5580 53.9871 0.8498 -38.8894 9.4630
# 2 22.5580 75.9029 29.7156 -5.6466 -3.3267 5.0257
# 3 53.9871 29.7156 125.9969 15.8138 -24.5356 21.8782
# 4 0.8498 -5.6466 15.8138 44.4634 3.2030 5.3879
# 5 -38.8894 -3.3267 -24.5356 3.2030 60.1307 -1.3698
# 6 9.4630 5.0257 21.8782 5.3879 -1.3698 28.5414
#
#
#
# Elastic Compliance Matrix: (Units=1/GPa)
#
#
# Indices 1 2 3 4 5 6 
#
# 1 0.015264 -0.002395 -0.004311 0.000493 0.007930 -0.001047
# 2 -0.002395 0.015402 -0.003481 0.003406 -0.002299 -0.000003
# 3 -0.004311 -0.003481 0.012772 -0.004239 0.002301 -0.006837
# 4 0.000493 0.003406 -0.004239 0.024892 -0.002602 -0.002337
# 5 0.007930 -0.002299 0.002301 -0.002602 0.022655 -0.002410
# 6 -0.001047 -0.000003 -0.006837 -0.002337 -0.002410 0.040951
#
#
# Mechanical properties :
#
#
# Convention : Reuss Voigt Hill
#
# Bulk Modulus (GPa) = 43.35720 57.72750 50.54235
# Shear Modulus (GPa) = 31.25017 40.01145 35.63081
#
# Velocity S-wave (km/s) = 3.47365 3.93054 3.70914
# Velocity P-wave (km/s) = 5.72969 6.54893 6.15296
#
# Compressibility (1/GPa) = 0.02306422
#
# Stress axis : x y z
#
# Youngs Moduli (GPa) = 65.51211 64.92639 78.29405
#
# Poissons Ratio (x) = 0.15550 0.33756
# Poissons Ratio (y) = 0.15690 0.27253
# Poissons Ratio (z) = 0.28245 0.22600
#
# Static dielectric constant tensor:
#      x y z
#    x 2.066700 0.025800 0.061580 
#    y 0.025800 2.019000 -0.037130 
#    z 0.061580 -0.037130 2.100950 
# 
# From -- ./inp_files/456870.got.cif
#   From: 2010.05.17/outbox.cif.g08.bks.cpg/sg2_229_cif.got.tgz:456870.got - 2010.06.03 11:33:40.
