data_PCOD9047225
_publ_section_title
;
Structure prediction by ZEFSAII (Michael W. Deem and Ramdas Pophale) SiO2 
 PCOD9047225
Probable space group: P -1
;
_chemical_formula_sum "Si O2"
_cell_formula_units_Z 16
_cell_length_a 9.114753
_cell_length_b 9.097980
_cell_length_c 24.390023
_cell_angle_alpha 130.370922
_cell_angle_beta 28.986482
_cell_angle_gamma 129.581609
_cell_volume 732.964223
_symmetry_space_group_name_H-M "P -1"
_symmetry_group_IT_number 2
_symmetry_cell_setting 'triclinic'
loop_
_space_group_symop_operation_xyz
x,y,z
-x,-y,-z
loop_
_atom_site_type_symbol
_atom_site_label
_atom_site_fract_x
_atom_site_fract_y
_atom_site_fract_z
Si Si1 0.294167 0.507490 0.368266
Si Si2 0.275194 0.879119 0.389165
Si Si3 0.347448 0.776245 0.216728
Si Si4 0.560040 0.892866 0.821486
Si Si5 0.282780 0.752353 0.635656
Si Si6 0.054463 0.296318 0.957626
Si Si7 0.364599 0.435130 0.618038
Si Si8 0.166096 0.001342 0.135130
O O1 0.256401 0.672291 0.375971
O O2 0.310959 0.299772 0.285045
O O3 0.558868 0.552560 0.339570
O O4 0.000000 0.500000 0.500000
O O5 0.344719 0.843705 0.295856
O O6 0.531030 0.027021 0.374212
O O7 0.000000 0.000000 0.500000
O O8 0.633383 0.662255 0.098153
O O9 0.994573 0.671123 0.295457
O O10 0.454382 0.967158 0.190946
O O11 0.781630 0.031730 0.825718
O O12 0.230437 0.808891 0.936946
O O13 0.389986 0.638748 0.625197
O O14 0.390482 0.661104 0.522157
O O15 0.944022 0.788137 0.772669
O O16 0.047551 0.152117 0.871892
O O17 0.000000 0.500000 0.000000
O O18 0.500000 0.000000 0.000000
#
# Coordination Sequence:
#
# PCOD9047225 Si02
#       8
#     2   2   2   2   2   2   2   2
#     4  12  27  46  70 104 144 186 240 298 357 428
#     4  12  24  43  70 100 141 188 234 288 361 424
#     4  12  25  44  70 103 144 186 238 295 357 431
#     4  11  26  46  70 104 144 183 244 293 358 422
#     4  11  23  44  71 100 149 180 240 294 362 426
#     4  11  25  47  74 105 141 191 241 294 363 429
#     4  11  27  42  73 109 139 190 241 295 368 422
#     4  10  24  43  74  99 139 189 239 287 363 420
#
# _framework density 21.829170000000001
#
# number of rings (size 3 to 8) (size 9 to 14) (size 15 to 20)
#    0.000    0.750    2.500    4.125    8.750    0.500 
#    0.000    1.250    0.000    0.000    0.000    0.000 
#    0.000    0.000    0.000    0.000    0.000    0.000 
#
# Total GULP energy -89163.099562 kJ/mol
# GULP energy per Si atom -5572.693723 kJ/mol
# Density = 2.177949 g / cm^3
# Si number density = 21.829170 Si / 1000 Ang^3
#
#
#
# Elastic Constant Matrix: (Units=GPa)
#
#
# Indices 1 2 3 4 5 6 
#
# 1 144.5804 52.9502 54.9067 0.3501 6.8291 -14.8635
# 2 52.9502 102.0066 42.8966 0.5871 1.8833 -26.2089
# 3 54.9067 42.8966 123.7492 8.7993 -9.4244 -4.9410
# 4 0.3501 0.5871 8.7993 30.3088 0.7055 -3.3804
# 5 6.8291 1.8833 -9.4244 0.7055 43.4876 -6.8764
# 6 -14.8635 -26.2089 -4.9410 -3.3804 -6.8764 53.5460
#
#
#
# Elastic Compliance Matrix: (Units=1/GPa)
#
#
# Indices 1 2 3 4 5 6 
#
# 1 0.009550 -0.003438 -0.003250 0.000999 -0.001996 0.000475
# 2 -0.003438 0.014518 -0.003362 0.001395 0.000100 0.005943
# 3 -0.003250 -0.003362 0.011092 -0.003337 0.002898 -0.001363
# 4 0.000999 0.001395 -0.003337 0.034247 -0.001073 0.002677
# 5 -0.001996 0.000100 0.002898 -0.001073 0.024397 0.002827
# 6 0.000475 0.005943 -0.001363 0.002677 0.002827 0.022123
#
#
# Mechanical properties :
#
#
# Convention : Reuss Voigt Hill
#
# Bulk Modulus (GPa) = 66.39226 74.64927 70.52076
# Shear Modulus (GPa) = 35.44919 40.10731 37.77825
#
# Velocity S-wave (km/s) = 4.03418 4.29106 4.16460
# Velocity P-wave (km/s) = 7.22357 7.66956 7.44990
#
# Compressibility (1/GPa) = 0.01506200
#
# Stress axis : x y z
#
# Youngs Moduli (GPa) = 104.70658 68.87801 90.15679
#
# Poissons Ratio (x) = 0.23677 0.29301
# Poissons Ratio (y) = 0.35994 0.30309
# Poissons Ratio (z) = 0.34029 0.23155
#
# Static dielectric constant tensor:
#      x y z
#    x 1.892410 0.047000 -0.111580 
#    y 0.047000 1.768200 -0.024260 
#    z -0.111580 -0.024260 1.920540 
# 
# From -- ./inp_files/271323.got.cif
#   From: 2010.05.17/outbox.cif.g08.bks.cpg/sg2_136_cif.got.tgz:271323.got - 2010.06.03 11:33:40.
