data_PCOD9047459
_publ_section_title
;
Structure prediction by ZEFSAII (Michael W. Deem and Ramdas Pophale) SiO2 
 PCOD9047459
Probable space group: P -1
;
_chemical_formula_sum "Si O2"
_cell_formula_units_Z 15
_cell_length_a 16.280081
_cell_length_b 8.882387
_cell_length_c 5.222855
_cell_angle_alpha 123.727488
_cell_angle_beta 73.967208
_cell_angle_gamma 104.686099
_cell_volume 598.945839
_symmetry_space_group_name_H-M "P -1"
_symmetry_group_IT_number 2
_symmetry_cell_setting 'triclinic'
loop_
_space_group_symop_operation_xyz
x,y,z
-x,-y,-z
loop_
_atom_site_type_symbol
_atom_site_label
_atom_site_fract_x
_atom_site_fract_y
_atom_site_fract_z
Si Si1 0.067607 0.250480 0.170276
Si Si2 0.782397 0.729675 0.558739
Si Si3 0.674170 0.374167 0.340541
Si Si4 0.693345 0.008671 0.169709
Si Si5 0.845456 0.035255 0.427521
Si Si6 0.568177 0.383270 0.954261
Si Si7 0.930868 0.400157 0.766165
Si Si8 0.500000 0.000000 0.500000
O O1 0.125467 0.228960 0.346956
O O2 0.111596 0.429933 0.149068
O O3 0.978574 0.311039 0.402232
O O4 0.073882 0.068774 0.830839
O O5 0.758380 0.515140 0.355157
O O6 0.787164 0.864577 0.444299
O O7 0.711794 0.811432 0.871721
O O8 0.681540 0.159651 0.103395
O O9 0.640799 0.386716 0.672621
O O10 0.607901 0.434937 0.244692
O O11 0.781904 0.089880 0.313102
O O12 0.605689 0.990565 0.386010
O O13 0.875218 0.215548 0.737313
O O14 0.518404 0.181277 0.831738
O O15 0.500000 0.500000 0.000000
O O16 0.000000 0.500000 0.000000
#
# Coordination Sequence:
#
# PCOD9047459 Si02
#       8
#     2   2   2   2   2   2   2   1
#     4  10  24  44  67 104 141 187 231 297 351 445
#     4  11  25  42  72 100 141 186 239 296 358 433
#     4  11  26  43  69 102 141 186 239 296 365 427
#     4  10  25  45  68 102 137 191 237 302 355 440
#     4  11  25  44  71 100 144 188 240 291 368 430
#     4  11  25  43  70 101 138 184 238 302 364 435
#     4  11  24  44  72 104 142 183 236 294 359 436
#     4  10  24  46  70 100 142 184 244 296 366 416
#
# _framework density 25.044004000000001
#
# number of rings (size 3 to 8) (size 9 to 14) (size 15 to 20)
#    0.000    1.333    0.000    3.200    9.333   10.667 
#    0.000    0.000    0.000    0.000    0.000    0.000 
#    0.000    0.000    0.000    0.000    0.000    0.000 
#
# Total GULP energy -83519.838961 kJ/mol
# GULP energy per Si atom -5567.989264 kJ/mol
# Density = 2.498700 g / cm^3
# Si number density = 25.044004 Si / 1000 Ang^3
#
#
#
# Elastic Constant Matrix: (Units=GPa)
#
#
# Indices 1 2 3 4 5 6 
#
# 1 60.6400 11.9388 18.7891 0.5006 -9.5222 -14.0848
# 2 11.9388 84.2414 21.2147 20.0955 8.9307 -6.2770
# 3 18.7891 21.2147 65.1014 19.5606 -10.1701 1.1844
# 4 0.5006 20.0955 19.5606 43.3412 -1.9256 4.8783
# 5 -9.5222 8.9307 -10.1701 -1.9256 47.5041 3.4213
# 6 -14.0848 -6.2770 1.1844 4.8783 3.4213 40.1048
#
#
#
# Elastic Compliance Matrix: (Units=1/GPa)
#
#
# Indices 1 2 3 4 5 6 
#
# 1 0.020613 -0.001915 -0.005791 0.002656 0.002889 0.006541
# 2 -0.001915 0.015083 -0.003295 -0.006004 -0.004376 0.002889
# 3 -0.005791 -0.003295 0.020979 -0.007411 0.003836 -0.002595
# 4 0.002656 -0.006004 -0.007411 0.029635 0.001529 -0.003523
# 5 0.002889 -0.004376 0.003836 0.001529 0.023478 -0.001973
# 6 0.006541 0.002889 -0.002595 -0.003523 -0.001973 0.028358
#
#
# Mechanical properties :
#
#
# Convention : Reuss Voigt Hill
#
# Bulk Modulus (GPa) = 28.84016 34.87422 31.85719
# Shear Modulus (GPa) = 29.11965 36.72604 32.92284
#
# Velocity S-wave (km/s) = 3.41360 3.83359 3.62967
# Velocity P-wave (km/s) = 5.20362 5.79229 5.50583
#
# Compressibility (1/GPa) = 0.03467387
#
# Stress axis : x y z
#
# Youngs Moduli (GPa) = 48.51291 66.29867 47.66697
#
# Poissons Ratio (x) = 0.12699 0.27602
# Poissons Ratio (y) = 0.09292 0.15705
# Poissons Ratio (z) = 0.28092 0.21843
#
# Static dielectric constant tensor:
#      x y z
#    x 1.980640 0.041230 -0.041560 
#    y 0.041230 2.106920 -0.079390 
#    z -0.041560 -0.079390 2.035700 
# 
# From -- ./inp_files/91128.got.cif
#   From: 2010.05.17/outbox.cif.g08.bks.cpg/sg2_46_cif.got.tgz:91128.got - 2010.06.03 11:33:40.
