data_PCOD9047720
_publ_section_title
;
Structure prediction by ZEFSAII (Michael W. Deem and Ramdas Pophale) SiO2 
 PCOD9047720
Probable space group: P -1
;
_chemical_formula_sum "Si O2"
_cell_formula_units_Z 14
_cell_length_a 17.131027
_cell_length_b 11.819173
_cell_length_c 8.890381
_cell_angle_alpha 145.809522
_cell_angle_beta 53.548456
_cell_angle_gamma 143.502033
_cell_volume 588.006969
_symmetry_space_group_name_H-M "P -1"
_symmetry_group_IT_number 2
_symmetry_cell_setting 'triclinic'
loop_
_space_group_symop_operation_xyz
x,y,z
-x,-y,-z
loop_
_atom_site_type_symbol
_atom_site_label
_atom_site_fract_x
_atom_site_fract_y
_atom_site_fract_z
Si Si1 0.133975 0.621695 0.401965
Si Si2 0.694988 0.232351 0.361747
Si Si3 0.076047 0.403512 0.750981
Si Si4 0.145130 0.257136 0.796735
Si Si5 0.719687 0.927240 0.514338
Si Si6 0.552839 0.435325 0.734174
Si Si7 0.388035 0.226105 0.227374
O O1 0.254937 0.799439 0.578287
O O2 0.000000 0.500000 0.500000
O O3 0.169558 0.815914 0.435628
O O4 0.112464 0.365729 0.084588
O O5 0.825840 0.433634 0.325364
O O6 0.631610 0.354390 0.608115
O O7 0.587451 0.948433 0.076971
O O8 0.158071 0.414470 0.806639
O O9 0.966276 0.073224 0.471726
O O10 0.000000 0.500000 0.000000
O O11 0.271555 0.302803 0.751488
O O12 0.580765 0.808798 0.475629
O O13 0.723412 0.977044 0.742355
O O14 0.645483 0.678476 0.769638
O O15 0.500000 0.500000 0.000000
O O16 0.500000 0.500000 0.500000
#
# Coordination Sequence:
#
# PCOD9047720 Si02
#       7
#     2   2   2   2   2   2   2
#     4  12  27  43  67 103 142 184 233 285 347 420
#     4  12  25  43  70 101 140 183 229 288 352 411
#     4  11  24  44  71 102 135 180 235 290 347 413
#     4  11  23  42  69  96 135 182 228 284 350 406
#     4  11  24  43  67  97 137 180 230 285 343 415
#     4  11  25  44  68 100 137 180 232 286 346 415
#     4  10  24  44  69  99 133 177 232 283 340 411
#
# _framework density 23.809241
#
# number of rings (size 3 to 8) (size 9 to 14) (size 15 to 20)
#    0.000    0.857    0.000    6.857    0.000   13.714 
#    0.000    0.000    0.000    0.000    0.000    0.000 
#    0.000    0.000    0.000    0.000    0.000    0.000 
#
# Total GULP energy -78255.877037 kJ/mol
# GULP energy per Si atom -5589.705503 kJ/mol
# Density = 2.375505 g / cm^3
# Si number density = 23.809241 Si / 1000 Ang^3
#
#
#
# Elastic Constant Matrix: (Units=GPa)
#
#
# Indices 1 2 3 4 5 6 
#
# 1 120.8302 48.8062 48.1758 -13.2406 -16.8607 -19.1627
# 2 48.8062 122.6449 41.8512 -12.8117 -1.6363 -23.4205
# 3 48.1758 41.8512 159.1815 -25.5626 -7.7743 -10.8194
# 4 -13.2406 -12.8117 -25.5626 35.9735 3.3547 0.6537
# 5 -16.8607 -1.6363 -7.7743 3.3547 41.8128 -2.2240
# 6 -19.1627 -23.4205 -10.8194 0.6537 -2.2240 36.9648
#
#
#
# Elastic Compliance Matrix: (Units=1/GPa)
#
#
# Indices 1 2 3 4 5 6 
#
# 1 0.011656 -0.003027 -0.002061 0.001279 0.004296 0.003757
# 2 -0.003027 0.010935 -0.001386 0.001795 -0.000935 0.004866
# 3 -0.002061 -0.001386 0.008015 0.004412 0.000269 0.000337
# 4 0.001279 0.001795 0.004412 0.032095 -0.001038 0.002461
# 5 0.004296 -0.000935 0.000269 -0.001038 0.025920 0.003291
# 6 0.003757 0.004866 0.000337 0.002461 0.003291 0.032337
#
#
# Mechanical properties :
#
#
# Convention : Reuss Voigt Hill
#
# Bulk Modulus (GPa) = 56.63058 75.59143 66.11101
# Shear Modulus (GPa) = 35.76760 40.53845 38.15302
#
# Velocity S-wave (km/s) = 3.88010 4.13078 4.00740
# Velocity P-wave (km/s) = 6.62649 7.38707 7.01709
#
# Compressibility (1/GPa) = 0.01765830
#
# Stress axis : x y z
#
# Youngs Moduli (GPa) = 85.79349 91.44876 124.76745
#
# Poissons Ratio (x) = 0.27678 0.25719
# Poissons Ratio (y) = 0.25967 0.17290
# Poissons Ratio (z) = 0.17685 0.12673
#
# Static dielectric constant tensor:
#      x y z
#    x 1.907940 0.037850 0.042840 
#    y 0.037850 1.966760 0.056070 
#    z 0.042840 0.056070 1.932270 
# 
# From -- ./inp_files/95394.got.cif
#   From: 2010.05.17/outbox.cif.g08.bks.cpg/sg2_48_cif.got.tgz:95394.got - 2010.06.03 11:33:40.
