data_PCOD9047307
_publ_section_title
;
Structure prediction by ZEFSAII (Michael W. Deem and Ramdas Pophale) SiO2 
 PCOD9047307
Probable space group: P -1
;
_chemical_formula_sum "Si O2"
_cell_formula_units_Z 14
_cell_length_a 13.163174
_cell_length_b 14.201153
_cell_length_c 9.370236
_cell_angle_alpha 58.477894
_cell_angle_beta 29.842129
_cell_angle_gamma 50.873111
_cell_volume 674.789625
_symmetry_space_group_name_H-M "P -1"
_symmetry_group_IT_number 2
_symmetry_cell_setting 'triclinic'
loop_
_space_group_symop_operation_xyz
x,y,z
-x,-y,-z
loop_
_atom_site_type_symbol
_atom_site_label
_atom_site_fract_x
_atom_site_fract_y
_atom_site_fract_z
Si Si1 0.215752 0.962856 0.668358
Si Si2 0.735568 0.578491 0.734693
Si Si3 0.770719 0.123285 0.588400
Si Si4 0.625942 0.491349 0.637708
Si Si5 0.058754 0.239093 0.279135
Si Si6 0.546473 0.716479 0.373791
Si Si7 0.369853 0.155945 0.242792
O O1 0.157516 0.961249 0.571740
O O2 0.391591 0.822775 0.587048
O O3 0.329140 0.057074 0.465635
O O4 0.000000 0.000000 0.000000
O O5 0.667741 0.553864 0.679715
O O6 0.663045 0.721342 0.733546
O O7 0.000000 0.500000 0.500000
O O8 0.593777 0.533359 0.050515
O O9 0.971269 0.142928 0.401364
O O10 0.600087 0.250148 0.619557
O O11 0.610208 0.097870 0.916067
O O12 0.840329 0.364438 0.462086
O O13 0.599201 0.583930 0.469693
O O14 0.184994 0.199015 0.307372
O O15 0.234052 0.260813 0.944739
#
# Coordination Sequence:
#
# PCOD9047307 Si02
#       7
#     2   2   2   2   2   2   2
#     4  10  24  44  64  91 130 168 205 266 318 365
#     4  11  24  38  65  94 125 171 203 263 313 369
#     4   9  22  43  63  94 123 170 209 254 316 368
#     4  11  23  41  62  97 130 158 216 252 320 378
#     4  11  21  40  68  96 119 172 209 255 319 370
#     4   9  24  41  62  92 130 161 208 262 311 377
#     4  11  22  44  66  91 129 164 218 256 308 378
#
# _framework density 20.747208000000001
#
# number of rings (size 3 to 8) (size 9 to 14) (size 15 to 20)
#    0.857    0.857    2.857    0.857    2.000    3.429 
#    0.000    1.429    0.000    0.000    0.000    0.000 
#    0.000    0.000    0.000    0.000    0.000    0.000 
#
# Total GULP energy -78201.727185 kJ/mol
# GULP energy per Si atom -5585.837656 kJ/mol
# Density = 2.069999 g / cm^3
# Si number density = 20.747208 Si / 1000 Ang^3
#
#
#
# Elastic Constant Matrix: (Units=GPa)
#
#
# Indices 1 2 3 4 5 6 
#
# 1 39.0329 23.9491 25.5678 1.7315 -16.8958 11.4992
# 2 23.9491 98.2627 37.9951 9.1120 -5.1704 11.2810
# 3 25.5678 37.9951 100.3137 27.3773 -11.3273 5.0215
# 4 1.7315 9.1120 27.3773 37.9017 2.6203 0.5524
# 5 -16.8958 -5.1704 -11.3273 2.6203 30.8160 0.8215
# 6 11.4992 11.2810 5.0215 0.5524 0.8215 42.0939
#
#
#
# Elastic Compliance Matrix: (Units=1/GPa)
#
#
# Indices 1 2 3 4 5 6 
#
# 1 0.046959 -0.006512 -0.007428 0.003426 0.021917 -0.010670
# 2 -0.006512 0.013144 -0.003516 -0.000123 -0.002613 -0.001271
# 3 -0.007428 -0.003516 0.016332 -0.010783 0.002227 0.001121
# 4 0.003426 -0.000123 -0.010783 0.034393 -0.005031 0.000030
# 5 0.021917 -0.002613 0.002227 -0.005031 0.045445 -0.006373
# 6 -0.010670 -0.001271 0.001121 0.000030 -0.006373 0.027002
#
#
# Mechanical properties :
#
#
# Convention : Reuss Voigt Hill
#
# Bulk Modulus (GPa) = 24.08442 45.84813 34.96628
# Shear Modulus (GPa) = 21.54900 32.16882 26.85891
#
# Velocity S-wave (km/s) = 3.22630 3.94193 3.60193
# Velocity P-wave (km/s) = 5.05098 6.54712 5.84710
#
# Compressibility (1/GPa) = 0.04152062
#
# Stress axis : x y z
#
# Youngs Moduli (GPa) = 21.29506 76.08309 61.22941
#
# Poissons Ratio (x) = 0.49549 0.45484
# Poissons Ratio (y) = 0.13868 0.21530
# Poissons Ratio (z) = 0.15819 0.26753
#
# Static dielectric constant tensor:
#      x y z
#    x 1.745760 -0.000760 0.000500 
#    y -0.000760 1.757630 0.004670 
#    z 0.000500 0.004670 1.704340 
# 
# From -- ./inp_files/269671.got.cif
#   From: 2010.05.17/outbox.cif.g08.bks.cpg/sg2_135_cif.got.tgz:269671.got - 2010.06.03 11:33:40.
