data_PCOD9047806
_publ_section_title
;
Structure prediction by ZEFSAII (Michael W. Deem and Ramdas Pophale) SiO2 
 PCOD9047806
Probable space group: P -1
;
_chemical_formula_sum "Si O2"
_cell_formula_units_Z 15
_cell_length_a 18.424406
_cell_length_b 6.135065
_cell_length_c 5.924149
_cell_angle_alpha 102.924896
_cell_angle_beta 77.493165
_cell_angle_gamma 105.316144
_cell_volume 620.593881
_symmetry_space_group_name_H-M "P -1"
_symmetry_group_IT_number 2
_symmetry_cell_setting 'triclinic'
loop_
_space_group_symop_operation_xyz
x,y,z
-x,-y,-z
loop_
_atom_site_type_symbol
_atom_site_label
_atom_site_fract_x
_atom_site_fract_y
_atom_site_fract_z
Si Si1 0.730568 0.813747 0.105295
Si Si2 0.854465 0.606930 0.182401
Si Si3 0.591283 0.687577 0.854041
Si Si4 0.324169 0.933172 0.424219
Si Si5 0.821666 0.160628 0.792477
Si Si6 0.000000 0.000000 0.000000
Si Si7 0.927701 0.338598 0.395988
Si Si8 0.478192 0.804209 0.279953
O O1 0.775723 0.692090 0.226303
O O2 0.701837 0.020694 0.297025
O O3 0.656425 0.667970 0.991299
O O4 0.794842 0.936346 0.911932
O O5 0.926501 0.805319 0.108278
O O6 0.872246 0.497596 0.382558
O O7 0.845954 0.392555 0.969121
O O8 0.637812 0.816818 0.644036
O O9 0.530627 0.469015 0.745730
O O10 0.540826 0.845154 0.048628
O O11 0.251939 0.826626 0.300311
O O12 0.389314 0.798596 0.308989
O O13 0.887749 0.155960 0.568565
O O14 0.956617 0.204185 0.143923
O O15 0.000000 0.500000 0.500000
O O16 0.500000 0.000000 0.500000
#
# Coordination Sequence:
#
# PCOD9047806 Si02
#       8
#     2   2   2   2   2   1   2   2
#     4  11  25  47  72 107 147 197 246 299 366 438
#     4  12  26  45  72 109 145 185 246 300 360 447
#     4  10  24  44  70 107 145 193 250 296 363 428
#     4  11  23  44  72 105 146 192 245 304 358 428
#     4  11  25  47  73 103 149 191 244 300 368 431
#     4  12  26  48  76 104 140 182 242 294 366 438
#     4  12  28  51  77 109 143 190 239 304 369 435
#     4  11  22  44  72 104 149 195 243 301 360 426
#
# _framework density 24.170397999999999
#
# number of rings (size 3 to 8) (size 9 to 14) (size 15 to 20)
#    0.000    0.800    2.667    4.000    1.867    6.400 
#    4.800    0.000    0.000    0.000    0.000    0.000 
#    0.000    0.000    0.000    0.000    0.000    0.000 
#
# Total GULP energy -83561.768805 kJ/mol
# GULP energy per Si atom -5570.784587 kJ/mol
# Density = 2.411539 g / cm^3
# Si number density = 24.170398 Si / 1000 Ang^3
#
#
#
# Elastic Constant Matrix: (Units=GPa)
#
#
# Indices 1 2 3 4 5 6 
#
# 1 93.9055 37.4305 43.9576 -2.7909 -12.2677 -6.5102
# 2 37.4305 82.0551 33.3696 17.6044 8.7984 16.3375
# 3 43.9576 33.3696 74.2864 3.1224 -11.6063 5.2116
# 4 -2.7909 17.6044 3.1224 27.9164 6.5511 -3.9468
# 5 -12.2677 8.7984 -11.6063 6.5511 42.9398 6.2209
# 6 -6.5102 16.3375 5.2116 -3.9468 6.2209 39.0205
#
#
#
# Elastic Compliance Matrix: (Units=1/GPa)
#
#
# Indices 1 2 3 4 5 6 
#
# 1 0.019456 -0.009911 -0.007667 0.009676 0.002742 0.008961
# 2 -0.009911 0.025279 -0.004649 -0.017052 -0.004845 -0.012569
# 3 -0.007667 -0.004649 0.021210 -0.001889 0.005246 -0.003193
# 4 0.009676 -0.017052 -0.001889 0.050821 -0.004151 0.014808
# 5 0.002742 -0.004845 0.005246 -0.004151 0.027554 -0.003027
# 6 0.008961 -0.012569 -0.003193 0.014808 -0.003027 0.034792
#
#
# Mechanical properties :
#
#
# Convention : Reuss Voigt Hill
#
# Bulk Modulus (GPa) = 46.53476 53.30692 49.92084
# Shear Modulus (GPa) = 21.67024 31.00797 26.33911
#
# Velocity S-wave (km/s) = 2.99751 3.58563 3.30468
# Velocity P-wave (km/s) = 5.59238 6.26457 5.93799
#
# Compressibility (1/GPa) = 0.02148931
#
# Stress axis : x y z
#
# Youngs Moduli (GPa) = 51.39866 39.55815 47.14755
#
# Poissons Ratio (x) = 0.39206 0.36150
# Poissons Ratio (y) = 0.50941 0.21921
# Poissons Ratio (z) = 0.39410 0.18392
#
# Static dielectric constant tensor:
#      x y z
#    x 1.934700 -0.005580 0.020780 
#    y -0.005580 2.009440 -0.079600 
#    z 0.020780 -0.079600 1.974300 
# 
# From -- ./inp_files/102925.got.cif
#   From: 2010.05.17/outbox.cif.g08.bks.cpg/sg2_52_cif.got.tgz:102925.got - 2010.06.03 11:33:40.
