data_PCOD9047718
_publ_section_title
;
Structure prediction by ZEFSAII (Michael W. Deem and Ramdas Pophale) SiO2 
 PCOD9047718
Probable space group: P -1
;
_chemical_formula_sum "Si O2"
_cell_formula_units_Z 14
_cell_length_a 14.340294
_cell_length_b 13.447878
_cell_length_c 13.291628
_cell_angle_alpha 42.218136
_cell_angle_beta 40.942325
_cell_angle_gamma 20.643315
_cell_volume 585.831312
_symmetry_space_group_name_H-M "P -1"
_symmetry_group_IT_number 2
_symmetry_cell_setting 'triclinic'
loop_
_space_group_symop_operation_xyz
x,y,z
-x,-y,-z
loop_
_atom_site_type_symbol
_atom_site_label
_atom_site_fract_x
_atom_site_fract_y
_atom_site_fract_z
Si Si1 0.390559 0.963548 0.683572
Si Si2 0.437076 0.322110 0.040963
Si Si3 0.920053 0.173217 0.593763
Si Si4 0.256983 0.363936 0.849594
Si Si5 0.888874 0.711102 0.140107
Si Si6 0.632547 0.280252 0.264532
Si Si7 0.168212 0.038374 0.291955
O O1 0.581690 0.717622 0.798400
O O2 0.303245 0.906042 0.727438
O O3 0.500000 0.000000 0.500000
O O4 0.164462 0.234956 0.738113
O O5 0.211562 0.439937 0.068717
O O6 0.734762 0.995266 0.012145
O O7 0.398667 0.530398 0.903278
O O8 0.662968 0.486881 0.616849
O O9 0.786225 0.160140 0.646851
O O10 0.122113 0.937500 0.692499
O O11 0.114229 0.081295 0.423412
O O12 0.257553 0.295578 0.787878
O O13 0.562575 0.101329 0.838885
O O14 0.122608 0.645039 0.748989
O O15 0.000000 0.500000 0.000000
#
# Coordination Sequence:
#
# PCOD9047718 Si02
#       7
#     2   2   2   2   2   2   2
#     4  10  27  45  71 103 146 184 234 289 364 421
#     4  10  24  44  69  98 144 180 236 291 345 421
#     4  11  27  44  75 102 137 192 237 300 349 421
#     4  12  26  43  75 104 144 192 230 293 364 418
#     4  10  25  43  69 101 142 182 234 288 352 424
#     4  12  25  44  76 102 137 190 241 287 359 424
#     4  11  26  48  67 104 148 178 245 295 354 422
#
# _framework density 23.897665
#
# number of rings (size 3 to 8) (size 9 to 14) (size 15 to 20)
#    0.857    0.286    0.000    4.286   12.000    3.429 
#    0.000    0.000    0.000    0.000    0.000    0.000 
#    0.000    0.000    0.000    0.000    0.000    0.000 
#
# Total GULP energy -78185.488495 kJ/mol
# GULP energy per Si atom -5584.677750 kJ/mol
# Density = 2.384327 g / cm^3
# Si number density = 23.897665 Si / 1000 Ang^3
#
#
#
# Elastic Constant Matrix: (Units=GPa)
#
#
# Indices 1 2 3 4 5 6 
#
# 1 97.2126 37.0031 10.7746 16.0751 5.6657 -2.1473
# 2 37.0031 108.2951 22.9094 16.2811 11.2184 -20.3263
# 3 10.7746 22.9094 80.7941 11.5174 7.3103 -13.5575
# 4 16.0751 16.2811 11.5174 27.0385 -0.2497 1.5449
# 5 5.6657 11.2184 7.3103 -0.2497 29.3636 0.3905
# 6 -2.1473 -20.3263 -13.5575 1.5449 0.3905 45.9944
#
#
#
# Elastic Compliance Matrix: (Units=1/GPa)
#
#
# Indices 1 2 3 4 5 6 
#
# 1 0.012553 -0.003528 0.000059 -0.005331 -0.001124 -0.000767
# 2 -0.003528 0.012967 -0.001123 -0.005582 -0.004114 0.005457
# 3 0.000059 -0.001123 0.014481 -0.005786 -0.003290 0.003997
# 4 -0.005331 -0.005582 -0.005786 0.046370 0.005076 -0.006022
# 5 -0.001124 -0.004114 -0.003290 0.005076 0.036751 -0.003323
# 6 -0.000767 0.005457 0.003997 -0.006022 -0.003323 0.025526
#
#
# Mechanical properties :
#
#
# Convention : Reuss Voigt Hill
#
# Bulk Modulus (GPa) = 32.44858 47.51957 39.98407
# Shear Modulus (GPa) = 29.74364 34.85362 32.29863
#
# Velocity S-wave (km/s) = 3.53175 3.82311 3.68032
# Velocity P-wave (km/s) = 5.49897 6.27822 5.90147
#
# Compressibility (1/GPa) = 0.03081799
#
# Stress axis : x y z
#
# Youngs Moduli (GPa) = 79.66182 77.12163 69.05656
#
# Poissons Ratio (x) = 0.27207 -0.00409
# Poissons Ratio (y) = 0.28104 0.07752
# Poissons Ratio (z) = -0.00471 0.08657
#
# Static dielectric constant tensor:
#      x y z
#    x 1.905750 0.064980 0.031460 
#    y 0.064980 1.908070 0.032480 
#    z 0.031460 0.032480 2.031680 
# 
# From -- ./inp_files/534244.got.cif
#   From: 2010.05.17/outbox.cif.g08.bks.cpg/sg2_268_cif.got.tgz:534244.got - 2010.06.03 11:33:40.
