data_PCOD9047966
_publ_section_title
;
Structure prediction by ZEFSAII (Michael W. Deem and Ramdas Pophale) SiO2 
 PCOD9047966
Probable space group: P -1
;
_chemical_formula_sum "Si O2"
_cell_formula_units_Z 16
_cell_length_a 9.741644
_cell_length_b 14.133244
_cell_length_c 22.196284
_cell_angle_alpha 27.057260
_cell_angle_beta 44.492076
_cell_angle_gamma 31.851839
_cell_volume 721.677730
_symmetry_space_group_name_H-M "P -1"
_symmetry_group_IT_number 2
_symmetry_cell_setting 'triclinic'
loop_
_space_group_symop_operation_xyz
x,y,z
-x,-y,-z
loop_
_atom_site_type_symbol
_atom_site_label
_atom_site_fract_x
_atom_site_fract_y
_atom_site_fract_z
Si Si1 0.862544 0.998051 0.986412
Si Si2 0.900724 0.305428 0.350480
Si Si3 0.577671 0.811118 0.237780
Si Si4 0.587984 0.423612 0.267372
Si Si5 0.987039 0.257704 0.139528
Si Si6 0.155257 0.888282 0.841109
Si Si7 0.752086 0.526093 0.570730
Si Si8 0.461603 0.012534 0.297523
O O1 0.625770 0.306581 0.859213
O O2 0.074480 0.839698 0.956310
O O3 0.730399 0.878690 0.114491
O O4 0.000000 0.000000 0.000000
O O5 0.771755 0.478283 0.354766
O O6 0.678633 0.470639 0.274127
O O7 0.000000 0.000000 0.500000
O O8 0.155968 0.246208 0.279300
O O9 0.523181 0.931985 0.253660
O O10 0.292581 0.975412 0.204887
O O11 0.440932 0.322645 0.396120
O O12 0.849119 0.241626 0.248335
O O13 0.814981 0.307489 0.107853
O O14 0.000000 0.500000 0.000000
O O15 0.382341 0.895985 0.778409
O O16 0.903655 0.201309 0.717732
O O17 0.573467 0.724091 0.458753
O O18 0.000000 0.500000 0.500000
#
# Coordination Sequence:
#
# PCOD9047966 Si02
#       8
#     2   2   2   2   2   2   2   2
#     4  11  23  44  73 104 142 190 245 302 374 443
#     4  12  27  46  72 110 151 196 248 305 369 448
#     4  12  26  44  75 108 147 200 244 308 376 437
#     4  11  23  44  70 104 149 189 247 302 363 445
#     4  12  26  45  71 109 150 196 245 301 375 452
#     4  10  24  44  72 102 145 195 244 310 369 436
#     4   9  20  43  69  98 143 190 241 303 361 430
#     4  11  23  47  71 107 148 190 252 304 367 443
#
# _framework density 22.170560999999999
#
# number of rings (size 3 to 8) (size 9 to 14) (size 15 to 20)
#    0.000    1.000    5.000    1.500    1.750    3.500 
#    0.000    3.125    0.000    0.000    0.000    0.000 
#    0.000    0.000    0.000    0.000    0.000    0.000 
#
# Total GULP energy -89300.468248 kJ/mol
# GULP energy per Si atom -5581.279266 kJ/mol
# Density = 2.212010 g / cm^3
# Si number density = 22.170561 Si / 1000 Ang^3
#
#
#
# Elastic Constant Matrix: (Units=GPa)
#
#
# Indices 1 2 3 4 5 6 
#
# 1 144.9746 54.1426 33.6315 1.7037 -12.7913 -4.6284
# 2 54.1426 138.4555 45.5968 19.6166 -27.7217 -9.4269
# 3 33.6315 45.5968 88.7622 21.2476 -5.4823 -2.6836
# 4 1.7037 19.6166 21.2476 34.9550 -9.3939 -1.9511
# 5 -12.7913 -27.7217 -5.4823 -9.3939 34.6984 2.3898
# 6 -4.6284 -9.4269 -2.6836 -1.9511 2.3898 45.6320
#
#
#
# Elastic Compliance Matrix: (Units=1/GPa)
#
#
# Indices 1 2 3 4 5 6 
#
# 1 0.008566 -0.002643 -0.002508 0.002991 0.001444 0.000228
# 2 -0.002643 0.011254 -0.003853 -0.001943 0.006786 0.001392
# 3 -0.002508 -0.003853 0.015979 -0.008451 -0.003747 -0.000276
# 4 0.002991 -0.001943 -0.008451 0.036917 0.008171 0.000555
# 5 0.001444 0.006786 -0.003747 0.008171 0.036410 -0.000229
# 6 0.000228 0.001392 -0.000276 0.000555 -0.000229 0.022245
#
#
# Mechanical properties :
#
#
# Convention : Reuss Voigt Hill
#
# Bulk Modulus (GPa) = 56.20979 70.99270 63.60124
# Shear Modulus (GPa) = 32.19412 38.97850 35.58631
#
# Velocity S-wave (km/s) = 3.81479 4.19754 4.01074
# Velocity P-wave (km/s) = 6.69417 7.45541 7.08502
#
# Compressibility (1/GPa) = 0.01779050
#
# Stress axis : x y z
#
# Youngs Moduli (GPa) = 116.73883 88.85882 62.58306
#
# Poissons Ratio (x) = 0.23485 0.15695
# Poissons Ratio (y) = 0.30854 0.24115
# Poissons Ratio (z) = 0.29276 0.34240
#
# Static dielectric constant tensor:
#      x y z
#    x 1.800100 0.004220 -0.021300 
#    y 0.004220 1.870510 -0.009270 
#    z -0.021300 -0.009270 1.860530 
# 
# From -- ./inp_files/589357.got.cif
#   From: 2010.05.17/outbox.cif.g08.bks.cpg/sg2_295_cif.got.tgz:589357.got - 2010.06.03 11:33:40.
