data_PCOD9047272
_publ_section_title
;
Structure prediction by ZEFSAII (Michael W. Deem and Ramdas Pophale) SiO2 
 PCOD9047272
Probable space group: P -1
;
_chemical_formula_sum "Si O2"
_cell_formula_units_Z 16
_cell_length_a 8.469564
_cell_length_b 13.157258
_cell_length_c 11.243073
_cell_angle_alpha 145.756790
_cell_angle_beta 105.108040
_cell_angle_gamma 86.309354
_cell_volume 653.786155
_symmetry_space_group_name_H-M "P -1"
_symmetry_group_IT_number 2
_symmetry_cell_setting 'triclinic'
loop_
_space_group_symop_operation_xyz
x,y,z
-x,-y,-z
loop_
_atom_site_type_symbol
_atom_site_label
_atom_site_fract_x
_atom_site_fract_y
_atom_site_fract_z
Si Si1 0.169947 0.774463 0.115272
Si Si2 0.083722 0.487906 0.372646
Si Si3 0.289434 0.267000 0.080220
Si Si4 0.662692 0.522880 0.133302
Si Si5 0.275539 0.151478 0.370858
Si Si6 0.581453 0.093290 0.985743
Si Si7 0.079810 0.224309 0.753180
Si Si8 0.906129 0.127791 0.220498
O O1 0.083718 0.722129 0.174958
O O2 0.210776 0.994288 0.308813
O O3 0.324668 0.686559 0.047783
O O4 0.043928 0.661584 0.880343
O O5 0.255936 0.425831 0.317702
O O6 0.099211 0.696070 0.527936
O O7 0.000000 0.500000 0.500000
O O8 0.480316 0.245110 0.086394
O O9 0.211677 0.268534 0.934318
O O10 0.179255 0.068654 0.923443
O O11 0.657656 0.641070 0.364758
O O12 0.825007 0.653882 0.219781
O O13 0.500000 0.500000 0.000000
O O14 0.105131 0.144521 0.253054
O O15 0.423293 0.076376 0.269010
O O16 0.782128 0.154234 0.115043
O O17 0.500000 0.000000 0.000000
O O18 0.000000 0.000000 0.500000
#
# Coordination Sequence:
#
# PCOD9047272 Si02
#       8
#     2   2   2   2   2   2   2   2
#     4  11  24  44  72 102 134 183 237 287 347 420
#     4  11  23  38  70 102 130 179 230 281 339 424
#     4  10  24  44  62 102 140 173 234 287 350 406
#     4  12  28  46  70 106 140 180 236 302 355 405
#     4  12  23  46  72 100 141 184 238 282 345 430
#     4  10  25  41  67 101 144 184 218 288 362 416
#     4  11  22  47  74  97 135 189 237 290 344 418
#     4  11  21  42  71  96 134 183 231 276 341 421
#
# _framework density 24.472835
#
# number of rings (size 3 to 8) (size 9 to 14) (size 15 to 20)
#    0.000    1.000    5.000    1.500    5.250    2.000 
#    9.000    0.000    0.000    0.000    0.000    0.000 
#    0.000    0.000    0.000    0.000    0.000    0.000 
#
# Total GULP energy -89295.903307 kJ/mol
# GULP energy per Si atom -5580.993957 kJ/mol
# Density = 2.441713 g / cm^3
# Si number density = 24.472835 Si / 1000 Ang^3
#
#
#
# Elastic Constant Matrix: (Units=GPa)
#
#
# Indices 1 2 3 4 5 6 
#
# 1 128.1582 29.3238 42.1381 0.5145 -45.8446 -27.7385
# 2 29.3238 43.7584 15.8419 13.8203 -17.2780 -9.5709
# 3 42.1381 15.8419 91.1758 14.2867 -25.0523 -9.6555
# 4 0.5145 13.8203 14.2867 43.3648 -5.2295 -1.6273
# 5 -45.8446 -17.2780 -25.0523 -5.2295 43.6630 -0.4112
# 6 -27.7385 -9.5709 -9.6555 -1.6273 -0.4112 64.6083
#
#
#
# Elastic Compliance Matrix: (Units=1/GPa)
#
#
# Indices 1 2 3 4 5 6 
#
# 1 0.015985 -0.004060 -0.002785 0.003950 0.014108 0.006034
# 2 -0.004060 0.031964 0.000081 -0.009172 0.007360 0.002820
# 3 -0.002785 0.000081 0.014303 -0.004089 0.004832 0.000881
# 4 0.003950 -0.009172 -0.004089 0.027476 0.001467 0.000427
# 5 0.014108 0.007360 0.004832 0.001467 0.043654 0.008184
# 6 0.006034 0.002820 0.000881 0.000427 0.008184 0.018681
#
#
# Mechanical properties :
#
#
# Convention : Reuss Voigt Hill
#
# Bulk Modulus (GPa) = 20.52477 48.63335 34.57906
# Shear Modulus (GPa) = 27.49765 42.04645 34.77205
#
# Velocity S-wave (km/s) = 3.35565 4.14948 3.77350
# Velocity P-wave (km/s) = 4.83930 6.54775 5.75725
#
# Compressibility (1/GPa) = 0.04872161
#
# Stress axis : x y z
#
# Youngs Moduli (GPa) = 62.55926 31.28518 69.91549
#
# Poissons Ratio (x) = 0.12703 0.19474
# Poissons Ratio (y) = 0.25402 -0.00565
# Poissons Ratio (z) = 0.17425 -0.00253
#
# Static dielectric constant tensor:
#      x y z
#    x 2.169000 -0.060430 -0.102450 
#    y -0.060430 2.010740 0.034590 
#    z -0.102450 0.034590 2.057180 
# 
# From -- ./inp_files/400143.got.cif
#   From: 2010.05.17/outbox.cif.g08.bks.cpg/sg2_201_cif.got.tgz:400143.got - 2010.06.03 11:33:40.
