data_PCOD9047253
_publ_section_title
;
Structure prediction by ZEFSAII (Michael W. Deem and Ramdas Pophale) SiO2 
 PCOD9047253
Probable space group: P -1
;
_chemical_formula_sum "Si O2"
_cell_formula_units_Z 16
_cell_length_a 9.059783
_cell_length_b 14.171727
_cell_length_c 9.903514
_cell_angle_alpha 37.883523
_cell_angle_beta 53.033980
_cell_angle_gamma 62.778250
_cell_volume 623.470124
_symmetry_space_group_name_H-M "P -1"
_symmetry_group_IT_number 2
_symmetry_cell_setting 'triclinic'
loop_
_space_group_symop_operation_xyz
x,y,z
-x,-y,-z
loop_
_atom_site_type_symbol
_atom_site_label
_atom_site_fract_x
_atom_site_fract_y
_atom_site_fract_z
Si Si1 0.829885 0.110622 0.960413
Si Si2 0.851289 0.124996 0.391218
Si Si3 0.885905 0.672892 0.316849
Si Si4 0.661985 0.632051 0.760739
Si Si5 0.580059 0.893782 0.710387
Si Si6 0.002077 0.462226 0.837313
Si Si7 0.636742 0.153613 0.749598
Si Si8 0.319316 0.301683 0.863563
O O1 0.795795 0.141539 0.786941
O O2 0.918755 0.250470 0.837286
O O3 0.626808 0.065239 0.178968
O O4 0.000000 0.000000 0.000000
O O5 0.721626 0.037269 0.453230
O O6 0.723304 0.161232 0.547562
O O7 0.922279 0.291328 0.112733
O O8 0.000000 0.000000 0.500000
O O9 0.742152 0.661752 0.531817
O O10 0.788466 0.759652 0.144804
O O11 0.939792 0.524894 0.367179
O O12 0.587406 0.779582 0.709988
O O13 0.840653 0.578923 0.808908
O O14 0.500000 0.500000 0.000000
O O15 0.660890 0.805156 0.896824
O O16 0.204766 0.449005 0.805954
O O17 0.523937 0.300882 0.692535
O O18 0.500000 0.000000 0.000000
#
# Coordination Sequence:
#
# PCOD9047253 Si02
#       8
#     2   2   2   2   2   2   2   2
#     4  11  24  40  72 108 148 196 242 293 376 433
#     4  12  23  43  74 111 146 182 246 307 356 422
#     4  10  24  46  70  99 142 192 240 300 363 433
#     4  12  28  49  71 105 150 189 243 306 370 432
#     4  11  25  46  73 113 150 187 248 304 356 438
#     4  10  24  43  76  98 144 194 239 289 367 427
#     4  11  20  40  68 102 149 194 233 302 359 439
#     4   9  21  44  70 102 140 191 245 288 362 429
#
# _framework density 25.66282
#
# number of rings (size 3 to 8) (size 9 to 14) (size 15 to 20)
#    0.750    0.500    3.750    1.875    5.250    0.500 
#    0.000    2.500    0.000    0.000    0.000    0.000 
#    0.000    0.000    0.000    0.000    0.000    0.000 
#
# Total GULP energy -89314.882956 kJ/mol
# GULP energy per Si atom -5582.180185 kJ/mol
# Density = 2.560441 g / cm^3
# Si number density = 25.662820 Si / 1000 Ang^3
#
#
#
# Elastic Constant Matrix: (Units=GPa)
#
#
# Indices 1 2 3 4 5 6 
#
# 1 139.1534 26.8842 39.3090 -12.8735 7.3366 -16.2748
# 2 26.8842 84.2347 24.5888 18.6747 3.8620 -26.9600
# 3 39.3090 24.5888 127.9380 20.8654 -8.0021 6.6815
# 4 -12.8735 18.6747 20.8654 41.7044 -2.2285 8.3115
# 5 7.3366 3.8620 -8.0021 -2.2285 44.6429 3.5804
# 6 -16.2748 -26.9600 6.6815 8.3115 3.5804 59.3169
#
#
#
# Elastic Compliance Matrix: (Units=1/GPa)
#
#
# Indices 1 2 3 4 5 6 
#
# 1 0.009432 -0.002861 -0.003423 0.005616 -0.001715 0.000990
# 2 -0.002861 0.018808 -0.001694 -0.010517 -0.002755 0.009594
# 3 -0.003423 -0.001694 0.010260 -0.004832 0.002494 -0.002338
# 4 0.005616 -0.010517 -0.004832 0.034432 0.001450 -0.007607
# 5 -0.001715 -0.002755 0.002494 0.001450 0.023731 -0.003639
# 6 0.000990 0.009594 -0.002338 -0.007607 -0.003639 0.023040
#
#
# Mechanical properties :
#
#
# Convention : Reuss Voigt Hill
#
# Bulk Modulus (GPa) = 44.35816 59.21001 51.78409
# Shear Modulus (GPa) = 34.92308 46.50246 40.71277
#
# Velocity S-wave (km/s) = 3.69296 4.26144 3.98735
# Velocity P-wave (km/s) = 5.95873 6.88009 6.43592
#
# Compressibility (1/GPa) = 0.02254376
#
# Stress axis : x y z
#
# Youngs Moduli (GPa) = 106.02566 53.17022 97.46854
#
# Poissons Ratio (x) = 0.15210 0.33363
# Poissons Ratio (y) = 0.30331 0.16510
# Poissons Ratio (z) = 0.36292 0.09007
#
# Static dielectric constant tensor:
#      x y z
#    x 2.162670 0.106140 0.008750 
#    y 0.106140 2.531870 -0.126680 
#    z 0.008750 -0.126680 2.072730 
# 
# From -- ./inp_files/205480.got.cif
#   From: 2010.05.17/outbox.cif.g08.bks.cpg/sg2_103_cif.got.tgz:205480.got - 2010.06.03 11:33:40.
