data_PCOD9047217
_publ_section_title
;
Structure prediction by ZEFSAII (Michael W. Deem and Ramdas Pophale) SiO2 
 PCOD9047217
Probable space group: P -1
;
_chemical_formula_sum "Si O2"
_cell_formula_units_Z 10
_cell_length_a 11.772051
_cell_length_b 11.820209
_cell_length_c 15.158027
_cell_angle_alpha 143.075586
_cell_angle_beta 18.143949
_cell_angle_gamma 139.848960
_cell_volume 394.468717
_symmetry_space_group_name_H-M "P -1"
_symmetry_group_IT_number 2
_symmetry_cell_setting 'triclinic'
loop_
_space_group_symop_operation_xyz
x,y,z
-x,-y,-z
loop_
_atom_site_type_symbol
_atom_site_label
_atom_site_fract_x
_atom_site_fract_y
_atom_site_fract_z
Si Si1 0.100244 0.172140 0.596016
Si Si2 0.172395 0.985664 0.962298
Si Si3 0.232738 0.356059 0.867881
Si Si4 0.634689 0.583003 0.860332
Si Si5 0.575055 0.388636 0.244268
O O1 0.259261 0.305952 0.485170
O O2 0.437921 0.116490 0.375935
O O3 0.000000 0.000000 0.500000
O O4 0.756253 0.237928 0.949362
O O5 0.270780 0.193830 0.058579
O O6 0.000000 0.000000 0.000000
O O7 0.875682 0.855825 0.155527
O O8 0.343825 0.485667 0.947914
O O9 0.530567 0.427647 0.619454
O O10 0.883587 0.424401 0.113178
O O11 0.000000 0.500000 0.500000
O O12 0.500000 0.500000 0.000000
#
# Coordination Sequence:
#
# PCOD9047217 Si02
#       5
#     2   2   2   2   2
#     4  11  24  45  75 108 149 186 251 298 363 438
#     4  11  25  47  76 108 147 195 245 300 371 435
#     4  10  24  47  73 105 151 183 249 296 369 432
#     4  12  28  46  71 104 146 194 241 298 362 436
#     4  10  24  43  74 106 141 198 230 308 366 429
#
# _framework density 25.350553000000001
#
# number of rings (size 3 to 8) (size 9 to 14) (size 15 to 20)
#    0.000    1.200    2.000    1.800    2.800   16.000 
#    0.000    3.000    0.000    0.000    0.000    0.000 
#    0.000    0.000    0.000    0.000    0.000    0.000 
#
# Total GULP energy -55802.132433 kJ/mol
# GULP energy per Si atom -5580.213243 kJ/mol
# Density = 2.529285 g / cm^3
# Si number density = 25.350553 Si / 1000 Ang^3
#
#
#
# Elastic Constant Matrix: (Units=GPa)
#
#
# Indices 1 2 3 4 5 6 
#
# 1 175.2904 104.9155 39.4546 -12.8780 34.0406 2.2733
# 2 104.9155 229.6548 53.1103 -6.0956 34.6595 1.0354
# 3 39.4546 53.1103 153.1501 9.9815 29.0169 -5.9727
# 4 -12.8780 -6.0956 9.9815 38.5039 7.3570 12.5872
# 5 34.0406 34.6595 29.0169 7.3570 44.6024 2.5131
# 6 2.2733 1.0354 -5.9727 12.5872 2.5131 69.9436
#
#
#
# Elastic Compliance Matrix: (Units=1/GPa)
#
#
# Indices 1 2 3 4 5 6 
#
# 1 0.008882 -0.003128 -0.000625 0.003766 -0.004517 -0.000811
# 2 -0.003128 0.006343 -0.001073 0.000650 -0.001943 -0.000131
# 3 -0.000625 -0.001073 0.007925 -0.002155 -0.003559 0.001229
# 4 0.003766 0.000650 -0.002155 0.031037 -0.006778 -0.005658
# 5 -0.004517 -0.001943 -0.003559 -0.006778 0.030812 -0.000016
# 6 -0.000811 -0.000131 0.001229 -0.005658 -0.000016 0.015449
#
#
# Mechanical properties :
#
#
# Convention : Reuss Voigt Hill
#
# Bulk Modulus (GPa) = 74.08126 105.89512 89.98819
# Shear Modulus (GPa) = 43.63047 54.65099 49.14073
#
# Velocity S-wave (km/s) = 4.15310 4.64811 4.40756
# Velocity P-wave (km/s) = 7.23075 8.40652 7.84071
#
# Compressibility (1/GPa) = 0.01349869
#
# Stress axis : x y z
#
# Youngs Moduli (GPa) = 112.58904 157.66529 126.17856
#
# Poissons Ratio (x) = 0.49314 0.07882
# Poissons Ratio (y) = 0.35216 0.13539
# Poissons Ratio (z) = 0.07033 0.16918
#
# Static dielectric constant tensor:
#      x y z
#    x 2.110000 0.154560 -0.013120 
#    y 0.154560 2.873440 -0.063810 
#    z -0.013120 -0.063810 2.138120 
# 
# From -- ./inp_files/129282.got.cif
#   From: 2010.05.17/outbox.cif.g08.bks.cpg/sg2_65_cif.got.tgz:129282.got - 2010.06.03 11:33:40.
