data_PCOD9047953
_publ_section_title
;
Structure prediction by ZEFSAII (Michael W. Deem and Ramdas Pophale) SiO2 
 PCOD9047953
Probable space group: P -1
;
_chemical_formula_sum "Si O2"
_cell_formula_units_Z 16
_cell_length_a 8.219968
_cell_length_b 12.112284
_cell_length_c 17.339976
_cell_angle_alpha 149.458925
_cell_angle_beta 126.672245
_cell_angle_gamma 67.557850
_cell_volume 665.344127
_symmetry_space_group_name_H-M "P -1"
_symmetry_group_IT_number 2
_symmetry_cell_setting 'triclinic'
loop_
_space_group_symop_operation_xyz
x,y,z
-x,-y,-z
loop_
_atom_site_type_symbol
_atom_site_label
_atom_site_fract_x
_atom_site_fract_y
_atom_site_fract_z
Si Si1 0.764716 0.306730 0.127032
Si Si2 0.226186 0.479751 0.574411
Si Si3 0.621120 0.860088 0.897867
Si Si4 0.046702 0.388624 0.112487
Si Si5 0.353773 0.351440 0.966053
Si Si6 0.337454 0.169412 0.685094
Si Si7 0.101711 0.841737 0.303656
Si Si8 0.683645 0.989544 0.685256
O O1 0.754078 0.454720 0.289174
O O2 0.956719 0.426456 0.194479
O O3 0.533357 0.251406 0.986881
O O4 0.771927 0.058509 0.006292
O O5 0.415288 0.660857 0.688402
O O6 0.000000 0.500000 0.500000
O O7 0.251474 0.234898 0.419322
O O8 0.764438 0.723775 0.896078
O O9 0.500000 0.000000 0.000000
O O10 0.110152 0.615768 0.214548
O O11 0.839668 0.199160 0.903446
O O12 0.298544 0.296976 0.827040
O O13 0.113337 0.234415 0.856350
O O14 0.472671 0.621096 0.173811
O O15 0.441517 0.978856 0.627208
O O16 0.141770 0.048025 0.500944
O O17 0.285706 0.952100 0.361047
#
# Coordination Sequence:
#
# PCOD9047953 Si02
#       8
#     2   2   2   2   2   2   2   2
#     4  11  24  47  73  98 144 188 235 294 359 420
#     4  11  26  47  71 105 138 182 239 300 353 426
#     4  10  24  44  72 101 133 184 237 292 358 419
#     4  12  24  47  71 104 143 187 240 292 355 424
#     4  11  23  43  68 103 145 184 240 283 361 411
#     4  11  23  44  63 103 145 188 234 293 346 425
#     4  12  26  40  73 105 144 193 236 287 355 421
#     4  12  24  43  69 103 145 183 237 296 352 416
#
# _framework density 24.047706999999999
#
# number of rings (size 3 to 8) (size 9 to 14) (size 15 to 20)
#    0.000    0.750    2.500    5.250    5.250    1.000 
#    0.000    1.250    0.000    0.000    0.000    0.000 
#    0.000    0.000    0.000    0.000    0.000    0.000 
#
# Total GULP energy -89415.099646 kJ/mol
# GULP energy per Si atom -5588.443728 kJ/mol
# Density = 2.399297 g / cm^3
# Si number density = 24.047707 Si / 1000 Ang^3
#
#
#
# Elastic Constant Matrix: (Units=GPa)
#
#
# Indices 1 2 3 4 5 6 
#
# 1 36.1908 3.9203 -6.6232 -1.3704 -9.8984 -15.3650
# 2 3.9203 94.0906 16.5557 15.2205 4.1522 -32.5522
# 3 -6.6232 16.5557 122.2224 2.4179 3.7390 -3.1758
# 4 -1.3704 15.2205 2.4179 47.5148 -8.2478 1.7483
# 5 -9.8984 4.1522 3.7390 -8.2478 31.2955 -9.9477
# 6 -15.3650 -32.5522 -3.1758 1.7483 -9.9477 37.4859
#
#
#
# Elastic Compliance Matrix: (Units=1/GPa)
#
#
# Indices 1 2 3 4 5 6 
#
# 1 0.048065 0.007753 0.001611 0.001945 0.025021 0.033120
# 2 0.007753 0.018377 -0.001588 -0.005414 0.005348 0.020673
# 3 0.001611 -0.001588 0.008490 0.000074 -0.000301 -0.000083
# 4 0.001945 -0.005414 0.000074 0.024106 0.006642 -0.003260
# 5 0.025021 0.005348 -0.000301 0.006642 0.049772 0.027773
# 6 0.033120 0.020673 -0.000083 -0.003260 0.027773 0.065720
#
#
# Mechanical properties :
#
#
# Convention : Reuss Voigt Hill
#
# Bulk Modulus (GPa) = 11.05176 31.13436 21.09306
# Shear Modulus (GPa) = 21.82093 39.16930 30.49512
#
# Velocity S-wave (km/s) = 3.01558 4.04024 3.56492
# Velocity P-wave (km/s) = 4.09032 5.89404 5.07299
#
# Compressibility (1/GPa) = 0.09048332
#
# Stress axis : x y z
#
# Youngs Moduli (GPa) = 20.80529 54.41700 117.78775
#
# Poissons Ratio (x) = -0.42192 -0.18976
# Poissons Ratio (y) = -0.16131 0.18709
# Poissons Ratio (z) = -0.03352 0.08644
#
# Static dielectric constant tensor:
#      x y z
#    x 2.121840 -0.008340 -0.001230 
#    y -0.008340 1.960110 0.020700 
#    z -0.001230 0.020700 1.926120 
# 
# From -- ./inp_files/560212.got.cif
#   From: 2010.05.17/outbox.cif.g08.bks.cpg/sg2_281_cif.got.tgz:560212.got - 2010.06.03 11:33:40.
