data_PCOD9047205
_publ_section_title
;
Structure prediction by ZEFSAII (Michael W. Deem and Ramdas Pophale) SiO2 
 PCOD9047205
Probable space group: P -1
;
_chemical_formula_sum "Si O2"
_cell_formula_units_Z 16
_cell_length_a 7.583285
_cell_length_b 12.006815
_cell_length_c 14.214322
_cell_angle_alpha 113.597318
_cell_angle_beta 50.930788
_cell_angle_gamma 140.384164
_cell_volume 631.149475
_symmetry_space_group_name_H-M "P -1"
_symmetry_group_IT_number 2
_symmetry_cell_setting 'triclinic'
loop_
_space_group_symop_operation_xyz
x,y,z
-x,-y,-z
loop_
_atom_site_type_symbol
_atom_site_label
_atom_site_fract_x
_atom_site_fract_y
_atom_site_fract_z
Si Si1 0.383162 0.251298 0.017665
Si Si2 0.241082 0.385007 0.729162
Si Si3 0.079687 0.517723 0.670555
Si Si4 0.020182 0.693297 0.521956
Si Si5 0.890169 0.198439 0.272481
Si Si6 0.958496 0.616859 0.006382
Si Si7 0.711428 0.052383 0.093660
Si Si8 0.141766 0.182391 0.538326
O O1 0.462216 0.137780 0.949631
O O2 0.670192 0.461393 0.980592
O O3 0.188538 0.216910 0.167064
O O4 0.102889 0.165735 0.004086
O O5 0.087476 0.435952 0.733654
O O6 0.636754 0.540688 0.633611
O O7 0.167808 0.356490 0.853418
O O8 0.096863 0.209689 0.668504
O O9 0.892810 0.392177 0.597939
O O10 0.995611 0.625703 0.745329
O O11 0.465519 0.663335 0.560421
O O12 0.017583 0.789471 0.473021
O O13 0.213186 0.811665 0.589944
O O14 0.637021 0.050764 0.228068
O O15 0.000000 0.500000 0.000000
O O16 0.262108 0.809726 0.923766
O O17 0.000000 0.000000 0.500000
#
# Coordination Sequence:
#
# PCOD9047205 Si02
#       8
#     2   2   2   2   2   2   2   2
#     4   9  21  39  55  77 117 147 187 223 283 320
#     4   9  18  36  49  79 105 139 180 213 275 327
#     4   9  18  32  56  77 105 136 179 222 266 328
#     4   9  17  32  58  73 102 140 174 219 266 327
#     4  10  17  34  57  79 102 141 183 219 274 321
#     4  12  22  36  60  86 111 146 191 232 274 327
#     4   9  21  39  57  80 115 148 186 229 274 331
#     4   9  19  35  51  75 110 139 169 222 275 325
#
# _framework density 25.350572
#
# number of rings (size 3 to 8) (size 9 to 14) (size 15 to 20)
#    0.750    1.750    1.250    3.000    0.000    1.500 
#    2.250    0.625    2.750    0.000    0.000    0.000 
#    0.000    0.000    0.000    0.000    0.000    0.000 
#
# Total GULP energy -89253.799208 kJ/mol
# GULP energy per Si atom -5578.362451 kJ/mol
# Density = 2.529287 g / cm^3
# Si number density = 25.350572 Si / 1000 Ang^3
#
#
#
# Elastic Constant Matrix: (Units=GPa)
#
#
# Indices 1 2 3 4 5 6 
#
# 1 66.7410 23.8683 17.3547 7.1815 9.1637 -6.6511
# 2 23.8683 110.4823 67.2625 28.7901 2.9639 -4.5453
# 3 17.3547 67.2625 139.5944 31.8800 24.8282 5.0310
# 4 7.1815 28.7901 31.8800 49.7767 -2.4636 -5.9084
# 5 9.1637 2.9639 24.8282 -2.4636 30.3883 6.9279
# 6 -6.6511 -4.5453 5.0310 -5.9084 6.9279 23.5149
#
#
#
# Elastic Compliance Matrix: (Units=1/GPa)
#
#
# Indices 1 2 3 4 5 6 
#
# 1 0.017743 -0.003701 0.000719 -0.000504 -0.007006 0.006086
# 2 -0.003701 0.014747 -0.006763 -0.003309 0.004699 0.001035
# 3 0.000719 -0.006763 0.013607 -0.005708 -0.010607 -0.002324
# 4 -0.000504 -0.003309 -0.005708 0.026667 0.006081 0.005348
# 5 -0.007006 0.004699 -0.010607 0.006081 0.046203 -0.010888
# 6 0.006086 0.001035 -0.002324 0.005348 -0.010888 0.049497
#
#
# Mechanical properties :
#
#
# Convention : Reuss Voigt Hill
#
# Bulk Modulus (GPa) = 37.58512 59.30984 48.44748
# Shear Modulus (GPa) = 25.40364 34.62480 30.01422
#
# Velocity S-wave (km/s) = 3.16902 3.69974 3.44461
# Velocity P-wave (km/s) = 5.31494 6.45735 5.91380
#
# Compressibility (1/GPa) = 0.02660628
#
# Stress axis : x y z
#
# Youngs Moduli (GPa) = 56.36159 67.81087 73.49304
#
# Poissons Ratio (x) = 0.25099 -0.05288
# Poissons Ratio (y) = 0.20862 0.49704
# Poissons Ratio (z) = -0.04055 0.45861
#
# Static dielectric constant tensor:
#      x y z
#    x 2.168540 0.072670 -0.008210 
#    y 0.072670 2.094740 0.047940 
#    z -0.008210 0.047940 2.009570 
# 
# From -- ./inp_files/500678.got.cif
#   From: 2010.05.17/outbox.cif.g08.bks.cpg/sg2_251_cif.got.tgz:500678.got - 2010.06.03 11:33:40.
