data_PCOD9047257
_publ_section_title
;
Structure prediction by ZEFSAII (Michael W. Deem and Ramdas Pophale) SiO2 
 PCOD9047257
Probable space group: P -1
;
_chemical_formula_sum "Si O2"
_cell_formula_units_Z 16
_cell_length_a 13.648738
_cell_length_b 8.229917
_cell_length_c 14.393499
_cell_angle_alpha 65.509600
_cell_angle_beta 33.753080
_cell_angle_gamma 87.536863
_cell_volume 656.031503
_symmetry_space_group_name_H-M "P -1"
_symmetry_group_IT_number 2
_symmetry_cell_setting 'triclinic'
loop_
_space_group_symop_operation_xyz
x,y,z
-x,-y,-z
loop_
_atom_site_type_symbol
_atom_site_label
_atom_site_fract_x
_atom_site_fract_y
_atom_site_fract_z
Si Si1 0.238781 0.739952 0.861815
Si Si2 0.755444 0.311974 0.334878
Si Si3 0.790857 0.629693 0.565947
Si Si4 0.327566 0.485042 0.994099
Si Si5 0.012274 0.097554 0.197025
Si Si6 0.346120 0.122117 0.814656
Si Si7 0.981533 0.200348 0.474366
Si Si8 0.560247 0.118609 0.823210
O O1 0.338365 0.752521 0.680232
O O2 0.267680 0.948830 0.834731
O O3 0.329172 0.653453 0.885112
O O4 0.980334 0.555000 0.099656
O O5 0.841847 0.159829 0.318898
O O6 0.593781 0.302262 0.539831
O O7 0.878420 0.833359 0.378382
O O8 0.987202 0.724505 0.461590
O O9 0.692920 0.385818 0.664271
O O10 0.574683 0.580089 0.798774
O O11 0.174552 0.421458 0.217697
O O12 0.189017 0.248131 0.103925
O O13 0.173172 0.172712 0.963239
O O14 0.375049 0.035383 0.911155
O O15 0.746436 0.101410 0.640854
O O16 0.000000 0.000000 0.500000
O O17 0.500000 0.000000 0.000000
#
# Coordination Sequence:
#
# PCOD9047257 Si02
#       8
#     2   2   2   2   2   2   2   2
#     4  10  24  43  77  99 139 182 231 289 352 406
#     4  10  24  50  68 107 140 177 233 295 345 411
#     4  12  25  44  66  97 140 184 223 287 346 400
#     4  11  23  44  67 101 135 180 232 290 339 416
#     4  11  24  44  69 102 142 175 233 286 339 420
#     4  12  25  43  74 100 137 188 229 281 352 412
#     4  12  25  42  68  98 132 184 233 280 346 410
#     4  12  27  45  65 101 144 179 231 287 336 419
#
# _framework density 24.389074000000001
#
# number of rings (size 3 to 8) (size 9 to 14) (size 15 to 20)
#    0.000    0.750    2.500    4.875    7.000    0.500 
#    0.000    5.625    0.000    0.000    0.000    0.000 
#    0.000    0.000    0.000    0.000    0.000    0.000 
#
# Total GULP energy -89433.892503 kJ/mol
# GULP energy per Si atom -5589.618281 kJ/mol
# Density = 2.433356 g / cm^3
# Si number density = 24.389074 Si / 1000 Ang^3
#
#
#
# Elastic Constant Matrix: (Units=GPa)
#
#
# Indices 1 2 3 4 5 6 
#
# 1 64.0011 -2.3002 2.8167 2.4761 9.8397 -2.6287
# 2 -2.3002 61.2700 3.5003 -9.4825 3.2745 4.0042
# 3 2.8167 3.5003 109.3364 11.9856 14.3796 -14.1293
# 4 2.4761 -9.4825 11.9856 39.5553 10.0513 -7.9423
# 5 9.8397 3.2745 14.3796 10.0513 31.6321 8.7225
# 6 -2.6287 4.0042 -14.1293 -7.9423 8.7225 30.3203
#
#
#
# Elastic Compliance Matrix: (Units=1/GPa)
#
#
# Indices 1 2 3 4 5 6 
#
# 1 0.016885 0.000958 0.000898 0.001678 -0.007493 0.004351
# 2 0.000958 0.017387 -0.000741 0.005123 -0.003317 -0.000262
# 3 0.000898 -0.000741 0.011065 -0.000301 -0.007153 0.007311
# 4 0.001678 0.005123 -0.000301 0.032636 -0.014617 0.012083
# 5 -0.007493 -0.003317 -0.007153 -0.014617 0.048027 -0.021190
# 6 0.004351 -0.000262 0.007311 0.012083 -0.021190 0.046061
#
#
# Mechanical properties :
#
#
# Convention : Reuss Voigt Hill
#
# Bulk Modulus (GPa) = 21.02192 26.96011 23.99101
# Shear Modulus (GPa) = 26.92720 35.67426 31.30073
#
# Velocity S-wave (km/s) = 3.32636 3.82869 3.58633
# Velocity P-wave (km/s) = 4.83642 5.53384 5.19684
#
# Compressibility (1/GPa) = 0.04756940
#
# Stress axis : x y z
#
# Youngs Moduli (GPa) = 59.22260 57.51520 90.37336
#
# Poissons Ratio (x) = -0.05512 -0.08116
# Poissons Ratio (y) = -0.05676 0.06692
# Poissons Ratio (z) = -0.05319 0.04259
#
# Static dielectric constant tensor:
#      x y z
#    x 1.939220 -0.024040 0.021350 
#    y -0.024040 1.971820 0.015970 
#    z 0.021350 0.015970 1.977510 
# 
# From -- ./inp_files/529530.got.cif
#   From: 2010.05.17/outbox.cif.g08.bks.cpg/sg2_265_cif.got.tgz:529530.got - 2010.06.03 11:33:40.
