data_PCOD9047837
_publ_section_title
;
Structure prediction by ZEFSAII (Michael W. Deem and Ramdas Pophale) SiO2 
 PCOD9047837
Probable space group: P -1
;
_chemical_formula_sum "Si O2"
_cell_formula_units_Z 14
_cell_length_a 12.046615
_cell_length_b 12.342192
_cell_length_c 10.986056
_cell_angle_alpha 127.666870
_cell_angle_beta 37.837168
_cell_angle_gamma 143.451606
_cell_volume 595.453477
_symmetry_space_group_name_H-M "P -1"
_symmetry_group_IT_number 2
_symmetry_cell_setting 'triclinic'
loop_
_space_group_symop_operation_xyz
x,y,z
-x,-y,-z
loop_
_atom_site_type_symbol
_atom_site_label
_atom_site_fract_x
_atom_site_fract_y
_atom_site_fract_z
Si Si1 0.005877 0.226790 0.385891
Si Si2 0.137193 0.427382 0.812607
Si Si3 0.863422 0.868984 0.347258
Si Si4 0.252136 0.845804 0.678324
Si Si5 0.544212 0.794154 0.787295
Si Si6 0.344213 0.579714 0.476037
Si Si7 0.506215 0.963407 0.166218
O O1 0.953544 0.215224 0.279671
O O2 0.764273 0.163191 0.624546
O O3 0.243635 0.427481 0.356638
O O4 0.014639 0.072396 0.309381
O O5 0.026577 0.227100 0.803532
O O6 0.376609 0.576737 0.785150
O O7 0.217221 0.464819 0.629900
O O8 0.000000 0.500000 0.000000
O O9 0.770155 0.856769 0.556008
O O10 0.625939 0.738613 0.375944
O O11 0.245327 0.681465 0.600317
O O12 0.500000 0.000000 0.500000
O O13 0.298628 0.946718 0.833402
O O14 0.461020 0.876625 0.825080
O O15 0.529764 0.856258 0.973384
#
# Coordination Sequence:
#
# PCOD9047837 Si02
#       7
#     2   2   2   2   2   2   2
#     4  10  20  33  58  92 124 164 203 240 293 356
#     4  11  22  37  59  91 122 152 200 255 307 366
#     4  10  21  39  58  88 127 155 194 253 306 353
#     4  10  17  34  57  92 125 162 203 245 283 354
#     4   9  16  32  56  86 117 160 193 237 303 356
#     4  11  19  36  61  91 120 162 201 237 302 356
#     4   9  16  30  55  86 125 158 197 241 293 349
#
# _framework density 23.511492000000001
#
# number of rings (size 3 to 8) (size 9 to 14) (size 15 to 20)
#    0.000    2.000    5.714    3.000    0.000    0.571 
#    0.000    2.857    0.000    1.714    3.714    0.000 
#    0.000    0.000    0.000    0.000    0.000    0.000 
#
# Total GULP energy -78223.699812 kJ/mol
# GULP energy per Si atom -5587.407129 kJ/mol
# Density = 2.345798 g / cm^3
# Si number density = 23.511492 Si / 1000 Ang^3
#
#
#
# Elastic Constant Matrix: (Units=GPa)
#
#
# Indices 1 2 3 4 5 6 
#
# 1 93.0102 31.0898 51.2497 19.5562 20.7583 5.3106
# 2 31.0898 85.0764 14.8330 23.1091 7.3362 -1.8626
# 3 51.2497 14.8330 77.3882 20.7348 5.3206 -0.6959
# 4 19.5562 23.1091 20.7348 32.0141 1.5270 -4.6174
# 5 20.7583 7.3362 5.3206 1.5270 43.7414 8.1868
# 6 5.3106 -1.8626 -0.6959 -4.6174 8.1868 42.4795
#
#
#
# Elastic Compliance Matrix: (Units=1/GPa)
#
#
# Indices 1 2 3 4 5 6 
#
# 1 0.021044 -0.004537 -0.012142 -0.001622 -0.007358 -0.001787
# 2 -0.004537 0.015794 0.002796 -0.010375 -0.000526 0.000279
# 3 -0.012142 0.002796 0.022762 -0.009409 0.002767 0.000457
# 4 -0.001622 -0.010375 -0.009409 0.046388 0.001211 0.004403
# 5 -0.007358 -0.000526 0.002767 0.001211 0.026829 -0.004097
# 6 -0.001787 0.000279 0.000457 0.004403 -0.004097 0.025052
#
#
# Mechanical properties :
#
#
# Convention : Reuss Voigt Hill
#
# Bulk Modulus (GPa) = 31.41358 49.97998 40.69678
# Shear Modulus (GPa) = 25.47814 34.20049 29.83932
#
# Velocity S-wave (km/s) = 3.29545 3.81810 3.56636
# Velocity P-wave (km/s) = 5.27920 6.38287 5.85709
#
# Compressibility (1/GPa) = 0.03183336
#
# Stress axis : x y z
#
# Youngs Moduli (GPa) = 47.52012 63.31409 43.93320
#
# Poissons Ratio (x) = 0.28726 0.53343
# Poissons Ratio (y) = 0.21560 -0.12283
# Poissons Ratio (z) = 0.57699 -0.17701
#
# Static dielectric constant tensor:
#      x y z
#    x 1.987550 0.106360 -0.066860 
#    y 0.106360 1.954090 -0.050110 
#    z -0.066860 -0.050110 1.923900 
# 
# From -- ./inp_files/398969.got.cif
#   From: 2010.05.17/outbox.cif.g08.bks.cpg/sg2_200_cif.got.tgz:398969.got - 2010.06.03 11:33:40.
