data_PCOD9047900
_publ_section_title
;
Structure prediction by ZEFSAII (Michael W. Deem and Ramdas Pophale) SiO2 
 PCOD9047900
Probable space group: P -1
;
_chemical_formula_sum "Si O2"
_cell_formula_units_Z 14
_cell_length_a 8.782850
_cell_length_b 11.166770
_cell_length_c 12.083407
_cell_angle_alpha 49.688794
_cell_angle_beta 117.091946
_cell_angle_gamma 138.768687
_cell_volume 594.475539
_symmetry_space_group_name_H-M "P -1"
_symmetry_group_IT_number 2
_symmetry_cell_setting 'triclinic'
loop_
_space_group_symop_operation_xyz
x,y,z
-x,-y,-z
loop_
_atom_site_type_symbol
_atom_site_label
_atom_site_fract_x
_atom_site_fract_y
_atom_site_fract_z
Si Si1 0.121355 0.379189 0.128428
Si Si2 0.756849 0.310426 0.191787
Si Si3 0.737671 0.066875 0.008890
Si Si4 0.650037 0.324409 0.402317
Si Si5 0.732612 0.130010 0.729763
Si Si6 0.855139 0.789398 0.257565
Si Si7 0.873730 0.955692 0.599279
O O1 0.213907 0.267440 0.253631
O O2 0.003923 0.387826 0.191504
O O3 0.279398 0.579492 0.980871
O O4 0.907741 0.212800 0.076425
O O5 0.731174 0.344763 0.290534
O O6 0.540820 0.064483 0.243301
O O7 0.740188 0.877724 0.120443
O O8 0.500000 0.000000 0.000000
O O9 0.811761 0.197195 0.842008
O O10 0.769144 0.283966 0.556685
O O11 0.718335 0.545542 0.327647
O O12 0.373803 0.111014 0.444487
O O13 0.881615 0.068974 0.783962
O O14 0.921033 0.848838 0.372997
O O15 0.000000 0.000000 0.500000
#
# Coordination Sequence:
#
# PCOD9047900 Si02
#       7
#     2   2   2   2   2   2   2
#     4  10  24  44  71 105 141 194 239 302 357 428
#     4  11  23  43  73 104 143 191 243 291 364 424
#     4  11  24  47  71 102 143 187 244 300 356 428
#     4  12  27  47  76 107 147 195 237 301 362 433
#     4  12  24  46  72 108 149 190 241 298 362 424
#     4  11  27  47  72 107 142 195 238 299 359 429
#     4  11  26  47  71 105 147 185 245 300 362 428
#
# _framework density 23.550166999999998
#
# number of rings (size 3 to 8) (size 9 to 14) (size 15 to 20)
#    0.000    0.857    2.857    3.000    6.000    2.286 
#    2.571    0.000    0.000    0.000    0.000    0.000 
#    0.000    0.000    0.000    0.000    0.000    0.000 
#
# Total GULP energy -78150.742726 kJ/mol
# GULP energy per Si atom -5582.195909 kJ/mol
# Density = 2.349657 g / cm^3
# Si number density = 23.550167 Si / 1000 Ang^3
#
#
#
# Elastic Constant Matrix: (Units=GPa)
#
#
# Indices 1 2 3 4 5 6 
#
# 1 102.3786 30.9248 76.5522 24.5909 -11.5763 -7.3728
# 2 30.9248 78.7328 48.2369 -1.6042 -6.2781 -16.1080
# 3 76.5522 48.2369 131.4091 9.6121 -1.6166 2.0572
# 4 24.5909 -1.6042 9.6121 37.7703 -8.6673 -5.2990
# 5 -11.5763 -6.2781 -1.6166 -8.6673 57.5526 7.8509
# 6 -7.3728 -16.1080 2.0572 -5.2990 7.8509 38.2893
#
#
#
# Elastic Compliance Matrix: (Units=1/GPa)
#
#
# Indices 1 2 3 4 5 6 
#
# 1 0.021483 -0.000985 -0.011413 -0.010315 0.001999 0.002498
# 2 -0.000985 0.019362 -0.007002 0.004756 0.001242 0.008735
# 3 -0.011413 -0.007002 0.016768 0.001734 -0.001580 -0.005481
# 4 -0.010315 0.004756 0.001734 0.034228 0.003099 0.004023
# 5 0.001999 0.001242 -0.001580 0.003099 0.018663 -0.002406
# 6 0.002498 0.008735 -0.005481 0.004023 -0.002406 0.031617
#
#
# Mechanical properties :
#
#
# Convention : Reuss Voigt Hill
#
# Bulk Modulus (GPa) = 53.16077 69.32759 61.24418
# Shear Modulus (GPa) = 26.71034 37.17618 31.94326
#
# Velocity S-wave (km/s) = 3.37143 3.97746 3.68692
# Velocity P-wave (km/s) = 6.14636 7.11307 6.64731
#
# Compressibility (1/GPa) = 0.01881086
#
# Stress axis : x y z
#
# Youngs Moduli (GPa) = 46.54882 51.64883 59.63582
#
# Poissons Ratio (x) = 0.05089 0.68063
# Poissons Ratio (y) = 0.04587 0.41760
# Poissons Ratio (z) = 0.53127 0.36167
#
# Static dielectric constant tensor:
#      x y z
#    x 2.012190 -0.043020 0.006950 
#    y -0.043020 1.945560 -0.021110 
#    z 0.006950 -0.021110 1.953100 
# 
# From -- ./inp_files/392204.got.cif
#   From: 2010.05.17/outbox.cif.g08.bks.cpg/sg2_197_cif.got.tgz:392204.got - 2010.06.03 11:33:40.
