data_PCOD9047705
_publ_section_title
;
Structure prediction by ZEFSAII (Michael W. Deem and Ramdas Pophale) SiO2 
 PCOD9047705
Probable space group: P -1
;
_chemical_formula_sum "Si O2"
_cell_formula_units_Z 16
_cell_length_a 14.390528
_cell_length_b 11.625852
_cell_length_c 15.035575
_cell_angle_alpha 123.072469
_cell_angle_beta 36.017454
_cell_angle_gamma 147.613642
_cell_volume 713.013705
_symmetry_space_group_name_H-M "P -1"
_symmetry_group_IT_number 2
_symmetry_cell_setting 'triclinic'
loop_
_space_group_symop_operation_xyz
x,y,z
-x,-y,-z
loop_
_atom_site_type_symbol
_atom_site_label
_atom_site_fract_x
_atom_site_fract_y
_atom_site_fract_z
Si Si1 0.865941 0.556368 0.131487
Si Si2 0.575954 0.888834 0.609746
Si Si3 0.964501 0.761033 0.958467
Si Si4 0.274346 0.013679 0.134911
Si Si5 0.786472 0.214339 0.744661
Si Si6 0.242800 0.745732 0.639409
Si Si7 0.847588 0.789455 0.766882
Si Si8 0.632240 0.738577 0.102149
O O1 0.571815 0.330837 0.309151
O O2 0.055332 0.788882 0.142385
O O3 0.000000 0.500000 0.000000
O O4 0.849800 0.600016 0.063167
O O5 0.352351 0.781121 0.666775
O O6 0.672937 0.075440 0.681443
O O7 0.834343 0.012694 0.409717
O O8 0.012695 0.698591 0.810943
O O9 0.265768 0.035915 0.865222
O O10 0.767520 0.744666 0.078006
O O11 0.208257 0.906139 0.238224
O O12 0.251910 0.161108 0.202420
O O13 0.568123 0.164556 0.937444
O O14 0.079096 0.497738 0.624729
O O15 0.500000 0.000000 0.500000
O O16 0.681296 0.529793 0.772541
O O17 0.769751 0.790134 0.924623
#
# Coordination Sequence:
#
# PCOD9047705 Si02
#       8
#     2   2   2   2   2   2   2   2
#     4  12  21  44  71 100 137 179 232 284 342 404
#     4  12  27  44  68 106 140 176 229 287 347 402
#     4  11  22  44  70  99 128 190 229 277 342 412
#     4  11  22  44  72  97 136 183 230 286 336 410
#     4  11  25  44  72 103 134 180 236 280 346 408
#     4  12  26  45  69 101 142 178 227 289 339 409
#     4  11  25  45  65 103 137 181 228 282 343 411
#     4  10  24  44  69  94 141 182 230 274 346 417
#
# _framework density 22.439962000000001
#
# number of rings (size 3 to 8) (size 9 to 14) (size 15 to 20)
#    0.000    0.750    5.000    1.500    5.250    2.500 
#    0.000    0.000    0.000    0.000    0.000    0.000 
#    0.000    0.000    0.000    0.000    0.000    0.000 
#
# Total GULP energy -89518.540564 kJ/mol
# GULP energy per Si atom -5594.908785 kJ/mol
# Density = 2.238889 g / cm^3
# Si number density = 22.439962 Si / 1000 Ang^3
#
#
#
# Elastic Constant Matrix: (Units=GPa)
#
#
# Indices 1 2 3 4 5 6 
#
# 1 62.4298 5.5067 -0.7985 -9.6480 9.8452 -7.7576
# 2 5.5067 109.7842 15.0574 -31.3944 15.8366 4.6197
# 3 -0.7985 15.0574 69.0728 -33.3515 7.5210 -11.8375
# 4 -9.6480 -31.3944 -33.3515 36.6943 -7.4238 4.2092
# 5 9.8452 15.8366 7.5210 -7.4238 24.7847 -2.9095
# 6 -7.7576 4.6197 -11.8375 4.2092 -2.9095 33.5800
#
#
#
# Elastic Compliance Matrix: (Units=1/GPa)
#
#
# Indices 1 2 3 4 5 6 
#
# 1 0.019289 0.002084 0.006560 0.010842 -0.007209 0.004498
# 2 0.002084 0.013941 0.005032 0.015941 -0.006751 -0.002246
# 3 0.006560 0.005032 0.030755 0.032213 -0.004657 0.007223
# 4 0.010842 0.015941 0.032213 0.072271 -0.002338 0.002406
# 5 -0.007209 -0.006751 -0.004657 -0.002338 0.048486 0.002116
# 6 0.004498 -0.002246 0.007223 0.002406 0.002116 0.033556
#
#
# Mechanical properties :
#
#
# Convention : Reuss Voigt Hill
#
# Bulk Modulus (GPa) = 10.94842 31.20199 21.07521
# Shear Modulus (GPa) = 22.58434 33.77989 28.18212
#
# Velocity S-wave (km/s) = 3.17588 3.88409 3.54770
# Velocity P-wave (km/s) = 4.28227 5.83521 5.11798
#
# Compressibility (1/GPa) = 0.09133738
#
# Stress axis : x y z
#
# Youngs Moduli (GPa) = 51.84182 71.73092 32.51494
#
# Poissons Ratio (x) = -0.14948 -0.21329
# Poissons Ratio (y) = -0.10803 -0.16363
# Poissons Ratio (z) = -0.34007 -0.36097
#
# Static dielectric constant tensor:
#      x y z
#    x 1.832040 -0.008790 -0.013480 
#    y -0.008790 1.863670 -0.014200 
#    z -0.013480 -0.014200 1.813010 
# 
# From -- ./inp_files/432263.got.cif
#   From: 2010.05.17/outbox.cif.g08.bks.cpg/sg2_217_cif.got.tgz:432263.got - 2010.06.03 11:33:40.
