data_PCOD9047627
_publ_section_title
;
Structure prediction by ZEFSAII (Michael W. Deem and Ramdas Pophale) SiO2 
 PCOD9047627
Probable space group: P -1
;
_chemical_formula_sum "Si O2"
_cell_formula_units_Z 16
_cell_length_a 14.368981
_cell_length_b 13.950014
_cell_length_c 11.987592
_cell_angle_alpha 57.978478
_cell_angle_beta 38.856543
_cell_angle_gamma 31.896441
_cell_volume 731.812213
_symmetry_space_group_name_H-M "P -1"
_symmetry_group_IT_number 2
_symmetry_cell_setting 'triclinic'
loop_
_space_group_symop_operation_xyz
x,y,z
-x,-y,-z
loop_
_atom_site_type_symbol
_atom_site_label
_atom_site_fract_x
_atom_site_fract_y
_atom_site_fract_z
Si Si1 0.610364 0.421442 0.103079
Si Si2 0.117088 0.718115 0.271021
Si Si3 0.549993 0.864893 0.118923
Si Si4 0.772591 0.720570 0.627315
Si Si5 0.211980 0.151845 0.887937
Si Si6 0.296261 0.674877 0.673585
Si Si7 0.199371 0.454618 0.084201
Si Si8 0.915715 0.990651 0.471886
O O1 0.396837 0.491393 0.182051
O O2 0.597093 0.382154 0.264859
O O3 0.863433 0.247716 0.893723
O O4 0.632713 0.544097 0.029316
O O5 0.888721 0.772662 0.466959
O O6 0.120972 0.807144 0.311113
O O7 0.689468 0.827546 0.119339
O O8 0.268996 0.993719 0.328782
O O9 0.699870 0.663338 0.051758
O O10 0.500000 0.000000 0.000000
O O11 0.775322 0.666494 0.781891
O O12 0.000000 0.500000 0.500000
O O13 0.466563 0.920473 0.757312
O O14 0.081253 0.313174 0.816392
O O15 0.971911 0.228301 0.115867
O O16 0.500000 0.500000 0.500000
O O17 0.228855 0.835052 0.582993
O O18 0.000000 0.000000 0.500000
#
# Coordination Sequence:
#
# PCOD9047627 Si02
#       8
#     2   2   2   2   2   2   2   2
#     4  10  24  44  68  97 138 188 236 294 359 427
#     4  11  23  44  69  99 140 184 241 290 360 436
#     4  12  22  40  68 101 142 182 239 295 363 424
#     4  12  25  46  72 102 140 190 238 292 365 428
#     4  11  25  44  69 106 141 186 242 299 359 431
#     4  11  25  46  69 102 146 185 243 299 362 428
#     4  11  23  43  69  97 144 184 235 303 354 421
#     4  12  24  39  70 101 137 185 234 297 354 428
#
# _framework density 21.863531999999999
#
# number of rings (size 3 to 8) (size 9 to 14) (size 15 to 20)
#    0.000    0.750    3.750    4.125    1.750    3.000 
#    0.000    0.000    0.000    0.000    0.000    0.000 
#    0.000    0.000    0.000    0.000    0.000    0.000 
#
# Total GULP energy -89109.130894 kJ/mol
# GULP energy per Si atom -5569.320681 kJ/mol
# Density = 2.181377 g / cm^3
# Si number density = 21.863532 Si / 1000 Ang^3
#
#
#
# Elastic Constant Matrix: (Units=GPa)
#
#
# Indices 1 2 3 4 5 6 
#
# 1 57.5662 -4.9515 4.5388 7.7109 2.7964 -3.7022
# 2 -4.9515 78.6640 33.9788 1.2460 0.4104 -13.4726
# 3 4.5388 33.9788 89.7887 -0.6288 -5.7069 -5.9827
# 4 7.7109 1.2460 -0.6288 48.7464 -2.6770 11.0547
# 5 2.7964 0.4104 -5.7069 -2.6770 38.0823 6.2750
# 6 -3.7022 -13.4726 -5.9827 11.0547 6.2750 34.6087
#
#
#
# Elastic Compliance Matrix: (Units=1/GPa)
#
#
# Indices 1 2 3 4 5 6 
#
# 1 0.018783 0.002905 -0.001944 -0.004283 -0.002773 0.004675
# 2 0.002905 0.016879 -0.006248 -0.002746 -0.002706 0.007169
# 3 -0.001944 -0.006248 0.013696 0.001020 0.002508 -0.001053
# 4 -0.004283 -0.002746 0.001020 0.023654 0.003739 -0.009584
# 5 -0.002773 -0.002706 0.002508 0.003739 0.028324 -0.007246
# 6 0.004675 0.007169 -0.001053 -0.009584 -0.007246 0.036379
#
#
# Mechanical properties :
#
#
# Convention : Reuss Voigt Hill
#
# Bulk Modulus (GPa) = 25.78268 32.57236 29.17752
# Shear Modulus (GPa) = 31.01382 37.11768 34.06575
#
# Velocity S-wave (km/s) = 3.77041 4.12478 3.95157
# Velocity P-wave (km/s) = 5.54732 6.13315 5.84758
#
# Compressibility (1/GPa) = 0.03878572
#
# Stress axis : x y z
#
# Youngs Moduli (GPa) = 53.23827 59.24363 73.01228
#
# Poissons Ratio (x) = -0.17209 0.14190
# Poissons Ratio (y) = -0.15465 0.45619
# Poissons Ratio (z) = 0.10347 0.37016
#
# Static dielectric constant tensor:
#      x y z
#    x 1.816740 0.031290 0.094520 
#    y 0.031290 1.620190 -0.163920 
#    z 0.094520 -0.163920 1.636730 
# 
# From -- ./inp_files/455615.got.cif
#   From: 2010.05.17/outbox.cif.g08.bks.cpg/sg2_228_cif.got.tgz:455615.got - 2010.06.03 11:33:40.
