data_PCOD9047502
_publ_section_title
;
Structure prediction by ZEFSAII (Michael W. Deem and Ramdas Pophale) SiO2 
 PCOD9047502
Probable space group: P -1
;
_chemical_formula_sum "Si O2"
_cell_formula_units_Z 12
_cell_length_a 16.097671
_cell_length_b 11.635402
_cell_length_c 4.813245
_cell_angle_alpha 125.260121
_cell_angle_beta 63.215640
_cell_angle_gamma 142.555816
_cell_volume 447.509830
_symmetry_space_group_name_H-M "P -1"
_symmetry_group_IT_number 2
_symmetry_cell_setting 'triclinic'
loop_
_space_group_symop_operation_xyz
x,y,z
-x,-y,-z
loop_
_atom_site_type_symbol
_atom_site_label
_atom_site_fract_x
_atom_site_fract_y
_atom_site_fract_z
Si Si1 0.326957 0.974623 0.644429
Si Si2 0.624171 0.372698 0.843282
Si Si3 0.952829 0.336184 0.122248
Si Si4 0.760478 0.377221 0.116111
Si Si5 0.710047 0.764760 0.244259
Si Si6 0.889042 0.961970 0.777127
O O1 0.211888 0.826125 0.851932
O O2 0.301703 0.823548 0.245284
O O3 0.475182 0.141606 0.791373
O O4 0.316476 0.112270 0.683865
O O5 0.726097 0.465214 0.075090
O O6 0.395295 0.480608 0.958460
O O7 0.689179 0.356535 0.469740
O O8 0.000000 0.500000 0.500000
O O9 0.074541 0.463592 0.887851
O O10 0.955331 0.185685 0.047325
O O11 0.762745 0.842572 0.585749
O O12 0.833466 0.839265 0.973734
O O13 0.000000 0.000000 0.500000
#
# Coordination Sequence:
#
# PCOD9047502 Si02
#       6
#     2   2   2   2   2   2
#     4  10  24  44  67  98 133 172 217 271 327 386
#     4  12  24  44  68  97 131 174 219 268 324 389
#     4   9  21  42  65  93 128 168 213 264 321 381
#     4  11  25  44  68  96 131 173 220 269 324 387
#     4  11  24  40  64  95 130 170 215 266 323 385
#     4  11  22  40  63  95 130 169 213 266 322 384
#
# _framework density 26.815054
#
# number of rings (size 3 to 8) (size 9 to 14) (size 15 to 20)
#    0.000    1.333    0.000    5.000    0.000   10.667 
#    0.000   14.167    0.000    0.000    0.000    0.000 
#    0.000    0.000    0.000    0.000    0.000    0.000 
#
# Total GULP energy -67144.128372 kJ/mol
# GULP energy per Si atom -5595.344031 kJ/mol
# Density = 2.675402 g / cm^3
# Si number density = 26.815054 Si / 1000 Ang^3
#
#
#
# Elastic Constant Matrix: (Units=GPa)
#
#
# Indices 1 2 3 4 5 6 
#
# 1 83.5576 18.6705 41.7966 5.9088 -9.3916 15.1721
# 2 18.6705 178.5735 53.0462 8.6591 8.0864 16.0356
# 3 41.7966 53.0462 92.4377 2.8594 1.9130 -19.6665
# 4 5.9088 8.6591 2.8594 45.5746 -21.1485 -8.5675
# 5 -9.3916 8.0864 1.9130 -21.1485 50.3047 11.4372
# 6 15.1721 16.0356 -19.6665 -8.5675 11.4372 33.0742
#
#
#
# Elastic Compliance Matrix: (Units=1/GPa)
#
#
# Indices 1 2 3 4 5 6 
#
# 1 0.036836 0.009768 -0.032512 -0.006827 0.014532 -0.047760
# 2 0.009768 0.011114 -0.015268 -0.004843 0.003446 -0.021394
# 3 -0.032512 -0.015268 0.046526 0.007977 -0.015048 0.057252
# 4 -0.006827 -0.004843 0.007977 0.029967 0.008368 0.015092
# 5 0.014532 0.003446 -0.015048 0.008368 0.032088 -0.026213
# 6 -0.047760 -0.021394 0.057252 0.015092 -0.026213 0.109533
#
#
# Mechanical properties :
#
#
# Convention : Reuss Voigt Hill
#
# Bulk Modulus (GPa) = 54.19360 64.62171 59.40765
# Shear Modulus (GPa) = 14.35799 41.86105 28.10952
#
# Velocity S-wave (km/s) = 2.31648 3.95537 3.24122
# Velocity P-wave (km/s) = 5.23534 6.70904 6.01748
#
# Compressibility (1/GPa) = 0.01845236
#
# Stress axis : x y z
#
# Youngs Moduli (GPa) = 27.14715 89.97666 21.49357
#
# Poissons Ratio (x) = -0.87892 0.69880
# Poissons Ratio (y) = -0.26518 0.32816
# Poissons Ratio (z) = 0.88261 1.37375
#
# Static dielectric constant tensor:
#      x y z
#    x 2.247140 0.033490 -0.077110 
#    y 0.033490 2.139970 0.002600 
#    z -0.077110 0.002600 1.967730 
# 
# From -- ./inp_files/111050.got.cif
#   From: 2010.05.17/outbox.cif.g08.bks.cpg/sg2_56_cif.got.tgz:111050.got - 2010.06.03 11:33:40.
