data_PCOD9047013
_publ_section_title
;
Structure prediction by ZEFSAII (Michael W. Deem and Ramdas Pophale) SiO2 
 PCOD9047013
Probable space group: P -1
;
_chemical_formula_sum "Si O2"
_cell_formula_units_Z 14
_cell_length_a 11.493206
_cell_length_b 10.889125
_cell_length_c 8.143628
_cell_angle_alpha 42.203743
_cell_angle_beta 116.495698
_cell_angle_gamma 106.389334
_cell_volume 610.762937
_symmetry_space_group_name_H-M "P -1"
_symmetry_group_IT_number 2
_symmetry_cell_setting 'triclinic'
loop_
_space_group_symop_operation_xyz
x,y,z
-x,-y,-z
loop_
_atom_site_type_symbol
_atom_site_label
_atom_site_fract_x
_atom_site_fract_y
_atom_site_fract_z
Si Si1 0.048333 0.614169 0.113910
Si Si2 0.721888 0.196507 0.804104
Si Si3 0.811694 0.917893 0.632572
Si Si4 0.407216 0.934062 0.865868
Si Si5 0.663989 0.850115 0.937256
Si Si6 0.121913 0.674358 0.734227
Si Si7 0.361527 0.547172 0.779043
O O1 0.142444 0.711815 0.199036
O O2 0.000023 0.419572 0.329321
O O3 0.116057 0.604957 0.986880
O O4 0.917839 0.748579 0.873466
O O5 0.659213 0.222557 0.919715
O O6 0.633086 0.293424 0.510362
O O7 0.731959 0.979999 0.981441
O O8 0.883636 0.105923 0.487841
O O9 0.720361 0.911378 0.740135
O O10 0.710831 0.928830 0.407230
O O11 0.507777 0.883487 0.833400
O O12 0.500000 0.000000 0.000000
O O13 0.685079 0.630603 0.169278
O O14 0.253508 0.608119 0.786855
O O15 0.500000 0.500000 0.000000
#
# Coordination Sequence:
#
# PCOD9047013 Si02
#       7
#     2   2   2   2   2   2   2
#     4  11  26  46  71 101 137 184 232 283 339 407
#     4  11  26  47  68 103 143 175 234 290 331 409
#     4  12  22  46  76  97 139 188 224 276 355 408
#     4  10  24  43  70 106 138 173 232 290 332 409
#     4  11  25  45  72 104 138 186 223 283 354 405
#     4  11  24  46  70 101 139 180 231 284 336 414
#     4  12  27  46  72 102 139 185 228 282 352 407
#
# _framework density 22.922150999999999
#
# number of rings (size 3 to 8) (size 9 to 14) (size 15 to 20)
#    0.000    0.857    4.286    1.714    4.000    2.857 
#    7.714    0.000    0.000    0.000    0.000    0.000 
#    0.000    0.000    0.000    0.000    0.000    0.000 
#
# Total GULP energy -78186.309652 kJ/mol
# GULP energy per Si atom -5584.736404 kJ/mol
# Density = 2.286998 g / cm^3
# Si number density = 22.922151 Si / 1000 Ang^3
#
#
#
# Elastic Constant Matrix: (Units=GPa)
#
#
# Indices 1 2 3 4 5 6 
#
# 1 97.7931 20.4658 28.3567 16.5326 -15.5740 11.8536
# 2 20.4658 114.3253 15.4661 -16.1644 9.4115 21.6992
# 3 28.3567 15.4661 60.1387 5.7969 2.6051 4.7136
# 4 16.5326 -16.1644 5.7969 36.9916 6.8668 -5.3051
# 5 -15.5740 9.4115 2.6051 6.8668 33.4884 -1.6948
# 6 11.8536 21.6992 4.7136 -5.3051 -1.6948 23.6791
#
#
#
# Elastic Compliance Matrix: (Units=1/GPa)
#
#
# Indices 1 2 3 4 5 6 
#
# 1 0.017235 -0.003730 -0.006129 -0.011339 0.011577 -0.005701
# 2 -0.003730 0.012877 -0.001309 0.007628 -0.007245 -0.008482
# 3 -0.006129 -0.001309 0.020057 -0.000243 -0.003996 -0.000065
# 4 -0.011339 0.007628 -0.000243 0.039200 -0.015110 0.006436
# 5 0.011577 -0.007245 -0.003996 -0.015110 0.040750 0.001171
# 6 -0.005701 -0.008482 -0.000065 0.006436 0.001171 0.054396
#
#
# Mechanical properties :
#
#
# Convention : Reuss Voigt Hill
#
# Bulk Modulus (GPa) = 35.93105 44.53716 40.23411
# Shear Modulus (GPa) = 23.13432 32.69640 27.91536
#
# Velocity S-wave (km/s) = 3.18033 3.78088 3.49353
# Velocity P-wave (km/s) = 5.40326 6.20742 5.81925
#
# Compressibility (1/GPa) = 0.02783108
#
# Stress axis : x y z
#
# Youngs Moduli (GPa) = 58.02031 77.66024 49.85896
#
# Poissons Ratio (x) = 0.28971 0.30559
# Poissons Ratio (y) = 0.21644 0.06527
# Poissons Ratio (z) = 0.35561 0.10167
#
# Static dielectric constant tensor:
#      x y z
#    x 1.901880 0.033580 -0.027590 
#    y 0.033580 1.992060 -0.007800 
#    z -0.027590 -0.007800 1.815100 
# 
# From -- ./inp_files/256131.got.cif
#   From: 2010.05.17/outbox.cif.g08.bks.cpg/sg2_129_cif.got.tgz:256131.got - 2010.06.03 11:33:40.
