data_PCOD9047974
_publ_section_title
;
Structure prediction by ZEFSAII (Michael W. Deem and Ramdas Pophale) SiO2 
 PCOD9047974
Probable space group: P -1
;
_chemical_formula_sum "Si O2"
_cell_formula_units_Z 16
_cell_length_a 14.994354
_cell_length_b 8.051865
_cell_length_c 9.274825
_cell_angle_alpha 97.142052
_cell_angle_beta 137.661374
_cell_angle_gamma 74.279953
_cell_volume 720.973232
_symmetry_space_group_name_H-M "P -1"
_symmetry_group_IT_number 2
_symmetry_cell_setting 'triclinic'
loop_
_space_group_symop_operation_xyz
x,y,z
-x,-y,-z
loop_
_atom_site_type_symbol
_atom_site_label
_atom_site_fract_x
_atom_site_fract_y
_atom_site_fract_z
Si Si1 0.586858 0.591828 0.941224
Si Si2 0.067839 0.559668 0.947915
Si Si3 0.867541 0.620691 0.284602
Si Si4 0.366926 0.431107 0.321204
Si Si5 0.396472 0.104647 0.507851
Si Si6 0.107634 0.055849 0.243157
Si Si7 0.852946 0.006210 0.389942
Si Si8 0.567791 0.223522 0.960440
O O1 0.742479 0.546309 0.176418
O O2 0.493661 0.730580 0.949104
O O3 0.602483 0.660731 0.808236
O O4 0.545784 0.411222 0.876696
O O5 0.099833 0.408109 0.849652
O O6 0.967826 0.740251 0.794777
O O7 0.222201 0.578510 0.160902
O O8 0.000000 0.500000 0.000000
O O9 0.832946 0.815909 0.318084
O O10 0.000000 0.500000 0.500000
O O11 0.500000 0.500000 0.500000
O O12 0.350243 0.299121 0.409067
O O13 0.258987 0.041962 0.357480
O O14 0.483040 0.115474 0.757072
O O15 0.500000 0.000000 0.500000
O O16 0.136472 0.960868 0.422509
O O17 0.000000 0.000000 0.000000
O O18 0.000000 0.000000 0.500000
O O19 0.727904 0.133268 0.167761
#
# Coordination Sequence:
#
# PCOD9047974 Si02
#       8
#     2   2   2   2   2   2   2   2
#     4  10  24  44  72 103 136 188 240 304 352 438
#     4  11  25  45  72 102 140 186 243 298 356 435
#     4  11  23  44  71  97 141 183 238 291 364 425
#     4  11  24  45  73 104 141 190 236 296 364 428
#     4  12  29  47  74 108 152 193 241 304 367 439
#     4  12  30  50  72 111 149 195 245 302 370 442
#     4  12  29  47  74 107 148 197 243 307 371 430
#     4  11  26  47  72 105 147 185 252 297 367 432
#
# _framework density 22.192225000000001
#
# number of rings (size 3 to 8) (size 9 to 14) (size 15 to 20)
#    0.000    0.750    3.750    1.500   12.250    1.000 
#    0.000    0.000    0.000    0.000    0.000    0.000 
#    0.000    0.000    0.000    0.000    0.000    0.000 
#
# Total GULP energy -89388.279344 kJ/mol
# GULP energy per Si atom -5586.767459 kJ/mol
# Density = 2.214171 g / cm^3
# Si number density = 22.192225 Si / 1000 Ang^3
#
#
#
# Elastic Constant Matrix: (Units=GPa)
#
#
# Indices 1 2 3 4 5 6 
#
# 1 137.7795 8.8099 57.0376 11.4965 20.8627 -8.3206
# 2 8.8099 49.3407 23.6165 12.2311 -1.8738 -13.5408
# 3 57.0376 23.6165 132.5222 10.8384 18.4442 -9.9995
# 4 11.4965 12.2311 10.8384 37.2644 2.7648 4.5343
# 5 20.8627 -1.8738 18.4442 2.7648 45.2739 -5.5003
# 6 -8.3206 -13.5408 -9.9995 4.5343 -5.5003 33.8603
#
#
#
# Elastic Compliance Matrix: (Units=1/GPa)
#
#
# Indices 1 2 3 4 5 6 
#
# 1 0.009308 0.000858 -0.003526 -0.002120 -0.002510 0.001465
# 2 0.000858 0.028244 -0.004288 -0.010135 0.004640 0.012351
# 3 -0.003526 -0.004288 0.010229 -0.000285 -0.002698 0.000040
# 4 -0.002120 -0.010135 -0.000285 0.032219 -0.002432 -0.009368
# 5 -0.002510 0.004640 -0.002698 -0.002432 0.025276 0.004874
# 6 0.001465 0.012351 0.000040 -0.009368 0.004874 0.036890
#
#
# Mechanical properties :
#
#
# Convention : Reuss Voigt Hill
#
# Bulk Modulus (GPa) = 29.52394 55.39672 42.46033
# Shear Modulus (GPa) = 29.87425 38.62494 34.24959
#
# Velocity S-wave (km/s) = 3.67298 4.17642 3.93277
# Velocity P-wave (km/s) = 5.59646 6.94788 6.30846
#
# Compressibility (1/GPa) = 0.03387081
#
# Stress axis : x y z
#
# Youngs Moduli (GPa) = 107.43238 35.40534 97.75851
#
# Poissons Ratio (x) = -0.03038 0.34468
# Poissons Ratio (y) = -0.09217 0.41915
# Poissons Ratio (z) = 0.37879 0.15180
#
# Static dielectric constant tensor:
#      x y z
#    x 1.758140 -0.055570 -0.051750 
#    y -0.055570 1.765300 0.049130 
#    z -0.051750 0.049130 1.940250 
# 
# From -- ./inp_files/299007.got.cif
#   From: 2010.05.17/outbox.cif.g08.bks.cpg/sg2_150_cif.got.tgz:299007.got - 2010.06.03 11:33:40.
