data_PCOD9047073
_publ_section_title
;
Structure prediction by ZEFSAII (Michael W. Deem and Ramdas Pophale) SiO2 
 PCOD9047073
Probable space group: P -1
;
_chemical_formula_sum "Si O2"
_cell_formula_units_Z 15
_cell_length_a 10.159782
_cell_length_b 8.803163
_cell_length_c 9.853637
_cell_angle_alpha 73.839779
_cell_angle_beta 126.678140
_cell_angle_gamma 122.932311
_cell_volume 591.814522
_symmetry_space_group_name_H-M "P -1"
_symmetry_group_IT_number 2
_symmetry_cell_setting 'triclinic'
loop_
_space_group_symop_operation_xyz
x,y,z
-x,-y,-z
loop_
_atom_site_type_symbol
_atom_site_label
_atom_site_fract_x
_atom_site_fract_y
_atom_site_fract_z
Si Si1 0.315785 0.912835 0.580883
Si Si2 0.978920 0.570004 0.118646
Si Si3 0.915243 0.704200 0.687808
Si Si4 0.734261 0.655406 0.309078
Si Si5 0.000000 0.500000 0.500000
Si Si6 0.317139 0.363918 0.168170
Si Si7 0.684332 0.978483 0.147044
Si Si8 0.257747 0.986936 0.236190
O O1 0.195318 0.697497 0.566096
O O2 0.254608 0.989549 0.396833
O O3 0.292215 0.992769 0.685154
O O4 0.535064 0.974709 0.684961
O O5 0.041187 0.460249 0.287434
O O6 0.113511 0.783826 0.155399
O O7 0.768964 0.536649 0.000459
O O8 0.000000 0.500000 0.000000
O O9 0.838651 0.744452 0.494179
O O10 0.761799 0.640701 0.727421
O O11 0.116873 0.860981 0.825469
O O12 0.539648 0.477918 0.271288
O O13 0.681024 0.790170 0.162946
O O14 0.879865 0.603323 0.346703
O O15 0.238143 0.155341 0.129752
O O16 0.500000 0.000000 0.000000
#
# Coordination Sequence:
#
# PCOD9047073 Si02
#       8
#     2   2   2   2   1   2   2   2
#     4  11  26  45  74 105 145 193 247 301 363 437
#     4  10  24  43  71 104 149 187 239 305 365 429
#     4  11  24  44  70 105 143 200 242 300 359 444
#     4  12  25  46  71 104 146 193 249 300 361 446
#     4  12  24  48  70 104 146 186 246 304 360 428
#     4  11  24  42  69 107 143 191 245 301 368 425
#     4  12  28  48  74 107 152 193 245 305 374 435
#     4  11  24  44  73 108 143 191 246 301 358 442
#
# _framework density 25.345780000000001
#
# number of rings (size 3 to 8) (size 9 to 14) (size 15 to 20)
#    0.000    0.800    2.667    3.600   11.200    0.000 
#    0.000    0.667    0.000    0.000    0.000    0.000 
#    0.000    0.000    0.000    0.000    0.000    0.000 
#
# Total GULP energy -83829.865459 kJ/mol
# GULP energy per Si atom -5588.657697 kJ/mol
# Density = 2.528809 g / cm^3
# Si number density = 25.345780 Si / 1000 Ang^3
#
#
#
# Elastic Constant Matrix: (Units=GPa)
#
#
# Indices 1 2 3 4 5 6 
#
# 1 93.1920 39.1284 38.0601 5.3056 20.2281 10.5278
# 2 39.1284 125.6811 30.7315 -10.1382 45.2717 -8.1426
# 3 38.0601 30.7315 110.5169 -13.7424 30.2746 -4.6979
# 4 5.3056 -10.1382 -13.7424 46.5015 2.2222 16.0369
# 5 20.2281 45.2717 30.2746 2.2222 58.3972 -0.1077
# 6 10.5278 -8.1426 -4.6979 16.0369 -0.1077 37.9160
#
#
#
# Elastic Compliance Matrix: (Units=1/GPa)
#
#
# Indices 1 2 3 4 5 6 
#
# 1 0.014920 -0.004218 -0.004622 -0.002433 0.000583 -0.004591
# 2 -0.004218 0.012696 0.000858 0.002994 -0.008935 0.002712
# 3 -0.004622 0.000858 0.012557 0.004288 -0.005734 0.001194
# 4 -0.002433 0.002994 0.004288 0.027275 -0.004757 -0.009700
# 5 0.000583 -0.008935 -0.005734 -0.004757 0.027001 -0.000702
# 6 -0.004591 0.002712 0.001194 -0.009700 -0.000702 0.032480
#
#
# Mechanical properties :
#
#
# Convention : Reuss Voigt Hill
#
# Bulk Modulus (GPa) = 41.31212 60.58110 50.94661
# Shear Modulus (GPa) = 33.12058 43.32759 38.22409
#
# Velocity S-wave (km/s) = 3.61882 4.13905 3.88765
# Velocity P-wave (km/s) = 5.81343 6.84076 6.34791
#
# Compressibility (1/GPa) = 0.02420597
#
# Stress axis : x y z
#
# Youngs Moduli (GPa) = 67.02321 78.76585 79.63984
#
# Poissons Ratio (x) = 0.33226 0.36813
# Poissons Ratio (y) = 0.28273 -0.06829
# Poissons Ratio (z) = 0.30981 -0.06754
#
# Static dielectric constant tensor:
#      x y z
#    x 1.803100 -0.098690 0.093010 
#    y -0.098690 1.974700 0.026220 
#    z 0.093010 0.026220 1.874510 
# 
# From -- ./inp_files/419266.got.cif
#   From: 2010.05.17/outbox.cif.g08.bks.cpg/sg2_210_cif.got.tgz:419266.got - 2010.06.03 11:33:40.
