data_PCOD9047235
_publ_section_title
;
Structure prediction by ZEFSAII (Michael W. Deem and Ramdas Pophale) SiO2 
 PCOD9047235
Probable space group: P -1
;
_chemical_formula_sum "Si O2"
_cell_formula_units_Z 10
_cell_length_a 10.278775
_cell_length_b 11.887354
_cell_length_c 5.280249
_cell_angle_alpha 101.651200
_cell_angle_beta 65.704793
_cell_angle_gamma 133.449502
_cell_volume 423.696136
_symmetry_space_group_name_H-M "P -1"
_symmetry_group_IT_number 2
_symmetry_cell_setting 'triclinic'
loop_
_space_group_symop_operation_xyz
x,y,z
-x,-y,-z
loop_
_atom_site_type_symbol
_atom_site_label
_atom_site_fract_x
_atom_site_fract_y
_atom_site_fract_z
Si Si1 0.547475 0.144579 0.660230
Si Si2 0.385302 0.596689 0.604861
Si Si3 0.138206 0.578112 0.174088
Si Si4 0.144094 0.025205 0.099316
Si Si5 0.790963 0.725676 0.484209
O O1 0.611470 0.277549 0.469454
O O2 0.713098 0.237605 0.786714
O O3 0.500000 0.000000 0.500000
O O4 0.341679 0.074573 0.891713
O O5 0.603609 0.664946 0.444814
O O6 0.253733 0.430510 0.492861
O O7 0.294510 0.564754 0.946388
O O8 0.000000 0.500000 0.500000
O O9 0.000000 0.500000 0.000000
O O10 0.204334 0.171097 0.269711
O O11 0.005458 0.854989 0.260161
O O12 0.000000 0.000000 0.000000
#
# Coordination Sequence:
#
# PCOD9047235 Si02
#       5
#     2   2   2   2   2
#     4  12  28  48  76 114 160 205 261 323 391 470
#     4  11  24  48  74 108 149 200 264 317 385 464
#     4  12  27  50  76 110 154 210 259 316 392 466
#     4  11  23  44  72 112 149 196 251 322 395 456
#     4  10  24  43  75 108 146 196 256 322 386 465
#
# _framework density 23.60182
#
# number of rings (size 3 to 8) (size 9 to 14) (size 15 to 20)
#    0.000    0.800    6.000    0.000    2.800    4.800 
#    0.000    0.000    0.000    0.000    0.000    0.000 
#    0.000    0.000    0.000    0.000    0.000    0.000 
#
# Total GULP energy -55748.924031 kJ/mol
# GULP energy per Si atom -5574.892403 kJ/mol
# Density = 2.354810 g / cm^3
# Si number density = 23.601820 Si / 1000 Ang^3
#
#
#
# Elastic Constant Matrix: (Units=GPa)
#
#
# Indices 1 2 3 4 5 6 
#
# 1 85.8561 74.1801 49.3083 2.9308 -5.7702 18.0858
# 2 74.1801 265.8896 67.4470 -2.6352 3.1000 24.4329
# 3 49.3083 67.4470 317.8789 146.3508 -88.0487 -32.0834
# 4 2.9308 -2.6352 146.3508 207.2937 -51.6679 -55.5964
# 5 -5.7702 3.1000 -88.0487 -51.6679 58.9073 15.5835
# 6 18.0858 24.4329 -32.0834 -55.5964 15.5835 67.0396
#
#
#
# Elastic Compliance Matrix: (Units=1/GPa)
#
#
# Indices 1 2 3 4 5 6 
#
# 1 0.017195 -0.003747 -0.002600 0.000266 -0.000676 -0.004140
# 2 -0.003747 0.005255 -0.001376 0.000335 -0.002202 -0.000773
# 3 -0.002600 -0.001376 0.007687 -0.003254 0.008392 0.000233
# 4 0.000266 0.000335 -0.003254 0.008935 0.001582 0.005291
# 5 -0.000676 -0.002202 0.008392 0.001582 0.031206 -0.000940
# 6 -0.004140 -0.000773 0.000233 0.005291 -0.000940 0.021033
#
#
# Mechanical properties :
#
#
# Convention : Reuss Voigt Hill
#
# Bulk Modulus (GPa) = 68.06235 116.83283 92.44759
# Shear Modulus (GPa) = 44.78040 98.56074 71.67057
#
# Velocity S-wave (km/s) = 4.36056 6.46919 5.51656
# Velocity P-wave (km/s) = 7.36566 10.26692 8.93484
#
# Compressibility (1/GPa) = 0.01469241
#
# Stress axis : x y z
#
# Youngs Moduli (GPa) = 58.15513 190.27882 130.08628
#
# Poissons Ratio (x) = 0.71296 0.33819
# Poissons Ratio (y) = 0.21790 0.17902
# Poissons Ratio (z) = 0.15119 0.26185
#
# Static dielectric constant tensor:
#      x y z
#    x 1.930740 -0.028520 0.091100 
#    y -0.028520 1.944960 -0.052190 
#    z 0.091100 -0.052190 1.977020 
# 
# From -- ./inp_files/18542.got.cif
#   From: 2010.05.17/outbox.cif.g08.bks.cpg/sg2_10_cif.got.tgz:18542.got - 2010.06.03 11:33:40.
