data_PCOD9047578
_publ_section_title
;
Structure prediction by ZEFSAII (Michael W. Deem and Ramdas Pophale) SiO2 
 PCOD9047578
Probable space group: P -1
;
_chemical_formula_sum "Si O2"
_cell_formula_units_Z 16
_cell_length_a 11.622084
_cell_length_b 14.933743
_cell_length_c 5.146987
_cell_angle_alpha 55.965772
_cell_angle_beta 78.496661
_cell_angle_gamma 59.763984
_cell_volume 635.332854
_symmetry_space_group_name_H-M "P -1"
_symmetry_group_IT_number 2
_symmetry_cell_setting 'triclinic'
loop_
_space_group_symop_operation_xyz
x,y,z
-x,-y,-z
loop_
_atom_site_type_symbol
_atom_site_label
_atom_site_fract_x
_atom_site_fract_y
_atom_site_fract_z
Si Si1 0.717160 0.084500 0.646066
Si Si2 0.390054 0.087674 0.122985
Si Si3 0.533069 0.778719 0.749185
Si Si4 0.907025 0.887384 0.248743
Si Si5 0.919376 0.179036 0.227732
Si Si6 0.192936 0.305924 0.511609
Si Si7 0.392424 0.453805 0.624510
Si Si8 0.206680 0.531519 0.086238
O O1 0.564743 0.190825 0.499509
O O2 0.804463 0.142997 0.398019
O O3 0.702524 0.975625 0.679390
O O4 0.780142 0.015216 0.001404
O O5 0.477262 0.108644 0.263798
O O6 0.278476 0.224562 0.852257
O O7 0.500000 0.000000 0.000000
O O8 0.685252 0.718940 0.690725
O O9 0.520191 0.686564 0.098141
O O10 0.879781 0.769957 0.431933
O O11 0.968467 0.889661 0.492134
O O12 0.018005 0.861159 0.019079
O O13 0.872857 0.323561 0.050980
O O14 0.124350 0.455177 0.297067
O O15 0.500000 0.500000 0.500000
O O16 0.323458 0.473263 0.345415
O O17 0.275493 0.516883 0.795308
#
# Coordination Sequence:
#
# PCOD9047578 Si02
#       8
#     2   2   2   2   2   2   2   2
#     4  11  25  43  70 101 138 183 224 289 349 416
#     4  11  22  38  66 103 141 176 221 274 347 420
#     4  11  23  42  69 104 146 170 226 282 358 422
#     4  11  28  46  73  95 142 181 244 287 336 405
#     4  12  27  50  67 102 135 192 237 286 338 401
#     4  10  24  44  68 106 133 182 224 290 350 409
#     4  11  23  41  68 105 142 182 219 276 350 425
#     4  11  24  44  71  96 142 178 235 284 339 409
#
# _framework density 25.183647000000001
#
# number of rings (size 3 to 8) (size 9 to 14) (size 15 to 20)
#    0.000    1.000    2.500    3.000    3.500    5.000 
#    0.000    0.000    0.000    0.000    0.000    0.000 
#    0.000    0.000    0.000    0.000    0.000    0.000 
#
# Total GULP energy -89433.667733 kJ/mol
# GULP energy per Si atom -5589.604233 kJ/mol
# Density = 2.512633 g / cm^3
# Si number density = 25.183647 Si / 1000 Ang^3
#
#
#
# Elastic Constant Matrix: (Units=GPa)
#
#
# Indices 1 2 3 4 5 6 
#
# 1 108.6547 -2.1542 34.5525 -2.4650 -34.0184 7.4936
# 2 -2.1542 73.2260 20.7288 -10.8928 -9.3089 -0.7541
# 3 34.5525 20.7288 102.3240 -22.6965 -21.2474 9.6918
# 4 -2.4650 -10.8928 -22.6965 53.7113 8.9620 -9.7881
# 5 -34.0184 -9.3089 -21.2474 8.9620 49.3744 -5.7675
# 6 7.4936 -0.7541 9.6918 -9.7881 -5.7675 22.9207
#
#
#
# Elastic Compliance Matrix: (Units=1/GPa)
#
#
# Indices 1 2 3 4 5 6 
#
# 1 0.012892 0.002039 -0.003415 -0.002057 0.007987 -0.001572
# 2 0.002039 0.015251 -0.002992 0.001914 0.002956 0.002661
# 3 -0.003415 -0.002992 0.012993 0.004022 0.001671 -0.002338
# 4 -0.002057 0.001914 0.004022 0.022484 -0.002471 0.008015
# 5 0.007987 0.002956 0.001671 -0.002471 0.027799 0.002719
# 6 -0.001572 0.002661 -0.002338 0.008015 0.002719 0.049326
#
#
# Mechanical properties :
#
#
# Convention : Reuss Voigt Hill
#
# Bulk Modulus (GPa) = 30.86379 43.38433 37.12406
# Shear Modulus (GPa) = 31.19507 40.60645 35.90076
#
# Velocity S-wave (km/s) = 3.52334 4.01984 3.77975
# Velocity P-wave (km/s) = 5.36973 6.22978 5.81567
#
# Compressibility (1/GPa) = 0.03240043
#
# Stress axis : x y z
#
# Youngs Moduli (GPa) = 77.56450 65.56846 76.96592
#
# Poissons Ratio (x) = -0.13371 0.26287
# Poissons Ratio (y) = -0.15818 0.23027
# Poissons Ratio (z) = 0.26492 0.19617
#
# Static dielectric constant tensor:
#      x y z
#    x 1.976600 -0.018220 -0.016420 
#    y -0.018220 2.250040 -0.077320 
#    z -0.016420 -0.077320 2.092780 
# 
# From -- ./inp_files/80107.got.cif
#   From: 2010.05.17/outbox.cif.g08.bks.cpg/sg2_41_cif.got.tgz:80107.got - 2010.06.03 11:33:40.
