data_PCOD9047918
_publ_section_title
;
Structure prediction by ZEFSAII (Michael W. Deem and Ramdas Pophale) SiO2 
 PCOD9047918
Probable space group: P -1
;
_chemical_formula_sum "Si O2"
_cell_formula_units_Z 16
_cell_length_a 8.744671
_cell_length_b 11.084846
_cell_length_c 9.657640
_cell_angle_alpha 94.281054
_cell_angle_beta 87.936916
_cell_angle_gamma 52.757360
_cell_volume 739.272907
_symmetry_space_group_name_H-M "P -1"
_symmetry_group_IT_number 2
_symmetry_cell_setting 'triclinic'
loop_
_space_group_symop_operation_xyz
x,y,z
-x,-y,-z
loop_
_atom_site_type_symbol
_atom_site_label
_atom_site_fract_x
_atom_site_fract_y
_atom_site_fract_z
Si Si1 0.368767 0.057933 0.367690
Si Si2 0.419762 0.851928 0.812978
Si Si3 0.677399 0.511391 0.232397
Si Si4 0.065338 0.609256 0.030893
Si Si5 0.668199 0.504043 0.726654
Si Si6 0.042217 0.619825 0.530465
Si Si7 0.011038 0.091729 0.881197
Si Si8 0.612859 0.174197 0.853262
O O1 0.479792 0.079597 0.247149
O O2 0.158016 0.215335 0.421384
O O3 0.500000 0.000000 0.500000
O O4 0.336811 0.948318 0.276443
O O5 0.544880 0.685237 0.725634
O O6 0.414983 0.848333 0.983465
O O7 0.196755 0.954103 0.780601
O O8 0.493801 0.518268 0.264216
O O9 0.805171 0.456444 0.357742
O O10 0.589308 0.674133 0.180938
O O11 0.825040 0.390667 0.105082
O O12 0.223193 0.524974 0.137102
O O13 0.936600 0.790583 0.086311
O O14 0.000000 0.500000 0.000000
O O15 0.836676 0.392290 0.604815
O O16 0.000000 0.500000 0.500000
O O17 0.792034 0.183332 0.842368
O O18 0.000000 0.000000 0.000000
#
# Coordination Sequence:
#
# PCOD9047918 Si02
#       8
#     2   2   2   2   2   2   2   2
#     4  12  29  48  71 104 150 190 240 300 365 444
#     4  11  25  45  75 105 145 186 241 303 365 434
#     4  12  25  45  75 105 144 188 245 299 365 434
#     4  12  26  43  76 111 146 193 248 308 366 433
#     4  12  25  48  72 108 145 193 243 302 365 438
#     4  12  27  49  70 102 147 190 246 298 367 443
#     4  10  24  44  71 109 151 185 239 306 371 438
#     4  11  24  46  73 107 142 188 238 301 366 430
#
# _framework density 21.642887000000002
#
# number of rings (size 3 to 8) (size 9 to 14) (size 15 to 20)
#    0.000    0.500    3.750    4.125    8.750    0.000 
#    0.000    1.250    0.000    0.000    0.000    0.000 
#    0.000    0.000    0.000    0.000    0.000    0.000 
#
# Total GULP energy -89179.613499 kJ/mol
# GULP energy per Si atom -5573.725844 kJ/mol
# Density = 2.159363 g / cm^3
# Si number density = 21.642887 Si / 1000 Ang^3
#
#
#
# Elastic Constant Matrix: (Units=GPa)
#
#
# Indices 1 2 3 4 5 6 
#
# 1 143.4419 24.2185 52.3298 -5.4626 10.0492 -0.7842
# 2 24.2185 113.4763 21.5774 4.4123 6.9206 -26.6543
# 3 52.3298 21.5774 111.4587 0.9078 1.5686 -27.8702
# 4 -5.4626 4.4123 0.9078 33.9793 -7.1226 2.7063
# 5 10.0492 6.9206 1.5686 -7.1226 39.3129 7.2057
# 6 -0.7842 -26.6543 -27.8702 2.7063 7.2057 55.6892
#
#
#
# Elastic Compliance Matrix: (Units=1/GPa)
#
#
# Indices 1 2 3 4 5 6 
#
# 1 0.009104 -0.001781 -0.004692 0.001868 -0.000930 -0.003043
# 2 -0.001781 0.010799 0.000262 -0.002792 -0.003025 0.005802
# 3 -0.004692 0.000262 0.012824 -0.001856 -0.000920 0.006687
# 4 0.001868 -0.002792 -0.001856 0.031923 0.006726 -0.004661
# 5 -0.000930 -0.003025 -0.000920 0.006726 0.028552 -0.005943
# 6 -0.003043 0.005802 0.006687 -0.004661 -0.005943 0.025033
#
#
# Mechanical properties :
#
#
# Convention : Reuss Voigt Hill
#
# Bulk Modulus (GPa) = 49.25430 62.73647 55.99539
# Shear Modulus (GPa) = 36.38323 43.81302 40.09813
#
# Velocity S-wave (km/s) = 4.10453 4.50417 4.30899
# Velocity P-wave (km/s) = 6.72830 7.49000 7.11935
#
# Compressibility (1/GPa) = 0.02030280
#
# Stress axis : x y z
#
# Youngs Moduli (GPa) = 109.84482 92.60462 77.97636
#
# Poissons Ratio (x) = 0.16497 0.36590
# Poissons Ratio (y) = 0.19568 -0.02042
# Poissons Ratio (z) = 0.51544 -0.02425
#
# Static dielectric constant tensor:
#      x y z
#    x 1.789850 0.062930 -0.038600 
#    y 0.062930 1.899330 0.010800 
#    z -0.038600 0.010800 1.771210 
# 
# From -- ./inp_files/187487.got.cif
#   From: 2010.05.17/outbox.cif.g08.bks.cpg/sg2_94_cif.got.tgz:187487.got - 2010.06.03 11:33:40.
