data_PCOD9047309
_publ_section_title
;
Structure prediction by ZEFSAII (Michael W. Deem and Ramdas Pophale) SiO2 
 PCOD9047309
Probable space group: P -1
;
_chemical_formula_sum "Si O2"
_cell_formula_units_Z 12
_cell_length_a 7.696014
_cell_length_b 16.164834
_cell_length_c 4.922811
_cell_angle_alpha 62.987814
_cell_angle_beta 69.731769
_cell_angle_gamma 53.941864
_cell_volume 438.416887
_symmetry_space_group_name_H-M "P -1"
_symmetry_group_IT_number 2
_symmetry_cell_setting 'triclinic'
loop_
_space_group_symop_operation_xyz
x,y,z
-x,-y,-z
loop_
_atom_site_type_symbol
_atom_site_label
_atom_site_fract_x
_atom_site_fract_y
_atom_site_fract_z
Si Si1 0.864167 0.170367 0.911606
Si Si2 0.747464 0.915677 0.562759
Si Si3 0.383281 0.604841 0.591337
Si Si4 0.703140 0.662969 0.619448
Si Si5 0.931445 0.669516 0.992522
Si Si6 0.700975 0.115500 0.584959
O O1 0.725804 0.293714 0.707295
O O2 0.758731 0.115634 0.866745
O O3 0.100412 0.120824 0.731206
O O4 0.819628 0.161119 0.261549
O O5 0.812289 0.800969 0.835425
O O6 0.500000 0.000000 0.500000
O O7 0.778444 0.996989 0.617460
O O8 0.500000 0.500000 0.500000
O O9 0.556233 0.615928 0.666703
O O10 0.179476 0.617908 0.850249
O O11 0.797879 0.638041 0.905707
O O12 0.546093 0.793630 0.474148
O O13 0.901228 0.633621 0.356445
#
# Coordination Sequence:
#
# PCOD9047309 Si02
#       6
#     2   2   2   2   2   2
#     4  10  24  44  64  94 132 170 222 278 324 397
#     4  11  23  39  65  99 132 176 219 264 331 401
#     4  10  25  47  74 101 133 180 229 282 345 400
#     4  11  24  46  70  99 143 175 223 285 336 397
#     4  11  26  46  68 104 140 176 227 280 331 406
#     4  11  22  43  66  93 134 177 217 267 332 394
#
# _framework density 27.371206999999998
#
# number of rings (size 3 to 8) (size 9 to 14) (size 15 to 20)
#    0.000    1.333    1.667    3.000    0.000   12.667 
#    0.000   11.667    0.000    0.000    0.000    0.000 
#    0.000    0.000    0.000    0.000    0.000    0.000 
#
# Total GULP energy -67396.510223 kJ/mol
# GULP energy per Si atom -5616.375852 kJ/mol
# Density = 2.730891 g / cm^3
# Si number density = 27.371207 Si / 1000 Ang^3
#
#
#
# Elastic Constant Matrix: (Units=GPa)
#
#
# Indices 1 2 3 4 5 6 
#
# 1 108.4917 54.8469 4.9572 14.7188 -20.0647 12.1357
# 2 54.8469 202.1562 33.1134 9.3730 -16.3149 2.6859
# 3 4.9572 33.1134 64.4133 17.6278 -3.7017 -5.0860
# 4 14.7188 9.3730 17.6278 34.1516 -10.3483 8.3805
# 5 -20.0647 -16.3149 -3.7017 -10.3483 38.3691 13.2047
# 6 12.1357 2.6859 -5.0860 8.3805 13.2047 32.5793
#
#
#
# Elastic Compliance Matrix: (Units=1/GPa)
#
#
# Indices 1 2 3 4 5 6 
#
# 1 0.013094 -0.002849 0.000544 -0.000818 0.008092 -0.007627
# 2 -0.002849 0.006402 -0.003719 0.002363 0.002017 -0.001473
# 3 0.000544 -0.003719 0.021928 -0.015055 -0.006727 0.010126
# 4 -0.000818 0.002363 -0.015055 0.048428 0.020039 -0.022820
# 5 0.008092 0.002017 -0.006727 0.020039 0.045482 -0.027820
# 6 -0.007627 -0.001473 0.010126 -0.022820 -0.027820 0.052383
#
#
# Mechanical properties :
#
#
# Convention : Reuss Voigt Hill
#
# Bulk Modulus (GPa) = 34.04290 62.32179 48.18235
# Shear Modulus (GPa) = 23.85997 39.82957 31.84477
#
# Velocity S-wave (km/s) = 2.95569 3.81880 3.41462
# Velocity P-wave (km/s) = 4.91046 6.50099 5.76088
#
# Compressibility (1/GPa) = 0.02937470
#
# Stress axis : x y z
#
# Youngs Moduli (GPa) = 76.37365 156.21090 45.60443
#
# Poissons Ratio (x) = 0.44506 -0.02480
# Poissons Ratio (y) = 0.21760 0.16959
# Poissons Ratio (z) = -0.04153 0.58090
#
# Static dielectric constant tensor:
#      x y z
#    x 2.236200 0.006590 -0.033570 
#    y 0.006590 2.094500 -0.022410 
#    z -0.033570 -0.022410 2.054550 
# 
# From -- ./inp_files/41700.got.cif
#   From: 2010.05.17/outbox.cif.g08.bks.cpg/sg2_21_cif.got.tgz:41700.got - 2010.06.03 11:33:40.
