data_PCOD9047781
_publ_section_title
;
Structure prediction by ZEFSAII (Michael W. Deem and Ramdas Pophale) SiO2 
 PCOD9047781
Probable space group: P -1
;
_chemical_formula_sum "Si O2"
_cell_formula_units_Z 13
_cell_length_a 23.527491
_cell_length_b 5.039741
_cell_length_c 11.107019
_cell_angle_alpha 115.215574
_cell_angle_beta 24.339703
_cell_angle_gamma 113.642208
_cell_volume 490.776332
_symmetry_space_group_name_H-M "P -1"
_symmetry_group_IT_number 2
_symmetry_cell_setting 'triclinic'
loop_
_space_group_symop_operation_xyz
x,y,z
-x,-y,-z
loop_
_atom_site_type_symbol
_atom_site_label
_atom_site_fract_x
_atom_site_fract_y
_atom_site_fract_z
Si Si1 0.000000 0.000000 0.000000
Si Si2 0.829080 0.245247 0.857590
Si Si3 0.641116 0.761711 0.246736
Si Si4 0.223523 0.353921 0.618102
Si Si5 0.715806 0.320447 0.678364
Si Si6 0.959189 0.262971 0.366232
Si Si7 0.538903 0.583115 0.649662
O O1 0.061852 0.346356 0.950460
O O2 0.008051 0.009629 0.135605
O O3 0.909871 0.130854 0.563846
O O4 0.930729 0.478968 0.770381
O O5 0.709344 0.447194 0.075619
O O6 0.758350 0.992992 0.025088
O O7 0.575578 0.809832 0.514616
O O8 0.533174 0.694480 0.333732
O O9 0.277164 0.468621 0.408776
O O10 0.322679 0.473398 0.554299
O O11 0.229836 0.991674 0.535884
O O12 0.824573 0.393431 0.586900
O O13 0.567734 0.299388 0.023215
#
# Coordination Sequence:
#
# PCOD9047781 Si02
#       7
#     1   2   2   2   2   2   2
#     4  10  24  44  70 104 134 182 234 294 342 418
#     4  11  25  47  73 106 141 192 230 297 353 421
#     4  11  27  44  74 102 142 185 240 290 344 417
#     4  11  26  44  71  99 142 183 230 288 357 416
#     4  11  25  44  69 102 138 187 226 289 351 425
#     4  10  24  45  75 104 146 182 240 291 361 413
#     4  11  25  46  69 105 141 185 235 288 345 424
#
# _framework density 26.488645999999999
#
# number of rings (size 3 to 8) (size 9 to 14) (size 15 to 20)
#    0.000    1.231    1.538    1.846    4.308   16.000 
#    0.000    0.000    0.000    0.000    0.000    0.000 
#    0.000    0.000    0.000    0.000    0.000    0.000 
#
# Total GULP energy -72624.797782 kJ/mol
# GULP energy per Si atom -5586.522906 kJ/mol
# Density = 2.642836 g / cm^3
# Si number density = 26.488646 Si / 1000 Ang^3
#
#
#
# Elastic Constant Matrix: (Units=GPa)
#
#
# Indices 1 2 3 4 5 6 
#
# 1 135.0579 23.4452 26.1575 -23.9243 18.0761 20.2600
# 2 23.4452 78.7535 29.4001 -28.0718 12.3793 -1.8926
# 3 26.1575 29.4001 116.7471 -42.1532 40.3673 -7.4030
# 4 -23.9243 -28.0718 -42.1532 45.2565 2.4817 5.7207
# 5 18.0761 12.3793 40.3673 2.4817 49.5047 -0.4241
# 6 20.2600 -1.8926 -7.4030 5.7207 -0.4241 41.3543
#
#
#
# Elastic Compliance Matrix: (Units=1/GPa)
#
#
# Indices 1 2 3 4 5 6 
#
# 1 0.010254 0.000099 0.003070 0.009453 -0.006796 -0.005847
# 2 0.000099 0.018032 0.003905 0.015436 -0.008510 -0.000747
# 3 0.003070 0.003905 0.026420 0.030164 -0.025162 -0.001026
# 4 0.009453 0.015436 0.030164 0.067747 -0.035375 -0.008259
# 5 -0.006796 -0.008510 -0.025162 -0.035375 0.047133 0.003812
# 6 -0.005847 -0.000747 -0.001026 -0.008259 0.003812 0.028009
#
#
# Mechanical properties :
#
#
# Convention : Reuss Voigt Hill
#
# Bulk Modulus (GPa) = 14.52343 54.28489 34.40416
# Shear Modulus (GPa) = 24.22478 43.99348 34.10913
#
# Velocity S-wave (km/s) = 3.02741 4.07977 3.59233
# Velocity P-wave (km/s) = 4.20893 6.53688 5.49754
#
# Compressibility (1/GPa) = 0.06885428
#
# Stress axis : x y z
#
# Youngs Moduli (GPa) = 97.52644 55.45552 37.84951
#
# Poissons Ratio (x) = -0.00547 -0.11620
# Poissons Ratio (y) = -0.00962 -0.14782
# Poissons Ratio (z) = -0.29940 -0.21657
#
# Static dielectric constant tensor:
#      x y z
#    x 1.863680 -0.009130 0.404240 
#    y -0.009130 2.040690 -0.008030 
#    z 0.404240 -0.008030 1.510030 
# 
# From -- ./inp_files/92095.got.cif
#   From: 2010.05.17/outbox.cif.g08.bks.cpg/sg2_47_cif.got.tgz:92095.got - 2010.06.03 11:33:40.
