data_PCOD9047533
_publ_section_title
;
Structure prediction by ZEFSAII (Michael W. Deem and Ramdas Pophale) SiO2 
 PCOD9047533
Probable space group: P -1
;
_chemical_formula_sum "Si O2"
_cell_formula_units_Z 14
_cell_length_a 8.503271
_cell_length_b 9.301144
_cell_length_c 8.350755
_cell_angle_alpha 101.357922
_cell_angle_beta 90.880595
_cell_angle_gamma 71.181642
_cell_volume 612.089196
_symmetry_space_group_name_H-M "P -1"
_symmetry_group_IT_number 2
_symmetry_cell_setting 'triclinic'
loop_
_space_group_symop_operation_xyz
x,y,z
-x,-y,-z
loop_
_atom_site_type_symbol
_atom_site_label
_atom_site_fract_x
_atom_site_fract_y
_atom_site_fract_z
Si Si1 0.572103 0.836980 0.882641
Si Si2 0.575334 0.379687 0.302150
Si Si3 0.085871 0.321558 0.015925
Si Si4 0.662113 0.982118 0.603127
Si Si5 0.939234 0.790533 0.328699
Si Si6 0.672925 0.300784 0.635819
Si Si7 0.100932 0.521082 0.663243
O O1 0.427712 0.762312 0.837256
O O2 0.718305 0.726037 0.967507
O O3 0.653509 0.870016 0.724116
O O4 0.500000 0.000000 0.000000
O O5 0.578053 0.312284 0.466788
O O6 0.416016 0.522537 0.272579
O O7 0.727589 0.444459 0.333440
O O8 0.009358 0.338487 0.196891
O O9 0.050774 0.200089 0.863276
O O10 0.000000 0.500000 0.000000
O O11 0.821197 0.920288 0.471666
O O12 0.500000 0.000000 0.500000
O O13 0.652582 0.154707 0.697067
O O14 0.861927 0.650858 0.303570
O O15 0.128852 0.734637 0.381738
O O16 0.000000 0.500000 0.500000
#
# Coordination Sequence:
#
# PCOD9047533 Si02
#       7
#     2   2   2   2   2   2   2
#     4  12  27  48  72 105 147 187 237 300 360 423
#     4  11  24  43  72 105 139 183 246 290 353 426
#     4  10  24  44  68 101 143 187 235 291 351 419
#     4  12  24  44  71 102 141 188 236 293 364 420
#     4  11  23  43  69 101 143 184 236 290 354 421
#     4  11  24  42  71 106 139 184 242 295 348 433
#     4  11  21  40  71 104 137 185 236 289 353 421
#
# _framework density 22.872482999999999
#
# number of rings (size 3 to 8) (size 9 to 14) (size 15 to 20)
#    0.000    0.857    2.857    4.714    4.000    2.286 
#    0.000    5.714    0.000    0.000    0.000    0.000 
#    0.000    0.000    0.000    0.000    0.000    0.000 
#
# Total GULP energy -78033.915394 kJ/mol
# GULP energy per Si atom -5573.851100 kJ/mol
# Density = 2.282042 g / cm^3
# Si number density = 22.872483 Si / 1000 Ang^3
#
#
#
# Elastic Constant Matrix: (Units=GPa)
#
#
# Indices 1 2 3 4 5 6 
#
# 1 129.6778 46.5593 36.4585 7.3314 17.4056 -12.3790
# 2 46.5593 78.9560 26.3403 4.9173 23.3968 4.3873
# 3 36.4585 26.3403 107.4481 21.4866 7.7409 -18.9772
# 4 7.3314 4.9173 21.4866 34.5004 -1.0360 5.2806
# 5 17.4056 23.3968 7.7409 -1.0360 25.6329 4.5457
# 6 -12.3790 4.3873 -18.9772 5.2806 4.5457 37.9056
#
#
#
# Elastic Compliance Matrix: (Units=1/GPa)
#
#
# Indices 1 2 3 4 5 6 
#
# 1 0.010794 -0.005232 -0.001112 -0.001582 -0.003019 0.004156
# 2 -0.005232 0.021202 -0.003188 0.000281 -0.014098 -0.004107
# 3 -0.001112 -0.003188 0.014073 -0.009476 -0.002505 0.008672
# 4 -0.001582 0.000281 -0.009476 0.037133 0.007190 -0.011329
# 5 -0.003019 -0.014098 -0.002505 0.007190 0.056464 -0.008381
# 6 0.004156 -0.004107 0.008672 -0.011329 -0.008381 0.035139
#
#
# Mechanical properties :
#
#
# Convention : Reuss Voigt Hill
#
# Bulk Modulus (GPa) = 37.03034 59.42201 48.22617
# Shear Modulus (GPa) = 24.64625 33.38938 29.01782
#
# Velocity S-wave (km/s) = 3.28617 3.82489 3.56571
# Velocity P-wave (km/s) = 5.53386 6.74851 6.17114
#
# Compressibility (1/GPa) = 0.02700489
#
# Stress axis : x y z
#
# Youngs Moduli (GPa) = 92.64465 47.16473 71.05888
#
# Poissons Ratio (x) = 0.24676 0.07901
# Poissons Ratio (y) = 0.48470 0.22656
# Poissons Ratio (z) = 0.10302 0.15038
#
# Static dielectric constant tensor:
#      x y z
#    x 1.869220 0.040010 -0.126420 
#    y 0.040010 1.908260 -0.114070 
#    z -0.126420 -0.114070 2.160070 
# 
# From -- ./inp_files/159827.got.cif
#   From: 2010.05.17/outbox.cif.g08.bks.cpg/sg2_80_cif.got.tgz:159827.got - 2010.06.03 11:33:40.
