data_PCOD9047306
_publ_section_title
;
Structure prediction by ZEFSAII (Michael W. Deem and Ramdas Pophale) SiO2 
 PCOD9047306
Probable space group: P -1
;
_chemical_formula_sum "Si O2"
_cell_formula_units_Z 16
_cell_length_a 14.253150
_cell_length_b 8.838893
_cell_length_c 10.040133
_cell_angle_alpha 107.993946
_cell_angle_beta 73.210668
_cell_angle_gamma 54.862047
_cell_volume 787.039781
_symmetry_space_group_name_H-M "P -1"
_symmetry_group_IT_number 2
_symmetry_cell_setting 'triclinic'
loop_
_space_group_symop_operation_xyz
x,y,z
-x,-y,-z
loop_
_atom_site_type_symbol
_atom_site_label
_atom_site_fract_x
_atom_site_fract_y
_atom_site_fract_z
Si Si1 0.884880 0.972208 0.167286
Si Si2 0.949456 0.740996 0.592829
Si Si3 0.113009 0.675931 0.762683
Si Si4 0.072664 0.659154 0.242974
Si Si5 0.633510 0.139338 0.917925
Si Si6 0.650487 0.493745 0.032428
Si Si7 0.642450 0.761652 0.315637
Si Si8 0.740504 0.853901 0.051550
O O1 0.785847 0.964839 0.130822
O O2 0.937870 0.848614 0.254226
O O3 0.828273 0.218474 0.267313
O O4 0.026844 0.801360 0.969686
O O5 0.000000 0.500000 0.500000
O O6 0.006104 0.751341 0.709492
O O7 0.022822 0.739883 0.436590
O O8 0.777081 0.944554 0.718835
O O9 0.232534 0.402451 0.670512
O O10 0.203152 0.619059 0.130033
O O11 0.129847 0.411044 0.127697
O O12 0.485841 0.292151 0.941768
O O13 0.644744 0.011845 0.006740
O O14 0.644742 0.311507 0.000249
O O15 0.634091 0.596443 0.209784
O O16 0.677786 0.825785 0.189898
O O17 0.500000 0.000000 0.500000
#
# Coordination Sequence:
#
# PCOD9047306 Si02
#       8
#     2   2   2   2   2   2   2   2
#     4  11  21  40  67  93 123 165 216 258 320 386
#     4  12  25  39  66 103 131 161 218 277 316 369
#     4  11  23  40  66  91 129 166 206 267 322 373
#     4  11  23  40  65  99 131 169 212 270 321 382
#     4  11  23  42  67  92 131 173 214 265 318 389
#     4  10  24  44  64  90 132 179 213 252 331 392
#     4  11  26  42  64  93 128 168 216 266 314 386
#     4  11  22  39  67  93 124 169 214 262 322 380
#
# _framework density 20.329340999999999
#
# number of rings (size 3 to 8) (size 9 to 14) (size 15 to 20)
#    0.000    1.000    5.000    1.875    3.500    5.000 
#    0.000    5.000    0.000    0.000    0.000    0.000 
#    0.000    0.000    0.000    0.000    0.000    0.000 
#
# Total GULP energy -89391.121095 kJ/mol
# GULP energy per Si atom -5586.945068 kJ/mol
# Density = 2.028307 g / cm^3
# Si number density = 20.329341 Si / 1000 Ang^3
#
#
#
# Elastic Constant Matrix: (Units=GPa)
#
#
# Indices 1 2 3 4 5 6 
#
# 1 34.8210 -6.3684 -1.6787 -3.8016 10.7422 -4.9916
# 2 -6.3684 106.9881 28.7984 -13.4220 -1.8528 -11.2983
# 3 -1.6787 28.7984 76.3017 -7.1623 -14.2951 -11.9983
# 4 -3.8016 -13.4220 -7.1623 30.4614 -4.1273 4.6323
# 5 10.7422 -1.8528 -14.2951 -4.1273 17.1684 7.4866
# 6 -4.9916 -11.2983 -11.9983 4.6323 7.4866 27.6831
#
#
#
# Elastic Compliance Matrix: (Units=1/GPa)
#
#
# Indices 1 2 3 4 5 6 
#
# 1 0.044569 0.005296 -0.005883 -0.001940 -0.040990 0.019058
# 2 0.005296 0.011692 -0.004594 0.002919 -0.007472 0.005268
# 3 -0.005883 -0.004594 0.018795 0.004590 0.020408 -0.001077
# 4 -0.001940 0.002919 0.004590 0.038764 0.018437 -0.008642
# 5 -0.040990 -0.007472 0.020408 0.018437 0.120799 -0.037350
# 6 0.019058 0.005268 -0.001077 -0.008642 -0.037350 0.052790
#
#
# Mechanical properties :
#
#
# Convention : Reuss Voigt Hill
#
# Bulk Modulus (GPa) = 15.45749 28.84594 22.15172
# Shear Modulus (GPa) = 15.65752 28.21988 21.93870
#
# Velocity S-wave (km/s) = 2.77825 3.72981 3.28863
# Velocity P-wave (km/s) = 4.23221 5.72440 5.03390
#
# Compressibility (1/GPa) = 0.06469355
#
# Stress axis : x y z
#
# Youngs Moduli (GPa) = 22.43727 85.53077 53.20506
#
# Poissons Ratio (x) = -0.45296 0.31301
# Poissons Ratio (y) = -0.11882 0.24442
# Poissons Ratio (z) = 0.13200 0.39292
#
# Static dielectric constant tensor:
#      x y z
#    x 1.741350 0.028190 -0.003600 
#    y 0.028190 1.748400 -0.007290 
#    z -0.003600 -0.007290 1.697730 
# 
# From -- ./inp_files/205612.got.cif
#   From: 2010.05.17/outbox.cif.g08.bks.cpg/sg2_103_cif.got.tgz:205612.got - 2010.06.03 11:33:40.
