data_PCOD9047325
_publ_section_title
;
Structure prediction by ZEFSAII (Michael W. Deem and Ramdas Pophale) SiO2 
 PCOD9047325
Probable space group: P -1
;
_chemical_formula_sum "Si O2"
_cell_formula_units_Z 16
_cell_length_a 8.093846
_cell_length_b 16.210658
_cell_length_c 10.632648
_cell_angle_alpha 68.753640
_cell_angle_beta 141.451669
_cell_angle_gamma 131.143968
_cell_volume 619.304070
_symmetry_space_group_name_H-M "P -1"
_symmetry_group_IT_number 2
_symmetry_cell_setting 'triclinic'
loop_
_space_group_symop_operation_xyz
x,y,z
-x,-y,-z
loop_
_atom_site_type_symbol
_atom_site_label
_atom_site_fract_x
_atom_site_fract_y
_atom_site_fract_z
Si Si1 0.093483 0.978313 0.430856
Si Si2 0.399085 0.415948 0.602249
Si Si3 0.286798 0.769503 0.848717
Si Si4 0.589248 0.421977 0.302914
Si Si5 0.186812 0.262707 0.930510
Si Si6 0.556905 0.227200 0.518208
Si Si7 0.726504 0.012733 0.879338
Si Si8 0.394214 0.731165 0.178343
O O1 0.421439 0.983517 0.623523
O O2 0.756969 0.848544 0.275642
O O3 0.230336 0.092268 0.371055
O O4 0.000000 0.000000 0.500000
O O5 0.500000 0.500000 0.500000
O O6 0.447650 0.489994 0.707643
O O7 0.625504 0.377829 0.775431
O O8 0.018543 0.297913 0.399187
O O9 0.542952 0.745259 0.970933
O O10 0.489621 0.907157 0.894724
O O11 0.142923 0.718114 0.931022
O O12 0.403236 0.375252 0.083969
O O13 0.498030 0.311830 0.384761
O O14 0.000000 0.500000 0.500000
O O15 0.916222 0.254436 0.682040
O O16 0.955218 0.150490 0.948122
O O17 0.609385 0.245108 0.690799
O O18 0.000000 0.000000 0.000000
#
# Coordination Sequence:
#
# PCOD9047325 Si02
#       8
#     2   2   2   2   2   2   2   2
#     4   9  19  41  66  97 137 172 218 278 340 398
#     4  12  26  46  64  94 137 179 225 268 324 403
#     4  11  24  42  69 101 132 173 223 276 332 399
#     4  12  26  44  68  90 133 185 219 266 326 399
#     4  10  24  44  65  99 133 172 220 274 332 391
#     4  10  24  44  65 100 133 170 223 273 331 397
#     4   9  19  41  66  97 137 170 220 279 334 401
#     4  11  24  42  69 100 132 176 218 277 337 390
#
# _framework density 25.835452
#
# number of rings (size 3 to 8) (size 9 to 14) (size 15 to 20)
#    0.000    1.500    3.750    0.000    5.250    2.000 
#    0.000    3.750    0.000    0.000    0.000    0.000 
#    0.000    0.000    0.000    0.000    0.000    0.000 
#
# Total GULP energy -89437.995649 kJ/mol
# GULP energy per Si atom -5589.874728 kJ/mol
# Density = 2.577665 g / cm^3
# Si number density = 25.835452 Si / 1000 Ang^3
#
#
#
# Elastic Constant Matrix: (Units=GPa)
#
#
# Indices 1 2 3 4 5 6 
#
# 1 41.5363 22.6573 21.6518 0.3227 -2.1002 -10.7049
# 2 22.6573 150.7510 24.4145 -10.6541 3.3204 -1.1451
# 3 21.6518 24.4145 81.0285 12.0574 7.2130 1.8151
# 4 0.3227 -10.6541 12.0574 54.8540 -3.3462 -1.1809
# 5 -2.1002 3.3204 7.2130 -3.3462 45.3857 0.8327
# 6 -10.7049 -1.1451 1.8151 -1.1809 0.8327 39.9846
#
#
#
# Elastic Compliance Matrix: (Units=1/GPa)
#
#
# Indices 1 2 3 4 5 6 
#
# 1 0.032824 -0.003475 -0.008400 0.001359 0.003042 0.009046
# 2 -0.003475 0.007540 -0.001569 0.001798 -0.000320 -0.000584
# 3 -0.008400 -0.001569 0.015998 -0.004025 -0.003057 -0.003075
# 4 0.001359 0.001798 -0.004025 0.019602 0.001995 0.001135
# 5 0.003042 -0.000320 -0.003057 0.001995 0.022821 0.000528
# 6 0.009046 -0.000584 -0.003075 0.001135 0.000528 0.027577
#
#
# Mechanical properties :
#
#
# Convention : Reuss Voigt Hill
#
# Bulk Modulus (GPa) = 33.92766 45.64034 39.78400
# Shear Modulus (GPa) = 30.66077 41.68433 36.17255
#
# Velocity S-wave (km/s) = 3.44869 4.02114 3.74587
# Velocity P-wave (km/s) = 5.38690 6.26606 5.84304
#
# Compressibility (1/GPa) = 0.02947448
#
# Stress axis : x y z
#
# Youngs Moduli (GPa) = 30.46528 132.63396 62.50618
#
# Poissons Ratio (x) = 0.46095 0.52502
# Poissons Ratio (y) = 0.10588 0.09807
# Poissons Ratio (z) = 0.25589 0.20811
#
# Static dielectric constant tensor:
#      x y z
#    x 2.072080 0.047990 0.013980 
#    y 0.047990 1.984970 0.009710 
#    z 0.013980 0.009710 2.068000 
# 
# From -- ./inp_files/284993.got.cif
#   From: 2010.05.17/outbox.cif.g08.bks.cpg/sg2_143_cif.got.tgz:284993.got - 2010.06.03 11:33:40.
