data_PCOD9047794
_publ_section_title
;
Structure prediction by ZEFSAII (Michael W. Deem and Ramdas Pophale) SiO2 
 PCOD9047794
Probable space group: P -1
;
_chemical_formula_sum "Si O2"
_cell_formula_units_Z 10
_cell_length_a 8.697845
_cell_length_b 11.595649
_cell_length_c 8.447553
_cell_angle_alpha 61.913173
_cell_angle_beta 32.772042
_cell_angle_gamma 57.735206
_cell_volume 389.523923
_symmetry_space_group_name_H-M "P -1"
_symmetry_group_IT_number 2
_symmetry_cell_setting 'triclinic'
loop_
_space_group_symop_operation_xyz
x,y,z
-x,-y,-z
loop_
_atom_site_type_symbol
_atom_site_label
_atom_site_fract_x
_atom_site_fract_y
_atom_site_fract_z
Si Si1 0.348989 0.103340 0.702657
Si Si2 0.927721 0.682005 0.716158
Si Si3 0.036035 0.905041 0.683246
Si Si4 0.453144 0.484500 0.736829
Si Si5 0.770570 0.647215 0.553226
O O1 0.621857 0.133933 0.540027
O O2 0.155777 0.245733 0.699962
O O3 0.500000 0.000000 0.500000
O O4 0.842686 0.958563 0.971620
O O5 0.720715 0.725294 0.714247
O O6 0.913286 0.782748 0.807290
O O7 0.265218 0.646723 0.385685
O O8 0.844838 0.550234 0.939085
O O9 0.000000 0.000000 0.500000
O O10 0.500000 0.500000 0.500000
O O11 0.508649 0.601831 0.723736
O O12 0.000000 0.500000 0.500000
#
# Coordination Sequence:
#
# PCOD9047794 Si02
#       5
#     2   2   2   2   2
#     4  12  27  48  75 107 144 191 244 298 363 436
#     4  11  23  40  64  96 135 179 231 290 350 415
#     4  12  26  47  73 105 143 192 244 302 362 429
#     4  11  22  39  63  95 134 181 229 288 349 416
#     4  10  24  44  70 105 146 189 236 294 359 430
#
# _framework density 25.672364000000002
#
# number of rings (size 3 to 8) (size 9 to 14) (size 15 to 20)
#    0.000    0.800    0.000    7.200    0.000    9.600 
#    0.000    0.000    0.000    0.000    0.000    0.000 
#    0.000    0.000    0.000    0.000    0.000    0.000 
#
# Total GULP energy -55921.236164 kJ/mol
# GULP energy per Si atom -5592.123616 kJ/mol
# Density = 2.561393 g / cm^3
# Si number density = 25.672364 Si / 1000 Ang^3
#
#
#
# Elastic Constant Matrix: (Units=GPa)
#
#
# Indices 1 2 3 4 5 6 
#
# 1 163.7712 25.0477 48.0611 -11.0766 10.2610 -3.8279
# 2 25.0477 69.1292 20.2525 -0.7019 -1.9183 -16.5331
# 3 48.0611 20.2525 147.3855 2.7379 15.9209 -20.2484
# 4 -11.0766 -0.7019 2.7379 34.6894 2.6847 7.4533
# 5 10.2610 -1.9183 15.9209 2.6847 36.9450 -15.6064
# 6 -3.8279 -16.5331 -20.2484 7.4533 -15.6064 49.1525
#
#
#
# Elastic Compliance Matrix: (Units=1/GPa)
#
#
# Indices 1 2 3 4 5 6 
#
# 1 0.007491 -0.002719 -0.002201 0.003260 -0.002589 -0.002554
# 2 -0.002719 0.017654 -0.001066 -0.002432 0.005425 0.007378
# 3 -0.002201 -0.001066 0.008227 -0.001788 -0.001775 0.002566
# 4 0.003260 -0.002432 -0.001788 0.032163 -0.006015 -0.008087
# 5 -0.002589 0.005425 -0.001775 -0.006015 0.034684 0.012816
# 6 -0.002554 0.007378 0.002566 -0.008087 0.012816 0.028981
#
#
# Mechanical properties :
#
#
# Convention : Reuss Voigt Hill
#
# Bulk Modulus (GPa) = 46.73165 63.00095 54.86630
# Shear Modulus (GPa) = 33.71450 43.28568 38.50009
#
# Velocity S-wave (km/s) = 3.62782 4.11065 3.87676
# Velocity P-wave (km/s) = 5.98254 6.86466 6.43872
#
# Compressibility (1/GPa) = 0.02139878
#
# Stress axis : x y z
#
# Youngs Moduli (GPa) = 133.49735 56.64539 121.55572
#
# Poissons Ratio (x) = 0.15402 0.26752
# Poissons Ratio (y) = 0.36298 0.12962
# Poissons Ratio (z) = 0.29381 0.06040
#
# Static dielectric constant tensor:
#      x y z
#    x 2.074640 -0.014080 0.019660 
#    y -0.014080 2.155640 0.016420 
#    z 0.019660 0.016420 1.961180 
# 
# From -- ./inp_files/61239.got.cif
#   From: 2010.05.17/outbox.cif.g08.bks.cpg/sg2_31_cif.got.tgz:61239.got - 2010.06.03 11:33:40.
