data_PCOD9047340
_publ_section_title
;
Structure prediction by ZEFSAII (Michael W. Deem and Ramdas Pophale) SiO2 
 PCOD9047340
Probable space group: P -1
;
_chemical_formula_sum "Si O2"
_cell_formula_units_Z 16
_cell_length_a 9.730440
_cell_length_b 14.338538
_cell_length_c 20.936636
_cell_angle_alpha 160.566630
_cell_angle_beta 49.960389
_cell_angle_gamma 127.721900
_cell_volume 743.914960
_symmetry_space_group_name_H-M "P -1"
_symmetry_group_IT_number 2
_symmetry_cell_setting 'triclinic'
loop_
_space_group_symop_operation_xyz
x,y,z
-x,-y,-z
loop_
_atom_site_type_symbol
_atom_site_label
_atom_site_fract_x
_atom_site_fract_y
_atom_site_fract_z
Si Si1 0.225907 0.231625 0.074543
Si Si2 0.678756 0.385358 0.403962
Si Si3 0.437669 0.328896 0.740050
Si Si4 0.743231 0.809077 0.413719
Si Si5 0.950673 0.493247 0.586479
Si Si6 0.694372 0.579920 0.021407
Si Si7 0.950870 0.359390 0.705588
Si Si8 0.348714 0.836048 0.594220
O O1 0.400033 0.442613 0.158689
O O2 0.131446 0.243719 0.180559
O O3 0.094972 0.391638 0.167584
O O4 0.277420 0.920377 0.836409
O O5 0.500000 0.500000 0.500000
O O6 0.636690 0.356534 0.473220
O O7 0.866695 0.565671 0.467130
O O8 0.310454 0.389372 0.756992
O O9 0.328636 0.376063 0.868325
O O10 0.500000 0.000000 0.500000
O O11 0.549490 0.908872 0.559636
O O12 0.845907 0.670606 0.352444
O O13 0.865244 0.066619 0.517110
O O14 0.779098 0.283746 0.500329
O O15 0.000000 0.500000 0.500000
O O16 0.743484 0.883517 0.174409
O O17 0.500000 0.500000 0.000000
O O18 0.842472 0.385339 0.822089
#
# Coordination Sequence:
#
# PCOD9047340 Si02
#       8
#     2   2   2   2   2   2   2   2
#     4  12  21  43  71  91 127 183 207 264 342 383
#     4  11  26  45  65  96 121 165 234 286 314 373
#     4  12  20  37  68  99 132 168 209 253 324 407
#     4  11  23  40  60 102 139 167 208 260 317 398
#     4  10  24  44  65  91 125 169 223 273 325 383
#     4  12  19  37  64  96 130 172 212 249 317 406
#     4  11  24  38  64 101 136 169 210 257 320 404
#     4  11  20  42  66  85 130 174 206 268 329 375
#
# _framework density 21.507833999999999
#
# number of rings (size 3 to 8) (size 9 to 14) (size 15 to 20)
#    0.000    0.750    7.500    0.375    1.750    0.500 
#    2.250    2.500    0.000    0.000    0.000    0.000 
#    0.000    0.000    0.000    0.000    0.000    0.000 
#
# Total GULP energy -89148.152226 kJ/mol
# GULP energy per Si atom -5571.759514 kJ/mol
# Density = 2.145888 g / cm^3
# Si number density = 21.507834 Si / 1000 Ang^3
#
#
#
# Elastic Constant Matrix: (Units=GPa)
#
#
# Indices 1 2 3 4 5 6 
#
# 1 174.6942 22.0642 55.7004 17.2653 8.9199 13.7353
# 2 22.0642 57.1545 16.5083 -15.7433 2.0614 0.9552
# 3 55.7004 16.5083 87.2232 -3.5277 5.8648 0.6164
# 4 17.2653 -15.7433 -3.5277 36.3098 -0.7917 7.1131
# 5 8.9199 2.0614 5.8648 -0.7917 26.7870 -1.0714
# 6 13.7353 0.9552 0.6164 7.1131 -1.0714 29.7658
#
#
#
# Elastic Compliance Matrix: (Units=1/GPa)
#
#
# Indices 1 2 3 4 5 6 
#
# 1 0.008538 -0.003291 -0.004916 -0.005517 -0.001776 -0.002478
# 2 -0.003291 0.022452 -0.001669 0.011513 -0.000003 -0.001919
# 3 -0.004916 -0.001669 0.015119 0.002800 -0.001410 0.001289
# 4 -0.005517 0.011513 0.002800 0.036751 0.001160 -0.006622
# 5 -0.001776 -0.000003 -0.001410 0.001160 0.038344 0.001952
# 6 -0.002478 -0.001919 0.001289 -0.006622 0.001952 0.036427
#
#
# Mechanical properties :
#
#
# Convention : Reuss Voigt Hill
#
# Bulk Modulus (GPa) = 37.93761 56.40199 47.16980
# Shear Modulus (GPa) = 26.85754 33.55910 30.20832
#
# Velocity S-wave (km/s) = 3.53757 3.95437 3.75177
# Velocity P-wave (km/s) = 5.86201 6.86515 6.38332
#
# Compressibility (1/GPa) = 0.02635907
#
# Stress axis : x y z
#
# Youngs Moduli (GPa) = 117.12235 44.53896 66.14255
#
# Poissons Ratio (x) = 0.14656 0.32515
# Poissons Ratio (y) = 0.38540 0.11037
# Poissons Ratio (z) = 0.57575 0.07432
#
# Static dielectric constant tensor:
#      x y z
#    x 1.805280 -0.014900 0.037710 
#    y -0.014900 1.908470 -0.019130 
#    z 0.037710 -0.019130 1.812920 
# 
# From -- ./inp_files/590340.got.cif
#   From: 2010.05.17/outbox.cif.g08.bks.cpg/sg2_296_cif.got.tgz:590340.got - 2010.06.03 11:33:40.
