data_PCOD9047234
_publ_section_title
;
Structure prediction by ZEFSAII (Michael W. Deem and Ramdas Pophale) SiO2 
 PCOD9047234
Probable space group: P -1
;
_chemical_formula_sum "Si O2"
_cell_formula_units_Z 15
_cell_length_a 24.223697
_cell_length_b 5.284110
_cell_length_c 5.104712
_cell_angle_alpha 89.922261
_cell_angle_beta 66.090612
_cell_angle_gamma 100.535902
_cell_volume 585.191643
_symmetry_space_group_name_H-M "P -1"
_symmetry_group_IT_number 2
_symmetry_cell_setting 'triclinic'
loop_
_space_group_symop_operation_xyz
x,y,z
-x,-y,-z
loop_
_atom_site_type_symbol
_atom_site_label
_atom_site_fract_x
_atom_site_fract_y
_atom_site_fract_z
Si Si1 0.219535 0.344023 0.114250
Si Si2 0.555375 0.466258 0.579115
Si Si3 0.598312 0.005048 0.729090
Si Si4 0.818525 0.945808 0.320185
Si Si5 0.113011 0.616693 0.159015
Si Si6 0.000000 0.500000 0.500000
Si Si7 0.945998 0.761153 0.123862
Si Si8 0.342408 0.739001 0.868401
O O1 0.213098 0.114051 0.338896
O O2 0.159666 0.475234 0.219360
O O3 0.223106 0.217871 0.823190
O O4 0.276413 0.573517 0.062485
O O5 0.500000 0.500000 0.500000
O O6 0.550980 0.190664 0.733429
O O7 0.614468 0.465466 0.281588
O O8 0.570145 0.705757 0.746999
O O9 0.652461 0.093110 0.407749
O O10 0.625557 0.084474 0.958907
O O11 0.879787 0.829079 0.227095
O O12 0.844664 0.228592 0.152618
O O13 0.066680 0.778407 0.373045
O O14 0.053350 0.418904 0.138627
O O15 0.959116 0.616619 0.356146
O O16 0.000000 0.000000 0.000000
#
# Coordination Sequence:
#
# PCOD9047234 Si02
#       8
#     2   2   2   2   2   1   2   2
#     4  11  25  48  65  98 134 183 234 297 354 436
#     4  10  24  45  73 114 153 198 248 306 368 441
#     4  10  24  43  75 107 150 198 249 306 368 441
#     4  11  25  42  70  94 130 177 228 292 353 429
#     4  11  26  40  64  97 126 174 229 283 363 433
#     4  12  22  40  64  90 126 170 216 280 356 420
#     4  11  24  39  61  91 130 163 222 281 353 432
#     4  10  25  45  71 104 147 192 250 301 373 431
#
# _framework density 25.632632999999998
#
# number of rings (size 3 to 8) (size 9 to 14) (size 15 to 20)
#    0.800    0.533    2.667    1.600    3.733    2.667 
#    0.000    0.000    0.000    0.000    0.000    0.000 
#    0.000    0.000    0.000    0.000    0.000    0.000 
#
# Total GULP energy -83798.562130 kJ/mol
# GULP energy per Si atom -5586.570809 kJ/mol
# Density = 2.557429 g / cm^3
# Si number density = 25.632633 Si / 1000 Ang^3
#
#
#
# Elastic Constant Matrix: (Units=GPa)
#
#
# Indices 1 2 3 4 5 6 
#
# 1 91.7714 34.1873 13.6662 13.5306 -6.6117 3.7251
# 2 34.1873 123.9990 17.9164 10.8759 14.0410 8.4764
# 3 13.6662 17.9164 114.6775 5.7140 26.1610 -6.8389
# 4 13.5306 10.8759 5.7140 35.7655 8.7845 12.7517
# 5 -6.6117 14.0410 26.1610 8.7845 35.7520 4.0272
# 6 3.7251 8.4764 -6.8389 12.7517 4.0272 20.3946
#
#
#
# Elastic Compliance Matrix: (Units=1/GPa)
#
#
# Indices 1 2 3 4 5 6 
#
# 1 0.014037 -0.003868 -0.002418 -0.005643 0.007233 0.000333
# 2 -0.003868 0.009801 -0.000345 0.000646 -0.004125 -0.003072
# 3 -0.002418 -0.000345 0.011673 -0.001036 -0.009387 0.007000
# 4 -0.005643 0.000646 -0.001036 0.040261 -0.007817 -0.023215
# 5 0.007233 -0.004125 -0.009387 -0.007817 0.040375 -0.005840
# 6 0.000333 -0.003072 0.007000 -0.023215 -0.005840 0.068264
#
#
# Mechanical properties :
#
#
# Convention : Reuss Voigt Hill
#
# Bulk Modulus (GPa) = 44.94195 51.33197 48.13696
# Shear Modulus (GPa) = 24.37985 36.02762 30.20373
#
# Velocity S-wave (km/s) = 3.08738 3.75312 3.43641
# Velocity P-wave (km/s) = 5.50276 6.23303 5.87924
#
# Compressibility (1/GPa) = 0.02225093
#
# Stress axis : x y z
#
# Youngs Moduli (GPa) = 71.23996 102.02891 85.67116
#
# Poissons Ratio (x) = 0.39461 0.20711
# Poissons Ratio (y) = 0.27553 0.02954
# Poissons Ratio (z) = 0.17222 0.03518
#
# Static dielectric constant tensor:
#      x y z
#    x 1.988950 0.070630 -0.131680 
#    y 0.070630 2.198680 -0.034470 
#    z -0.131680 -0.034470 2.419950 
# 
# From -- ./inp_files/125411.got.cif
#   From: 2010.05.17/outbox.cif.g08.bks.cpg/sg2_63_cif.got.tgz:125411.got - 2010.06.03 11:33:40.
