data_PCOD9047014
_publ_section_title
;
Structure prediction by ZEFSAII (Michael W. Deem and Ramdas Pophale) SiO2 
 PCOD9047014
Probable space group: P -1
;
_chemical_formula_sum "Si O2"
_cell_formula_units_Z 14
_cell_length_a 10.897286
_cell_length_b 23.315488
_cell_length_c 5.346588
_cell_angle_alpha 54.014497
_cell_angle_beta 120.281013
_cell_angle_gamma 148.558472
_cell_volume 573.360232
_symmetry_space_group_name_H-M "P -1"
_symmetry_group_IT_number 2
_symmetry_cell_setting 'triclinic'
loop_
_space_group_symop_operation_xyz
x,y,z
-x,-y,-z
loop_
_atom_site_type_symbol
_atom_site_label
_atom_site_fract_x
_atom_site_fract_y
_atom_site_fract_z
Si Si1 0.961406 0.939171 0.863273
Si Si2 0.128133 0.864656 0.395955
Si Si3 0.546248 0.956062 0.353192
Si Si4 0.284869 0.468905 0.813818
Si Si5 0.781713 0.610368 0.551128
Si Si6 0.741981 0.384127 0.645504
Si Si7 0.549599 0.246832 0.290366
O O1 0.689059 0.809442 0.900312
O O2 0.000000 0.000000 0.500000
O O3 0.121331 0.932707 0.047269
O O4 0.000000 0.000000 0.000000
O O5 0.335281 0.890068 0.501636
O O6 0.891765 0.727593 0.454823
O O7 0.195521 0.925469 0.574246
O O8 0.505065 0.858465 0.497390
O O9 0.500000 0.000000 0.000000
O O10 0.125716 0.375868 0.662063
O O11 0.362595 0.577890 0.537991
O O12 0.500000 0.500000 0.000000
O O13 0.166619 0.422323 0.084448
O O14 0.500000 0.500000 0.500000
O O15 0.611349 0.292025 0.521181
O O16 0.000000 0.500000 0.500000
O O17 0.728476 0.340944 0.012047
#
# Coordination Sequence:
#
# PCOD9047014 Si02
#       7
#     2   2   2   2   2   2   2
#     4  12  26  48  74 112 149 191 247 309 386 448
#     4  11  27  44  77 106 147 194 249 310 373 447
#     4  11  27  49  74 109 148 200 256 306 378 451
#     4  10  24  44  68 100 144 185 245 295 364 436
#     4  10  24  43  70 106 140 183 242 300 363 431
#     4  12  29  48  73 108 153 199 248 307 381 447
#     4  12  28  49  76 108 154 195 250 313 379 450
#
# _framework density 24.417462
#
# number of rings (size 3 to 8) (size 9 to 14) (size 15 to 20)
#    0.000    0.857    1.429    3.000   18.000    0.000 
#    0.000    0.000    0.000    0.000    0.000    0.000 
#    0.000    0.000    0.000    0.000    0.000    0.000 
#
# Total GULP energy -78232.135070 kJ/mol
# GULP energy per Si atom -5588.009648 kJ/mol
# Density = 2.436189 g / cm^3
# Si number density = 24.417462 Si / 1000 Ang^3
#
#
#
# Elastic Constant Matrix: (Units=GPa)
#
#
# Indices 1 2 3 4 5 6 
#
# 1 79.6703 25.2604 22.9249 0.9463 18.1874 -15.8060
# 2 25.2604 128.4485 34.6775 -1.6997 9.8679 -32.5844
# 3 22.9249 34.6775 164.6917 -10.6364 -6.0134 -35.5286
# 4 0.9463 -1.6997 -10.6364 38.4614 -8.5293 -1.0512
# 5 18.1874 9.8679 -6.0134 -8.5293 46.8422 -9.0558
# 6 -15.8060 -32.5844 -35.5286 -1.0512 -9.0558 46.5536
#
#
#
# Elastic Compliance Matrix: (Units=1/GPa)
#
#
# Indices 1 2 3 4 5 6 
#
# 1 0.015284 -0.001737 -0.001828 -0.002239 -0.005946 0.001371
# 2 -0.001737 0.009769 -0.000548 0.000424 -0.000257 0.005789
# 3 -0.001828 -0.000548 0.008055 0.003205 0.003586 0.005913
# 4 -0.002239 0.000424 0.003205 0.028665 0.007190 0.004029
# 5 -0.005946 -0.000257 0.003586 0.007190 0.026617 0.005878
# 6 0.001371 0.005789 0.005913 0.004029 0.005878 0.031745
#
#
# Mechanical properties :
#
#
# Convention : Reuss Voigt Hill
#
# Bulk Modulus (GPa) = 40.18968 59.83735 50.01351
# Shear Modulus (GPa) = 36.58816 45.70130 41.14473
#
# Velocity S-wave (km/s) = 3.87517 4.33097 4.10939
# Velocity P-wave (km/s) = 6.04299 7.04052 6.56074
#
# Compressibility (1/GPa) = 0.02488201
#
# Stress axis : x y z
#
# Youngs Moduli (GPa) = 65.42597 102.36730 124.13965
#
# Poissons Ratio (x) = 0.17785 0.22688
# Poissons Ratio (y) = 0.11367 0.06807
# Poissons Ratio (z) = 0.11957 0.05613
#
# Static dielectric constant tensor:
#      x y z
#    x 2.028270 0.014570 -0.065370 
#    y 0.014570 1.941380 -0.008460 
#    z -0.065370 -0.008460 1.953450 
# 
# From -- ./inp_files/84168.got.cif
#   From: 2010.05.17/outbox.cif.g08.bks.cpg/sg2_43_cif.got.tgz:84168.got - 2010.06.03 11:33:40.
