data_PCOD9047370
_publ_section_title
;
Structure prediction by ZEFSAII (Michael W. Deem and Ramdas Pophale) SiO2 
 PCOD9047370
Probable space group: P -1
;
_chemical_formula_sum "Si O2"
_cell_formula_units_Z 16
_cell_length_a 8.814468
_cell_length_b 24.539195
_cell_length_c 20.626409
_cell_angle_alpha 158.173746
_cell_angle_beta 29.798177
_cell_angle_gamma 140.011125
_cell_volume 805.344697
_symmetry_space_group_name_H-M "P -1"
_symmetry_group_IT_number 2
_symmetry_cell_setting 'triclinic'
loop_
_space_group_symop_operation_xyz
x,y,z
-x,-y,-z
loop_
_atom_site_type_symbol
_atom_site_label
_atom_site_fract_x
_atom_site_fract_y
_atom_site_fract_z
Si Si1 0.676537 0.120556 0.743240
Si Si2 0.836146 0.444154 0.062175
Si Si3 0.255491 0.092836 0.986752
Si Si4 0.823843 0.546442 0.917791
Si Si5 0.661669 0.062679 0.925374
Si Si6 0.781580 0.381556 0.453249
Si Si7 0.677959 0.859457 0.237697
Si Si8 0.369470 0.264228 0.371217
O O1 0.535303 0.138478 0.743728
O O2 0.743861 0.283973 0.912788
O O3 0.416311 0.075410 0.837364
O O4 0.000000 0.000000 0.500000
O O5 0.520924 0.562899 0.328829
O O6 0.045224 0.428937 0.032432
O O7 0.000000 0.500000 0.000000
O O8 0.029144 0.251525 0.249723
O O9 0.539647 0.079982 0.916835
O O10 0.000000 0.000000 0.000000
O O11 0.074463 0.405095 0.638333
O O12 0.500000 0.500000 0.000000
O O13 0.757564 0.699005 0.068186
O O14 0.995878 0.097927 0.852787
O O15 0.669487 0.888029 0.745523
O O16 0.442908 0.190388 0.191595
O O17 0.646655 0.325234 0.373597
O O18 0.000000 0.500000 0.500000
O O19 0.500000 0.000000 0.500000
#
# Coordination Sequence:
#
# PCOD9047370 Si02
#       8
#     2   2   2   2   2   2   2   2
#     4  12  27  46  71 101 138 180 236 286 351 424
#     4  11  25  43  70 102 137 184 233 289 346 412
#     4  12  25  44  71 104 139 187 232 287 350 417
#     4  11  24  45  69  98 141 180 235 285 350 414
#     4  11  24  42  70 100 141 175 234 280 348 413
#     4  11  23  45  70  96 144 181 234 286 344 416
#     4  12  26  45  71  99 139 184 228 291 352 417
#     4  10  24  44  66 101 135 183 226 285 340 417
#
# _framework density 19.867270999999999
#
# number of rings (size 3 to 8) (size 9 to 14) (size 15 to 20)
#    0.000    0.750    2.500    4.500    5.250    3.500 
#    0.000    0.000    0.000    0.000    0.000    0.000 
#    0.000    0.000    0.000    0.000    0.000    0.000 
#
# Total GULP energy -89236.321075 kJ/mol
# GULP energy per Si atom -5577.270067 kJ/mol
# Density = 1.982205 g / cm^3
# Si number density = 19.867271 Si / 1000 Ang^3
#
#
#
# Elastic Constant Matrix: (Units=GPa)
#
#
# Indices 1 2 3 4 5 6 
#
# 1 115.5551 38.4926 59.4311 -1.4240 -3.5050 -1.5637
# 2 38.4926 107.7964 40.4079 9.1064 8.3556 6.0523
# 3 59.4311 40.4079 130.3820 10.9834 -0.2293 -8.3542
# 4 -1.4240 9.1064 10.9834 36.6532 4.3651 1.7809
# 5 -3.5050 8.3556 -0.2293 4.3651 30.8899 -1.0545
# 6 -1.5637 6.0523 -8.3542 1.7809 -1.0545 39.7470
#
#
#
# Elastic Compliance Matrix: (Units=1/GPa)
#
#
# Indices 1 2 3 4 5 6 
#
# 1 0.012203 -0.002858 -0.004891 0.002448 0.001770 -0.000175
# 2 -0.002858 0.011719 -0.002336 -0.001809 -0.003338 -0.002395
# 3 -0.004891 -0.002336 0.011058 -0.003134 0.000692 0.002646
# 4 0.002448 -0.001809 -0.003134 0.029259 -0.003449 -0.001690
# 5 0.001770 -0.003338 0.000692 -0.003449 0.034030 0.001781
# 6 -0.000175 -0.002395 0.002646 -0.001690 0.001781 0.026196
#
#
# Mechanical properties :
#
#
# Convention : Reuss Voigt Hill
#
# Bulk Modulus (GPa) = 67.52401 70.04406 68.78403
# Shear Modulus (GPa) = 33.42872 35.81815 34.62344
#
# Velocity S-wave (km/s) = 4.10640 4.25063 4.17914
# Velocity P-wave (km/s) = 7.51962 7.70863 7.61472
#
# Compressibility (1/GPa) = 0.01480955
#
# Stress axis : x y z
#
# Youngs Moduli (GPa) = 81.94814 85.33080 90.43284
#
# Poissons Ratio (x) = 0.24389 0.44229
# Poissons Ratio (y) = 0.23422 0.21126
# Poissons Ratio (z) = 0.40079 0.19934
#
# Static dielectric constant tensor:
#      x y z
#    x 2.114990 -0.058230 -0.025290 
#    y -0.058230 2.197340 0.023050 
#    z -0.025290 0.023050 1.737330 
# 
# From -- ./inp_files/355252.got.cif
#   From: 2010.05.17/outbox.cif.g08.bks.cpg/sg2_178_cif.got.tgz:355252.got - 2010.06.03 11:33:40.
