data_PCOD9047117
_publ_section_title
;
Structure prediction by ZEFSAII (Michael W. Deem and Ramdas Pophale) SiO2 
 PCOD9047117
Probable space group: P -1
;
_chemical_formula_sum "Si O2"
_cell_formula_units_Z 16
_cell_length_a 5.420329
_cell_length_b 27.710597
_cell_length_c 9.249407
_cell_angle_alpha 147.757896
_cell_angle_beta 94.895950
_cell_angle_gamma 89.316306
_cell_volume 733.706607
_symmetry_space_group_name_H-M "P -1"
_symmetry_group_IT_number 2
_symmetry_cell_setting 'triclinic'
loop_
_space_group_symop_operation_xyz
x,y,z
-x,-y,-z
loop_
_atom_site_type_symbol
_atom_site_label
_atom_site_fract_x
_atom_site_fract_y
_atom_site_fract_z
Si Si1 0.370138 0.258305 0.172029
Si Si2 0.860329 0.344571 0.277372
Si Si3 0.609323 0.691242 0.380946
Si Si4 0.178503 0.678454 0.113906
Si Si5 0.259889 0.049087 0.569851
Si Si6 0.876644 0.528027 0.918426
Si Si7 0.290485 0.008465 0.132577
Si Si8 0.990136 0.837638 0.644337
O O1 0.610834 0.277656 0.130208
O O2 0.477241 0.292500 0.420821
O O3 0.125325 0.309596 0.248885
O O4 0.285535 0.151425 0.890967
O O5 0.822705 0.438098 0.593601
O O6 0.849019 0.358974 0.142002
O O7 0.443807 0.707919 0.275839
O O8 0.848100 0.766805 0.568246
O O9 0.656739 0.586585 0.100945
O O10 0.053276 0.771693 0.351831
O O11 0.051559 0.601870 0.021349
O O12 0.283186 0.049749 0.397951
O O13 0.500000 0.000000 0.500000
O O14 0.000000 0.000000 0.500000
O O15 0.000000 0.500000 0.000000
O O16 0.142341 0.080725 0.221429
O O17 0.500000 0.000000 0.000000
O O18 0.216028 0.900168 0.887479
#
# Coordination Sequence:
#
# PCOD9047117 Si02
#       8
#     2   2   2   2   2   2   2   2
#     4  12  28  48  76 104 152 193 243 301 372 439
#     4  12  28  47  74 109 147 190 244 304 369 432
#     4  11  25  44  75 103 142 194 243 299 362 447
#     4  11  26  43  74 104 145 190 244 302 364 436
#     4  12  29  48  74 108 152 193 248 305 374 440
#     4  11  24  47  72 105 144 191 241 298 366 440
#     4  11  25  43  74 103 142 194 245 309 371 444
#     4  10  24  43  72 100 143 180 251 291 372 431
#
# _framework density 21.807081
#
# number of rings (size 3 to 8) (size 9 to 14) (size 15 to 20)
#    0.000    0.750    1.250    4.125   17.500    1.500 
#    0.000    0.000    0.000    0.000    0.000    0.000 
#    0.000    0.000    0.000    0.000    0.000    0.000 
#
# Total GULP energy -89194.947318 kJ/mol
# GULP energy per Si atom -5574.684207 kJ/mol
# Density = 2.175745 g / cm^3
# Si number density = 21.807081 Si / 1000 Ang^3
#
#
#
# Elastic Constant Matrix: (Units=GPa)
#
#
# Indices 1 2 3 4 5 6 
#
# 1 67.5066 14.4313 17.8192 14.3997 -10.4569 -2.3180
# 2 14.4313 59.2614 49.8403 -5.5811 -42.4093 -43.7218
# 3 17.8192 49.8403 149.0795 1.0665 -1.1382 11.2728
# 4 14.3997 -5.5811 1.0665 51.2092 8.3595 3.1604
# 5 -10.4569 -42.4093 -1.1382 8.3595 2.0425 -35.3914
# 6 -2.3180 -43.7218 11.2728 3.1604 -35.3914 -43.3576
#
#
#
# Elastic Compliance Matrix: (Units=1/GPa)
#
#
# Indices 1 2 3 4 5 6 
#
# 1 0.017552 -0.002682 -0.000891 -0.005850 0.005072 -0.003032
# 2 -0.002682 0.011323 -0.002572 0.002727 0.000348 -0.012028
# 3 -0.000891 -0.002572 0.007462 -0.000670 0.001814 0.003052
# 4 -0.005850 0.002727 -0.000670 0.022154 -0.005391 0.003403
# 5 0.005072 0.000348 0.001814 -0.005391 0.035424 -0.029458
# 6 -0.003032 -0.012028 0.003052 0.003403 -0.029458 0.014315
#
#
# Mechanical properties :
#
#
# Convention : Reuss Voigt Hill
#
# Bulk Modulus (GPa) = 41.58930 48.89210 45.24070
# Shear Modulus (GPa) = 38.89999 14.89594 26.89797
#
# Velocity S-wave (km/s) = 4.22812 2.61641 3.51586
# Velocity P-wave (km/s) = 6.55353 5.62107 6.10513
#
# Compressibility (1/GPa) = 0.02404465
#
# Stress axis : x y z
#
# Youngs Moduli (GPa) = 56.97502 88.31963 134.01031
#
# Poissons Ratio (x) = 0.23691 0.11944
# Poissons Ratio (y) = 0.15283 0.34468
# Poissons Ratio (z) = 0.05078 0.22716
#
# Static dielectric constant tensor:
#      x y z
#    x 1.994720 0.151470 0.070240 
#    y 0.151470 1.780910 0.069610 
#    z 0.070240 0.069610 1.739740 
# 
# From -- ./inp_files/47847.got.cif
#   From: 2010.05.17/outbox.cif.g08.bks.cpg/sg2_24_cif.got.tgz:47847.got - 2010.06.03 11:33:40.
