data_PCOD9047977
_publ_section_title
;
Structure prediction by ZEFSAII (Michael W. Deem and Ramdas Pophale) SiO2 
 PCOD9047977
Probable space group: P -1
;
_chemical_formula_sum "Si O2"
_cell_formula_units_Z 16
_cell_length_a 11.937782
_cell_length_b 14.466686
_cell_length_c 5.462043
_cell_angle_alpha 77.162788
_cell_angle_beta 49.338764
_cell_angle_gamma 93.463933
_cell_volume 670.289090
_symmetry_space_group_name_H-M "P -1"
_symmetry_group_IT_number 2
_symmetry_cell_setting 'triclinic'
loop_
_space_group_symop_operation_xyz
x,y,z
-x,-y,-z
loop_
_atom_site_type_symbol
_atom_site_label
_atom_site_fract_x
_atom_site_fract_y
_atom_site_fract_z
Si Si1 0.616943 0.138643 0.262192
Si Si2 0.889503 0.914694 0.372926
Si Si3 0.331766 0.219816 0.608554
Si Si4 0.889212 0.531466 0.325822
Si Si5 0.020057 0.207821 0.307052
Si Si6 0.119199 0.659244 0.275910
Si Si7 0.429232 0.445847 0.380982
Si Si8 0.267843 0.929112 0.373499
O O1 0.447576 0.153368 0.513086
O O2 0.644260 0.076702 0.495172
O O3 0.650864 0.097202 0.971995
O O4 0.737089 0.248443 0.042945
O O5 0.772530 0.824454 0.451947
O O6 0.004506 0.872097 0.393112
O O7 0.781797 0.970458 0.636667
O O8 0.000000 0.000000 0.000000
O O9 0.431934 0.333125 0.409200
O O10 0.196115 0.218982 0.992201
O O11 0.993770 0.625184 0.263198
O O12 0.747298 0.553083 0.381439
O O13 0.835552 0.438603 0.644900
O O14 0.000000 0.500000 0.000000
O O15 0.974529 0.303046 0.401712
O O16 0.894701 0.155602 0.318804
O O17 0.500000 0.500000 0.500000
O O18 0.500000 0.500000 0.000000
#
# Coordination Sequence:
#
# PCOD9047977 Si02
#       8
#     2   2   2   2   2   2   2   2
#     4  11  28  47  72 106 153 195 245 304 376 438
#     4  12  25  47  78 113 150 194 256 310 373 447
#     4  12  29  46  79 109 149 202 248 312 378 444
#     4  11  25  43  75 103 138 195 251 310 374 441
#     4  11  25  45  77 107 147 194 254 302 371 448
#     4  10  24  44  72 103 143 191 251 307 367 449
#     4  12  31  51  75 111 157 196 249 312 376 442
#     4  11  26  48  75 106 149 198 240 309 367 445
#
# _framework density 23.870297000000001
#
# number of rings (size 3 to 8) (size 9 to 14) (size 15 to 20)
#    0.000    0.750    1.250    4.125   17.500    1.000 
#    0.000    0.000    0.000    0.000    0.000    0.000 
#    0.000    0.000    0.000    0.000    0.000    0.000 
#
# Total GULP energy -89542.450776 kJ/mol
# GULP energy per Si atom -5596.403173 kJ/mol
# Density = 2.381597 g / cm^3
# Si number density = 23.870297 Si / 1000 Ang^3
#
#
#
# Elastic Constant Matrix: (Units=GPa)
#
#
# Indices 1 2 3 4 5 6 
#
# 1 111.7458 22.6453 41.0393 15.3678 -0.9247 -11.1997
# 2 22.6453 128.5727 33.1778 7.5375 5.2748 9.2516
# 3 41.0393 33.1778 82.9477 -3.8012 -10.4573 12.2525
# 4 15.3678 7.5375 -3.8012 37.1865 -6.6377 -2.5288
# 5 -0.9247 5.2748 -10.4573 -6.6377 37.2985 9.0962
# 6 -11.1997 9.2516 12.2525 -2.5288 9.0962 43.5913
#
#
#
# Elastic Compliance Matrix: (Units=1/GPa)
#
#
# Indices 1 2 3 4 5 6 
#
# 1 0.013735 -0.000036 -0.008702 -0.006993 -0.004951 0.006610
# 2 -0.000036 0.009141 -0.004068 -0.002786 -0.002839 -0.000375
# 3 -0.008702 -0.004068 0.020871 0.007691 0.009732 -0.008823
# 4 -0.006993 -0.002786 0.007691 0.032507 0.008980 -0.003355
# 5 -0.004951 -0.002839 0.009732 0.008980 0.033842 -0.009946
# 6 0.006610 -0.000375 -0.008823 -0.003355 -0.009946 0.029079
#
#
# Mechanical properties :
#
#
# Convention : Reuss Voigt Hill
#
# Bulk Modulus (GPa) = 55.14561 57.44345 56.29453
# Shear Modulus (GPa) = 29.26838 38.70885 33.98861
#
# Velocity S-wave (km/s) = 3.50543 4.03132 3.77754
# Velocity P-wave (km/s) = 6.28780 6.76652 6.53155
#
# Compressibility (1/GPa) = 0.01813381
#
# Stress axis : x y z
#
# Youngs Moduli (GPa) = 72.80493 109.40143 47.91276
#
# Poissons Ratio (x) = 0.00396 0.41695
# Poissons Ratio (y) = 0.00264 0.19492
# Poissons Ratio (z) = 0.63356 0.44508
#
# Static dielectric constant tensor:
#      x y z
#    x 1.839640 -0.012610 0.018170 
#    y -0.012610 1.902340 -0.048600 
#    z 0.018170 -0.048600 2.008640 
# 
# From -- ./inp_files/77547.got.cif
#   From: 2010.05.17/outbox.cif.g08.bks.cpg/sg2_39_cif.got.tgz:77547.got - 2010.06.03 11:33:40.
