data_PCOD9047237
_publ_section_title
;
Structure prediction by ZEFSAII (Michael W. Deem and Ramdas Pophale) SiO2 
 PCOD9047237
Probable space group: P -1
;
_chemical_formula_sum "Si O2"
_cell_formula_units_Z 15
_cell_length_a 16.186744
_cell_length_b 13.206003
_cell_length_c 5.099376
_cell_angle_alpha 108.235893
_cell_angle_beta 100.937321
_cell_angle_gamma 33.868765
_cell_volume 571.887187
_symmetry_space_group_name_H-M "P -1"
_symmetry_group_IT_number 2
_symmetry_cell_setting 'triclinic'
loop_
_space_group_symop_operation_xyz
x,y,z
-x,-y,-z
loop_
_atom_site_type_symbol
_atom_site_label
_atom_site_fract_x
_atom_site_fract_y
_atom_site_fract_z
Si Si1 0.261611 0.467388 0.233129
Si Si2 0.000000 0.000000 0.000000
Si Si3 0.266035 0.686860 0.169035
Si Si4 0.583753 0.136312 0.114257
Si Si5 0.586155 0.385924 0.250244
Si Si6 0.006140 0.229797 0.278139
Si Si7 0.273418 0.083969 0.475330
Si Si8 0.114087 0.444342 0.842227
O O1 0.273646 0.552506 0.104068
O O2 0.427660 0.297374 0.308205
O O3 0.125035 0.633249 0.475217
O O4 0.240415 0.373013 0.024960
O O5 0.991851 0.882398 0.960184
O O6 0.105766 0.909053 0.273089
O O7 0.388301 0.598174 0.407960
O O8 0.269055 0.703985 0.863212
O O9 0.615880 0.228276 0.164418
O O10 0.689560 0.963374 0.234923
O O11 0.596005 0.068883 0.782882
O O12 0.500000 0.500000 0.000000
O O13 0.165443 0.096300 0.378915
O O14 0.968334 0.369388 0.183986
O O15 0.186884 0.285875 0.554000
O O16 0.000000 0.500000 0.000000
#
# Coordination Sequence:
#
# PCOD9047237 Si02
#       8
#     2   1   2   2   2   2   2   2
#     4  11  27  48  78 110 160 206 263 330 402 470
#     4  12  26  44  76 110 158 188 266 328 382 464
#     4  10  24  44  65 110 145 196 256 313 390 459
#     4  11  29  48  79 120 158 205 270 332 391 474
#     4  10  24  43  75  98 157 211 250 308 404 474
#     4  12  28  49  79 113 158 210 267 324 408 480
#     4  12  28  51  81 118 157 206 274 327 391 475
#     4  12  26  52  82 111 159 213 263 327 408 469
#
# _framework density 26.228949
#
# number of rings (size 3 to 8) (size 9 to 14) (size 15 to 20)
#    0.000    0.800    2.667    2.000   14.933    2.667 
#    0.000    0.000    0.000    0.000    0.000    0.000 
#    0.000    0.000    0.000    0.000    0.000    0.000 
#
# Total GULP energy -83545.064188 kJ/mol
# GULP energy per Si atom -5569.670946 kJ/mol
# Density = 2.616925 g / cm^3
# Si number density = 26.228949 Si / 1000 Ang^3
#
#
#
# Elastic Constant Matrix: (Units=GPa)
#
#
# Indices 1 2 3 4 5 6 
#
# 1 116.5139 14.0699 53.0755 -5.5186 3.6925 20.3460
# 2 14.0699 99.2583 30.5791 -12.6686 12.9036 12.4310
# 3 53.0755 30.5791 139.9459 7.3293 -25.8388 19.6185
# 4 -5.5186 -12.6686 7.3293 41.1118 -2.4601 5.2471
# 5 3.6925 12.9036 -25.8388 -2.4601 64.5378 8.5679
# 6 20.3460 12.4310 19.6185 5.2471 8.5679 43.9199
#
#
#
# Elastic Compliance Matrix: (Units=1/GPa)
#
#
# Indices 1 2 3 4 5 6 
#
# 1 0.011352 0.000863 -0.004552 0.002912 -0.002081 -0.003412
# 2 0.000863 0.012389 -0.003624 0.004644 -0.003514 -0.002157
# 3 -0.004552 -0.003624 0.011251 -0.003054 0.005724 -0.002643
# 4 0.002912 0.004644 -0.003054 0.027212 -0.000694 -0.004415
# 5 -0.002081 -0.003514 0.005724 -0.000694 0.019146 -0.004251
# 6 -0.003412 -0.002157 -0.002643 -0.004415 -0.004251 0.027497
#
#
# Mechanical properties :
#
#
# Convention : Reuss Voigt Hill
#
# Bulk Modulus (GPa) = 49.10404 61.24079 55.17241
# Shear Modulus (GPa) = 38.38437 47.11347 42.74892
#
# Velocity S-wave (km/s) = 3.82964 4.24280 4.04150
# Velocity P-wave (km/s) = 6.19006 6.88484 6.54667
#
# Compressibility (1/GPa) = 0.02036493
#
# Stress axis : x y z
#
# Youngs Moduli (GPa) = 88.09243 80.71989 88.87943
#
# Poissons Ratio (x) = -0.06964 0.40459
# Poissons Ratio (y) = -0.07600 0.32208
# Poissons Ratio (z) = 0.40101 0.29251
#
# Static dielectric constant tensor:
#      x y z
#    x 2.015190 -0.005430 0.148930 
#    y -0.005430 2.109770 -0.113270 
#    z 0.148930 -0.113270 2.040420 
# 
# From -- ./inp_files/95367.got.cif
#   From: 2010.05.17/outbox.cif.g08.bks.cpg/sg2_48_cif.got.tgz:95367.got - 2010.06.03 11:33:40.
