data_PCOD9047296
_publ_section_title
;
Structure prediction by ZEFSAII (Michael W. Deem and Ramdas Pophale) SiO2 
 PCOD9047296
Probable space group: P -1
;
_chemical_formula_sum "Si O2"
_cell_formula_units_Z 14
_cell_length_a 12.762539
_cell_length_b 30.317960
_cell_length_c 5.323632
_cell_angle_alpha 67.353291
_cell_angle_beta 115.845719
_cell_angle_gamma 161.200201
_cell_volume 594.704906
_symmetry_space_group_name_H-M "P -1"
_symmetry_group_IT_number 2
_symmetry_cell_setting 'triclinic'
loop_
_space_group_symop_operation_xyz
x,y,z
-x,-y,-z
loop_
_atom_site_type_symbol
_atom_site_label
_atom_site_fract_x
_atom_site_fract_y
_atom_site_fract_z
Si Si1 0.894732 0.661059 0.075339
Si Si2 0.222233 0.046679 0.992129
Si Si3 0.818699 0.449116 0.167452
Si Si4 0.897003 0.201883 0.520997
Si Si5 0.879135 0.094329 0.562079
Si Si6 0.811029 0.319376 0.844530
Si Si7 0.239360 0.172804 0.367680
O O1 0.942756 0.707826 0.281345
O O2 0.070122 0.676185 0.228574
O O3 0.500000 0.500000 0.000000
O O4 0.044006 0.747790 0.796703
O O5 0.602607 0.208817 0.071995
O O6 0.079267 0.981615 0.706482
O O7 0.153088 0.967934 0.194088
O O8 0.000000 0.000000 0.000000
O O9 0.459683 0.285751 0.144666
O O10 0.000000 0.500000 0.500000
O O11 0.881243 0.529960 0.072291
O O12 0.000000 0.500000 0.000000
O O13 0.028920 0.199046 0.615870
O O14 0.516987 0.047472 0.568776
O O15 0.100353 0.162937 0.408816
O O16 0.512805 0.240842 0.618056
#
# Coordination Sequence:
#
# PCOD9047296 Si02
#       7
#     2   2   2   2   2   2   2
#     4  12  28  50  74 105 142 200 249 300 363 434
#     4  12  23  40  71 110 145 180 236 299 372 431
#     4  10  24  44  64 100 144 189 228 280 359 432
#     4  11  28  50  73 105 148 193 249 300 361 435
#     4  11  26  44  75 106 145 193 239 306 368 436
#     4  11  24  45  70 105 146 185 236 306 362 424
#     4  11  25  43  72 108 145 191 237 300 370 443
#
# _framework density 23.541087000000001
#
# number of rings (size 3 to 8) (size 9 to 14) (size 15 to 20)
#    0.000    0.857    2.857    2.571    8.000    3.429 
#    0.000    0.000    0.000    0.000    0.000    0.000 
#    0.000    0.000    0.000    0.000    0.000    0.000 
#
# Total GULP energy -78064.466949 kJ/mol
# GULP energy per Si atom -5576.033354 kJ/mol
# Density = 2.348751 g / cm^3
# Si number density = 23.541087 Si / 1000 Ang^3
#
#
#
# Elastic Constant Matrix: (Units=GPa)
#
#
# Indices 1 2 3 4 5 6 
#
# 1 231.0430 32.0251 46.7174 -1.2091 -11.2420 -14.4598
# 2 32.0251 88.9515 10.5536 -23.1217 -1.7901 -12.6561
# 3 46.7174 10.5536 65.8084 -16.4292 -15.8742 -5.4963
# 4 -1.2091 -23.1217 -16.4292 36.8187 -2.8405 -2.7593
# 5 -11.2420 -1.7901 -15.8742 -2.8405 31.7855 -2.0167
# 6 -14.4598 -12.6561 -5.4963 -2.7593 -2.0167 55.9893
#
#
#
# Elastic Compliance Matrix: (Units=1/GPa)
#
#
# Indices 1 2 3 4 5 6 
#
# 1 0.005527 -0.002288 -0.004534 -0.003313 -0.000717 0.000276
# 2 -0.002288 0.015259 0.003008 0.011352 0.002808 0.003814
# 3 -0.004534 0.003008 0.024626 0.013906 0.012301 0.003055
# 4 -0.003313 0.011352 0.013906 0.041606 0.010480 0.005503
# 5 -0.000717 0.002808 0.012301 0.010480 0.038672 0.003567
# 6 0.000276 0.003814 0.003055 0.005503 0.003567 0.019494
#
#
# Mechanical properties :
#
#
# Convention : Reuss Voigt Hill
#
# Bulk Modulus (GPa) = 26.46702 62.71057 44.58879
# Shear Modulus (GPa) = 30.22834 44.68583 37.45708
#
# Velocity S-wave (km/s) = 3.58728 4.36157 3.99323
# Velocity P-wave (km/s) = 5.33155 7.21533 6.34375
#
# Compressibility (1/GPa) = 0.03778287
#
# Stress axis : x y z
#
# Youngs Moduli (GPa) = 180.92339 65.53447 40.60755
#
# Poissons Ratio (x) = 0.14997 0.18411
# Poissons Ratio (y) = 0.41403 -0.12213
# Poissons Ratio (z) = 0.82027 -0.19710
#
# Static dielectric constant tensor:
#      x y z
#    x 1.907450 -0.004520 0.107560 
#    y -0.004520 1.932160 0.065750 
#    z 0.107560 0.065750 2.217320 
# 
# From -- ./inp_files/76326.got.cif
#   From: 2010.05.17/outbox.cif.g08.bks.cpg/sg2_39_cif.got.tgz:76326.got - 2010.06.03 11:33:40.
