data_PCOD9047277
_publ_section_title
;
Structure prediction by ZEFSAII (Michael W. Deem and Ramdas Pophale) SiO2 
 PCOD9047277
Probable space group: P -1
;
_chemical_formula_sum "Si O2"
_cell_formula_units_Z 16
_cell_length_a 6.093053
_cell_length_b 17.027120
_cell_length_c 19.382039
_cell_angle_alpha 24.115490
_cell_angle_beta 69.668829
_cell_angle_gamma 80.062428
_cell_volume 713.460671
_symmetry_space_group_name_H-M "P -1"
_symmetry_group_IT_number 2
_symmetry_cell_setting 'triclinic'
loop_
_space_group_symop_operation_xyz
x,y,z
-x,-y,-z
loop_
_atom_site_type_symbol
_atom_site_label
_atom_site_fract_x
_atom_site_fract_y
_atom_site_fract_z
Si Si1 0.846279 0.208332 0.065450
Si Si2 0.715247 0.987082 0.123341
Si Si3 0.110773 0.807008 0.192368
Si Si4 0.949446 0.145684 0.446185
Si Si5 0.556851 0.453380 0.954475
Si Si6 0.904955 0.820970 0.443627
Si Si7 0.654626 0.425303 0.248050
Si Si8 0.216897 0.632094 0.464148
O O1 0.721951 0.147022 0.053496
O O2 0.645986 0.262115 0.091063
O O3 0.889903 0.010939 0.249139
O O4 0.112621 0.403939 0.874169
O O5 0.982486 0.961639 0.109639
O O6 0.508866 0.761597 0.345070
O O7 0.682824 0.077870 0.980077
O O8 0.895079 0.615472 0.329572
O O9 0.189712 0.709964 0.327586
O O10 0.194400 0.354498 0.247632
O O11 0.955327 0.086480 0.573188
O O12 0.720724 0.220079 0.395094
O O13 0.000000 0.000000 0.500000
O O14 0.354449 0.463071 0.913121
O O15 0.500000 0.500000 0.000000
O O16 0.620134 0.656132 0.621497
O O17 0.056681 0.708567 0.474246
#
# Coordination Sequence:
#
# PCOD9047277 Si02
#       8
#     2   2   2   2   2   2   2   2
#     4  11  26  42  68  99 131 180 224 269 340 397
#     4  11  24  43  68  98 131 175 224 274 333 399
#     4  10  24  44  63 100 134 174 218 277 340 388
#     4  10  25  42  67  98 131 176 220 276 338 393
#     4  10  25  42  67  98 131 176 220 276 338 393
#     4  11  26  42  68  99 131 180 224 269 340 397
#     4  10  26  46  63  98 136 172 222 279 328 396
#     4  11  24  43  68  98 131 175 224 274 333 399
#
# _framework density 22.425903000000002
#
# number of rings (size 3 to 8) (size 9 to 14) (size 15 to 20)
#    0.000    1.500    1.250    0.750   14.000    2.000 
#    9.000    0.000    0.000    0.000    0.000    0.000 
#    0.000    0.000    0.000    0.000    0.000    0.000 
#
# Total GULP energy -89407.938638 kJ/mol
# GULP energy per Si atom -5587.996165 kJ/mol
# Density = 2.237486 g / cm^3
# Si number density = 22.425903 Si / 1000 Ang^3
#
#
#
# Elastic Constant Matrix: (Units=GPa)
#
#
# Indices 1 2 3 4 5 6 
#
# 1 47.3215 19.8718 6.2607 3.3420 -4.4700 -3.4711
# 2 19.8718 129.4832 18.4322 0.4066 -1.8512 -11.8962
# 3 6.2607 18.4322 74.3809 4.8189 -7.7102 -2.7733
# 4 3.3420 0.4066 4.8189 30.9113 2.8133 -1.9183
# 5 -4.4700 -1.8512 -7.7102 2.8133 36.2429 -2.6421
# 6 -3.4711 -11.8962 -2.7733 -1.9183 -2.6421 29.9617
#
#
#
# Elastic Compliance Matrix: (Units=1/GPa)
#
#
# Indices 1 2 3 4 5 6 
#
# 1 0.023146 -0.003286 -0.000621 -0.002535 0.002854 0.001409
# 2 -0.003286 0.008757 -0.001851 0.000729 -0.000193 0.002955
# 3 -0.000621 -0.001851 0.014461 -0.002408 0.003140 0.000654
# 4 -0.002535 0.000729 -0.002408 0.033388 -0.003261 0.001623
# 5 0.002854 -0.000193 0.003140 -0.003261 0.029066 0.002899
# 6 0.001409 0.002955 0.000654 0.001623 0.002899 0.035132
#
#
# Mechanical properties :
#
#
# Convention : Reuss Voigt Hill
#
# Bulk Modulus (GPa) = 28.69531 37.81279 33.25405
# Shear Modulus (GPa) = 29.92539 33.19792 31.56165
#
# Velocity S-wave (km/s) = 3.65692 3.85169 3.75557
# Velocity P-wave (km/s) = 5.53662 6.05628 5.80227
#
# Compressibility (1/GPa) = 0.03484890
#
# Stress axis : x y z
#
# Youngs Moduli (GPa) = 43.20423 114.19314 69.15105
#
# Poissons Ratio (x) = 0.37519 0.04297
# Poissons Ratio (y) = 0.14195 0.12797
# Poissons Ratio (z) = 0.02685 0.21133
#
# Static dielectric constant tensor:
#      x y z
#    x 1.904560 0.006880 0.014730 
#    y 0.006880 1.952850 0.026970 
#    z 0.014730 0.026970 1.847120 
# 
# From -- ./inp_files/550008.got.cif
#   From: 2010.05.17/outbox.cif.g08.bks.cpg/sg2_276_cif.got.tgz:550008.got - 2010.06.03 11:33:40.
