data_PCOD9047184
_publ_section_title
;
Structure prediction by ZEFSAII (Michael W. Deem and Ramdas Pophale) SiO2 
 PCOD9047184
Probable space group: P -1
;
_chemical_formula_sum "Si O2"
_cell_formula_units_Z 14
_cell_length_a 20.727587
_cell_length_b 21.426334
_cell_length_c 8.817976
_cell_angle_alpha 150.201495
_cell_angle_beta 149.276236
_cell_angle_gamma 20.208419
_cell_volume 648.466522
_symmetry_space_group_name_H-M "P -1"
_symmetry_group_IT_number 2
_symmetry_cell_setting 'triclinic'
loop_
_space_group_symop_operation_xyz
x,y,z
-x,-y,-z
loop_
_atom_site_type_symbol
_atom_site_label
_atom_site_fract_x
_atom_site_fract_y
_atom_site_fract_z
Si Si1 0.935101 0.083192 0.216408
Si Si2 0.208369 0.385266 0.121552
Si Si3 0.316093 0.919672 0.778840
Si Si4 0.613581 0.505713 0.353419
Si Si5 0.002099 0.542272 0.422190
Si Si6 0.401388 0.125120 0.228716
Si Si7 0.770878 0.964922 0.806065
O O1 0.756867 0.313275 0.333659
O O2 0.864074 0.013463 0.013327
O O3 0.110932 0.020227 0.521242
O O4 0.000000 0.000000 0.000000
O O5 0.260648 0.488867 0.476376
O O6 0.362394 0.180815 0.086601
O O7 0.170195 0.399209 0.894723
O O8 0.000000 0.500000 0.000000
O O9 0.470576 0.700535 0.572218
O O10 0.310378 0.942904 0.996553
O O11 0.358176 0.020434 0.992279
O O12 0.500000 0.500000 0.000000
O O13 0.000000 0.500000 0.500000
O O14 0.215366 0.347824 0.383385
O O15 0.937471 0.734537 0.677465
O O16 0.594791 0.041633 0.511809
#
# Coordination Sequence:
#
# PCOD9047184 Si02
#       7
#     2   2   2   2   2   2   2
#     4  12  28  48  72 101 146 195 245 295 353 436
#     4  10  24  43  73 106 141 189 239 297 359 423
#     4  12  27  47  72 107 149 189 240 300 370 428
#     4  12  26  46  72 103 143 191 244 300 353 430
#     4  11  24  44  74 109 149 183 233 301 370 429
#     4  11  25  45  76 111 143 184 244 302 360 431
#     4  12  28  46  75 111 144 193 240 299 370 433
#
# _framework density 21.589396000000001
#
# number of rings (size 3 to 8) (size 9 to 14) (size 15 to 20)
#    0.000    0.571    2.857    4.286    8.000    2.857 
#    0.000    0.000    0.000    0.000    0.000    0.000 
#    0.000    0.000    0.000    0.000    0.000    0.000 
#
# Total GULP energy -78318.476237 kJ/mol
# GULP energy per Si atom -5594.176874 kJ/mol
# Density = 2.154026 g / cm^3
# Si number density = 21.589396 Si / 1000 Ang^3
#
#
#
# Elastic Constant Matrix: (Units=GPa)
#
#
# Indices 1 2 3 4 5 6 
#
# 1 161.7006 53.5117 98.2217 -13.3964 19.5749 26.3147
# 2 53.5117 172.4675 71.9231 7.5252 21.2402 26.5540
# 3 98.2217 71.9231 168.8832 -12.6474 21.2680 12.9683
# 4 -13.3964 7.5252 -12.6474 54.2444 6.4062 -1.3135
# 5 19.5749 21.2402 21.2680 6.4062 56.1330 1.0770
# 6 26.3147 26.5540 12.9683 -1.3135 1.0770 38.7230
#
#
#
# Elastic Compliance Matrix: (Units=1/GPa)
#
#
# Indices 1 2 3 4 5 6 
#
# 1 0.010725 -0.000084 -0.005472 0.001457 -0.001700 -0.005302
# 2 -0.000084 0.008015 -0.002950 -0.001740 -0.001602 -0.004466
# 3 -0.005472 -0.002950 0.010456 0.001691 -0.001175 0.002330
# 4 0.001457 -0.001740 0.001691 0.019765 -0.002754 0.000384
# 5 -0.001700 -0.001602 -0.001175 -0.002754 0.019734 0.002005
# 6 -0.005302 -0.004466 0.002330 0.000384 0.002005 0.031667
#
#
# Mechanical properties :
#
#
# Convention : Reuss Voigt Hill
#
# Bulk Modulus (GPa) = 82.07334 105.59603 93.83469
# Shear Modulus (GPa) = 41.17434 48.44640 44.81037
#
# Velocity S-wave (km/s) = 4.37184 4.74222 4.56079
# Velocity P-wave (km/s) = 7.97384 8.88831 8.44346
#
# Compressibility (1/GPa) = 0.01218422
#
# Stress axis : x y z
#
# Youngs Moduli (GPa) = 93.24169 124.76088 95.64206
#
# Poissons Ratio (x) = 0.01046 0.52331
# Poissons Ratio (y) = 0.00781 0.28219
# Poissons Ratio (z) = 0.51018 0.36810
#
# Static dielectric constant tensor:
#      x y z
#    x 1.845490 -0.049890 -0.057920 
#    y -0.049890 1.813650 0.036180 
#    z -0.057920 0.036180 1.775570 
# 
# From -- ./inp_files/274151.got.cif
#   From: 2010.05.17/outbox.cif.g08.bks.cpg/sg2_138_cif.got.tgz:274151.got - 2010.06.03 11:33:40.
