data_PCOD9047412
_publ_section_title
;
Structure prediction by ZEFSAII (Michael W. Deem and Ramdas Pophale) SiO2 
 PCOD9047412
Probable space group: P -1
;
_chemical_formula_sum "Si O2"
_cell_formula_units_Z 14
_cell_length_a 27.956326
_cell_length_b 5.136631
_cell_length_c 5.075476
_cell_angle_alpha 91.714967
_cell_angle_beta 126.809708
_cell_angle_gamma 82.936786
_cell_volume 578.228297
_symmetry_space_group_name_H-M "P -1"
_symmetry_group_IT_number 2
_symmetry_cell_setting 'triclinic'
loop_
_space_group_symop_operation_xyz
x,y,z
-x,-y,-z
loop_
_atom_site_type_symbol
_atom_site_label
_atom_site_fract_x
_atom_site_fract_y
_atom_site_fract_z
Si Si1 0.088772 0.549538 0.243220
Si Si2 0.556744 0.651947 0.728518
Si Si3 0.713783 0.736360 0.595814
Si Si4 0.850524 0.686676 0.044368
Si Si5 0.052227 0.063696 0.864327
Si Si6 0.345192 0.742238 0.769026
Si Si7 0.407240 0.061589 0.622100
O O1 0.111029 0.470020 0.603367
O O2 0.144096 0.476695 0.216253
O O3 0.063696 0.848845 0.122546
O O4 0.044010 0.354146 0.970920
O O5 0.500000 0.500000 0.500000
O O6 0.558827 0.882009 0.527822
O O7 0.614269 0.423347 0.886249
O O8 0.564292 0.782634 0.042673
O O9 0.704252 0.444076 0.474557
O O10 0.662186 0.809102 0.644849
O O11 0.689589 0.963758 0.309236
O O12 0.781627 0.757621 0.895797
O O13 0.886253 0.930622 0.099650
O O14 0.000000 0.000000 0.500000
O O15 0.394971 0.788468 0.707346
#
# Coordination Sequence:
#
# PCOD9047412 Si02
#       7
#     2   2   2   2   2   2   2
#     4  10  25  39  66  95 128 168 219 259 329 376
#     4  11  22  42  67  96 129 168 214 265 319 386
#     4   9  21  43  65  90 132 169 213 272 318 388
#     4  10  25  42  65  97 129 169 221 266 327 379
#     4  10  24  44  66  97 134 172 216 267 324 385
#     4   9  22  43  61  97 124 171 214 262 326 377
#     4   9  23  40  62  94 126 169 210 260 324 375
#
# _framework density 24.211887000000001
#
# number of rings (size 3 to 8) (size 9 to 14) (size 15 to 20)
#    1.714    0.571    0.000    0.857    4.000    6.857 
#    0.000    0.000    0.000    0.000    0.000    0.000 
#    0.000    0.000    0.000    0.000    0.000    0.000 
#
# Total GULP energy -78115.687950 kJ/mol
# GULP energy per Si atom -5579.691996 kJ/mol
# Density = 2.415678 g / cm^3
# Si number density = 24.211887 Si / 1000 Ang^3
#
#
#
# Elastic Constant Matrix: (Units=GPa)
#
#
# Indices 1 2 3 4 5 6 
#
# 1 70.3984 26.2809 39.9009 5.4321 3.4024 24.1432
# 2 26.2809 157.3018 56.5907 -9.6731 2.7892 23.5012
# 3 39.9009 56.5907 111.3147 2.9426 2.5307 23.6193
# 4 5.4321 -9.6731 2.9426 37.6573 11.7040 3.5094
# 5 3.4024 2.7892 2.5307 11.7040 46.8261 9.1497
# 6 24.1432 23.5012 23.6193 3.5094 9.1497 35.3302
#
#
#
# Elastic Compliance Matrix: (Units=1/GPa)
#
#
# Indices 1 2 3 4 5 6 
#
# 1 0.021023 -0.000197 -0.005078 -0.002107 0.001435 -0.011003
# 2 -0.000197 0.008331 -0.003548 0.002863 -0.000376 -0.003222
# 3 -0.005078 -0.003548 0.013286 -0.001163 0.000765 -0.003135
# 4 -0.002107 0.002863 -0.001163 0.030029 -0.007308 -0.000777
# 5 0.001435 -0.000376 0.000765 -0.007308 0.024394 -0.006834
# 6 -0.011003 -0.003222 -0.003135 -0.000777 -0.006834 0.041909
#
#
# Mechanical properties :
#
#
# Convention : Reuss Voigt Hill
#
# Bulk Modulus (GPa) = 40.00936 64.95111 52.48023
# Shear Modulus (GPa) = 30.31222 38.37885 34.34554
#
# Velocity S-wave (km/s) = 3.54214 3.98568 3.77044
# Velocity P-wave (km/s) = 5.76971 6.93291 6.37788
#
# Compressibility (1/GPa) = 0.02499415
#
# Stress axis : x y z
#
# Youngs Moduli (GPa) = 47.56650 120.03929 75.26701
#
# Poissons Ratio (x) = 0.02361 0.38221
# Poissons Ratio (y) = 0.00936 0.26706
# Poissons Ratio (z) = 0.24154 0.42592
#
# Static dielectric constant tensor:
#      x y z
#    x 2.055870 -0.032010 -0.009590 
#    y -0.032010 1.926270 0.009440 
#    z -0.009590 0.009440 1.871040 
# 
# From -- ./inp_files/125421.got.cif
#   From: 2010.05.17/outbox.cif.g08.bks.cpg/sg2_63_cif.got.tgz:125421.got - 2010.06.03 11:33:40.
