data_PCOD9047021
_publ_section_title
;
Structure prediction by ZEFSAII (Michael W. Deem and Ramdas Pophale) SiO2 
 PCOD9047021
Probable space group: P -1
;
_chemical_formula_sum "Si O2"
_cell_formula_units_Z 14
_cell_length_a 5.370357
_cell_length_b 23.702328
_cell_length_c 15.939305
_cell_angle_alpha 21.219105
_cell_angle_beta 95.344905
_cell_angle_gamma 109.084975
_cell_volume 545.155177
_symmetry_space_group_name_H-M "P -1"
_symmetry_group_IT_number 2
_symmetry_cell_setting 'triclinic'
loop_
_space_group_symop_operation_xyz
x,y,z
-x,-y,-z
loop_
_atom_site_type_symbol
_atom_site_label
_atom_site_fract_x
_atom_site_fract_y
_atom_site_fract_z
Si Si1 0.536720 0.859829 0.372601
Si Si2 0.445663 0.364172 0.765050
Si Si3 0.356030 0.261748 0.221086
Si Si4 0.021792 0.809520 0.855412
Si Si5 0.300927 0.736385 0.212381
Si Si6 0.061229 0.270277 0.362405
Si Si7 0.070952 0.577478 0.595981
O O1 0.748519 0.792738 0.493414
O O2 0.303360 0.822834 0.492418
O O3 0.261374 0.716472 0.489866
O O4 0.744390 0.097365 0.019044
O O5 0.500000 0.500000 0.500000
O O6 0.447031 0.200237 0.943045
O O7 0.757331 0.530012 0.607308
O O8 0.127338 0.236368 0.992223
O O9 0.090075 0.225166 0.329793
O O10 0.260573 0.273888 0.107762
O O11 0.304336 0.054870 0.508552
O O12 0.701489 0.480815 0.957867
O O13 0.091823 0.656730 0.063242
O O14 0.000000 0.500000 0.500000
O O15 0.348118 0.696542 0.364082
#
# Coordination Sequence:
#
# PCOD9047021 Si02
#       7
#     2   2   2   2   2   2   2
#     4  12  26  48  75 105 149 193 243 308 371 438
#     4  11  23  42  73 102 146 188 246 304 367 442
#     4  10  24  44  73 102 145 193 247 305 360 433
#     4  11  22  46  67 107 142 191 242 303 367 429
#     4  10  24  43  70 109 137 190 240 303 366 446
#     4  11  26  49  72 106 142 195 248 302 368 435
#     4  11  24  42  68 105 148 189 244 300 370 442
#
# _framework density 25.680759999999999
#
# number of rings (size 3 to 8) (size 9 to 14) (size 15 to 20)
#    0.000    1.143    2.857    2.143    4.000    4.571 
#    5.143    4.286    0.000    0.000    0.000    0.000 
#    0.000    0.000    0.000    0.000    0.000    0.000 
#
# Total GULP energy -78282.204609 kJ/mol
# GULP energy per Si atom -5591.586044 kJ/mol
# Density = 2.562231 g / cm^3
# Si number density = 25.680760 Si / 1000 Ang^3
#
#
#
# Elastic Constant Matrix: (Units=GPa)
#
#
# Indices 1 2 3 4 5 6 
#
# 1 72.6763 9.8846 31.8549 2.2303 5.0612 18.2288
# 2 9.8846 114.4799 32.8947 22.4578 20.5299 5.5148
# 3 31.8549 32.8947 167.5332 -10.5322 25.0631 9.0199
# 4 2.2303 22.4578 -10.5322 47.1547 -2.2985 6.9379
# 5 5.0612 20.5299 25.0631 -2.2985 30.9015 5.7488
# 6 18.2288 5.5148 9.0199 6.9379 5.7488 26.4559
#
#
#
# Elastic Compliance Matrix: (Units=1/GPa)
#
#
# Indices 1 2 3 4 5 6 
#
# 1 0.017934 -0.000646 -0.002920 0.000655 0.002115 -0.011858
# 2 -0.000646 0.011744 -0.001614 -0.006544 -0.007215 0.001831
# 3 -0.002920 -0.001614 0.007660 0.002385 -0.004501 0.000090
# 4 0.000655 -0.006544 0.002385 0.026290 0.005758 -0.008046
# 5 0.002115 -0.007215 -0.004501 0.005758 0.042596 -0.009185
# 6 -0.011858 0.001831 0.000090 -0.008046 -0.009185 0.049663
#
#
# Mechanical properties :
#
#
# Convention : Reuss Voigt Hill
#
# Bulk Modulus (GPa) = 37.06642 55.99531 46.53087
# Shear Modulus (GPa) = 28.53254 39.57277 34.05265
#
# Velocity S-wave (km/s) = 3.33685 3.92975 3.64538
# Velocity P-wave (km/s) = 5.41396 6.51478 5.98971
#
# Compressibility (1/GPa) = 0.02697859
#
# Stress axis : x y z
#
# Youngs Moduli (GPa) = 55.75903 85.14904 130.55650
#
# Poissons Ratio (x) = 0.05501 0.38122
# Poissons Ratio (y) = 0.03602 0.21068
# Poissons Ratio (z) = 0.16281 0.13741
#
# Static dielectric constant tensor:
#      x y z
#    x 2.323860 -0.017270 -0.036260 
#    y -0.017270 2.015560 0.042250 
#    z -0.036260 0.042250 2.087490 
# 
# From -- ./inp_files/485949.got.cif
#   From: 2010.05.17/outbox.cif.g08.bks.cpg/sg2_243_cif.got.tgz:485949.got - 2010.06.03 11:33:40.
