data_PCOD9047090
_publ_section_title
;
Structure prediction by ZEFSAII (Michael W. Deem and Ramdas Pophale) SiO2 
 PCOD9047090
Probable space group: P -1
;
_chemical_formula_sum "Si O2"
_cell_formula_units_Z 16
_cell_length_a 8.710795
_cell_length_b 8.345668
_cell_length_c 28.768067
_cell_angle_alpha 45.516647
_cell_angle_beta 32.755939
_cell_angle_gamma 44.283774
_cell_volume 762.653744
_symmetry_space_group_name_H-M "P -1"
_symmetry_group_IT_number 2
_symmetry_cell_setting 'triclinic'
loop_
_space_group_symop_operation_xyz
x,y,z
-x,-y,-z
loop_
_atom_site_type_symbol
_atom_site_label
_atom_site_fract_x
_atom_site_fract_y
_atom_site_fract_z
Si Si1 0.314153 0.293477 0.384977
Si Si2 0.141796 0.984172 0.114161
Si Si3 0.150815 0.111737 0.709246
Si Si4 0.671217 0.209227 0.730974
Si Si5 0.190460 0.590806 0.588332
Si Si6 0.315726 0.414741 0.964471
Si Si7 0.835753 0.941945 0.445047
Si Si8 0.813211 0.063272 0.082670
O O1 0.453378 0.507123 0.304941
O O2 0.075698 0.348535 0.393305
O O3 0.569485 0.044396 0.360471
O O4 0.137645 0.263901 0.482067
O O5 0.389198 0.724847 0.111946
O O6 0.873589 0.024292 0.210223
O O7 0.023889 0.999532 0.088169
O O8 0.285589 0.190339 0.046450
O O9 0.181286 0.361784 0.665293
O O10 0.858498 0.159449 0.741542
O O11 0.424449 0.077829 0.823127
O O12 0.916683 0.119385 0.645709
O O13 0.500000 0.500000 0.500000
O O14 0.154841 0.822235 0.579792
O O15 0.339792 0.649074 0.934885
O O16 0.000000 0.500000 0.000000
O O17 0.500000 0.000000 0.500000
O O18 0.000000 0.000000 0.000000
#
# Coordination Sequence:
#
# PCOD9047090 Si02
#       8
#     2   2   2   2   2   2   2   2
#     4  11  24  45  67  94 137 182 218 268 332 396
#     4  10  24  43  71  95 127 181 221 267 334 401
#     4  11  25  43  67  97 132 176 227 265 327 404
#     4  11  27  42  66  99 137 175 221 279 333 393
#     4  11  24  42  67  98 131 176 224 269 322 401
#     4   9  22  44  68  94 127 174 222 272 327 396
#     4  12  23  45  67  98 137 175 220 278 331 384
#     4  11  27  44  66 102 138 170 221 280 334 392
#
# _framework density 20.979379000000002
#
# number of rings (size 3 to 8) (size 9 to 14) (size 15 to 20)
#    0.000    1.250    2.500    1.500   10.500    4.500 
#    0.000    0.000    0.000    0.000    0.000    0.000 
#    0.000    0.000    0.000    0.000    0.000    0.000 
#
# Total GULP energy -89330.594788 kJ/mol
# GULP energy per Si atom -5583.162174 kJ/mol
# Density = 2.093163 g / cm^3
# Si number density = 20.979379 Si / 1000 Ang^3
#
#
#
# Elastic Constant Matrix: (Units=GPa)
#
#
# Indices 1 2 3 4 5 6 
#
# 1 63.6169 26.6680 46.9324 -11.4340 0.3291 14.1397
# 2 26.6680 112.8608 36.2515 -20.4622 -7.6225 18.9788
# 3 46.9324 36.2515 144.1249 -15.4886 -1.6872 21.1870
# 4 -11.4340 -20.4622 -15.4886 34.7223 11.5274 -10.5564
# 5 0.3291 -7.6225 -1.6872 11.5274 40.7897 1.7112
# 6 14.1397 18.9788 21.1870 -10.5564 1.7112 28.0884
#
#
#
# Elastic Compliance Matrix: (Units=1/GPa)
#
#
# Indices 1 2 3 4 5 6 
#
# 1 0.022412 -0.002337 -0.005824 0.002579 -0.001409 -0.004255
# 2 -0.002337 0.011214 -0.001015 0.003665 0.001219 -0.004332
# 3 -0.005824 -0.001015 0.009671 0.000686 0.000208 -0.003432
# 4 0.002579 0.003665 0.000686 0.039062 -0.010810 0.011048
# 5 -0.001409 0.001219 0.000208 -0.010810 0.028072 -0.006044
# 6 -0.004255 -0.004332 -0.003432 0.011048 -0.006044 0.047780
#
#
# Mechanical properties :
#
#
# Convention : Reuss Voigt Hill
#
# Bulk Modulus (GPa) = 40.08828 60.03404 50.06116
# Shear Modulus (GPa) = 27.04488 34.77014 30.90751
#
# Velocity S-wave (km/s) = 3.59432 4.07547 3.84244
# Velocity P-wave (km/s) = 6.03121 7.12908 6.60300
#
# Compressibility (1/GPa) = 0.02494495
#
# Stress axis : x y z
#
# Youngs Moduli (GPa) = 44.61888 89.17578 103.40328
#
# Poissons Ratio (x) = 0.20841 0.60224
# Poissons Ratio (y) = 0.10428 0.10492
# Poissons Ratio (z) = 0.25987 0.09048
#
# Static dielectric constant tensor:
#      x y z
#    x 1.752280 -0.009270 0.013600 
#    y -0.009270 1.792310 -0.011970 
#    z 0.013600 -0.011970 1.812700 
# 
# From -- ./inp_files/47596.got.cif
#   From: 2010.05.17/outbox.cif.g08.bks.cpg/sg2_24_cif.got.tgz:47596.got - 2010.06.03 11:33:40.
