data_PCOD9047643
_publ_section_title
;
Structure prediction by ZEFSAII (Michael W. Deem and Ramdas Pophale) SiO2 
 PCOD9047643
Probable space group: P -1
;
_chemical_formula_sum "Si O2"
_cell_formula_units_Z 12
_cell_length_a 13.856196
_cell_length_b 11.208615
_cell_length_c 12.110807
_cell_angle_alpha 23.903084
_cell_angle_beta 140.067055
_cell_angle_gamma 142.199906
_cell_volume 459.585302
_symmetry_space_group_name_H-M "P -1"
_symmetry_group_IT_number 2
_symmetry_cell_setting 'triclinic'
loop_
_space_group_symop_operation_xyz
x,y,z
-x,-y,-z
loop_
_atom_site_type_symbol
_atom_site_label
_atom_site_fract_x
_atom_site_fract_y
_atom_site_fract_z
Si Si1 0.920804 0.594460 0.958019
Si Si2 0.239808 0.116240 0.803203
Si Si3 0.570201 0.797078 0.890759
Si Si4 0.326865 0.523472 0.326302
Si Si5 0.843555 0.012476 0.790490
Si Si6 0.231409 0.692078 0.731992
O O1 0.762229 0.624903 0.739148
O O2 0.863074 0.316615 0.230927
O O3 0.060905 0.900686 0.864497
O O4 0.000000 0.500000 0.000000
O O5 0.237323 0.344983 0.508202
O O6 0.343941 0.276617 0.863957
O O7 0.323866 0.874708 0.035127
O O8 0.712190 0.041411 0.738127
O O9 0.418929 0.892900 0.713722
O O10 0.500000 0.500000 0.000000
O O11 0.500000 0.500000 0.500000
O O12 0.859005 0.253937 0.501168
O O13 0.773732 0.667932 0.966513
O O14 0.000000 0.000000 0.000000
#
# Coordination Sequence:
#
# PCOD9047643 Si02
#       6
#     2   2   2   2   2   2
#     4  10  24  44  68  99 137 178 227 280 337 406
#     4  11  24  42  67  97 135 180 223 280 341 401
#     4  10  24  45  69 100 137 179 229 283 339 406
#     4  11  24  43  68 101 135 177 228 281 340 406
#     4  11  24  42  67  97 130 171 223 277 336 400
#     4  11  24  42  65  94 130 175 219 275 336 397
#
# _framework density 26.110493999999999
#
# number of rings (size 3 to 8) (size 9 to 14) (size 15 to 20)
#    0.000    1.333    0.000    4.000    0.000   16.000 
#    0.000    0.000    0.000    0.000    0.000    0.000 
#    0.000    0.000    0.000    0.000    0.000    0.000 
#
# Total GULP energy -67223.434823 kJ/mol
# GULP energy per Si atom -5601.952902 kJ/mol
# Density = 2.605107 g / cm^3
# Si number density = 26.110494 Si / 1000 Ang^3
#
#
#
# Elastic Constant Matrix: (Units=GPa)
#
#
# Indices 1 2 3 4 5 6 
#
# 1 160.5694 38.0617 46.4379 23.6452 -30.8361 28.0598
# 2 38.0617 154.0161 37.5814 52.9156 -13.1648 7.4078
# 3 46.4379 37.5814 130.4848 24.1269 -33.1082 -6.9162
# 4 23.6452 52.9156 24.1269 53.2752 -13.2919 6.7106
# 5 -30.8361 -13.1648 -33.1082 -13.2919 57.3735 10.7544
# 6 28.0598 7.4078 -6.9162 6.7106 10.7544 42.6175
#
#
#
# Elastic Compliance Matrix: (Units=1/GPa)
#
#
# Indices 1 2 3 4 5 6 
#
# 1 0.009385 -0.001000 -0.002197 0.000025 0.004982 -0.007623
# 2 -0.001000 0.010140 -0.001068 -0.009486 -0.001118 0.000498
# 3 -0.002197 -0.001068 0.010150 -0.002045 0.003446 0.002732
# 4 0.000025 -0.009486 -0.002045 0.030878 0.004700 -0.004748
# 5 0.004982 -0.001118 0.003446 0.004700 0.024709 -0.009502
# 6 -0.007623 0.000498 0.002732 -0.004748 -0.009502 0.031986
#
#
# Mechanical properties :
#
#
# Convention : Reuss Voigt Hill
#
# Bulk Modulus (GPa) = 47.28822 76.58138 61.93480
# Shear Modulus (GPa) = 37.64285 52.18586 44.91436
#
# Velocity S-wave (km/s) = 3.80106 4.47548 4.15199
# Velocity P-wave (km/s) = 6.11671 7.48999 6.83792
#
# Compressibility (1/GPa) = 0.02114692
#
# Stress axis : x y z
#
# Youngs Moduli (GPa) = 106.54896 98.61894 98.51751
#
# Poissons Ratio (x) = 0.09857 0.21644
# Poissons Ratio (y) = 0.10650 0.10522
# Poissons Ratio (z) = 0.23408 0.10533
#
# Static dielectric constant tensor:
#      x y z
#    x 2.237860 -0.003900 0.031260 
#    y -0.003900 2.100710 -0.030450 
#    z 0.031260 -0.030450 1.991810 
# 
# From -- ./inp_files/58885.got.cif
#   From: 2010.05.17/outbox.cif.g08.bks.cpg/sg2_30_cif.got.tgz:58885.got - 2010.06.03 11:33:40.
