data_PCOD9047026
_publ_section_title
;
Structure prediction by ZEFSAII (Michael W. Deem and Ramdas Pophale) SiO2 
 PCOD9047026
Probable space group: P -1
;
_chemical_formula_sum "Si O2"
_cell_formula_units_Z 16
_cell_length_a 12.723566
_cell_length_b 24.807128
_cell_length_c 8.521405
_cell_angle_alpha 69.719221
_cell_angle_beta 79.239368
_cell_angle_gamma 19.478027
_cell_volume 752.168994
_symmetry_space_group_name_H-M "P -1"
_symmetry_group_IT_number 2
_symmetry_cell_setting 'triclinic'
loop_
_space_group_symop_operation_xyz
x,y,z
-x,-y,-z
loop_
_atom_site_type_symbol
_atom_site_label
_atom_site_fract_x
_atom_site_fract_y
_atom_site_fract_z
Si Si1 0.808511 0.507457 0.509674
Si Si2 0.355071 0.629176 0.504510
Si Si3 0.425653 0.881609 0.172569
Si Si4 0.114085 0.932664 0.356032
Si Si5 0.696093 0.040529 0.226712
Si Si6 0.455336 0.989029 0.188761
Si Si7 0.103846 0.296921 0.368909
Si Si8 0.807934 0.359071 0.174689
O O1 0.656414 0.521126 0.570806
O O2 0.500332 0.706563 0.451580
O O3 0.178257 0.332388 0.661758
O O4 0.911770 0.448104 0.357327
O O5 0.500000 0.500000 0.500000
O O6 0.191979 0.691436 0.648580
O O7 0.033373 0.826863 0.313825
O O8 0.154026 0.972051 0.212764
O O9 0.317057 0.997450 0.165017
O O10 0.465362 0.866834 0.991210
O O11 0.000000 0.000000 0.500000
O O12 0.846747 0.023456 0.266126
O O13 0.427535 0.151662 0.316785
O O14 0.171274 0.172654 0.170242
O O15 0.740493 0.825447 0.412280
O O16 0.500000 0.000000 0.000000
O O17 0.816547 0.411821 0.224735
O O18 0.500000 0.500000 0.000000
#
# Coordination Sequence:
#
# PCOD9047026 Si02
#       8
#     2   2   2   2   2   2   2   2
#     4  10  24  43  70  94 135 174 221 276 334 393
#     4  11  24  43  63  96 138 184 216 273 334 394
#     4  11  25  42  70 102 130 175 228 275 333 396
#     4  11  24  48  71  97 129 176 223 276 339 396
#     4  11  25  44  71  96 134 176 225 280 333 398
#     4  11  25  42  67  99 135 180 224 268 331 403
#     4  11  23  46  65  98 135 182 219 273 339 392
#     4  12  27  37  63  99 140 179 226 267 332 399
#
# _framework density 21.271815
#
# number of rings (size 3 to 8) (size 9 to 14) (size 15 to 20)
#    0.000    1.000    2.500    3.375   10.500    0.000 
#    0.000    5.000    0.000    0.000    0.000    0.000 
#    0.000    0.000    0.000    0.000    0.000    0.000 
#
# Total GULP energy -89291.227809 kJ/mol
# GULP energy per Si atom -5580.701738 kJ/mol
# Density = 2.122340 g / cm^3
# Si number density = 21.271815 Si / 1000 Ang^3
#
#
#
# Elastic Constant Matrix: (Units=GPa)
#
#
# Indices 1 2 3 4 5 6 
#
# 1 121.1924 27.6905 46.6205 2.3564 7.6697 -0.9717
# 2 27.6905 110.8690 30.3429 23.9294 4.6918 6.9783
# 3 46.6205 30.3429 88.5952 24.0124 20.6404 3.1920
# 4 2.3564 23.9294 24.0124 28.2420 -6.5975 -0.8812
# 5 7.6697 4.6918 20.6404 -6.5975 36.7223 9.2965
# 6 -0.9717 6.9783 3.1920 -0.8812 9.2965 46.3526
#
#
#
# Elastic Compliance Matrix: (Units=1/GPa)
#
#
# Indices 1 2 3 4 5 6 
#
# 1 0.012013 -0.002979 -0.009338 0.010621 0.004885 0.000566
# 2 -0.002979 0.012252 0.001685 -0.012489 -0.003752 -0.001508
# 3 -0.009338 0.001685 0.027951 -0.028919 -0.019416 0.000970
# 4 0.010621 -0.012489 -0.028919 0.076567 0.029480 -0.000363
# 5 0.004885 -0.003752 -0.019416 0.029480 0.044511 -0.006362
# 6 0.000566 -0.001508 0.000970 -0.000363 -0.006362 0.023015
#
#
# Mechanical properties :
#
#
# Convention : Reuss Voigt Hill
#
# Bulk Modulus (GPa) = 32.30970 58.88494 45.59732
# Shear Modulus (GPa) = 21.94035 36.66354 29.30195
#
# Velocity S-wave (km/s) = 3.21507 4.15610 3.71550
# Velocity P-wave (km/s) = 5.38555 7.12553 6.31575
#
# Compressibility (1/GPa) = 0.03095046
#
# Stress axis : x y z
#
# Youngs Moduli (GPa) = 83.24161 81.62081 35.77716
#
# Poissons Ratio (x) = 0.24318 0.33410
# Poissons Ratio (y) = 0.24800 -0.06028
# Poissons Ratio (z) = 0.77734 -0.13753
#
# Static dielectric constant tensor:
#      x y z
#    x 1.827920 0.038920 -0.045610 
#    y 0.038920 1.836940 -0.079910 
#    z -0.045610 -0.079910 1.900470 
# 
# From -- ./inp_files/285161.got.cif
#   From: 2010.05.17/outbox.cif.g08.bks.cpg/sg2_143_cif.got.tgz:285161.got - 2010.06.03 11:33:40.
