data_PCOD9047398
_publ_section_title
;
Structure prediction by ZEFSAII (Michael W. Deem and Ramdas Pophale) SiO2 
 PCOD9047398
Probable space group: P -1
;
_chemical_formula_sum "Si O2"
_cell_formula_units_Z 12
_cell_length_a 9.519287
_cell_length_b 14.866148
_cell_length_c 5.347368
_cell_angle_alpha 123.571340
_cell_angle_beta 122.135358
_cell_angle_gamma 45.513256
_cell_volume 436.333233
_symmetry_space_group_name_H-M "P -1"
_symmetry_group_IT_number 2
_symmetry_cell_setting 'triclinic'
loop_
_space_group_symop_operation_xyz
x,y,z
-x,-y,-z
loop_
_atom_site_type_symbol
_atom_site_label
_atom_site_fract_x
_atom_site_fract_y
_atom_site_fract_z
Si Si1 0.990417 0.329769 0.242917
Si Si2 0.220474 0.425563 0.909917
Si Si3 0.287547 0.215654 0.967389
Si Si4 0.068546 0.098082 0.383340
Si Si5 0.582491 0.409720 0.185622
Si Si6 0.238115 0.930900 0.788029
O O1 0.085605 0.391879 0.581454
O O2 0.868493 0.426103 0.033239
O O3 0.823788 0.327593 0.240552
O O4 0.190834 0.207201 0.117139
O O5 0.226967 0.364846 0.092128
O O6 0.460081 0.343272 0.948313
O O7 0.179939 0.172305 0.612159
O O8 0.527453 0.128206 0.049831
O O9 0.837454 0.164572 0.372875
O O10 0.182072 0.985160 0.535748
O O11 0.113872 0.035952 0.054879
O O12 0.500000 0.500000 0.500000
O O13 0.500000 0.500000 0.000000
#
# Coordination Sequence:
#
# PCOD9047398 Si02
#       6
#     2   2   2   2   2   2
#     4  10  25  43  66  98 143 184 227 283 332 398
#     4  10  25  43  65  97 143 182 226 279 336 395
#     4  12  25  39  74 104 132 179 234 281 337 413
#     4  10  24  47  71  99 139 175 221 285 352 408
#     4  10  24  44  66  88 130 188 227 270 332 389
#     4  10  24  47  70  99 138 176 220 287 349 409
#
# _framework density 27.501916999999999
#
# number of rings (size 3 to 8) (size 9 to 14) (size 15 to 20)
#    0.000    1.667    0.000    1.500   16.333    2.667 
#    3.000    0.000    0.000    0.000    0.000    0.000 
#    0.000    0.000    0.000    0.000    0.000    0.000 
#
# Total GULP energy -66963.070787 kJ/mol
# GULP energy per Si atom -5580.255899 kJ/mol
# Density = 2.743932 g / cm^3
# Si number density = 27.501917 Si / 1000 Ang^3
#
#
#
# Elastic Constant Matrix: (Units=GPa)
#
#
# Indices 1 2 3 4 5 6 
#
# 1 296.8958 72.4483 57.8885 -24.1689 21.0035 -21.0049
# 2 72.4483 57.2968 35.5035 -10.1571 6.3464 -13.1326
# 3 57.8885 35.5035 96.5616 -10.5269 1.1148 -19.9146
# 4 -24.1689 -10.1571 -10.5269 33.3742 -13.2734 7.0230
# 5 21.0035 6.3464 1.1148 -13.2734 65.9698 -17.7272
# 6 -21.0049 -13.1326 -19.9146 7.0230 -17.7272 78.0550
#
#
#
# Elastic Compliance Matrix: (Units=1/GPa)
#
#
# Indices 1 2 3 4 5 6 
#
# 1 0.005051 -0.005547 -0.000847 0.001404 -0.000804 -0.000099
# 2 -0.005547 0.029567 -0.006976 0.002443 -0.000075 0.001465
# 3 -0.000847 -0.006976 0.014115 0.001896 0.001735 0.002423
# 4 0.001404 0.002443 0.001896 0.034876 0.006179 -0.000462
# 5 -0.000804 -0.000075 0.001735 0.006179 0.017619 0.003659
# 6 -0.000099 0.001465 0.002423 -0.000462 0.003659 0.014522
#
#
# Mechanical properties :
#
#
# Convention : Reuss Voigt Hill
#
# Bulk Modulus (GPa) = 45.46918 86.93720 66.20319
# Shear Modulus (GPa) = 33.37332 54.47404 43.92368
#
# Velocity S-wave (km/s) = 3.48730 4.45537 4.00073
# Velocity P-wave (km/s) = 5.72573 7.62542 6.74281
#
# Compressibility (1/GPa) = 0.02199292
#
# Stress axis : x y z
#
# Youngs Moduli (GPa) = 197.98252 33.82206 70.84590
#
# Poissons Ratio (x) = 0.18760 0.05999
# Poissons Ratio (y) = 1.09815 0.49425
# Poissons Ratio (z) = 0.16764 0.23595
#
# Static dielectric constant tensor:
#      x y z
#    x 2.239840 0.112420 -0.045470 
#    y 0.112420 2.459320 -0.079610 
#    z -0.045470 -0.079610 2.434550 
# 
# From -- ./inp_files/49107.got.cif
#   From: 2010.05.17/outbox.cif.g08.bks.cpg/sg2_25_cif.got.tgz:49107.got - 2010.06.03 11:33:40.
