data_PCOD9047079
_publ_section_title
;
Structure prediction by ZEFSAII (Michael W. Deem and Ramdas Pophale) SiO2 
 PCOD9047079
Probable space group: P -1
;
_chemical_formula_sum "Si O2"
_cell_formula_units_Z 16
_cell_length_a 23.513997
_cell_length_b 18.097817
_cell_length_c 4.904944
_cell_angle_alpha 96.164766
_cell_angle_beta 104.293491
_cell_angle_gamma 18.979738
_cell_volume 602.916778
_symmetry_space_group_name_H-M "P -1"
_symmetry_group_IT_number 2
_symmetry_cell_setting 'triclinic'
loop_
_space_group_symop_operation_xyz
x,y,z
-x,-y,-z
loop_
_atom_site_type_symbol
_atom_site_label
_atom_site_fract_x
_atom_site_fract_y
_atom_site_fract_z
Si Si1 0.260272 0.709718 0.456964
Si Si2 0.609006 0.955518 0.116492
Si Si3 0.217147 0.478187 0.707305
Si Si4 0.787188 0.869232 0.922288
Si Si5 0.320166 0.773651 0.197946
Si Si6 0.223943 0.023838 0.537470
Si Si7 0.239823 0.310820 0.292467
Si Si8 0.052082 0.818455 0.386890
O O1 0.308653 0.701602 0.249437
O O2 0.466403 0.465888 0.767499
O O3 0.181136 0.721846 0.331856
O O4 0.083374 0.968661 0.489916
O O5 0.624064 0.868890 0.879763
O O6 0.399075 0.247000 0.027564
O O7 0.710785 0.893366 0.016635
O O8 0.721090 0.795434 0.458178
O O9 0.259038 0.369042 0.471207
O O10 0.191062 0.593130 0.617327
O O11 0.009648 0.703647 0.670375
O O12 0.749597 0.984496 0.124589
O O13 0.016117 0.576154 0.042037
O O14 0.706710 0.993628 0.586825
O O15 0.312240 0.839888 0.470216
O O16 0.112209 0.031979 0.902205
#
# Coordination Sequence:
#
# PCOD9047079 Si02
#       8
#     2   2   2   2   2   2   2   2
#     4  10  24  43  71 106 136 185 246 286 361 431
#     4  12  25  43  70 103 137 181 240 295 351 422
#     4  11  25  44  66 101 135 186 230 292 355 425
#     4  11  24  44  70 101 138 183 236 295 351 421
#     4  11  22  43  71  99 143 192 231 295 361 422
#     4  11  24  44  67 102 141 186 234 284 358 428
#     4  11  23  43  68  98 138 184 234 289 358 422
#     4  11  23  46  68 103 145 183 239 296 359 420
#
# _framework density 26.537659000000001
#
# number of rings (size 3 to 8) (size 9 to 14) (size 15 to 20)
#    0.000    1.000    1.250    6.000    1.750    3.000 
#    2.250    0.000    0.000    0.000    0.000    0.000 
#    0.000    0.000    0.000    0.000    0.000    0.000 
#
# Total GULP energy -89585.910388 kJ/mol
# GULP energy per Si atom -5599.119399 kJ/mol
# Density = 2.647726 g / cm^3
# Si number density = 26.537659 Si / 1000 Ang^3
#
#
#
# Elastic Constant Matrix: (Units=GPa)
#
#
# Indices 1 2 3 4 5 6 
#
# 1 132.1595 35.2527 36.0379 -12.2524 -13.1244 13.7916
# 2 35.2527 126.9263 41.1723 -3.0334 -16.8166 14.3092
# 3 36.0379 41.1723 74.6787 2.7022 -20.1438 7.8631
# 4 -12.2524 -3.0334 2.7022 40.8597 -2.1674 -0.8865
# 5 -13.1244 -16.8166 -20.1438 -2.1674 32.4493 -1.6843
# 6 13.7916 14.3092 7.8631 -0.8865 -1.6843 39.8130
#
#
#
# Elastic Compliance Matrix: (Units=1/GPa)
#
#
# Indices 1 2 3 4 5 6 
#
# 1 0.009418 -0.000996 -0.003569 0.003003 0.001169 -0.002083
# 2 -0.000996 0.010114 -0.004314 0.000798 0.002093 -0.002332
# 3 -0.003569 -0.004314 0.019960 -0.002277 0.008515 -0.000846
# 4 0.003003 0.000798 -0.002277 0.025681 0.001918 -0.000224
# 5 0.001169 0.002093 0.008515 0.001918 0.037727 -0.001200
# 6 -0.002083 -0.002332 -0.000846 -0.000224 -0.001200 0.026788
#
#
# Mechanical properties :
#
#
# Convention : Reuss Voigt Hill
#
# Bulk Modulus (GPa) = 46.01523 62.07673 54.04598
# Shear Modulus (GPa) = 32.32250 37.37784 34.85017
#
# Velocity S-wave (km/s) = 3.49375 3.75705 3.62779
# Velocity P-wave (km/s) = 5.80106 6.50102 6.16099
#
# Compressibility (1/GPa) = 0.02173193
#
# Stress axis : x y z
#
# Youngs Moduli (GPa) = 106.18461 98.87376 50.10020
#
# Poissons Ratio (x) = 0.09851 0.17882
# Poissons Ratio (y) = 0.10579 0.21614
# Poissons Ratio (z) = 0.37900 0.42656
#
# Static dielectric constant tensor:
#      x y z
#    x 2.160750 -0.003890 0.015190 
#    y -0.003890 2.051740 0.011810 
#    z 0.015190 0.011810 2.142200 
# 
# From -- ./inp_files/124768.got.cif
#   From: 2010.05.17/outbox.cif.g08.bks.cpg/sg2_63_cif.got.tgz:124768.got - 2010.06.03 11:33:40.
