data_PCOD9047746
_publ_section_title
;
Structure prediction by ZEFSAII (Michael W. Deem and Ramdas Pophale) SiO2 
 PCOD9047746
Probable space group: P -1
;
_chemical_formula_sum "Si O2"
_cell_formula_units_Z 14
_cell_length_a 8.453481
_cell_length_b 9.450047
_cell_length_c 14.137957
_cell_angle_alpha 42.006187
_cell_angle_beta 57.962602
_cell_angle_gamma 48.901594
_cell_volume 567.593409
_symmetry_space_group_name_H-M "P -1"
_symmetry_group_IT_number 2
_symmetry_cell_setting 'triclinic'
loop_
_space_group_symop_operation_xyz
x,y,z
-x,-y,-z
loop_
_atom_site_type_symbol
_atom_site_label
_atom_site_fract_x
_atom_site_fract_y
_atom_site_fract_z
Si Si1 0.270696 0.997218 0.887424
Si Si2 0.744482 0.869663 0.464512
Si Si3 0.087788 0.563430 0.652423
Si Si4 0.307682 0.512101 0.428882
Si Si5 0.056199 0.979437 0.156120
Si Si6 0.753010 0.338331 0.268462
Si Si7 0.660991 0.817192 0.961228
O O1 0.162054 0.285077 0.784905
O O2 0.192390 0.914030 0.046914
O O3 0.522302 0.895766 0.870418
O O4 0.176824 0.927209 0.860946
O O5 0.755015 0.700212 0.459281
O O6 0.874675 0.698215 0.594147
O O7 0.500000 0.000000 0.500000
O O8 0.803570 0.085073 0.334084
O O9 0.259913 0.580930 0.519101
O O10 0.077145 0.684357 0.695808
O O11 0.147301 0.735331 0.307257
O O12 0.535649 0.431990 0.351992
O O13 0.133377 0.145679 0.107473
O O14 0.713680 0.550514 0.104295
O O15 0.500000 0.000000 0.000000
#
# Coordination Sequence:
#
# PCOD9047746 Si02
#       7
#     2   2   2   2   2   2   2
#     4  10  19  31  58  89 113 150 208 247 288 355
#     4  10  24  38  56  85 129 161 194 243 308 368
#     4  12  21  37  62  95 116 158 202 255 303 354
#     4  11  21  37  61  93 122 151 200 258 307 348
#     4  10  18  32  55  89 113 153 200 251 283 357
#     4  11  21  39  59  92 122 159 198 250 300 371
#     4  10  17  34  57  87 117 150 208 252 280 346
#
# _framework density 24.665543
#
# number of rings (size 3 to 8) (size 9 to 14) (size 15 to 20)
#    0.000    1.429    7.143    1.286    0.000    0.000 
#    0.000    0.000    0.000    1.714   11.143    0.000 
#    0.000    0.000    0.000    0.000    0.000    0.000 
#
# Total GULP energy -78303.884795 kJ/mol
# GULP energy per Si atom -5593.134628 kJ/mol
# Density = 2.460940 g / cm^3
# Si number density = 24.665543 Si / 1000 Ang^3
#
#
#
# Elastic Constant Matrix: (Units=GPa)
#
#
# Indices 1 2 3 4 5 6 
#
# 1 199.6663 29.0287 44.7459 -13.9090 10.1371 7.1472
# 2 29.0287 69.8451 25.8851 -15.8278 9.2709 1.5286
# 3 44.7459 25.8851 137.7537 -24.4306 -12.6505 14.7321
# 4 -13.9090 -15.8278 -24.4306 30.7345 1.8224 -3.1989
# 5 10.1371 9.2709 -12.6505 1.8224 41.1098 1.7371
# 6 7.1472 1.5286 14.7321 -3.1989 1.7371 44.7359
#
#
#
# Elastic Compliance Matrix: (Units=1/GPa)
#
#
# Indices 1 2 3 4 5 6 
#
# 1 0.005706 -0.001415 -0.001593 0.000658 -0.001598 -0.000230
# 2 -0.001415 0.017965 -0.002171 0.007273 -0.004737 0.001031
# 3 -0.001593 -0.002171 0.009777 0.005434 0.003762 -0.002649
# 4 0.000658 0.007273 0.005434 0.041108 -0.001990 0.000874
# 5 -0.001598 -0.004737 0.003762 -0.001990 0.027118 -0.002017
# 6 -0.000230 0.001031 -0.002649 0.000874 -0.002017 0.023368
#
#
# Mechanical properties :
#
#
# Convention : Reuss Voigt Hill
#
# Bulk Modulus (GPa) = 43.31032 67.39829 55.35430
# Shear Modulus (GPa) = 34.94101 43.82307 39.38204
#
# Velocity S-wave (km/s) = 3.76785 4.21966 4.00014
# Velocity P-wave (km/s) = 6.04368 7.15016 6.62008
#
# Compressibility (1/GPa) = 0.02308919
#
# Stress axis : x y z
#
# Youngs Moduli (GPa) = 175.24560 55.66505 102.27753
#
# Poissons Ratio (x) = 0.07876 0.16294
# Poissons Ratio (y) = 0.24796 0.22209
# Poissons Ratio (z) = 0.27918 0.12087
#
# Static dielectric constant tensor:
#      x y z
#    x 2.015380 -0.046880 -0.049920 
#    y -0.046880 1.967970 0.067920 
#    z -0.049920 0.067920 1.926950 
# 
# From -- ./inp_files/559528.got.cif
#   From: 2010.05.17/outbox.cif.g08.bks.cpg/sg2_280_cif.got.tgz:559528.got - 2010.06.03 11:33:40.
