data_PCOD9047116
_publ_section_title
;
Structure prediction by ZEFSAII (Michael W. Deem and Ramdas Pophale) SiO2 
 PCOD9047116
Probable space group: P -1
;
_chemical_formula_sum "Si O2"
_cell_formula_units_Z 10
_cell_length_a 9.723495
_cell_length_b 8.895236
_cell_length_c 9.852680
_cell_angle_alpha 45.628682
_cell_angle_beta 108.391492
_cell_angle_gamma 76.810526
_cell_volume 433.424745
_symmetry_space_group_name_H-M "P -1"
_symmetry_group_IT_number 2
_symmetry_cell_setting 'triclinic'
loop_
_space_group_symop_operation_xyz
x,y,z
-x,-y,-z
loop_
_atom_site_type_symbol
_atom_site_label
_atom_site_fract_x
_atom_site_fract_y
_atom_site_fract_z
Si Si1 0.201749 0.404399 0.076063
Si Si2 0.140952 0.519679 0.695735
Si Si3 0.075222 0.118494 0.856262
Si Si4 0.533990 0.674164 0.258151
Si Si5 0.486807 0.250652 0.492911
O O1 0.315026 0.407372 0.231405
O O2 0.354226 0.078628 0.281205
O O3 0.156973 0.581386 0.815318
O O4 0.000000 0.500000 0.000000
O O5 0.050395 0.372187 0.758217
O O6 0.356308 0.301010 0.837182
O O7 0.025652 0.767604 0.393777
O O8 0.303791 0.884753 0.050604
O O9 0.000000 0.000000 0.000000
O O10 0.591072 0.375816 0.443679
O O11 0.592938 0.691733 0.415475
#
# Coordination Sequence:
#
# PCOD9047116 Si02
#       5
#     2   2   2   2   2
#     4  11  26  44  66 103 150 184 227 287 353 420
#     4  11  26  42  72 107 135 190 236 280 356 412
#     4  11  24  42  71 106 142 175 234 292 343 407
#     4  11  23  44  75 103 135 180 243 291 335 417
#     4  10  24  43  72 100 141 188 227 286 362 397
#
# _framework density 23.072054000000001
#
# number of rings (size 3 to 8) (size 9 to 14) (size 15 to 20)
#    0.000    1.200    2.000    3.000    8.400    2.400 
#    0.000    3.000    0.000    0.000    0.000    0.000 
#    0.000    0.000    0.000    0.000    0.000    0.000 
#
# Total GULP energy -55965.871640 kJ/mol
# GULP energy per Si atom -5596.587164 kJ/mol
# Density = 2.301954 g / cm^3
# Si number density = 23.072054 Si / 1000 Ang^3
#
#
#
# Elastic Constant Matrix: (Units=GPa)
#
#
# Indices 1 2 3 4 5 6 
#
# 1 163.0669 36.0412 64.7216 21.5304 -7.7763 -19.4117
# 2 36.0412 90.9632 43.6974 39.7384 -2.8462 0.3541
# 3 64.7216 43.6974 175.3584 50.9770 1.2630 -6.0172
# 4 21.5304 39.7384 50.9770 49.2777 2.6895 -12.5061
# 5 -7.7763 -2.8462 1.2630 2.6895 45.0541 -3.6528
# 6 -19.4117 0.3541 -6.0172 -12.5061 -3.6528 26.0590
#
#
#
# Elastic Compliance Matrix: (Units=1/GPa)
#
#
# Indices 1 2 3 4 5 6 
#
# 1 0.008806 -0.003989 -0.003419 0.004955 0.001753 0.008448
# 2 -0.003989 0.020377 0.001644 -0.019508 0.000734 -0.012128
# 3 -0.003419 0.001644 0.009625 -0.011235 -0.000557 -0.005817
# 4 0.004955 -0.019508 -0.011235 0.052207 -0.001049 0.026270
# 5 0.001753 0.000734 -0.000557 -0.001049 0.022937 0.003879
# 6 0.008448 -0.012128 -0.005817 0.026270 0.003879 0.056640
#
#
# Mechanical properties :
#
#
# Convention : Reuss Voigt Hill
#
# Bulk Modulus (GPa) = 36.65708 79.81209 58.23459
# Shear Modulus (GPa) = 26.14863 43.07340 34.61101
#
# Velocity S-wave (km/s) = 3.37017 4.32546 3.87735
# Velocity P-wave (km/s) = 5.57375 7.72100 6.73351
#
# Compressibility (1/GPa) = 0.02727986
#
# Stress axis : x y z
#
# Youngs Moduli (GPa) = 113.55377 49.07545 103.89188
#
# Poissons Ratio (x) = 0.19578 0.35524
# Poissons Ratio (y) = 0.45301 -0.17084
# Poissons Ratio (z) = 0.38828 -0.08070
#
# Static dielectric constant tensor:
#      x y z
#    x 1.832420 0.013390 -0.000790 
#    y 0.013390 1.903870 -0.051730 
#    z -0.000790 -0.051730 1.942510 
# 
# From -- ./inp_files/144092.got.cif
#   From: 2010.05.17/outbox.cif.g08.bks.cpg/sg2_73_cif.got.tgz:144092.got - 2010.06.03 11:33:40.
