data_PCOD9047462
_publ_section_title
;
Structure prediction by ZEFSAII (Michael W. Deem and Ramdas Pophale) SiO2 
 PCOD9047462
Probable space group: P -1
;
_chemical_formula_sum "Si O2"
_cell_formula_units_Z 14
_cell_length_a 5.044014
_cell_length_b 8.571824
_cell_length_c 19.670638
_cell_angle_alpha 135.946940
_cell_angle_beta 72.066844
_cell_angle_gamma 117.639711
_cell_volume 523.430218
_symmetry_space_group_name_H-M "P -1"
_symmetry_group_IT_number 2
_symmetry_cell_setting 'triclinic'
loop_
_space_group_symop_operation_xyz
x,y,z
-x,-y,-z
loop_
_atom_site_type_symbol
_atom_site_label
_atom_site_fract_x
_atom_site_fract_y
_atom_site_fract_z
Si Si1 0.079889 0.039525 0.236294
Si Si2 0.314452 0.404427 0.678502
Si Si3 0.139923 0.101094 0.406523
Si Si4 0.242182 0.597493 0.600524
Si Si5 0.172320 0.390194 0.187050
Si Si6 0.630907 0.524781 0.071795
Si Si7 0.272311 0.939817 0.062175
O O1 0.957971 0.257128 0.312254
O O2 0.113307 0.004067 0.301699
O O3 0.825199 0.798513 0.155838
O O4 0.349939 0.043001 0.166053
O O5 0.381927 0.519097 0.633103
O O6 0.596753 0.459488 0.724077
O O7 0.102971 0.526415 0.768074
O O8 0.092507 0.121875 0.603272
O O9 0.062823 0.339286 0.499874
O O10 0.505874 0.230653 0.417417
O O11 0.359659 0.452082 0.123253
O O12 0.072557 0.100445 0.111851
O O13 0.500000 0.500000 0.000000
O O14 0.806600 0.343563 0.014330
O O15 0.500000 0.000000 0.000000
#
# Coordination Sequence:
#
# PCOD9047462 Si02
#       7
#     2   2   2   2   2   2   2
#     4  12  23  47  72 102 152 195 250 322 379 457
#     4  12  25  49  78 111 154 205 251 318 387 457
#     4  11  26  47  76 111 153 195 262 313 388 462
#     4  11  26  47  77 112 147 205 251 320 387 463
#     4  11  25  48  74 105 153 201 254 312 386 454
#     4  11  26  42  71 108 142 199 253 315 381 450
#     4  10  24  44  67 105 142 196 254 306 377 452
#
# _framework density 26.746638000000001
#
# number of rings (size 3 to 8) (size 9 to 14) (size 15 to 20)
#    0.000    0.857    2.857    3.000    6.000    2.286 
#    0.000    6.429    0.000    0.000    0.000    0.000 
#    0.000    0.000    0.000    0.000    0.000    0.000 
#
# Total GULP energy -78292.359216 kJ/mol
# GULP energy per Si atom -5592.311373 kJ/mol
# Density = 2.668576 g / cm^3
# Si number density = 26.746638 Si / 1000 Ang^3
#
#
#
# Elastic Constant Matrix: (Units=GPa)
#
#
# Indices 1 2 3 4 5 6 
#
# 1 80.5693 28.6142 40.3257 16.0752 4.4916 10.9057
# 2 28.6142 138.4884 31.8633 25.9003 -1.4643 21.6308
# 3 40.3257 31.8633 173.0870 9.6010 -18.4983 13.2605
# 4 16.0752 25.9003 9.6010 63.4118 -10.9047 4.8353
# 5 4.4916 -1.4643 -18.4983 -10.9047 49.4427 -5.3085
# 6 10.9057 21.6308 13.2605 4.8353 -5.3085 22.3346
#
#
#
# Elastic Compliance Matrix: (Units=1/GPa)
#
#
# Indices 1 2 3 4 5 6 
#
# 1 0.016106 -0.001182 -0.003401 -0.003406 -0.004051 -0.004926
# 2 -0.001182 0.009428 -0.000852 -0.003081 -0.001441 -0.007724
# 3 -0.003401 -0.000852 0.007094 0.000737 0.002974 -0.001179
# 4 -0.003406 -0.003081 0.000737 0.018490 0.004715 0.001327
# 5 -0.004051 -0.001441 0.002974 0.004715 0.023362 0.006140
# 6 -0.004926 -0.007724 -0.001179 0.001327 0.006140 0.056531
#
#
# Mechanical properties :
#
#
# Convention : Reuss Voigt Hill
#
# Bulk Modulus (GPa) = 45.95827 65.97233 55.96530
# Shear Modulus (GPa) = 33.52680 46.46060 39.99370
#
# Velocity S-wave (km/s) = 3.54432 4.17233 3.87108
# Velocity P-wave (km/s) = 5.82835 6.92317 6.39922
#
# Compressibility (1/GPa) = 0.02175887
#
# Stress axis : x y z
#
# Youngs Moduli (GPa) = 62.08868 106.06268 140.96539
#
# Poissons Ratio (x) = 0.12532 0.47949
# Poissons Ratio (y) = 0.07336 0.12006
# Poissons Ratio (z) = 0.21119 0.09033
#
# Static dielectric constant tensor:
#      x y z
#    x 2.138080 0.025030 0.068090 
#    y 0.025030 2.265870 -0.008850 
#    z 0.068090 -0.008850 2.068860 
# 
# From -- ./inp_files/495619.got.cif
#   From: 2010.05.17/outbox.cif.g08.bks.cpg/sg2_248_cif.got.tgz:495619.got - 2010.06.03 11:33:40.
