data_PCOD9047030
_publ_section_title
;
Structure prediction by ZEFSAII (Michael W. Deem and Ramdas Pophale) SiO2 
 PCOD9047030
Probable space group: P -1
;
_chemical_formula_sum "Si O2"
_cell_formula_units_Z 14
_cell_length_a 8.310921
_cell_length_b 12.112645
_cell_length_c 8.009249
_cell_angle_alpha 112.302005
_cell_angle_beta 118.617079
_cell_angle_gamma 90.126344
_cell_volume 637.811998
_symmetry_space_group_name_H-M "P -1"
_symmetry_group_IT_number 2
_symmetry_cell_setting 'triclinic'
loop_
_space_group_symop_operation_xyz
x,y,z
-x,-y,-z
loop_
_atom_site_type_symbol
_atom_site_label
_atom_site_fract_x
_atom_site_fract_y
_atom_site_fract_z
Si Si1 0.436764 0.098198 0.142892
Si Si2 0.442545 0.491939 0.776821
Si Si3 0.159683 0.009116 0.228355
Si Si4 0.129005 0.254554 0.532359
Si Si5 0.840484 0.528406 0.816466
Si Si6 0.244665 0.672961 0.617713
Si Si7 0.895736 0.789606 0.108962
O O1 0.606071 0.215377 0.327030
O O2 0.351408 0.032750 0.233219
O O3 0.500000 0.000000 0.000000
O O4 0.273725 0.147859 0.992803
O O5 0.287807 0.366530 0.606680
O O6 0.626924 0.494447 0.760093
O O7 0.357823 0.610080 0.768862
O O8 0.500000 0.500000 0.000000
O O9 0.160359 0.126242 0.409902
O O10 0.091203 0.887434 0.233317
O O11 0.000000 0.000000 0.000000
O O12 0.125474 0.254007 0.733782
O O13 0.928731 0.273141 0.378673
O O14 0.840339 0.442117 0.609250
O O15 0.885669 0.675050 0.914787
O O16 0.000000 0.500000 0.000000
#
# Coordination Sequence:
#
# PCOD9047030 Si02
#       7
#     2   2   2   2   2   2   2
#     4  11  24  48  70 101 136 183 242 293 347 412
#     4  12  24  44  66 103 139 179 232 290 348 416
#     4  10  24  43  70  96 134 184 233 285 345 410
#     4  12  24  45  69 105 139 185 234 286 351 414
#     4  12  24  45  69 102 145 180 234 287 352 417
#     4  12  24  42  72 100 140 188 228 290 354 413
#     4  11  23  47  66  98 149 182 230 294 341 414
#
# _framework density 21.950040999999999
#
# number of rings (size 3 to 8) (size 9 to 14) (size 15 to 20)
#    0.000    0.571    4.286    3.857    4.000    0.000 
#    7.714    1.429    0.000    0.000    0.000    0.000 
#    0.000    0.000    0.000    0.000    0.000    0.000 
#
# Total GULP energy -78338.783811 kJ/mol
# GULP energy per Si atom -5595.627415 kJ/mol
# Density = 2.190008 g / cm^3
# Si number density = 21.950041 Si / 1000 Ang^3
#
#
#
# Elastic Constant Matrix: (Units=GPa)
#
#
# Indices 1 2 3 4 5 6 
#
# 1 121.4034 64.7464 21.6771 24.3260 16.1775 7.4881
# 2 64.7464 110.6763 20.3569 30.0253 7.8097 1.5514
# 3 21.6771 20.3569 60.3495 22.1814 -2.9800 0.7565
# 4 24.3260 30.0253 22.1814 52.4316 -3.5563 15.4186
# 5 16.1775 7.8097 -2.9800 -3.5563 40.7271 12.6542
# 6 7.4881 1.5514 0.7565 15.4186 12.6542 40.5041
#
#
#
# Elastic Compliance Matrix: (Units=1/GPa)
#
#
# Indices 1 2 3 4 5 6 
#
# 1 0.012939 -0.006441 -0.002063 -0.001671 -0.004147 -0.000175
# 2 -0.006441 0.014738 -0.000409 -0.006519 -0.002032 0.003750
# 3 -0.002063 -0.000409 0.020497 -0.008290 0.000763 0.002932
# 4 -0.001671 -0.006519 -0.008290 0.031784 0.008440 -0.014022
# 5 -0.004147 -0.002032 0.000763 0.008440 0.031147 -0.012113
# 6 -0.000175 0.003750 0.002932 -0.014022 -0.012113 0.033645
#
#
# Mechanical properties :
#
#
# Convention : Reuss Voigt Hill
#
# Bulk Modulus (GPa) = 32.95161 56.22110 44.58636
# Shear Modulus (GPa) = 28.95301 39.10915 34.03108
#
# Velocity S-wave (km/s) = 3.63580 4.22564 3.94177
# Velocity P-wave (km/s) = 5.71577 7.03398 6.40886
#
# Compressibility (1/GPa) = 0.03034753
#
# Stress axis : x y z
#
# Youngs Moduli (GPa) = 77.28579 67.85082 48.78712
#
# Poissons Ratio (x) = 0.43706 0.10065
# Poissons Ratio (y) = 0.49783 0.01995
# Poissons Ratio (z) = 0.15944 0.02775
#
# Static dielectric constant tensor:
#      x y z
#    x 1.800940 0.041440 0.012150 
#    y 0.041440 1.782770 -0.013230 
#    z 0.012150 -0.013230 1.795190 
# 
# From -- ./inp_files/190380.got.cif
#   From: 2010.05.17/outbox.cif.g08.bks.cpg/sg2_96_cif.got.tgz:190380.got - 2010.06.03 11:33:40.
