data_PCOD9047420
_publ_section_title
;
Structure prediction by ZEFSAII (Michael W. Deem and Ramdas Pophale) SiO2 
 PCOD9047420
Probable space group: P -1
;
_chemical_formula_sum "Si O2"
_cell_formula_units_Z 14
_cell_length_a 20.783428
_cell_length_b 11.028458
_cell_length_c 13.184647
_cell_angle_alpha 21.515626
_cell_angle_beta 30.943586
_cell_angle_gamma 33.533119
_cell_volume 559.625937
_symmetry_space_group_name_H-M "P -1"
_symmetry_group_IT_number 2
_symmetry_cell_setting 'triclinic'
loop_
_space_group_symop_operation_xyz
x,y,z
-x,-y,-z
loop_
_atom_site_type_symbol
_atom_site_label
_atom_site_fract_x
_atom_site_fract_y
_atom_site_fract_z
Si Si1 0.822493 0.735572 0.074511
Si Si2 0.567051 0.174387 0.103048
Si Si3 0.904080 0.917185 0.108507
Si Si4 0.649803 0.230582 0.311960
Si Si5 0.706012 0.954709 0.668133
Si Si6 0.994038 0.164368 0.594641
Si Si7 0.297990 0.876178 0.238891
O O1 0.797210 0.383850 0.421119
O O2 0.710523 0.006218 0.072321
O O3 0.951399 0.864257 0.822522
O O4 0.780791 0.790320 0.969893
O O5 0.478903 0.896493 0.440656
O O6 0.500000 0.500000 0.000000
O O7 0.593331 0.250925 0.890902
O O8 0.948946 0.526315 0.322563
O O9 0.764212 0.983260 0.292942
O O10 0.921282 0.155756 0.806295
O O11 0.000000 0.000000 0.000000
O O12 0.671072 0.193317 0.433644
O O13 0.667326 0.600912 0.970383
O O14 0.857268 0.893302 0.535003
O O15 0.647638 0.082844 0.755798
#
# Coordination Sequence:
#
# PCOD9047420 Si02
#       7
#     2   2   2   2   2   2   2
#     4  10  24  44  66  99 125 184 212 275 325 386
#     4  10  26  48  68  99 131 175 222 276 326 395
#     4  12  22  41  61 103 132 171 218 270 333 387
#     4  12  26  41  72  98 135 175 220 272 336 388
#     4  12  25  44  67 103 131 180 216 272 337 392
#     4  12  23  41  69  95 142 167 221 278 327 393
#     4  10  25  46  65 100 135 171 230 264 331 393
#
# _framework density 25.01671
#
# number of rings (size 3 to 8) (size 9 to 14) (size 15 to 20)
#    0.857    0.000    2.857    3.857    4.000    2.857 
#    0.000    0.000    0.000    0.000    0.000    0.000 
#    0.000    0.000    0.000    0.000    0.000    0.000 
#
# Total GULP energy -78425.727694 kJ/mol
# GULP energy per Si atom -5601.837692 kJ/mol
# Density = 2.495977 g / cm^3
# Si number density = 25.016710 Si / 1000 Ang^3
#
#
#
# Elastic Constant Matrix: (Units=GPa)
#
#
# Indices 1 2 3 4 5 6 
#
# 1 55.7344 7.9066 13.9672 19.0317 -9.5917 -6.0612
# 2 7.9066 74.9866 20.9087 25.6893 -7.4723 10.1370
# 3 13.9672 20.9087 139.5409 8.6999 -18.6557 -22.9690
# 4 19.0317 25.6893 8.6999 33.4072 1.8460 -4.9038
# 5 -9.5917 -7.4723 -18.6557 1.8460 52.2480 6.9374
# 6 -6.0612 10.1370 -22.9690 -4.9038 6.9374 27.3316
#
#
#
# Elastic Compliance Matrix: (Units=1/GPa)
#
#
# Indices 1 2 3 4 5 6 
#
# 1 0.024503 0.004960 -0.001745 -0.017995 0.005554 -0.002510
# 2 0.004960 0.025683 -0.005075 -0.024321 0.006101 -0.018602
# 3 -0.001745 -0.005075 0.009642 0.003809 0.000928 0.010046
# 4 -0.017995 -0.024321 0.003809 0.061702 -0.010519 0.021971
# 5 0.005554 0.006101 0.000928 -0.010519 0.022787 -0.007922
# 6 -0.002510 -0.018602 0.010046 0.021971 -0.007922 0.057326
#
#
# Mechanical properties :
#
#
# Convention : Reuss Voigt Hill
#
# Bulk Modulus (GPa) = 17.82244 39.53633 28.67939
# Shear Modulus (GPa) = 22.31519 37.76265 30.03892
#
# Velocity S-wave (km/s) = 2.98990 3.88944 3.46895
# Velocity P-wave (km/s) = 4.36566 6.00072 5.24727
#
# Compressibility (1/GPa) = 0.05610902
#
# Stress axis : x y z
#
# Youngs Moduli (GPa) = 40.81095 38.93701 103.71748
#
# Poissons Ratio (x) = -0.19314 0.18095
# Poissons Ratio (y) = -0.20243 0.52634
# Poissons Ratio (z) = 0.07120 0.19760
#
# Static dielectric constant tensor:
#      x y z
#    x 1.973710 0.001930 0.003750 
#    y 0.001930 2.060520 0.001430 
#    z 0.003750 0.001430 1.888510 
# 
# From -- ./inp_files/459003.got.cif
#   From: 2010.05.17/outbox.cif.g08.bks.cpg/sg2_230_cif.got.tgz:459003.got - 2010.06.03 11:33:40.
