data_PCOD9047187
_publ_section_title
;
Structure prediction by ZEFSAII (Michael W. Deem and Ramdas Pophale) SiO2 
 PCOD9047187
Probable space group: P -1
;
_chemical_formula_sum "Si O2"
_cell_formula_units_Z 16
_cell_length_a 6.443452
_cell_length_b 8.738418
_cell_length_c 16.071519
_cell_angle_alpha 49.554876
_cell_angle_beta 69.965735
_cell_angle_gamma 78.697250
_cell_volume 646.557481
_symmetry_space_group_name_H-M "P -1"
_symmetry_group_IT_number 2
_symmetry_cell_setting 'triclinic'
loop_
_space_group_symop_operation_xyz
x,y,z
-x,-y,-z
loop_
_atom_site_type_symbol
_atom_site_label
_atom_site_fract_x
_atom_site_fract_y
_atom_site_fract_z
Si Si1 0.347752 0.890473 0.215919
Si Si2 0.197736 0.248382 0.514430
Si Si3 0.041155 0.377042 0.667385
Si Si4 0.381521 0.489003 0.170722
Si Si5 0.438036 0.489433 0.678187
Si Si6 0.788925 0.108294 0.028063
Si Si7 0.177838 0.671504 0.889698
Si Si8 0.062716 0.142663 0.292558
O O1 0.435810 0.693065 0.320046
O O2 0.554567 0.982654 0.104066
O O3 0.146509 0.791594 0.225394
O O4 0.240770 0.041869 0.241594
O O5 0.169164 0.281534 0.605688
O O6 0.452438 0.297983 0.439567
O O7 0.068051 0.425395 0.424592
O O8 0.079550 0.037193 0.582047
O O9 0.191110 0.445691 0.699186
O O10 0.504080 0.536151 0.224296
O O11 0.262879 0.676158 0.080634
O O12 0.580157 0.416428 0.111509
O O13 0.204674 0.303420 0.269640
O O14 0.832962 0.151824 0.104150
O O15 0.000000 0.000000 0.000000
O O16 0.109416 0.746748 0.781984
O O17 0.000000 0.500000 0.000000
#
# Coordination Sequence:
#
# PCOD9047187 Si02
#       8
#     2   2   2   2   2   2   2   2
#     4  10  24  43  73 106 145 194 250 309 350 445
#     4   9  21  41  72 105 147 194 248 307 357 445
#     4   9  20  43  69 106 151 197 243 305 374 426
#     4  12  28  50  71 111 155 195 242 308 374 445
#     4  11  25  42  73 108 155 190 250 310 365 434
#     4  12  28  49  79 110 147 194 253 308 369 437
#     4  12  26  48  77 104 149 201 241 303 374 451
#     4  11  24  46  76 106 147 201 248 291 381 439
#
# _framework density 24.746447
#
# number of rings (size 3 to 8) (size 9 to 14) (size 15 to 20)
#    0.000    1.250    2.500    2.250    7.000    5.000 
#    0.000    1.875    0.000    0.000    0.000    0.000 
#    0.000    0.000    0.000    0.000    0.000    0.000 
#
# Total GULP energy -89596.093589 kJ/mol
# GULP energy per Si atom -5599.755849 kJ/mol
# Density = 2.469012 g / cm^3
# Si number density = 24.746447 Si / 1000 Ang^3
#
#
#
# Elastic Constant Matrix: (Units=GPa)
#
#
# Indices 1 2 3 4 5 6 
#
# 1 167.4051 70.7098 52.0520 -15.2253 -20.7757 25.8852
# 2 70.7098 95.5129 33.1839 -5.5588 -2.2880 1.4088
# 3 52.0520 33.1839 78.7600 -30.2402 -25.2759 15.8652
# 4 -15.2253 -5.5588 -30.2402 43.3959 13.7464 -5.6298
# 5 -20.7757 -2.2880 -25.2759 13.7464 53.2532 -2.7135
# 6 25.8852 1.4088 15.8652 -5.6298 -2.7135 65.8066
#
#
#
# Elastic Compliance Matrix: (Units=1/GPa)
#
#
# Indices 1 2 3 4 5 6 
#
# 1 0.010414 -0.006654 -0.002792 -0.000311 0.002369 -0.003210
# 2 -0.006654 0.017050 -0.005562 -0.002431 -0.003711 0.003232
# 3 -0.002792 -0.005562 0.024741 0.012925 0.006907 -0.003357
# 4 -0.000311 -0.002431 0.012925 0.032374 -0.002462 -0.000274
# 5 0.002369 -0.003711 0.006907 -0.002462 0.023367 -0.001765
# 6 -0.003210 0.003232 -0.003357 -0.000274 -0.001765 0.017103
#
#
# Mechanical properties :
#
#
# Convention : Reuss Voigt Hill
#
# Bulk Modulus (GPa) = 45.06468 72.61882 58.84175
# Shear Modulus (GPa) = 30.77694 44.87331 37.82512
#
# Velocity S-wave (km/s) = 3.53043 4.26293 3.91385
# Velocity P-wave (km/s) = 5.90497 7.32386 6.65235
#
# Compressibility (1/GPa) = 0.02219033
#
# Stress axis : x y z
#
# Youngs Moduli (GPa) = 96.02393 58.65142 40.41929
#
# Poissons Ratio (x) = 0.39025 0.11284
# Poissons Ratio (y) = 0.63892 0.22480
# Poissons Ratio (z) = 0.26808 0.32620
#
# Static dielectric constant tensor:
#      x y z
#    x 1.975050 -0.022390 -0.012430 
#    y -0.022390 2.003920 0.021140 
#    z -0.012430 0.021140 1.964640 
# 
# From -- ./inp_files/547743.got.cif
#   From: 2010.05.17/outbox.cif.g08.bks.cpg/sg2_274_cif.got.tgz:547743.got - 2010.06.03 11:33:40.
