data_PCOD9047308
_publ_section_title
;
Structure prediction by ZEFSAII (Michael W. Deem and Ramdas Pophale) SiO2 
 PCOD9047308
Probable space group: P -1
;
_chemical_formula_sum "Si O2"
_cell_formula_units_Z 16
_cell_length_a 26.044112
_cell_length_b 9.199261
_cell_length_c 6.612908
_cell_angle_alpha 85.027460
_cell_angle_beta 95.198909
_cell_angle_gamma 152.241681
_cell_volume 734.798824
_symmetry_space_group_name_H-M "P -1"
_symmetry_group_IT_number 2
_symmetry_cell_setting 'triclinic'
loop_
_space_group_symop_operation_xyz
x,y,z
-x,-y,-z
loop_
_atom_site_type_symbol
_atom_site_label
_atom_site_fract_x
_atom_site_fract_y
_atom_site_fract_z
Si Si1 0.268849 0.293799 0.485744
Si Si2 0.890518 0.061574 0.178424
Si Si3 0.186519 0.639296 0.986610
Si Si4 0.095226 0.233765 0.672804
Si Si5 0.116826 0.742222 0.215501
Si Si6 0.736402 0.392588 0.649251
Si Si7 0.495453 0.721007 0.505521
Si Si8 0.574728 0.722351 0.193245
O O1 0.239501 0.375362 0.364012
O O2 0.399452 0.599621 0.483819
O O3 0.220378 0.180622 0.708288
O O4 0.205894 0.006627 0.382774
O O5 0.995588 0.395113 0.291556
O O6 0.906304 0.927623 0.201301
O O7 0.891253 0.140798 0.953199
O O8 0.096497 0.363338 0.823816
O O9 0.300241 0.954863 0.873403
O O10 0.153670 0.696275 0.099711
O O11 0.212047 0.568960 0.154400
O O12 0.207029 0.522614 0.546793
O O13 0.000000 0.000000 0.500000
O O14 0.605893 0.040664 0.625405
O O15 0.531958 0.758798 0.291374
O O16 0.440648 0.447048 0.633538
O O17 0.500000 0.500000 0.000000
#
# Coordination Sequence:
#
# PCOD9047308 Si02
#       8
#     2   2   2   2   2   2   2   2
#     4  11  24  42  65  94 131 172 217 265 322 381
#     4  10  24  44  64  92 133 167 216 267 325 377
#     4  12  24  42  69  98 131 168 216 267 327 383
#     4  11  25  44  67  97 129 172 216 267 325 385
#     4  11  24  41  68  97 127 171 218 265 325 386
#     4  11  24  43  65  94 134 172 214 266 322 387
#     4  11  23  40  65  95 129 171 220 260 321 386
#     4  11  22  39  65  95 132 165 210 269 317 375
#
# _framework density 21.774667000000001
#
# number of rings (size 3 to 8) (size 9 to 14) (size 15 to 20)
#    0.000    1.000    2.500    3.750    1.750    9.000 
#    0.000    0.625    0.000    0.000    0.000    0.000 
#    0.000    0.000    0.000    0.000    0.000    0.000 
#
# Total GULP energy -89525.631390 kJ/mol
# GULP energy per Si atom -5595.351962 kJ/mol
# Density = 2.172511 g / cm^3
# Si number density = 21.774667 Si / 1000 Ang^3
#
#
#
# Elastic Constant Matrix: (Units=GPa)
#
#
# Indices 1 2 3 4 5 6 
#
# 1 68.2701 0.6981 12.6070 1.6320 -11.8006 5.7257
# 2 0.6981 66.0458 13.5271 -0.9376 -5.9205 6.5622
# 3 12.6070 13.5271 44.2012 9.6073 -6.4329 -5.6939
# 4 1.6320 -0.9376 9.6073 47.8255 -1.7760 -2.2850
# 5 -11.8006 -5.9205 -6.4329 -1.7760 31.3258 0.1701
# 6 5.7257 6.5622 -5.6939 -2.2850 0.1701 32.1158
#
#
#
# Elastic Compliance Matrix: (Units=1/GPa)
#
#
# Indices 1 2 3 4 5 6 
#
# 1 0.016930 0.001839 -0.005229 0.000514 0.005704 -0.004315
# 2 0.001839 0.017164 -0.006311 0.001411 0.002747 -0.004868
# 3 -0.005229 -0.006311 0.028411 -0.005237 0.002337 0.006874
# 4 0.000514 0.001411 -0.005237 0.022007 0.000631 0.000254
# 5 0.005704 0.002747 0.002337 0.000631 0.035113 -0.001305
# 6 -0.004315 -0.004868 0.006874 0.000254 -0.001305 0.034145
#
#
# Mechanical properties :
#
#
# Convention : Reuss Voigt Hill
#
# Bulk Modulus (GPa) = 23.20045 25.79795 24.49920
# Shear Modulus (GPa) = 26.66090 32.36575 29.51333
#
# Velocity S-wave (km/s) = 3.50294 3.85956 3.68557
# Velocity P-wave (km/s) = 5.19987 5.63339 5.42097
#
# Compressibility (1/GPa) = 0.04310261
#
# Stress axis : x y z
#
# Youngs Moduli (GPa) = 59.06654 58.26068 35.19790
#
# Poissons Ratio (x) = -0.10716 0.18406
# Poissons Ratio (y) = -0.10865 0.22215
# Poissons Ratio (z) = 0.30887 0.36771
#
# Static dielectric constant tensor:
#      x y z
#    x 1.799270 0.003630 -0.011180 
#    y 0.003630 1.801240 0.011410 
#    z -0.011180 0.011410 1.776720 
# 
# From -- ./inp_files/81665.got.cif
#   From: 2010.05.17/outbox.cif.g08.bks.cpg/sg2_41_cif.got.tgz:81665.got - 2010.06.03 11:33:40.
