data_PCOD9047640
_publ_section_title
;
Structure prediction by ZEFSAII (Michael W. Deem and Ramdas Pophale) SiO2 
 PCOD9047640
Probable space group: P -1
;
_chemical_formula_sum "Si O2"
_cell_formula_units_Z 16
_cell_length_a 15.047874
_cell_length_b 9.708555
_cell_length_c 8.483597
_cell_angle_alpha 92.201513
_cell_angle_beta 73.167583
_cell_angle_gamma 142.112487
_cell_volume 689.358563
_symmetry_space_group_name_H-M "P -1"
_symmetry_group_IT_number 2
_symmetry_cell_setting 'triclinic'
loop_
_space_group_symop_operation_xyz
x,y,z
-x,-y,-z
loop_
_atom_site_type_symbol
_atom_site_label
_atom_site_fract_x
_atom_site_fract_y
_atom_site_fract_z
Si Si1 0.534823 0.638801 0.135846
Si Si2 0.619948 0.951806 0.562786
Si Si3 0.051246 0.146440 0.633973
Si Si4 0.890570 0.999911 0.026456
Si Si5 0.328082 0.292333 0.500694
Si Si6 0.378528 0.978459 0.070798
Si Si7 0.896128 0.496561 0.984261
Si Si8 0.283163 0.643981 0.613566
O O1 0.379524 0.428227 0.315623
O O2 0.500000 0.500000 0.000000
O O3 0.700620 0.783680 0.133279
O O4 0.573667 0.841834 0.068029
O O5 0.606524 0.946896 0.757427
O O6 0.698792 0.184204 0.463245
O O7 0.709100 0.915044 0.493659
O O8 0.446957 0.755228 0.556127
O O9 0.183191 0.202291 0.644103
O O10 0.157371 0.409608 0.562542
O O11 0.000000 0.000000 0.500000
O O12 0.918344 0.038862 0.820858
O O13 0.980412 0.229397 0.086089
O O14 0.000000 0.000000 0.000000
O O15 0.500000 0.500000 0.500000
O O16 0.209263 0.702171 0.105332
O O17 0.500000 0.000000 0.000000
O O18 0.779152 0.410375 0.178662
O O19 0.000000 0.500000 0.000000
#
# Coordination Sequence:
#
# PCOD9047640 Si02
#       8
#     2   2   2   2   2   2   2   2
#     4  12  26  44  70 104 137 176 233 293 329 404
#     4  11  24  44  68 101 134 175 231 285 335 400
#     4  11  25  44  67  99 138 176 217 281 346 406
#     4  11  26  45  69  98 142 181 222 279 351 408
#     4  12  25  42  72  99 133 178 234 272 338 409
#     4  12  26  42  72 101 137 178 236 281 343 409
#     4  11  24  45  67  97 139 181 222 279 347 410
#     4  10  24  44  68  98 139 175 224 288 338 401
#
# _framework density 23.209982
#
# number of rings (size 3 to 8) (size 9 to 14) (size 15 to 20)
#    0.000    0.750    5.000    1.500    7.000    2.000 
#    0.000    1.250    0.000    0.000    0.000    0.000 
#    0.000    0.000    0.000    0.000    0.000    0.000 
#
# Total GULP energy -89348.509202 kJ/mol
# GULP energy per Si atom -5584.281825 kJ/mol
# Density = 2.315715 g / cm^3
# Si number density = 23.209982 Si / 1000 Ang^3
#
#
#
# Elastic Constant Matrix: (Units=GPa)
#
#
# Indices 1 2 3 4 5 6 
#
# 1 97.1235 43.0513 0.4032 -11.0653 -10.8225 -4.3796
# 2 43.0513 127.7237 12.3894 3.4493 7.0672 -11.7204
# 3 0.4032 12.3894 78.1208 -11.3834 -9.0828 -2.3644
# 4 -11.0653 3.4493 -11.3834 33.5894 6.5798 -1.6384
# 5 -10.8225 7.0672 -9.0828 6.5798 39.0261 7.1405
# 6 -4.3796 -11.7204 -2.3644 -1.6384 7.1405 38.5579
#
#
#
# Elastic Compliance Matrix: (Units=1/GPa)
#
#
# Indices 1 2 3 4 5 6 
#
# 1 0.013612 -0.005203 0.001954 0.004780 0.004465 -0.000539
# 2 -0.005203 0.010386 -0.002379 -0.002657 -0.003987 0.003045
# 3 0.001954 -0.002379 0.014305 0.005056 0.003459 -0.000050
# 4 0.004780 -0.002657 0.005056 0.034048 -0.003136 0.002073
# 5 0.004465 -0.003987 0.003459 -0.003136 0.030050 -0.006191
# 6 -0.000539 0.003045 -0.000050 0.002073 -0.006191 0.028031
#
#
# Mechanical properties :
#
#
# Convention : Reuss Voigt Hill
#
# Bulk Modulus (GPa) = 36.97206 46.07287 41.52246
# Shear Modulus (GPa) = 33.17752 38.70962 35.94357
#
# Velocity S-wave (km/s) = 3.78491 4.08830 3.93953
# Velocity P-wave (km/s) = 5.92154 6.49455 6.21465
#
# Compressibility (1/GPa) = 0.02704745
#
# Stress axis : x y z
#
# Youngs Moduli (GPa) = 73.46276 96.28464 69.90440
#
# Poissons Ratio (x) = 0.50101 -0.13661
# Poissons Ratio (y) = 0.38226 0.16629
# Poissons Ratio (z) = -0.14357 0.22904
#
# Static dielectric constant tensor:
#      x y z
#    x 2.002840 -0.045490 -0.180590 
#    y -0.045490 1.777780 -0.014590 
#    z -0.180590 -0.014590 2.433130 
# 
# From -- ./inp_files/298790.got.cif
#   From: 2010.05.17/outbox.cif.g08.bks.cpg/sg2_150_cif.got.tgz:298790.got - 2010.06.03 11:33:40.
