data_PCOD9047214
_publ_section_title
;
Structure prediction by ZEFSAII (Michael W. Deem and Ramdas Pophale) SiO2 
 PCOD9047214
Probable space group: P -1
;
_chemical_formula_sum "Si O2"
_cell_formula_units_Z 14
_cell_length_a 27.397162
_cell_length_b 30.082747
_cell_length_c 8.835817
_cell_angle_alpha 151.814795
_cell_angle_beta 151.382279
_cell_angle_gamma 9.286657
_cell_volume 552.026723
_symmetry_space_group_name_H-M "P -1"
_symmetry_group_IT_number 2
_symmetry_cell_setting 'triclinic'
loop_
_space_group_symop_operation_xyz
x,y,z
-x,-y,-z
loop_
_atom_site_type_symbol
_atom_site_label
_atom_site_fract_x
_atom_site_fract_y
_atom_site_fract_z
Si Si1 0.183668 0.486709 0.839763
Si Si2 0.150712 0.532901 0.232061
Si Si3 0.173898 0.867731 0.783124
Si Si4 0.821835 0.344069 0.859116
Si Si5 0.295671 0.208291 0.713178
Si Si6 0.774341 0.892094 0.551176
Si Si7 0.415628 0.501010 0.906385
O O1 0.033165 0.537936 0.480888
O O2 0.533587 0.174660 0.810685
O O3 0.108753 0.534808 0.953042
O O4 0.077236 0.683645 0.094589
O O5 0.352716 0.450369 0.527093
O O6 0.840093 0.824514 0.351351
O O7 0.306892 0.309228 0.070806
O O8 0.462282 0.636845 0.768152
O O9 0.041355 0.878731 0.429795
O O10 0.331161 0.725684 0.952410
O O11 0.912578 0.171035 0.954221
O O12 0.910089 0.339760 0.219684
O O13 0.325623 0.118204 0.672521
O O14 0.500000 0.000000 0.500000
O O15 0.500000 0.500000 0.000000
#
# Coordination Sequence:
#
# PCOD9047214 Si02
#       7
#     2   2   2   2   2   2   2
#     4  11  25  46  71 105 141 193 243 305 376 441
#     4  12  25  46  74 105 144 190 244 312 364 443
#     4  11  25  46  72 105 151 200 251 306 376 441
#     4  10  24  43  74 101 147 193 244 308 368 445
#     4  11  25  47  71 106 146 188 243 302 378 448
#     4  11  24  47  72 106 143 189 248 298 374 445
#     4  12  27  45  71 113 150 195 255 305 375 445
#
# _framework density 25.361090999999998
#
# number of rings (size 3 to 8) (size 9 to 14) (size 15 to 20)
#    0.000    0.857    2.857    3.000    4.000    2.857 
#    5.143    0.000    0.000    0.000    0.000    0.000 
#    0.000    0.000    0.000    0.000    0.000    0.000 
#
# Total GULP energy -78362.954961 kJ/mol
# GULP energy per Si atom -5597.353926 kJ/mol
# Density = 2.530337 g / cm^3
# Si number density = 25.361091 Si / 1000 Ang^3
#
#
#
# Elastic Constant Matrix: (Units=GPa)
#
#
# Indices 1 2 3 4 5 6 
#
# 1 128.1838 14.3374 36.0569 3.4005 16.9877 -0.6534
# 2 14.3374 58.1164 19.2772 -0.1136 -3.5593 1.6880
# 3 36.0569 19.2772 119.5414 4.2376 43.6945 12.5720
# 4 3.4005 -0.1136 4.2376 28.8793 0.1904 -1.8788
# 5 16.9877 -3.5593 43.6945 0.1904 62.3668 4.5068
# 6 -0.6534 1.6880 12.5720 -1.8788 4.5068 37.3580
#
#
#
# Elastic Compliance Matrix: (Units=1/GPa)
#
#
# Indices 1 2 3 4 5 6 
#
# 1 0.008724 -0.001565 -0.002064 -0.000657 -0.001091 0.001016
# 2 -0.001565 0.019316 -0.004350 0.000872 0.004569 0.000056
# 3 -0.002064 -0.004350 0.013313 -0.001888 -0.008765 -0.003357
# 4 -0.000657 0.000872 -0.001888 0.035119 0.001286 0.002196
# 5 -0.001091 0.004569 -0.008765 0.001286 0.022726 0.000047
# 6 0.001016 0.000056 -0.003357 0.002196 0.000047 0.028018
#
#
# Mechanical properties :
#
#
# Convention : Reuss Voigt Hill
#
# Bulk Modulus (GPa) = 39.37758 49.46495 44.42127
# Shear Modulus (GPa) = 32.97325 41.46551 37.21938
#
# Velocity S-wave (km/s) = 3.60967 4.04791 3.83505
# Velocity P-wave (km/s) = 5.73877 6.43382 6.09621
#
# Compressibility (1/GPa) = 0.02539516
#
# Stress axis : x y z
#
# Youngs Moduli (GPa) = 114.62474 51.77125 75.11481
#
# Poissons Ratio (x) = 0.08104 0.15502
# Poissons Ratio (y) = 0.17943 0.32673
# Poissons Ratio (z) = 0.23655 0.22519
#
# Static dielectric constant tensor:
#      x y z
#    x 2.044210 0.000900 -0.047330 
#    y 0.000900 2.093170 0.003690 
#    z -0.047330 0.003690 1.994970 
# 
# From -- ./inp_files/53542.got.cif
#   From: 2010.05.17/outbox.cif.g08.bks.cpg/sg2_27_cif.got.tgz:53542.got - 2010.06.03 11:33:40.
