data_PCOD9047347
_publ_section_title
;
Structure prediction by ZEFSAII (Michael W. Deem and Ramdas Pophale) SiO2 
 PCOD9047347
Probable space group: P -1
;
_chemical_formula_sum "Si O2"
_cell_formula_units_Z 14
_cell_length_a 5.228232
_cell_length_b 22.934183
_cell_length_c 5.235805
_cell_angle_alpha 100.811867
_cell_angle_beta 97.844027
_cell_angle_gamma 70.965354
_cell_volume 581.018275
_symmetry_space_group_name_H-M "P -1"
_symmetry_group_IT_number 2
_symmetry_cell_setting 'triclinic'
loop_
_space_group_symop_operation_xyz
x,y,z
-x,-y,-z
loop_
_atom_site_type_symbol
_atom_site_label
_atom_site_fract_x
_atom_site_fract_y
_atom_site_fract_z
Si Si1 0.776363 0.723862 0.083425
Si Si2 0.020675 0.678485 0.582782
Si Si3 0.223898 0.399070 0.809624
Si Si4 0.699075 0.153324 0.006625
Si Si5 0.717765 0.901236 0.804205
Si Si6 0.088847 0.058171 0.647459
Si Si7 0.631554 0.445215 0.668727
O O1 0.703959 0.659229 0.040665
O O2 0.936734 0.725111 0.369032
O O3 0.514975 0.781652 0.046468
O O4 0.983322 0.713145 0.869419
O O5 0.807180 0.638552 0.485171
O O6 0.289240 0.621868 0.522313
O O7 0.427883 0.437632 0.849670
O O8 0.916317 0.442940 0.830723
O O9 0.815414 0.113377 0.734026
O O10 0.985158 0.152047 0.171907
O O11 0.529921 0.121167 0.145168
O O12 0.730897 0.925205 0.538667
O O13 0.755302 0.949821 0.066522
O O14 0.000000 0.000000 0.500000
O O15 0.500000 0.500000 0.500000
#
# Coordination Sequence:
#
# PCOD9047347 Si02
#       7
#     2   2   2   2   2   2   2
#     4   9  20  41  58  87 120 158 196 250 297 363
#     4   8  21  36  58  85 114 155 196 240 298 352
#     4   8  20  34  57  84 114 154 195 239 301 347
#     4  10  25  41  65  92 129 161 211 256 313 364
#     4  10  25  39  65  94 121 165 209 249 318 362
#     4  10  24  44  65  94 128 164 209 256 310 370
#     4   9  17  37  58  85 117 153 197 246 295 355
#
# _framework density 24.095627
#
# number of rings (size 3 to 8) (size 9 to 14) (size 15 to 20)
#    2.571    0.000    0.000    0.857    4.000    3.429 
#   10.286    3.571    0.000    0.000    0.000    0.000 
#    0.000    0.000    0.000    0.000    0.000    0.000 
#
# Total GULP energy -77974.141584 kJ/mol
# GULP energy per Si atom -5569.581542 kJ/mol
# Density = 2.404078 g / cm^3
# Si number density = 24.095627 Si / 1000 Ang^3
#
#
#
# Elastic Constant Matrix: (Units=GPa)
#
#
# Indices 1 2 3 4 5 6 
#
# 1 50.0669 8.7139 131.7753 -10.6081 12.0286 -5.7578
# 2 8.7139 92.3090 63.6170 -7.5760 8.2310 -22.9541
# 3 131.7753 63.6170 -2.9436 16.5966 -81.5741 13.2471
# 4 -10.6081 -7.5760 16.5966 19.8073 6.8376 -8.2850
# 5 12.0286 8.2310 -81.5741 6.8376 3.4818 -1.4840
# 6 -5.7578 -22.9541 13.2471 -8.2850 -1.4840 22.8054
#
#
#
# Elastic Compliance Matrix: (Units=1/GPa)
#
#
# Indices 1 2 3 4 5 6 
#
# 1 0.011831 -0.004493 0.001713 -0.002939 0.014518 -0.002653
# 2 -0.004493 0.013859 0.001234 0.005538 0.006999 0.014566
# 3 0.001713 0.001234 0.000411 0.004630 -0.007172 0.002651
# 4 -0.002939 0.005538 0.004630 0.051617 0.013442 0.021769
# 5 0.014518 0.006999 -0.007172 0.013442 0.035488 0.022068
# 6 -0.002653 0.014566 0.002651 0.021769 0.022068 0.065645
#
#
# Mechanical properties :
#
#
# Convention : Reuss Voigt Hill
#
# Bulk Modulus (GPa) = 43.46011 60.84941 52.15476
# Shear Modulus (GPa) = 26.36948 4.90730 15.63839
#
# Velocity S-wave (km/s) = 3.31171 1.42864 2.55034
# Velocity P-wave (km/s) = 5.71830 5.29429 5.51037
#
# Compressibility (1/GPa) = 0.02300961
#
# Stress axis : x y z
#
# Youngs Moduli (GPa) = 84.52187 72.15306 2434.25418
#
# Poissons Ratio (x) = 0.32416 -4.16960
# Poissons Ratio (y) = 0.37973 -3.00359
# Poissons Ratio (z) = -0.14478 -0.08903
#
# Static dielectric constant tensor:
#      x y z
#    x 1.926940 -0.039010 -0.003440 
#    y -0.039010 1.730390 -0.068190 
#    z -0.003440 -0.068190 1.919060 
# 
# From -- ./inp_files/13895.got.cif
#   From: 2010.05.17/outbox.cif.g08.bks.cpg/sg2_7_cif.got.tgz:13895.got - 2010.06.03 11:33:40.
