data_PCOD9047801
_publ_section_title
;
Structure prediction by ZEFSAII (Michael W. Deem and Ramdas Pophale) SiO2 
 PCOD9047801
Probable space group: P -1
;
_chemical_formula_sum "Si O2"
_cell_formula_units_Z 12
_cell_length_a 22.061444
_cell_length_b 4.872658
_cell_length_c 23.839360
_cell_angle_alpha 118.332853
_cell_angle_beta 13.272347
_cell_angle_gamma 121.559124
_cell_volume 493.326384
_symmetry_space_group_name_H-M "P -1"
_symmetry_group_IT_number 2
_symmetry_cell_setting 'triclinic'
loop_
_space_group_symop_operation_xyz
x,y,z
-x,-y,-z
loop_
_atom_site_type_symbol
_atom_site_label
_atom_site_fract_x
_atom_site_fract_y
_atom_site_fract_z
Si Si1 0.654444 0.291607 0.430704
Si Si2 0.371001 0.509552 0.056122
Si Si3 0.877797 0.933011 0.425094
Si Si4 0.158446 0.611183 0.926757
Si Si5 0.127940 0.485317 0.444941
Si Si6 0.654090 0.176371 0.543636
O O1 0.414647 0.457419 0.677895
O O2 0.737373 0.169178 0.403188
O O3 0.500000 0.000000 0.500000
O O4 0.930118 0.493566 0.169238
O O5 0.129159 0.679570 0.298185
O O6 0.616689 0.653551 0.805522
O O7 0.202579 0.133686 0.156459
O O8 0.760670 0.149857 0.594587
O O9 0.759192 0.551208 0.505322
O O10 0.790845 0.991487 0.446300
O O11 0.324444 0.994116 0.822064
O O12 0.000000 0.500000 0.000000
O O13 0.000000 0.500000 0.500000
O O14 0.500000 0.500000 0.000000
#
# Coordination Sequence:
#
# PCOD9047801 Si02
#       6
#     2   2   2   2   2   2
#     4  12  27  49  78 109 145 194 248 299 361 442
#     4   8  16  37  68  95 137 183 239 288 353 428
#     4  10  24  44  70 106 149 186 241 304 368 420
#     4  12  27  49  78 109 145 194 248 299 361 442
#     4   8  16  37  68  95 137 183 239 288 353 428
#     4  12  26  50  70 114 149 192 239 312 364 430
#
# _framework density 24.324667000000002
#
# number of rings (size 3 to 8) (size 9 to 14) (size 15 to 20)
#    1.000    0.667    3.333    1.000    0.000    1.333 
#    6.000    1.667    0.000    0.000    0.000    0.000 
#    0.000    0.000    0.000    0.000    0.000    0.000 
#
# Total GULP energy -66989.059601 kJ/mol
# GULP energy per Si atom -5582.421633 kJ/mol
# Density = 2.426930 g / cm^3
# Si number density = 24.324667 Si / 1000 Ang^3
#
#
#
# Elastic Constant Matrix: (Units=GPa)
#
#
# Indices 1 2 3 4 5 6 
#
# 1 137.5282 26.7045 32.6713 -20.2126 -7.5205 23.6592
# 2 26.7045 116.2979 37.6919 -19.5693 -15.1359 25.3258
# 3 32.6713 37.6919 241.0343 -13.8997 15.0365 -6.8351
# 4 -20.2126 -19.5693 -13.8997 33.8877 3.3470 -3.2142
# 5 -7.5205 -15.1359 15.0365 3.3470 30.5371 -8.4580
# 6 23.6592 25.3258 -6.8351 -3.2142 -8.4580 45.6876
#
#
#
# Elastic Compliance Matrix: (Units=1/GPa)
#
#
# Indices 1 2 3 4 5 6 
#
# 1 0.008995 0.000182 -0.001190 0.004447 0.001184 -0.004405
# 2 0.000182 0.011984 -0.002067 0.005154 0.004834 -0.005789
# 3 -0.001190 -0.002067 0.004929 0.000625 -0.003277 0.001937
# 4 0.004447 0.005154 0.000625 0.035256 -0.001305 -0.002828
# 5 0.001184 0.004834 -0.003277 -0.001305 0.038070 0.003173
# 6 -0.004405 -0.005789 0.001937 -0.002828 0.003173 0.028056
#
#
# Mechanical properties :
#
#
# Convention : Reuss Voigt Hill
#
# Bulk Modulus (GPa) = 50.61511 76.55508 63.58509
# Shear Modulus (GPa) = 35.70793 48.54200 42.12497
#
# Velocity S-wave (km/s) = 3.83557 4.47205 4.16598
# Velocity P-wave (km/s) = 6.36151 7.62929 7.02406
#
# Compressibility (1/GPa) = 0.01975695
#
# Stress axis : x y z
#
# Youngs Moduli (GPa) = 111.17673 83.44519 202.89213
#
# Poissons Ratio (x) = -0.01518 0.24143
# Poissons Ratio (y) = -0.02022 0.41940
# Poissons Ratio (z) = 0.13229 0.17249
#
# Static dielectric constant tensor:
#      x y z
#    x 1.898250 0.003440 -0.016300 
#    y 0.003440 1.958180 0.026680 
#    z -0.016300 0.026680 1.977230 
# 
# From -- ./inp_files/613854.got.cif
#   From: 2010.05.17/outbox.cif.g08.bks.cpg/sg2_307_cif.got.tgz:613854.got - 2010.06.03 11:33:40.
