data_PCOD9047531
_publ_section_title
;
Structure prediction by ZEFSAII (Michael W. Deem and Ramdas Pophale) SiO2 
 PCOD9047531
Probable space group: P -1
;
_chemical_formula_sum "Si O2"
_cell_formula_units_Z 12
_cell_length_a 17.987697
_cell_length_b 9.800163
_cell_length_c 14.376593
_cell_angle_alpha 38.962676
_cell_angle_beta 18.562260
_cell_angle_gamma 35.033034
_cell_volume 463.112319
_symmetry_space_group_name_H-M "P -1"
_symmetry_group_IT_number 2
_symmetry_cell_setting 'triclinic'
loop_
_space_group_symop_operation_xyz
x,y,z
-x,-y,-z
loop_
_atom_site_type_symbol
_atom_site_label
_atom_site_fract_x
_atom_site_fract_y
_atom_site_fract_z
Si Si1 0.473233 0.263785 0.384197
Si Si2 0.765725 0.812277 0.835771
Si Si3 0.395233 0.586800 0.680413
Si Si4 0.048450 0.067008 0.748013
Si Si5 0.633255 0.670124 0.718983
Si Si6 0.898509 0.008337 0.766344
O O1 0.398737 0.401206 0.495983
O O2 0.293830 0.377496 0.449862
O O3 0.500000 0.000000 0.500000
O O4 0.758207 0.228157 0.035828
O O5 0.986720 0.803550 0.505964
O O6 0.856360 0.892114 0.782779
O O7 0.712707 0.587236 0.049607
O O8 0.500000 0.000000 0.000000
O O9 0.500000 0.500000 0.500000
O O10 0.189942 0.859833 0.764660
O O11 0.171153 0.259550 0.493192
O O12 0.066988 0.926527 0.703643
O O13 0.500000 0.500000 0.000000
O O14 0.379221 0.914972 0.898844
#
# Coordination Sequence:
#
# PCOD9047531 Si02
#       6
#     2   2   2   2   2   2
#     4  11  26  46  72 106 144 186 240 290 362 428
#     4  11  25  45  69 102 144 184 236 296 359 424
#     4  12  26  45  74 102 143 190 237 293 358 419
#     4  11  25  48  70 104 146 182 241 300 352 428
#     4  11  25  42  73 101 141 185 238 292 354 424
#     4  10  24  44  68 101 140 183 237 296 356 420
#
# _framework density 25.911642000000001
#
# number of rings (size 3 to 8) (size 9 to 14) (size 15 to 20)
#    0.000    1.000    1.667    3.500    9.333    2.000 
#    3.000    0.000    0.000    0.000    0.000    0.000 
#    0.000    0.000    0.000    0.000    0.000    0.000 
#
# Total GULP energy -66966.114429 kJ/mol
# GULP energy per Si atom -5580.509536 kJ/mol
# Density = 2.585267 g / cm^3
# Si number density = 25.911642 Si / 1000 Ang^3
#
#
#
# Elastic Constant Matrix: (Units=GPa)
#
#
# Indices 1 2 3 4 5 6 
#
# 1 194.5101 45.6206 23.7685 -14.7786 -3.9022 30.7646
# 2 45.6206 65.5380 33.3026 -26.0682 -4.8422 4.6454
# 3 23.7685 33.3026 135.1822 -26.2413 -9.8917 4.7840
# 4 -14.7786 -26.0682 -26.2413 53.1579 7.8496 1.3454
# 5 -3.9022 -4.8422 -9.8917 7.8496 39.7359 -5.3717
# 6 30.7646 4.6454 4.7840 1.3454 -5.3717 53.3373
#
#
#
# Elastic Compliance Matrix: (Units=1/GPa)
#
#
# Indices 1 2 3 4 5 6 
#
# 1 0.006743 -0.004555 -0.000007 -0.000225 -0.000326 -0.003519
# 2 -0.004555 0.023498 -0.003345 0.008592 -0.000025 0.000661
# 3 -0.000007 -0.003345 0.008821 0.002542 0.001226 -0.000437
# 4 -0.000225 0.008592 0.002542 0.024778 -0.003483 -0.001822
# 5 -0.000326 -0.000025 0.001226 -0.003483 0.026508 0.002838
# 6 -0.003519 0.000661 -0.000437 -0.001822 0.002838 0.021092
#
#
# Mechanical properties :
#
#
# Convention : Reuss Voigt Hill
#
# Bulk Modulus (GPa) = 43.01181 66.73486 54.87333
# Shear Modulus (GPa) = 37.03622 48.74880 42.89251
#
# Velocity S-wave (km/s) = 3.78475 4.34216 4.07300
# Velocity P-wave (km/s) = 5.97784 7.13791 6.58348
#
# Compressibility (1/GPa) = 0.02324943
#
# Stress axis : x y z
#
# Youngs Moduli (GPa) = 148.29825 42.55765 113.36097
#
# Poissons Ratio (x) = 0.19383 0.00074
# Poissons Ratio (y) = 0.67544 0.37921
# Poissons Ratio (z) = 0.00097 0.14236
#
# Static dielectric constant tensor:
#      x y z
#    x 2.153290 0.095140 0.036050 
#    y 0.095140 2.384200 0.171640 
#    z 0.036050 0.171640 2.081900 
# 
# From -- ./inp_files/26056.got.cif
#   From: 2010.05.17/outbox.cif.g08.bks.cpg/sg2_14_cif.got.tgz:26056.got - 2010.06.03 11:33:40.
