data_PCOD9047822
_publ_section_title
;
Structure prediction by ZEFSAII (Michael W. Deem and Ramdas Pophale) SiO2 
 PCOD9047822
Probable space group: P -1
;
_chemical_formula_sum "Si O2"
_cell_formula_units_Z 14
_cell_length_a 4.878364
_cell_length_b 16.662030
_cell_length_c 10.964648
_cell_angle_alpha 134.066939
_cell_angle_beta 61.437135
_cell_angle_gamma 125.739564
_cell_volume 515.823983
_symmetry_space_group_name_H-M "P -1"
_symmetry_group_IT_number 2
_symmetry_cell_setting 'triclinic'
loop_
_space_group_symop_operation_xyz
x,y,z
-x,-y,-z
loop_
_atom_site_type_symbol
_atom_site_label
_atom_site_fract_x
_atom_site_fract_y
_atom_site_fract_z
Si Si1 0.379560 0.781803 0.588984
Si Si2 0.300752 0.007782 0.770405
Si Si3 0.420362 0.146412 0.127340
Si Si4 0.819651 0.479335 0.706777
Si Si5 0.630125 0.778669 0.179706
Si Si6 0.438917 0.362950 0.203370
Si Si7 0.869455 0.700694 0.279871
O O1 0.399148 0.893028 0.618526
O O2 0.324802 0.815639 0.773799
O O3 0.135098 0.645712 0.461408
O O4 0.739445 0.767786 0.482466
O O5 0.916951 0.953605 0.847010
O O6 0.325240 0.087377 0.730791
O O7 0.510151 0.093315 0.929261
O O8 0.369502 0.266972 0.225710
O O9 0.745914 0.544137 0.671220
O O10 0.446552 0.430719 0.799266
O O11 0.151158 0.564501 0.798703
O O12 0.866521 0.769232 0.227087
O O13 0.239502 0.706318 0.228682
O O14 0.669945 0.712908 0.978928
#
# Coordination Sequence:
#
# PCOD9047822 Si02
#       7
#     2   2   2   2   2   2   2
#     4  10  25  42  67  94 140 170 218 272 337 394
#     4  10  24  44  70  96 130 175 223 279 328 389
#     4  10  24  44  70  96 130 175 223 279 328 389
#     4  10  25  43  66 103 133 177 216 269 341 382
#     4  11  24  44  70 100 131 176 226 269 328 392
#     4  11  24  44  70 100 131 176 226 269 328 392
#     4  10  25  43  66 103 133 177 216 269 341 382
#
# _framework density 27.141041000000001
#
# number of rings (size 3 to 8) (size 9 to 14) (size 15 to 20)
#    0.857    0.857    0.000    2.143    8.000    5.714 
#    0.000    0.000    0.000    0.000    0.000    0.000 
#    0.000    0.000    0.000    0.000    0.000    0.000 
#
# Total GULP energy -78438.643788 kJ/mol
# GULP energy per Si atom -5602.760271 kJ/mol
# Density = 2.707927 g / cm^3
# Si number density = 27.141041 Si / 1000 Ang^3
#
#
#
# Elastic Constant Matrix: (Units=GPa)
#
#
# Indices 1 2 3 4 5 6 
#
# 1 97.8213 31.0739 14.2849 14.0314 -2.3961 -11.8836
# 2 31.0739 141.5891 31.3245 5.0631 1.2725 -31.6217
# 3 14.2849 31.3245 60.3846 10.9584 8.3150 -1.7073
# 4 14.0314 5.0631 10.9584 40.8558 -6.5886 -13.2430
# 5 -2.3961 1.2725 8.3150 -6.5886 38.6019 -5.2083
# 6 -11.8836 -31.6217 -1.7073 -13.2430 -5.2083 44.1163
#
#
#
# Elastic Compliance Matrix: (Units=1/GPa)
#
#
# Indices 1 2 3 4 5 6 
#
# 1 0.011583 -0.001987 -0.001223 -0.003037 0.000639 0.000812
# 2 -0.001987 0.010461 -0.005812 0.004038 0.002587 0.008255
# 3 -0.001223 -0.005812 0.022109 -0.008154 -0.006971 -0.006910
# 4 -0.003037 0.004038 -0.008154 0.032698 0.008716 0.012605
# 5 0.000639 0.002587 -0.006971 0.008716 0.029916 0.007905
# 6 0.000812 0.008255 -0.006910 0.012605 0.007905 0.033253
#
#
# Mechanical properties :
#
#
# Convention : Reuss Voigt Hill
#
# Bulk Modulus (GPa) = 38.30257 50.35126 44.32692
# Shear Modulus (GPa) = 29.98228 39.58892 34.78560
#
# Velocity S-wave (km/s) = 3.32728 3.82335 3.58391
# Velocity P-wave (km/s) = 5.37626 6.17112 5.78735
#
# Compressibility (1/GPa) = 0.02610791
#
# Stress axis : x y z
#
# Youngs Moduli (GPa) = 86.33688 95.59612 45.23047
#
# Poissons Ratio (x) = 0.18997 0.05532
# Poissons Ratio (y) = 0.17157 0.26288
# Poissons Ratio (z) = 0.10559 0.55560
#
# Static dielectric constant tensor:
#      x y z
#    x 2.084050 0.045630 -0.014910 
#    y 0.045630 2.147200 0.014570 
#    z -0.014910 0.014570 2.117560 
# 
# From -- ./inp_files/368418.got.cif
#   From: 2010.05.17/outbox.cif.g08.bks.cpg/sg2_185_cif.got.tgz:368418.got - 2010.06.03 11:33:40.
