data_PCOD9047703
_publ_section_title
;
Structure prediction by ZEFSAII (Michael W. Deem and Ramdas Pophale) SiO2 
 PCOD9047703
Probable space group: P -1
;
_chemical_formula_sum "Si O2"
_cell_formula_units_Z 14
_cell_length_a 12.873820
_cell_length_b 19.233957
_cell_length_c 11.980100
_cell_angle_alpha 20.403775
_cell_angle_beta 34.167495
_cell_angle_gamma 33.710074
_cell_volume 556.232413
_symmetry_space_group_name_H-M "P -1"
_symmetry_group_IT_number 2
_symmetry_cell_setting 'triclinic'
loop_
_space_group_symop_operation_xyz
x,y,z
-x,-y,-z
loop_
_atom_site_type_symbol
_atom_site_label
_atom_site_fract_x
_atom_site_fract_y
_atom_site_fract_z
Si Si1 0.979256 0.291478 0.277654
Si Si2 0.290079 0.275219 0.842642
Si Si3 0.238511 0.491665 0.351602
Si Si4 0.456775 0.947337 0.868955
Si Si5 0.398652 0.363281 0.188081
Si Si6 0.009197 0.051076 0.046520
Si Si7 0.428982 0.450988 0.787529
O O1 0.749765 0.344571 0.381461
O O2 0.052981 0.108033 0.576742
O O3 0.000000 0.500000 0.000000
O O4 0.104995 0.265683 0.092975
O O5 0.228235 0.307413 0.720320
O O6 0.376212 0.475491 0.485228
O O7 0.459531 0.088056 0.027086
O O8 0.218144 0.456627 0.290388
O O9 0.463290 0.487563 0.160724
O O10 0.115564 0.714887 0.168106
O O11 0.512170 0.138417 0.473876
O O12 0.542663 0.724092 0.068388
O O13 0.230902 0.013695 0.941185
O O14 0.365175 0.349243 0.108064
O O15 0.000000 0.000000 0.000000
#
# Coordination Sequence:
#
# PCOD9047703 Si02
#       7
#     2   2   2   2   2   2   2
#     4  12  23  39  69 100 136 173 218 273 344 384
#     4  11  23  43  68  97 138 175 217 280 332 393
#     4  10  24  47  67  94 136 175 228 270 331 400
#     4  12  23  40  69  99 136 169 223 278 335 385
#     4  10  24  44  69  93 133 183 221 274 331 393
#     4  12  26  42  68 104 134 173 224 277 329 405
#     4  11  23  43  66 103 136 170 222 281 324 402
#
# _framework density 25.169336000000001
#
# number of rings (size 3 to 8) (size 9 to 14) (size 15 to 20)
#    0.000    0.857    2.857    5.143    4.000    1.143 
#    0.000    2.143    0.000    0.000    0.000    0.000 
#    0.000    0.000    0.000    0.000    0.000    0.000 
#
# Total GULP energy -78270.124509 kJ/mol
# GULP energy per Si atom -5590.723179 kJ/mol
# Density = 2.511205 g / cm^3
# Si number density = 25.169336 Si / 1000 Ang^3
#
#
#
# Elastic Constant Matrix: (Units=GPa)
#
#
# Indices 1 2 3 4 5 6 
#
# 1 77.6107 52.5869 38.1743 16.7677 33.6186 -6.8048
# 2 52.5869 165.3593 52.2725 5.1077 32.2404 -0.6295
# 3 38.1743 52.2725 145.0411 8.9504 50.7372 10.1894
# 4 16.7677 5.1077 8.9504 43.7717 -0.1278 10.5384
# 5 33.6186 32.2404 50.7372 -0.1278 62.8051 9.4716
# 6 -6.8048 -0.6295 10.1894 10.5384 9.4716 40.5110
#
#
#
# Elastic Compliance Matrix: (Units=1/GPa)
#
#
# Indices 1 2 3 4 5 6 
#
# 1 0.025102 -0.005084 -0.000634 -0.011339 -0.011849 0.010017
# 2 -0.005084 0.008136 -0.001626 0.001499 -0.000033 -0.000701
# 3 -0.000634 -0.001626 0.010236 -0.001518 -0.006997 -0.000675
# 4 -0.011339 0.001499 -0.001518 0.030059 0.008285 -0.011256
# 5 -0.011849 -0.000033 -0.006997 0.008285 0.029345 -0.009247
# 6 0.010017 -0.000701 -0.000675 -0.011256 -0.009247 0.031616
#
#
# Mechanical properties :
#
#
# Convention : Reuss Voigt Hill
#
# Bulk Modulus (GPa) = 34.73833 74.89762 54.81797
# Shear Modulus (GPa) = 31.49085 45.74938 38.62012
#
# Velocity S-wave (km/s) = 3.54101 4.26803 3.92141
# Velocity P-wave (km/s) = 5.52722 7.35596 6.50616
#
# Compressibility (1/GPa) = 0.02878665
#
# Stress axis : x y z
#
# Youngs Moduli (GPa) = 39.83785 122.91717 97.69495
#
# Poissons Ratio (x) = 0.62490 0.06190
# Poissons Ratio (y) = 0.20253 0.15883
# Poissons Ratio (z) = 0.02524 0.19983
#
# Static dielectric constant tensor:
#      x y z
#    x 2.079510 0.004450 -0.000970 
#    y 0.004450 2.011030 0.065920 
#    z -0.000970 0.065920 2.016420 
# 
# From -- ./inp_files/185556.got.cif
#   From: 2010.05.17/outbox.cif.g08.bks.cpg/sg2_93_cif.got.tgz:185556.got - 2010.06.03 11:33:40.
