data_PCOD9047433
_publ_section_title
;
Structure prediction by ZEFSAII (Michael W. Deem and Ramdas Pophale) SiO2 
 PCOD9047433
Probable space group: P -1
;
_chemical_formula_sum "Si O2"
_cell_formula_units_Z 14
_cell_length_a 14.915295
_cell_length_b 9.789298
_cell_length_c 12.763758
_cell_angle_alpha 54.905896
_cell_angle_beta 47.110251
_cell_angle_gamma 26.860905
_cell_volume 614.001477
_symmetry_space_group_name_H-M "P -1"
_symmetry_group_IT_number 2
_symmetry_cell_setting 'triclinic'
loop_
_space_group_symop_operation_xyz
x,y,z
-x,-y,-z
loop_
_atom_site_type_symbol
_atom_site_label
_atom_site_fract_x
_atom_site_fract_y
_atom_site_fract_z
Si Si1 0.200017 0.638131 0.999394
Si Si2 0.509943 0.731147 0.420683
Si Si3 0.552699 0.408610 0.674297
Si Si4 0.311248 0.590634 0.154017
Si Si5 0.478547 0.939715 0.657982
Si Si6 0.954483 0.891323 0.713016
Si Si7 0.980573 0.491432 0.894765
O O1 0.245898 0.554446 0.122100
O O2 0.149024 0.527231 0.025772
O O3 0.407097 0.493157 0.843609
O O4 0.000000 0.000000 0.000000
O O5 0.434089 0.710189 0.590829
O O6 0.441060 0.718013 0.375914
O O7 0.778949 0.418143 0.358210
O O8 0.438544 0.003052 0.359653
O O9 0.802042 0.149883 0.631766
O O10 0.392220 0.375637 0.276737
O O11 0.119741 0.929188 0.201376
O O12 0.500000 0.500000 0.000000
O O13 0.500000 0.000000 0.500000
O O14 0.223090 0.197808 0.778515
O O15 0.880414 0.782085 0.810023
O O16 0.000000 0.500000 0.000000
#
# Coordination Sequence:
#
# PCOD9047433 Si02
#       7
#     2   2   2   2   2   2   2
#     4  12  25  41  71 103 141 180 239 295 351 419
#     4  10  24  44  67 100 139 185 233 290 352 429
#     4  11  23  41  72  96 138 187 236 284 356 420
#     4  12  24  43  71 104 139 185 235 289 358 423
#     4  11  25  45  72 100 144 182 233 298 363 410
#     4  11  23  44  69  97 138 183 235 288 349 426
#     4  11  25  45  69 101 142 184 234 290 353 425
#
# _framework density 22.80125
#
# number of rings (size 3 to 8) (size 9 to 14) (size 15 to 20)
#    0.000    0.857    1.429    6.429    4.000    1.714 
#    0.000    0.714    0.000    0.000    0.000    0.000 
#    0.000    0.000    0.000    0.000    0.000    0.000 
#
# Total GULP energy -78271.647953 kJ/mol
# GULP energy per Si atom -5590.831997 kJ/mol
# Density = 2.274935 g / cm^3
# Si number density = 22.801250 Si / 1000 Ang^3
#
#
#
# Elastic Constant Matrix: (Units=GPa)
#
#
# Indices 1 2 3 4 5 6 
#
# 1 128.5566 22.8172 37.4021 1.2320 11.0194 15.8384
# 2 22.8172 96.5205 38.0975 -9.8053 3.5246 23.1253
# 3 37.4021 38.0975 96.3289 -3.1074 3.3409 -1.9261
# 4 1.2320 -9.8053 -3.1074 31.4868 -4.1941 -5.7012
# 5 11.0194 3.5246 3.3409 -4.1941 34.8756 -11.0737
# 6 15.8384 23.1253 -1.9261 -5.7012 -11.0737 35.6775
#
#
#
# Elastic Compliance Matrix: (Units=1/GPa)
#
#
# Indices 1 2 3 4 5 6 
#
# 1 0.010372 0.001140 -0.004521 -0.002677 -0.005759 -0.007803
# 2 0.001140 0.016196 -0.006880 0.001305 -0.005244 -0.012795
# 3 -0.004521 -0.006880 0.014955 0.001559 0.003625 0.008648
# 4 -0.002677 0.001305 0.001559 0.034913 0.007399 0.008302
# 5 -0.005759 -0.005244 0.003625 0.007399 0.037600 0.019004
# 6 -0.007803 -0.012795 0.008648 0.008302 0.019004 0.047478
#
#
# Mechanical properties :
#
#
# Convention : Reuss Voigt Hill
#
# Bulk Modulus (GPa) = 47.61457 57.55994 52.58726
# Shear Modulus (GPa) = 26.44999 35.28061 30.86530
#
# Velocity S-wave (km/s) = 3.40961 3.93785 3.68321
# Velocity P-wave (km/s) = 6.03559 6.78046 6.41884
#
# Compressibility (1/GPa) = 0.02100197
#
# Stress axis : x y z
#
# Youngs Moduli (GPa) = 96.41141 61.74356 66.86735
#
# Poissons Ratio (x) = -0.07041 0.30230
# Poissons Ratio (y) = -0.10994 0.46005
# Poissons Ratio (z) = 0.43587 0.42480
#
# Static dielectric constant tensor:
#      x y z
#    x 1.886640 -0.001810 0.005280 
#    y -0.001810 1.829460 -0.058550 
#    z 0.005280 -0.058550 1.905360 
# 
# From -- ./inp_files/245696.got.cif
#   From: 2010.05.17/outbox.cif.g08.bks.cpg/sg2_123_cif.got.tgz:245696.got - 2010.06.03 11:33:40.
