data_PCOD9047326
_publ_section_title
;
Structure prediction by ZEFSAII (Michael W. Deem and Ramdas Pophale) SiO2 
 PCOD9047326
Probable space group: P -1
;
_chemical_formula_sum "Si O2"
_cell_formula_units_Z 12
_cell_length_a 16.632506
_cell_length_b 13.379736
_cell_length_c 8.857680
_cell_angle_alpha 110.120156
_cell_angle_beta 71.830149
_cell_angle_gamma 163.642463
_cell_volume 520.024068
_symmetry_space_group_name_H-M "P -1"
_symmetry_group_IT_number 2
_symmetry_cell_setting 'triclinic'
loop_
_space_group_symop_operation_xyz
x,y,z
-x,-y,-z
loop_
_atom_site_type_symbol
_atom_site_label
_atom_site_fract_x
_atom_site_fract_y
_atom_site_fract_z
Si Si1 0.698416 0.810510 0.442909
Si Si2 0.981260 0.861485 0.866497
Si Si3 0.110366 0.662042 0.799423
Si Si4 0.540601 0.835502 0.404793
Si Si5 0.193107 0.521274 0.670462
Si Si6 0.725719 0.387798 0.982926
O O1 0.500000 0.500000 0.500000
O O2 0.580869 0.786480 0.468234
O O3 0.769147 0.851723 0.255198
O O4 0.985644 0.178249 0.559039
O O5 0.698876 0.494530 0.743498
O O6 0.952458 0.740906 0.955076
O O7 0.000000 0.000000 0.000000
O O8 0.045052 0.458846 0.720664
O O9 0.863184 0.436659 0.899077
O O10 0.186395 0.805439 0.667814
O O11 0.412556 0.026335 0.904700
O O12 0.437814 0.812237 0.551017
O O13 0.290345 0.615205 0.831138
#
# Coordination Sequence:
#
# PCOD9047326 Si02
#       6
#     2   2   2   2   2   2
#     4  11  26  43  66  98 135 178 232 282 338 412
#     4  10  24  44  66  94 134 184 226 283 339 405
#     4  11  24  47  70 102 141 180 230 279 340 410
#     4  10  24  44  65 100 134 177 232 277 345 407
#     4  11  26  41  70 100 137 182 220 289 343 403
#     4  11  25  44  70 107 137 178 233 281 339 407
#
# _framework density 23.075855000000001
#
# number of rings (size 3 to 8) (size 9 to 14) (size 15 to 20)
#    0.000    1.333    1.667    1.500    9.333    4.000 
#    0.000    0.000    0.000    0.000    0.000    0.000 
#    0.000    0.000    0.000    0.000    0.000    0.000 
#
# Total GULP energy -67132.055007 kJ/mol
# GULP energy per Si atom -5594.337917 kJ/mol
# Density = 2.302333 g / cm^3
# Si number density = 23.075855 Si / 1000 Ang^3
#
#
#
# Elastic Constant Matrix: (Units=GPa)
#
#
# Indices 1 2 3 4 5 6 
#
# 1 101.1915 27.2170 52.5348 0.6933 3.3673 -13.6377
# 2 27.2170 56.5412 33.5952 -16.8777 13.9127 -22.2675
# 3 52.5348 33.5952 131.2683 -3.6983 -10.7061 -15.0609
# 4 0.6933 -16.8777 -3.6983 19.6240 -8.1422 7.1182
# 5 3.3673 13.9127 -10.7061 -8.1422 36.3925 -7.4211
# 6 -13.6377 -22.2675 -15.0609 7.1182 -7.4211 48.3088
#
#
#
# Elastic Compliance Matrix: (Units=1/GPa)
#
#
# Indices 1 2 3 4 5 6 
#
# 1 0.013840 -0.005312 -0.004444 -0.007000 -0.001959 0.000803
# 2 -0.005312 0.036454 -0.006213 0.023857 -0.008182 0.008595
# 3 -0.004444 -0.006213 0.011528 -0.000655 0.006136 0.000515
# 4 -0.007000 0.023857 -0.000655 0.075287 0.007964 -0.001053
# 5 -0.001959 -0.008182 0.006136 0.007964 0.034731 0.001750
# 6 0.000803 0.008595 0.000515 -0.001053 0.001750 0.025473
#
#
# Mechanical properties :
#
#
# Convention : Reuss Voigt Hill
#
# Bulk Modulus (GPa) = 33.46347 57.29944 45.38146
# Shear Modulus (GPa) = 20.90191 32.57531 26.73861
#
# Velocity S-wave (km/s) = 3.01290 3.76129 3.40770
# Velocity P-wave (km/s) = 5.16105 6.61421 5.93230
#
# Compressibility (1/GPa) = 0.02988333
#
# Stress axis : x y z
#
# Youngs Moduli (GPa) = 72.25591 27.43149 86.74837
#
# Poissons Ratio (x) = 0.14573 0.38551
# Poissons Ratio (y) = 0.38386 0.53894
# Poissons Ratio (z) = 0.32111 0.17042
#
# Static dielectric constant tensor:
#      x y z
#    x 1.863920 0.065310 0.009300 
#    y 0.065310 1.910450 -0.020820 
#    z 0.009300 -0.020820 1.882730 
# 
# From -- ./inp_files/18875.got.cif
#   From: 2010.05.17/outbox.cif.g08.bks.cpg/sg2_10_cif.got.tgz:18875.got - 2010.06.03 11:33:40.
