data_PCOD9047710
_publ_section_title
;
Structure prediction by ZEFSAII (Michael W. Deem and Ramdas Pophale) SiO2 
 PCOD9047710
Probable space group: P -1
;
_chemical_formula_sum "Si O2"
_cell_formula_units_Z 14
_cell_length_a 11.231709
_cell_length_b 13.737385
_cell_length_c 8.962730
_cell_angle_alpha 76.199497
_cell_angle_beta 111.287724
_cell_angle_gamma 45.025873
_cell_volume 601.716394
_symmetry_space_group_name_H-M "P -1"
_symmetry_group_IT_number 2
_symmetry_cell_setting 'triclinic'
loop_
_space_group_symop_operation_xyz
x,y,z
-x,-y,-z
loop_
_atom_site_type_symbol
_atom_site_label
_atom_site_fract_x
_atom_site_fract_y
_atom_site_fract_z
Si Si1 0.375122 0.695729 0.382691
Si Si2 0.516090 0.108052 0.491421
Si Si3 0.678220 0.913502 0.910049
Si Si4 0.236470 0.056353 0.744578
Si Si5 0.210538 0.494272 0.133123
Si Si6 0.092793 0.738853 0.758096
Si Si7 0.218705 0.857857 0.923587
O O1 0.500000 0.500000 0.500000
O O2 0.566851 0.621605 0.608260
O O3 0.360397 0.743729 0.188103
O O4 0.082674 0.905808 0.247467
O O5 0.284672 0.326972 0.225222
O O6 0.500000 0.000000 0.500000
O O7 0.794639 0.954005 0.610736
O O8 0.527428 0.104299 0.678070
O O9 0.794085 0.876287 0.129931
O O10 0.931432 0.708420 0.004595
O O11 0.469446 0.967122 0.818580
O O12 0.974679 0.234796 0.455347
O O13 0.319571 0.883860 0.867509
O O14 0.216638 0.557482 0.963941
O O15 0.227730 0.749980 0.867557
#
# Coordination Sequence:
#
# PCOD9047710 Si02
#       7
#     2   2   2   2   2   2   2
#     4  11  21  40  68 101 127 169 231 274 327 392
#     4  11  22  45  71  96 128 173 229 279 322 388
#     4  10  24  44  69  96 134 181 222 274 330 395
#     4  11  23  45  64  96 147 177 217 267 342 401
#     4  11  23  42  74  99 129 171 231 280 325 394
#     4  11  23  42  66 102 134 175 219 278 336 392
#     4  11  23  40  70  95 135 179 216 280 330 394
#
# _framework density 23.266774000000002
#
# number of rings (size 3 to 8) (size 9 to 14) (size 15 to 20)
#    0.000    1.143    4.286    2.143    4.000    2.286 
#    0.000   12.857    0.000    0.000    0.000    0.000 
#    0.000    0.000    0.000    0.000    0.000    0.000 
#
# Total GULP energy -78276.389191 kJ/mol
# GULP energy per Si atom -5591.170656 kJ/mol
# Density = 2.321382 g / cm^3
# Si number density = 23.266774 Si / 1000 Ang^3
#
#
#
# Elastic Constant Matrix: (Units=GPa)
#
#
# Indices 1 2 3 4 5 6 
#
# 1 82.9831 23.6136 50.8344 4.5524 -24.3800 26.7829
# 2 23.6136 80.0745 45.1452 7.2839 -15.3158 28.4238
# 3 50.8344 45.1452 194.7644 18.1987 -26.3859 25.3853
# 4 4.5524 7.2839 18.1987 51.3302 9.5897 0.5346
# 5 -24.3800 -15.3158 -26.3859 9.5897 43.1266 -5.4543
# 6 26.7829 28.4238 25.3853 0.5346 -5.4543 33.9513
#
#
#
# Elastic Compliance Matrix: (Units=1/GPa)
#
#
# Indices 1 2 3 4 5 6 
#
# 1 0.020796 0.002894 -0.002451 -0.003101 0.010035 -0.015334
# 2 0.002894 0.020194 -0.002133 -0.003343 0.006153 -0.016554
# 3 -0.002451 -0.002133 0.006973 -0.002414 0.002527 -0.001051
# 4 -0.003101 -0.003343 -0.002414 0.022674 -0.008791 0.005281
# 5 0.010035 0.006153 0.002527 -0.008791 0.033350 -0.009461
# 6 -0.015334 -0.016554 -0.001051 0.005281 -0.009461 0.054592
#
#
# Mechanical properties :
#
#
# Convention : Reuss Voigt Hill
#
# Bulk Modulus (GPa) = 22.42944 66.33425 44.38184
# Shear Modulus (GPa) = 28.27719 41.56355 34.92037
#
# Velocity S-wave (km/s) = 3.48996 4.23116 3.87831
# Velocity P-wave (km/s) = 5.08929 7.24172 6.25873
#
# Compressibility (1/GPa) = 0.04458427
#
# Stress axis : x y z
#
# Youngs Moduli (GPa) = 48.08622 49.51882 143.40353
#
# Poissons Ratio (x) = -0.14329 0.35144
# Poissons Ratio (y) = -0.13915 0.30584
# Poissons Ratio (z) = 0.11784 0.10561
#
# Static dielectric constant tensor:
#      x y z
#    x 1.955130 0.100270 -0.025410 
#    y 0.100270 1.998200 0.029350 
#    z -0.025410 0.029350 1.927000 
# 
# From -- ./inp_files/270040.got.cif
#   From: 2010.05.17/outbox.cif.g08.bks.cpg/sg2_136_cif.got.tgz:270040.got - 2010.06.03 11:33:40.
