data_PCOD9047492
_publ_section_title
;
Structure prediction by ZEFSAII (Michael W. Deem and Ramdas Pophale) SiO2 
 PCOD9047492
Probable space group: P -1
;
_chemical_formula_sum "Si O2"
_cell_formula_units_Z 16
_cell_length_a 8.417377
_cell_length_b 7.997097
_cell_length_c 20.841100
_cell_angle_alpha 61.830673
_cell_angle_beta 144.424325
_cell_angle_gamma 126.263935
_cell_volume 657.966241
_symmetry_space_group_name_H-M "P -1"
_symmetry_group_IT_number 2
_symmetry_cell_setting 'triclinic'
loop_
_space_group_symop_operation_xyz
x,y,z
-x,-y,-z
loop_
_atom_site_type_symbol
_atom_site_label
_atom_site_fract_x
_atom_site_fract_y
_atom_site_fract_z
Si Si1 0.761081 0.887463 0.495401
Si Si2 0.438351 0.787456 0.902904
Si Si3 0.264102 0.161782 0.247282
Si Si4 0.770337 0.265756 0.288297
Si Si5 0.871636 0.282243 0.674687
Si Si6 0.148802 0.441514 0.957068
Si Si7 0.239995 0.780710 0.014485
Si Si8 0.264468 0.707125 0.522341
O O1 0.437152 0.752699 0.384934
O O2 0.911187 0.746897 0.600942
O O3 0.750431 0.075303 0.500622
O O4 0.000000 0.000000 0.500000
O O5 0.383192 0.857719 0.802611
O O6 0.156332 0.589769 0.873174
O O7 0.699722 0.706289 0.992802
O O8 0.535782 0.983371 0.945560
O O9 0.546207 0.189080 0.288490
O O10 0.431701 0.281093 0.345401
O O11 0.047589 0.225869 0.119990
O O12 0.087610 0.925383 0.255918
O O13 0.850308 0.507154 0.259721
O O14 0.775451 0.295470 0.566645
O O15 0.339646 0.620931 0.038532
O O16 0.869348 0.307796 0.933688
O O17 0.000000 0.500000 0.500000
#
# Coordination Sequence:
#
# PCOD9047492 Si02
#       8
#     2   2   2   2   2   2   2   2
#     4  11  21  42  65  97 131 168 222 272 326 401
#     4  11  25  44  69  99 141 172 227 281 335 396
#     4  11  23  40  69  96 131 176 223 265 345 397
#     4  12  24  42  67 101 129 177 221 269 339 399
#     4  11  24  42  70  92 137 175 213 279 334 394
#     4  10  24  44  67  97 133 178 226 275 342 390
#     4  11  24  46  70  97 139 175 224 286 329 400
#     4  11  22  44  64  96 135 174 217 277 327 394
#
# _framework density 24.317357999999999
#
# number of rings (size 3 to 8) (size 9 to 14) (size 15 to 20)
#    0.000    1.000    5.000    2.625    3.500    2.000 
#    6.750    0.000    0.000    0.000    0.000    0.000 
#    0.000    0.000    0.000    0.000    0.000    0.000 
#
# Total GULP energy -89345.911284 kJ/mol
# GULP energy per Si atom -5584.119455 kJ/mol
# Density = 2.426201 g / cm^3
# Si number density = 24.317358 Si / 1000 Ang^3
#
#
#
# Elastic Constant Matrix: (Units=GPa)
#
#
# Indices 1 2 3 4 5 6 
#
# 1 81.0371 12.7217 12.1196 -1.2661 -15.9432 1.7754
# 2 12.7217 141.9587 21.8000 -0.8976 0.7157 10.7700
# 3 12.1196 21.8000 80.2467 -2.5530 2.3918 -8.2338
# 4 -1.2661 -0.8976 -2.5530 26.6175 -3.5646 -11.8615
# 5 -15.9432 0.7157 2.3918 -3.5646 36.4183 -8.4945
# 6 1.7754 10.7700 -8.2338 -11.8615 -8.4945 41.8370
#
#
#
# Elastic Compliance Matrix: (Units=1/GPa)
#
#
# Indices 1 2 3 4 5 6 
#
# 1 0.014132 -0.001099 -0.001849 0.001926 0.006809 0.001248
# 2 -0.001099 0.007723 -0.002261 -0.001578 -0.001364 -0.003111
# 3 -0.001849 -0.002261 0.013887 0.002960 -0.000420 0.004147
# 4 0.001926 -0.001578 0.002960 0.046113 0.008874 0.015783
# 5 0.006809 -0.001364 -0.000420 0.008874 0.033533 0.009304
# 6 0.001248 -0.003111 0.004147 0.015783 0.009304 0.031830
#
#
# Mechanical properties :
#
#
# Convention : Reuss Voigt Hill
#
# Bulk Modulus (GPa) = 39.48951 44.05834 41.77392
# Shear Modulus (GPa) = 30.10647 38.08131 34.09389
#
# Velocity S-wave (km/s) = 3.52243 3.96158 3.74844
# Velocity P-wave (km/s) = 5.72869 6.25163 5.99586
#
# Compressibility (1/GPa) = 0.02532318
#
# Stress axis : x y z
#
# Youngs Moduli (GPa) = 70.76374 129.48534 72.00851
#
# Poissons Ratio (x) = 0.14233 0.13317
# Poissons Ratio (y) = 0.07779 0.16279
# Poissons Ratio (z) = 0.13086 0.29273
#
# Static dielectric constant tensor:
#      x y z
#    x 2.005650 0.006130 0.021120 
#    y 0.006130 1.949640 -0.047120 
#    z 0.021120 -0.047120 2.006520 
# 
# From -- ./inp_files/222299.got.cif
#   From: 2010.05.17/outbox.cif.g08.bks.cpg/sg2_112_cif.got.tgz:222299.got - 2010.06.03 11:33:40.
