data_PCOD9047988
_publ_section_title
;
Structure prediction by ZEFSAII (Michael W. Deem and Ramdas Pophale) SiO2 
 PCOD9047988
Probable space group: P -1
;
_chemical_formula_sum "Si O2"
_cell_formula_units_Z 15
_cell_length_a 18.297257
_cell_length_b 9.049420
_cell_length_c 6.457903
_cell_angle_alpha 103.690365
_cell_angle_beta 59.533858
_cell_angle_gamma 130.734203
_cell_volume 691.081308
_symmetry_space_group_name_H-M "P -1"
_symmetry_group_IT_number 2
_symmetry_cell_setting 'triclinic'
loop_
_space_group_symop_operation_xyz
x,y,z
-x,-y,-z
loop_
_atom_site_type_symbol
_atom_site_label
_atom_site_fract_x
_atom_site_fract_y
_atom_site_fract_z
Si Si1 0.401679 0.491094 0.556345
Si Si2 0.760294 0.796371 0.650395
Si Si3 0.444358 0.084693 0.517453
Si Si4 0.783800 0.064179 0.048042
Si Si5 0.285917 0.544615 0.114410
Si Si6 0.935378 0.079456 0.167795
Si Si7 0.913650 0.478194 0.773338
Si Si8 0.500000 0.000000 0.000000
O O1 0.500000 0.500000 0.500000
O O2 0.326599 0.316583 0.447158
O O3 0.476557 0.704054 0.415123
O O4 0.329250 0.493691 0.837373
O O5 0.755471 0.627893 0.717280
O O6 0.736984 0.902831 0.881469
O O7 0.874074 0.974811 0.437463
O O8 0.457577 0.082819 0.252787
O O9 0.500000 0.000000 0.500000
O O10 0.319717 0.971103 0.713935
O O11 0.862915 0.284937 0.918705
O O12 0.846803 0.026852 0.105038
O O13 0.186423 0.543317 0.194997
O O14 0.384362 0.767799 0.118661
O O15 0.018281 0.315108 0.136864
O O16 0.000000 0.000000 0.000000
O O17 0.000000 0.500000 0.500000
#
# Coordination Sequence:
#
# PCOD9047988 Si02
#       8
#     2   2   2   2   2   2   2   1
#     4  11  24  44  68 106 148 188 246 305 374 452
#     4  12  25  46  73 105 150 195 250 313 374 446
#     4  11  24  42  68 103 139 185 236 300 373 442
#     4  12  27  47  76 108 146 197 256 313 380 457
#     4  11  26  46  74 110 147 200 252 308 384 455
#     4  12  28  48  73 105 147 200 257 315 375 450
#     4  12  27  49  73 109 152 200 253 316 384 444
#     4  10  24  44  72 104 146 186 238 302 370 442
#
# _framework density 21.705114999999999
#
# number of rings (size 3 to 8) (size 9 to 14) (size 15 to 20)
#    0.000    0.533    1.333    6.800    3.733    9.600 
#    0.000    0.000    0.000    0.000    0.000    0.000 
#    0.000    0.000    0.000    0.000    0.000    0.000 
#
# Total GULP energy -83581.735089 kJ/mol
# GULP energy per Si atom -5572.115673 kJ/mol
# Density = 2.165571 g / cm^3
# Si number density = 21.705115 Si / 1000 Ang^3
#
#
#
# Elastic Constant Matrix: (Units=GPa)
#
#
# Indices 1 2 3 4 5 6 
#
# 1 147.4762 39.9584 57.7405 -2.1512 -20.1790 -17.7783
# 2 39.9584 163.5004 31.2184 -2.5603 3.9913 1.7483
# 3 57.7405 31.2184 118.4585 -7.5845 -26.8227 0.6235
# 4 -2.1512 -2.5603 -7.5845 43.6964 -2.8779 0.8151
# 5 -20.1790 3.9913 -26.8227 -2.8779 32.5496 6.4517
# 6 -17.7783 1.7483 0.6235 0.8151 6.4517 27.4749
#
#
#
# Elastic Compliance Matrix: (Units=1/GPa)
#
#
# Indices 1 2 3 4 5 6 
#
# 1 0.009780 -0.001749 -0.003955 -0.000305 0.001778 0.006121
# 2 -0.001749 0.006955 -0.001715 -0.000173 -0.003211 -0.000776
# 3 -0.003955 -0.001715 0.013285 0.002764 0.009976 -0.005176
# 4 -0.000305 -0.000173 0.002764 0.023681 0.004607 -0.002033
# 5 0.001778 -0.003211 0.009976 0.004607 0.042634 -0.009020
# 6 0.006121 -0.000776 -0.005176 -0.002033 -0.009020 0.042703
#
#
# Mechanical properties :
#
#
# Convention : Reuss Voigt Hill
#
# Bulk Modulus (GPa) = 65.86682 76.36330 71.11506
# Shear Modulus (GPa) = 31.45928 40.77871 36.11899
#
# Velocity S-wave (km/s) = 3.81122 4.33917 4.08374
# Velocity P-wave (km/s) = 7.05545 7.76937 7.42100
#
# Compressibility (1/GPa) = 0.01518215
#
# Stress axis : x y z
#
# Youngs Moduli (GPa) = 102.25149 143.78331 75.27418
#
# Poissons Ratio (x) = 0.25141 0.29774
# Poissons Ratio (y) = 0.17879 0.12908
# Poissons Ratio (z) = 0.40444 0.24656
#
# Static dielectric constant tensor:
#      x y z
#    x 0.412710 1.077790 0.181470 
#    y 1.077790 0.957510 -0.120860 
#    z 0.181470 -0.120860 1.810550 
# 
# From -- ./inp_files/107123.got.cif
#   From: 2010.05.17/outbox.cif.g08.bks.cpg/sg2_54_cif.got.tgz:107123.got - 2010.06.03 11:33:40.
