data_PCOD9047911
_publ_section_title
;
Structure prediction by ZEFSAII (Michael W. Deem and Ramdas Pophale) SiO2 
 PCOD9047911
Probable space group: P -1
;
_chemical_formula_sum "Si O2"
_cell_formula_units_Z 16
_cell_length_a 14.999575
_cell_length_b 15.521329
_cell_length_c 14.024049
_cell_angle_alpha 148.899471
_cell_angle_beta 44.189594
_cell_angle_gamma 154.957044
_cell_volume 687.658113
_symmetry_space_group_name_H-M "P -1"
_symmetry_group_IT_number 2
_symmetry_cell_setting 'triclinic'
loop_
_space_group_symop_operation_xyz
x,y,z
-x,-y,-z
loop_
_atom_site_type_symbol
_atom_site_label
_atom_site_fract_x
_atom_site_fract_y
_atom_site_fract_z
Si Si1 0.929786 0.425248 0.371543
Si Si2 0.638989 0.522121 0.345799
Si Si3 0.038791 0.438748 0.813894
Si Si4 0.697399 0.835182 0.440308
Si Si5 0.128159 0.195705 0.888158
Si Si6 0.345025 0.680118 0.291111
Si Si7 0.766689 0.073568 0.007581
Si Si8 0.778804 0.616602 0.693428
O O1 0.873899 0.552269 0.509814
O O2 0.000000 0.500000 0.500000
O O3 0.141297 0.567548 0.298717
O O4 0.747613 0.110923 0.169220
O O5 0.500000 0.500000 0.500000
O O6 0.806050 0.561673 0.296764
O O7 0.756303 0.768324 0.414855
O O8 0.459576 0.228500 0.146182
O O9 0.153076 0.683733 0.884426
O O10 0.804424 0.123961 0.658567
O O11 0.000000 0.500000 0.000000
O O12 0.795126 0.869750 0.300353
O O13 0.436066 0.557850 0.364302
O O14 0.951570 0.126423 0.905240
O O15 0.342072 0.523012 0.070566
O O16 0.974835 0.956921 0.863394
O O17 0.297141 0.532495 0.286801
O O18 0.500000 0.000000 0.500000
#
# Coordination Sequence:
#
# PCOD9047911 Si02
#       8
#     2   2   2   2   2   2   2   2
#     4   9  22  42  67  99 142 178 234 290 349 428
#     4  12  26  47  72 105 145 190 248 305 373 438
#     4  12  27  45  70 105 148 187 248 307 366 439
#     4  12  27  44  74 104 139 191 239 301 366 433
#     4  11  24  47  68 103 149 183 242 297 357 437
#     4  10  24  44  71 107 142 190 239 296 356 431
#     4  11  23  43  73  99 139 190 236 298 365 430
#     4  11  24  44  71 102 144 192 236 290 365 428
#
# _framework density 23.267375999999999
#
# number of rings (size 3 to 8) (size 9 to 14) (size 15 to 20)
#    0.000    1.000    1.250    4.125    8.750    2.500 
#    2.250    0.000    0.000    0.000    0.000    0.000 
#    0.000    0.000    0.000    0.000    0.000    0.000 
#
# Total GULP energy -89267.248397 kJ/mol
# GULP energy per Si atom -5579.203025 kJ/mol
# Density = 2.321442 g / cm^3
# Si number density = 23.267376 Si / 1000 Ang^3
#
#
#
# Elastic Constant Matrix: (Units=GPa)
#
#
# Indices 1 2 3 4 5 6 
#
# 1 83.4053 26.5366 19.3013 -0.7121 -14.5905 1.3580
# 2 26.5366 59.3505 45.0323 10.2716 0.1328 -16.1445
# 3 19.3013 45.0323 149.3637 11.9297 25.1127 -11.6955
# 4 -0.7121 10.2716 11.9297 48.0680 1.1629 -6.3225
# 5 -14.5905 0.1328 25.1127 1.1629 46.5921 0.5718
# 6 1.3580 -16.1445 -11.6955 -6.3225 0.5718 30.2917
#
#
#
# Elastic Compliance Matrix: (Units=1/GPa)
#
#
# Indices 1 2 3 4 5 6 
#
# 1 0.015838 -0.007880 -0.001131 0.001384 0.005620 -0.005164
# 2 -0.007880 0.029565 -0.006821 -0.003081 0.001044 0.012814
# 3 -0.001131 -0.006821 0.009934 -0.000864 -0.005669 0.000177
# 4 0.001384 -0.003081 -0.000864 0.022025 0.000327 0.002553
# 5 0.005620 0.001044 -0.005669 0.000327 0.026296 -0.002312
# 6 -0.005164 0.012814 0.000177 0.002553 -0.002312 0.040718
#
#
# Mechanical properties :
#
#
# Convention : Reuss Voigt Hill
#
# Bulk Modulus (GPa) = 42.24427 52.65113 47.44770
# Shear Modulus (GPa) = 27.18428 38.40699 32.79563
#
# Velocity S-wave (km/s) = 3.42181 4.06726 3.75842
# Velocity P-wave (km/s) = 5.81439 6.68840 6.26665
#
# Compressibility (1/GPa) = 0.02367185
#
# Stress axis : x y z
#
# Youngs Moduli (GPa) = 63.14124 33.82421 100.66550
#
# Poissons Ratio (x) = 0.26654 0.11381
# Poissons Ratio (y) = 0.49756 0.68668
# Poissons Ratio (z) = 0.07139 0.23073
#
# Static dielectric constant tensor:
#      x y z
#    x 1.892930 -0.011470 0.048230 
#    y -0.011470 1.925120 -0.002530 
#    z 0.048230 -0.002530 2.042340 
# 
# From -- ./inp_files/534577.got.cif
#   From: 2010.05.17/outbox.cif.g08.bks.cpg/sg2_268_cif.got.tgz:534577.got - 2010.06.03 11:33:40.
