data_PCOD9047279
_publ_section_title
;
Structure prediction by ZEFSAII (Michael W. Deem and Ramdas Pophale) SiO2 
 PCOD9047279
Probable space group: P -1
;
_chemical_formula_sum "Si O2"
_cell_formula_units_Z 16
_cell_length_a 7.832552
_cell_length_b 10.098313
_cell_length_c 16.115089
_cell_angle_alpha 36.570240
_cell_angle_beta 111.650917
_cell_angle_gamma 110.197347
_cell_volume 703.094823
_symmetry_space_group_name_H-M "P -1"
_symmetry_group_IT_number 2
_symmetry_cell_setting 'triclinic'
loop_
_space_group_symop_operation_xyz
x,y,z
-x,-y,-z
loop_
_atom_site_type_symbol
_atom_site_label
_atom_site_fract_x
_atom_site_fract_y
_atom_site_fract_z
Si Si1 0.547861 0.161100 0.100175
Si Si2 0.575370 0.452291 0.240209
Si Si3 0.602712 0.331079 0.745495
Si Si4 0.106902 0.901584 0.995021
Si Si5 0.372173 0.086563 0.283895
Si Si6 0.734095 0.390324 0.564364
Si Si7 0.985480 0.237552 0.123839
Si Si8 0.153244 0.349960 0.705732
O O1 0.452424 0.185327 0.160412
O O2 0.771853 0.162824 0.146548
O O3 0.469993 0.923171 0.166710
O O4 0.490377 0.362886 0.929406
O O5 0.496659 0.522649 0.279678
O O6 0.503829 0.211736 0.313382
O O7 0.789665 0.482953 0.291823
O O8 0.639753 0.447968 0.604740
O O9 0.782040 0.286928 0.852785
O O10 0.221006 0.117062 0.866997
O O11 0.984488 0.812695 0.942253
O O12 0.000000 0.000000 0.000000
O O13 0.163464 0.139180 0.244929
O O14 0.359687 0.823276 0.394518
O O15 0.772722 0.583971 0.406155
O O16 0.934271 0.323685 0.665241
O O17 0.000000 0.500000 0.000000
#
# Coordination Sequence:
#
# PCOD9047279 Si02
#       8
#     2   2   2   2   2   2   2   2
#     4  11  22  38  61  97 133 166 210 261 324 387
#     4  12  23  37  63  95 127 161 210 271 317 374
#     4  11  21  39  64  96 125 156 217 267 315 378
#     4  12  20  36  65  97 121 163 211 266 313 371
#     4  11  24  42  62  93 135 171 206 263 330 381
#     4  10  24  44  63  89 124 175 214 256 320 384
#     4  12  23  36  60  96 135 165 201 262 331 379
#     4  11  23  39  67  91 123 170 218 259 310 385
#
# _framework density 22.756530000000001
#
# number of rings (size 3 to 8) (size 9 to 14) (size 15 to 20)
#    0.000    0.750    6.250    2.250    0.000    1.000 
#    2.250    0.000    0.000    4.500    0.000    0.000 
#    0.000    0.000    0.000    0.000    0.000    0.000 
#
# Total GULP energy -89291.516306 kJ/mol
# GULP energy per Si atom -5580.719769 kJ/mol
# Density = 2.270474 g / cm^3
# Si number density = 22.756530 Si / 1000 Ang^3
#
#
#
# Elastic Constant Matrix: (Units=GPa)
#
#
# Indices 1 2 3 4 5 6 
#
# 1 67.7161 16.6186 18.2159 6.3744 -10.2861 -8.7392
# 2 16.6186 151.6644 13.9258 -5.1208 -10.4075 9.1071
# 3 18.2159 13.9258 100.8010 18.0286 -12.1160 -8.4373
# 4 6.3744 -5.1208 18.0286 24.2912 1.2571 4.0119
# 5 -10.2861 -10.4075 -12.1160 1.2571 33.4629 9.2376
# 6 -8.7392 9.1071 -8.4373 4.0119 9.2376 34.8065
#
#
#
# Elastic Compliance Matrix: (Units=1/GPa)
#
#
# Indices 1 2 3 4 5 6 
#
# 1 0.017061 -0.001954 -0.001205 -0.004856 0.003221 0.004208
# 2 -0.001954 0.007425 -0.001378 0.003610 0.002107 -0.003743
# 3 -0.001205 -0.001378 0.012848 -0.010255 0.003276 0.003485
# 4 -0.004856 0.003610 -0.010255 0.052610 -0.003347 -0.009826
# 5 0.003221 0.002107 0.003276 -0.003347 0.035009 -0.007854
# 6 0.004208 -0.003743 0.003485 -0.009826 -0.007854 0.034828
#
#
# Mechanical properties :
#
#
# Convention : Reuss Voigt Hill
#
# Bulk Modulus (GPa) = 35.38717 46.41134 40.89926
# Shear Modulus (GPa) = 28.04611 36.60688 32.32649
#
# Velocity S-wave (km/s) = 3.51442 4.01513 3.77309
# Velocity P-wave (km/s) = 5.66148 6.47565 6.08220
#
# Compressibility (1/GPa) = 0.02825883
#
# Stress axis : x y z
#
# Youngs Moduli (GPa) = 58.61392 134.67123 77.83016
#
# Poissons Ratio (x) = 0.26320 0.09380
# Poissons Ratio (y) = 0.11455 0.10728
# Poissons Ratio (z) = 0.07064 0.18563
#
# Static dielectric constant tensor:
#      x y z
#    x 2.099000 0.083090 0.017300 
#    y 0.083090 1.854830 -0.021550 
#    z 0.017300 -0.021550 1.865380 
# 
# From -- ./inp_files/494334.got.cif
#   From: 2010.05.17/outbox.cif.g08.bks.cpg/sg2_248_cif.got.tgz:494334.got - 2010.06.03 11:33:40.
