data_PCOD9047867
_publ_section_title
;
Structure prediction by ZEFSAII (Michael W. Deem and Ramdas Pophale) SiO2 
 PCOD9047867
Probable space group: P -1
;
_chemical_formula_sum "Si O2"
_cell_formula_units_Z 13
_cell_length_a 14.356412
_cell_length_b 6.826195
_cell_length_c 9.520555
_cell_angle_alpha 128.753408
_cell_angle_beta 133.817854
_cell_angle_gamma 72.615647
_cell_volume 509.753995
_symmetry_space_group_name_H-M "P -1"
_symmetry_group_IT_number 2
_symmetry_cell_setting 'triclinic'
loop_
_space_group_symop_operation_xyz
x,y,z
-x,-y,-z
loop_
_atom_site_type_symbol
_atom_site_label
_atom_site_fract_x
_atom_site_fract_y
_atom_site_fract_z
Si Si1 0.157107 0.602918 0.452248
Si Si2 0.778704 0.132213 0.649513
Si Si3 0.000000 0.000000 0.000000
Si Si4 0.683434 0.578479 0.913708
Si Si5 0.903620 0.502345 0.269165
Si Si6 0.280303 0.905723 0.987173
Si Si7 0.520961 0.701264 0.238639
O O1 0.226844 0.773533 0.473615
O O2 0.241256 0.700311 0.725292
O O3 0.110651 0.293743 0.249776
O O4 0.009597 0.655408 0.338927
O O5 0.743134 0.366791 0.803738
O O6 0.664992 0.883040 0.460640
O O7 0.921470 0.093524 0.825120
O O8 0.531935 0.463931 0.751465
O O9 0.775741 0.620060 0.170860
O O10 0.705291 0.823049 0.947897
O O11 0.838702 0.186749 0.062652
O O12 0.000000 0.500000 0.500000
O O13 0.415735 0.879381 0.187146
O O14 0.500000 0.500000 0.000000
#
# Coordination Sequence:
#
# PCOD9047867 Si02
#       7
#     2   2   1   2   2   2   2
#     4  11  24  42  68 100 138 185 226 278 341 418
#     4  12  27  44  70 104 141 182 231 285 347 411
#     4  12  26  44  66  98 146 182 226 278 346 402
#     4  11  24  44  69 106 138 178 234 287 347 408
#     4   9  21  41  64 100 137 182 225 275 335 403
#     4  10  24  44  71 102 134 183 231 287 344 409
#     4  11  25  48  73  99 137 182 236 287 345 415
#
# _framework density 25.502497000000002
#
# number of rings (size 3 to 8) (size 9 to 14) (size 15 to 20)
#    0.000    1.231    1.538    2.769    2.154    9.231 
#    0.000    0.000    0.000    0.000    0.000    0.000 
#    0.000    0.000    0.000    0.000    0.000    0.000 
#
# Total GULP energy -72413.601339 kJ/mol
# GULP energy per Si atom -5570.277026 kJ/mol
# Density = 2.544445 g / cm^3
# Si number density = 25.502497 Si / 1000 Ang^3
#
#
#
# Elastic Constant Matrix: (Units=GPa)
#
#
# Indices 1 2 3 4 5 6 
#
# 1 49.4317 15.8678 8.8044 1.5368 22.3256 26.4939
# 2 15.8678 118.7855 31.3953 24.9734 14.8573 22.4854
# 3 8.8044 31.3953 116.7112 10.2039 20.8651 0.3587
# 4 1.5368 24.9734 10.2039 38.5856 1.8296 -1.8923
# 5 22.3256 14.8573 20.8651 1.8296 41.3700 8.9649
# 6 26.4939 22.4854 0.3587 -1.8923 8.9649 44.1902
#
#
#
# Elastic Compliance Matrix: (Units=1/GPa)
#
#
# Indices 1 2 3 4 5 6 
#
# 1 0.038326 0.001378 0.000006 -0.002632 -0.016640 -0.020416
# 2 0.001378 0.011938 -0.002273 -0.007413 -0.002088 -0.006776
# 3 0.000006 -0.002273 0.010083 -0.000878 -0.004663 0.001979
# 4 -0.002632 -0.007413 -0.000878 0.031278 0.001769 0.006338
# 5 -0.016640 -0.002088 -0.004663 0.001769 0.035311 0.003989
# 6 -0.020416 -0.006776 0.001979 0.006338 0.003989 0.037764
#
#
# Mechanical properties :
#
#
# Convention : Reuss Voigt Hill
#
# Bulk Modulus (GPa) = 17.07377 44.11814 30.59595
# Shear Modulus (GPa) = 26.88152 40.08657 33.48405
#
# Velocity S-wave (km/s) = 3.25017 3.96898 3.62743
# Velocity P-wave (km/s) = 4.56008 6.19200 5.43761
#
# Compressibility (1/GPa) = 0.05856938
#
# Stress axis : x y z
#
# Youngs Moduli (GPa) = 26.09164 83.76936 99.17382
#
# Poissons Ratio (x) = -0.11544 -0.00058
# Poissons Ratio (y) = -0.03596 0.22541
# Poissons Ratio (z) = -0.00015 0.19039
#
# Static dielectric constant tensor:
#      x y z
#    x 2.340980 0.001410 -0.089160 
#    y 0.001410 1.941500 -0.026890 
#    z -0.089160 -0.026890 2.096370 
# 
# From -- ./inp_files/458955.got.cif
#   From: 2010.05.17/outbox.cif.g08.bks.cpg/sg2_230_cif.got.tgz:458955.got - 2010.06.03 11:33:40.
