data_PCOD9047096
_publ_section_title
;
Structure prediction by ZEFSAII (Michael W. Deem and Ramdas Pophale) SiO2 
 PCOD9047096
Probable space group: P -1
;
_chemical_formula_sum "Si O2"
_cell_formula_units_Z 16
_cell_length_a 15.983355
_cell_length_b 6.896497
_cell_length_c 18.564753
_cell_angle_alpha 139.006140
_cell_angle_beta 148.622302
_cell_angle_gamma 50.710196
_cell_volume 698.573456
_symmetry_space_group_name_H-M "P -1"
_symmetry_group_IT_number 2
_symmetry_cell_setting 'triclinic'
loop_
_space_group_symop_operation_xyz
x,y,z
-x,-y,-z
loop_
_atom_site_type_symbol
_atom_site_label
_atom_site_fract_x
_atom_site_fract_y
_atom_site_fract_z
Si Si1 0.566705 0.179518 0.271972
Si Si2 0.558590 0.845216 0.426423
Si Si3 0.776224 0.033124 0.097516
Si Si4 0.173764 0.299141 0.685435
Si Si5 0.019011 0.146458 0.673764
Si Si6 0.694337 0.293414 0.546926
Si Si7 0.254271 0.047987 0.211380
Si Si8 0.984470 0.849222 0.067754
O O1 0.620511 0.517931 0.389512
O O2 0.581159 0.163327 0.364293
O O3 0.690701 0.941391 0.268521
O O4 0.388086 0.111926 0.094149
O O5 0.500000 0.000000 0.500000
O O6 0.681230 0.073954 0.542553
O O7 0.395881 0.818304 0.251248
O O8 0.754404 0.381094 0.190611
O O9 0.835995 0.894844 0.176885
O O10 0.918200 0.990161 0.131517
O O11 0.060378 0.162565 0.500789
O O12 0.072525 0.316217 0.689006
O O13 0.876333 0.302770 0.653944
O O14 0.657532 0.631275 0.628068
O O15 0.146842 0.077312 0.069798
O O16 0.145600 0.971897 0.180610
O O17 0.000000 0.500000 0.000000
#
# Coordination Sequence:
#
# PCOD9047096 Si02
#       8
#     2   2   2   2   2   2   2   2
#     4  11  26  44  66 102 134 178 225 279 338 402
#     4  12  26  40  67  96 135 178 227 277 331 400
#     4  12  24  41  70  97 136 174 222 280 339 397
#     4  10  24  47  69  97 134 174 226 277 337 407
#     4  10  24  43  71  99 129 170 229 275 337 401
#     4  11  24  43  69  96 135 178 228 274 337 403
#     4  11  24  42  65  98 136 182 226 274 335 403
#     4  11  25  41  67 100 140 176 225 279 340 399
#
# _framework density 22.903818999999999
#
# number of rings (size 3 to 8) (size 9 to 14) (size 15 to 20)
#    0.000    1.000    1.250    4.125    5.250    9.500 
#    0.000    0.000    0.000    0.000    0.000    0.000 
#    0.000    0.000    0.000    0.000    0.000    0.000 
#
# Total GULP energy -89548.774127 kJ/mol
# GULP energy per Si atom -5596.798383 kJ/mol
# Density = 2.285169 g / cm^3
# Si number density = 22.903819 Si / 1000 Ang^3
#
#
#
# Elastic Constant Matrix: (Units=GPa)
#
#
# Indices 1 2 3 4 5 6 
#
# 1 58.5206 1.4091 -6.4944 -5.5701 4.3352 4.4959
# 2 1.4091 88.3170 15.8561 0.1868 -4.4022 -4.4946
# 3 -6.4944 15.8561 66.7512 -12.4471 5.4833 2.9290
# 4 -5.5701 0.1868 -12.4471 43.5145 1.6841 3.5258
# 5 4.3352 -4.4022 5.4833 1.6841 26.1073 -2.4069
# 6 4.4959 -4.4946 2.9290 3.5258 -2.4069 31.9560
#
#
#
# Elastic Compliance Matrix: (Units=1/GPa)
#
#
# Indices 1 2 3 4 5 6 
#
# 1 0.018499 -0.001337 0.003381 0.003833 -0.004612 -0.003871
# 2 -0.001337 0.012335 -0.003771 -0.001656 0.003451 0.002711
# 3 0.003381 -0.003771 0.017981 0.006118 -0.005715 -0.003760
# 4 0.003833 -0.001656 0.006118 0.025759 -0.004277 -0.004497
# 5 -0.004612 0.003451 -0.005715 -0.004277 0.041613 0.005264
# 6 -0.003871 0.002711 -0.003760 -0.004497 0.005264 0.033456
#
#
# Mechanical properties :
#
#
# Convention : Reuss Voigt Hill
#
# Bulk Modulus (GPa) = 22.04591 26.12559 24.08575
# Shear Modulus (GPa) = 29.72339 33.83677 31.78008
#
# Velocity S-wave (km/s) = 3.60634 3.84779 3.72902
# Velocity P-wave (km/s) = 5.19492 5.58320 5.39255
#
# Compressibility (1/GPa) = 0.04535988
#
# Stress axis : x y z
#
# Youngs Moduli (GPa) = 54.05632 81.07164 55.61399
#
# Poissons Ratio (x) = 0.10840 -0.18802
# Poissons Ratio (y) = 0.07228 0.20974
# Poissons Ratio (z) = -0.18276 0.30575
#
# Static dielectric constant tensor:
#      x y z
#    x 1.860360 -0.007700 0.005490 
#    y -0.007700 1.839900 -0.025490 
#    z 0.005490 -0.025490 1.876280 
# 
# From -- ./inp_files/574952.got.cif
#   From: 2010.05.17/outbox.cif.g08.bks.cpg/sg2_288_cif.got.tgz:574952.got - 2010.06.03 11:33:40.
