data_PCOD9047543
_publ_section_title
;
Structure prediction by ZEFSAII (Michael W. Deem and Ramdas Pophale) SiO2 
 PCOD9047543
Probable space group: P -1
;
_chemical_formula_sum "Si O2"
_cell_formula_units_Z 15
_cell_length_a 17.943192
_cell_length_b 11.253806
_cell_length_c 11.496922
_cell_angle_alpha 146.360478
_cell_angle_beta 48.601464
_cell_angle_gamma 148.455888
_cell_volume 663.430704
_symmetry_space_group_name_H-M "P -1"
_symmetry_group_IT_number 2
_symmetry_cell_setting 'triclinic'
loop_
_space_group_symop_operation_xyz
x,y,z
-x,-y,-z
loop_
_atom_site_type_symbol
_atom_site_label
_atom_site_fract_x
_atom_site_fract_y
_atom_site_fract_z
Si Si1 0.910116 0.121206 0.648584
Si Si2 0.000000 0.000000 0.000000
Si Si3 0.565721 0.652067 0.361843
Si Si4 0.792738 0.081906 0.282841
Si Si5 0.097811 0.278411 0.366965
Si Si6 0.380651 0.578401 0.670352
Si Si7 0.706324 0.821438 0.906609
Si Si8 0.173075 0.626100 0.931926
O O1 0.991222 0.188679 0.503418
O O2 0.031688 0.276225 0.749253
O O3 0.757359 0.763095 0.520530
O O4 0.867456 0.303492 0.855426
O O5 0.928087 0.134038 0.183769
O O6 0.990318 0.975293 0.849596
O O7 0.508551 0.754317 0.588166
O O8 0.581256 0.481744 0.298414
O O9 0.445468 0.417724 0.197676
O O10 0.708527 0.918452 0.357818
O O11 0.827951 0.387659 0.483216
O O12 0.702817 0.868670 0.086101
O O13 0.219418 0.293391 0.284904
O O14 0.314917 0.707556 0.865704
O O15 0.796488 0.151408 0.019135
#
# Coordination Sequence:
#
# PCOD9047543 Si02
#       8
#     2   1   2   2   2   2   2   2
#     4  11  23  40  70 103 133 175 230 288 344 403
#     4  10  24  44  68 102 136 168 232 278 342 408
#     4  11  25  47  65  96 144 184 235 276 340 416
#     4  11  24  46  70 103 136 186 222 290 343 411
#     4  11  24  42  71 102 140 178 227 287 350 401
#     4  11  25  45  66  98 140 185 227 290 338 411
#     4  11  24  45  67 105 137 183 237 279 337 418
#     4  11  24  41  71 105 136 178 234 289 344 400
#
# _framework density 22.609748
#
# number of rings (size 3 to 8) (size 9 to 14) (size 15 to 20)
#    0.000    1.067    2.667    2.800    3.733    2.133 
#    4.800    0.000    0.000    0.000    0.000    0.000 
#    0.000    0.000    0.000    0.000    0.000    0.000 
#
# Total GULP energy -83618.686850 kJ/mol
# GULP energy per Si atom -5574.579123 kJ/mol
# Density = 2.255829 g / cm^3
# Si number density = 22.609748 Si / 1000 Ang^3
#
#
#
# Elastic Constant Matrix: (Units=GPa)
#
#
# Indices 1 2 3 4 5 6 
#
# 1 109.4671 16.1682 46.5859 -22.0533 -24.3395 -2.0812
# 2 16.1682 76.9317 62.8767 -33.3749 -9.1284 -20.7663
# 3 46.5859 62.8767 123.6344 -49.5852 -12.4396 -8.4070
# 4 -22.0533 -33.3749 -49.5852 42.2249 -2.4978 0.8674
# 5 -24.3395 -9.1284 -12.4396 -2.4978 42.9305 -10.4895
# 6 -2.0812 -20.7663 -8.4070 0.8674 -10.4895 24.9936
#
#
#
# Elastic Compliance Matrix: (Units=1/GPa)
#
#
# Indices 1 2 3 4 5 6 
#
# 1 0.015112 0.011124 -0.003816 0.012739 0.014165 0.014720
# 2 0.011124 0.051247 -0.009445 0.035891 0.029087 0.051291
# 3 -0.003816 -0.009445 0.020386 0.014638 0.002388 -0.000814
# 4 0.012739 0.035891 0.014638 0.076998 0.035290 0.047944
# 5 0.014165 0.029087 0.002388 0.035290 0.051640 0.046598
# 6 0.014720 0.051291 -0.000814 0.047944 0.046598 0.101470
#
#
# Mechanical properties :
#
#
# Convention : Reuss Voigt Hill
#
# Bulk Modulus (GPa) = 12.12567 62.36609 37.24588
# Shear Modulus (GPa) = 14.34235 34.32330 24.33283
#
# Velocity S-wave (km/s) = 2.52135 3.90048 3.28412
# Velocity P-wave (km/s) = 3.72169 6.92304 5.55785
#
# Compressibility (1/GPa) = 0.08246970
#
# Stress axis : x y z
#
# Youngs Moduli (GPa) = 66.17248 19.51327 49.05426
#
# Poissons Ratio (x) = -0.21706 0.18719
# Poissons Ratio (y) = -0.73607 0.46333
# Poissons Ratio (z) = 0.25251 0.18431
#
# Static dielectric constant tensor:
#      x y z
#    x 1.858850 0.019250 0.000480 
#    y 0.019250 1.843970 0.038460 
#    z 0.000480 0.038460 1.860710 
# 
# From -- ./inp_files/465176.got.cif
#   From: 2010.05.17/outbox.cif.g08.bks.cpg/sg2_233_cif.got.tgz:465176.got - 2010.06.03 11:33:40.
