data_PCOD9047625
_publ_section_title
;
Structure prediction by ZEFSAII (Michael W. Deem and Ramdas Pophale) SiO2 
 PCOD9047625
Probable space group: P -1
;
_chemical_formula_sum "Si O2"
_cell_formula_units_Z 12
_cell_length_a 15.950672
_cell_length_b 21.942538
_cell_length_c 4.884906
_cell_angle_alpha 99.929388
_cell_angle_beta 102.650829
_cell_angle_gamma 16.060532
_cell_volume 456.910248
_symmetry_space_group_name_H-M "P -1"
_symmetry_group_IT_number 2
_symmetry_cell_setting 'triclinic'
loop_
_space_group_symop_operation_xyz
x,y,z
-x,-y,-z
loop_
_atom_site_type_symbol
_atom_site_label
_atom_site_fract_x
_atom_site_fract_y
_atom_site_fract_z
Si Si1 0.009776 0.419619 0.922730
Si Si2 0.681160 0.473967 0.566573
Si Si3 0.959192 0.887073 0.288747
Si Si4 0.090249 0.872673 0.838885
Si Si5 0.705540 0.935807 0.006633
Si Si6 0.889871 0.424139 0.316579
O O1 0.945920 0.438056 0.591858
O O2 0.367136 0.154665 0.035786
O O3 0.799690 0.528227 0.071869
O O4 0.000000 0.500000 0.000000
O O5 0.803578 0.319226 0.520607
O O6 0.394659 0.671723 0.715664
O O7 0.646664 0.539995 0.327493
O O8 0.991770 0.289544 0.774148
O O9 0.855249 0.007199 0.541018
O O10 0.110905 0.814103 0.075966
O O11 0.730083 0.994047 0.078892
O O12 0.000000 0.000000 0.000000
O O13 0.806181 0.829516 0.724293
#
# Coordination Sequence:
#
# PCOD9047625 Si02
#       6
#     2   2   2   2   2   2
#     4  12  27  45  69 102 141 178 219 281 344 398
#     4  10  25  43  73 100 131 178 235 271 336 389
#     4  10  24  44  68  97 137 176 230 273 329 406
#     4  12  25  44  68 101 141 177 218 280 343 398
#     4  10  25  44  72 100 130 181 232 274 330 395
#     4  12  24  47  70 100 136 179 230 278 329 409
#
# _framework density 26.263362999999998
#
# number of rings (size 3 to 8) (size 9 to 14) (size 15 to 20)
#    1.000    0.000    1.667    4.000    4.667    1.333 
#    3.000    0.000    0.000    0.000    0.000    0.000 
#    0.000    0.000    0.000    0.000    0.000    0.000 
#
# Total GULP energy -67002.949458 kJ/mol
# GULP energy per Si atom -5583.579121 kJ/mol
# Density = 2.620359 g / cm^3
# Si number density = 26.263363 Si / 1000 Ang^3
#
#
#
# Elastic Constant Matrix: (Units=GPa)
#
#
# Indices 1 2 3 4 5 6 
#
# 1 164.5324 24.8080 68.1548 24.7384 -15.2255 12.0206
# 2 24.8080 69.4351 9.0360 9.8983 0.3046 2.4114
# 3 68.1548 9.0360 158.0678 27.7169 7.6846 10.6137
# 4 24.7384 9.8983 27.7169 33.9179 1.6148 7.9976
# 5 -15.2255 0.3046 7.6846 1.6148 49.3072 5.2335
# 6 12.0206 2.4114 10.6137 7.9976 5.2335 34.7329
#
#
#
# Elastic Compliance Matrix: (Units=1/GPa)
#
#
# Indices 1 2 3 4 5 6 
#
# 1 0.008572 -0.002210 -0.003128 -0.002807 0.003423 -0.001727
# 2 -0.002210 0.015599 0.000699 -0.003570 -0.000815 0.000413
# 3 -0.003128 0.000699 0.008592 -0.004804 -0.002135 -0.000164
# 4 -0.002807 -0.003570 -0.004804 0.037932 -0.000708 -0.005940
# 5 0.003423 -0.000815 -0.002135 -0.000708 0.022085 -0.003641
# 6 -0.001727 0.000413 -0.000164 -0.005940 -0.003641 0.031327
#
#
# Mechanical properties :
#
#
# Convention : Reuss Voigt Hill
#
# Bulk Modulus (GPa) = 42.58110 66.22587 54.40349
# Shear Modulus (GPa) = 35.40756 42.92738 39.16747
#
# Velocity S-wave (km/s) = 3.67573 4.04728 3.86597
# Velocity P-wave (km/s) = 5.85346 6.86378 6.37865
#
# Compressibility (1/GPa) = 0.02348459
#
# Stress axis : x y z
#
# Youngs Moduli (GPa) = 116.66287 64.10733 116.38455
#
# Poissons Ratio (x) = 0.14171 0.36404
# Poissons Ratio (y) = 0.25788 -0.08138
# Poissons Ratio (z) = 0.36491 -0.04483
#
# Static dielectric constant tensor:
#      x y z
#    x 2.120590 0.020740 -0.017670 
#    y 0.020740 2.080810 -0.045320 
#    z -0.017670 -0.045320 2.260670 
# 
# From -- ./inp_files/100635.got.cif
#   From: 2010.05.17/outbox.cif.g08.bks.cpg/sg2_51_cif.got.tgz:100635.got - 2010.06.03 11:33:40.
