data_PCOD9047508
_publ_section_title
;
Structure prediction by ZEFSAII (Michael W. Deem and Ramdas Pophale) SiO2 
 PCOD9047508
Probable space group: P -1
;
_chemical_formula_sum "Si O2"
_cell_formula_units_Z 14
_cell_length_a 11.818663
_cell_length_b 9.260115
_cell_length_c 9.882489
_cell_angle_alpha 108.530779
_cell_angle_beta 96.244306
_cell_angle_gamma 35.519398
_cell_volume 573.299781
_symmetry_space_group_name_H-M "P -1"
_symmetry_group_IT_number 2
_symmetry_cell_setting 'triclinic'
loop_
_space_group_symop_operation_xyz
x,y,z
-x,-y,-z
loop_
_atom_site_type_symbol
_atom_site_label
_atom_site_fract_x
_atom_site_fract_y
_atom_site_fract_z
Si Si1 0.896375 0.237617 0.958964
Si Si2 0.822902 0.065970 0.686374
Si Si3 0.125136 0.196202 0.795246
Si Si4 0.098617 0.523371 0.431554
Si Si5 0.527361 0.911591 0.790323
Si Si6 0.518863 0.369071 0.251431
Si Si7 0.436733 0.795659 0.075527
O O1 0.881643 0.156563 0.794827
O O2 0.007766 0.270194 0.936706
O O3 0.671187 0.522420 0.067566
O O4 0.000000 0.000000 0.000000
O O5 0.631709 0.328450 0.647963
O O6 0.722381 0.071229 0.790539
O O7 0.011075 0.776506 0.556504
O O8 0.986261 0.384657 0.705815
O O9 0.286872 0.154610 0.818956
O O10 0.286618 0.876768 0.704523
O O11 0.000000 0.500000 0.500000
O O12 0.339380 0.230284 0.371566
O O13 0.592811 0.671833 0.777448
O O14 0.586185 0.000314 0.901898
O O15 0.588721 0.290976 0.079758
#
# Coordination Sequence:
#
# PCOD9047508 Si02
#       7
#     2   2   2   2   2   2   2
#     4  11  23  43  70 107 135 172 230 281 348 408
#     4  11  23  41  71  95 137 182 224 283 334 397
#     4  10  25  44  67 102 136 176 232 274 338 405
#     4  12  25  47  67  96 141 185 232 270 336 405
#     4  10  24  44  67  99 138 176 225 280 337 398
#     4   9  21  42  65  99 131 168 225 281 347 389
#     4  11  20  41  69  98 140 173 218 287 344 399
#
# _framework density 24.420034000000001
#
# number of rings (size 3 to 8) (size 9 to 14) (size 15 to 20)
#    0.857    0.571    1.429    5.571    0.000    5.143 
#    7.714    0.000    0.000    0.000    0.000    0.000 
#    0.000    0.000    0.000    0.000    0.000    0.000 
#
# Total GULP energy -78063.457978 kJ/mol
# GULP energy per Si atom -5575.961284 kJ/mol
# Density = 2.436445 g / cm^3
# Si number density = 24.420034 Si / 1000 Ang^3
#
#
#
# Elastic Constant Matrix: (Units=GPa)
#
#
# Indices 1 2 3 4 5 6 
#
# 1 135.7992 19.6980 32.5789 7.6055 -31.5703 0.6562
# 2 19.6980 96.3439 12.4176 -5.0891 -9.7009 3.3740
# 3 32.5789 12.4176 82.8615 21.7923 -12.6864 -5.5289
# 4 7.6055 -5.0891 21.7923 32.5074 8.0384 -3.5047
# 5 -31.5703 -9.7009 -12.6864 8.0384 26.5028 3.5049
# 6 0.6562 3.3740 -5.5289 -3.5047 3.5049 35.0567
#
#
#
# Elastic Compliance Matrix: (Units=1/GPa)
#
#
# Indices 1 2 3 4 5 6 
#
# 1 0.011641 -0.001021 -0.000417 -0.006737 0.015658 -0.002424
# 2 -0.001021 0.011150 -0.001897 0.002814 0.001262 -0.001198
# 3 -0.000417 -0.001897 0.018559 -0.015676 0.012407 0.000310
# 4 -0.006737 0.002814 -0.015676 0.051528 -0.030871 0.005621
# 5 0.015658 0.001262 0.012407 -0.030871 0.073322 -0.008875
# 6 -0.002424 -0.001198 0.000310 0.005621 -0.008875 0.030184
#
#
# Mechanical properties :
#
#
# Convention : Reuss Voigt Hill
#
# Bulk Modulus (GPa) = 28.83257 49.37707 39.10482
# Shear Modulus (GPa) = 23.29780 35.50072 29.39926
#
# Velocity S-wave (km/s) = 3.09211 3.81695 3.47349
# Velocity P-wave (km/s) = 4.95790 6.29994 5.66878
#
# Compressibility (1/GPa) = 0.03468300
#
# Stress axis : x y z
#
# Youngs Moduli (GPa) = 85.90373 89.68323 53.88139
#
# Poissons Ratio (x) = 0.09155 0.02244
# Poissons Ratio (y) = 0.08769 0.10219
# Poissons Ratio (z) = 0.03578 0.17009
#
# Static dielectric constant tensor:
#      x y z
#    x 2.007730 -0.019180 -0.061050 
#    y -0.019180 2.005720 -0.016900 
#    z -0.061050 -0.016900 1.989420 
# 
# From -- ./inp_files/417840.got.cif
#   From: 2010.05.17/outbox.cif.g08.bks.cpg/sg2_209_cif.got.tgz:417840.got - 2010.06.03 11:33:40.
