data_PCOD9047808
_publ_section_title
;
Structure prediction by ZEFSAII (Michael W. Deem and Ramdas Pophale) SiO2 
 PCOD9047808
Probable space group: P -1
;
_chemical_formula_sum "Si O2"
_cell_formula_units_Z 15
_cell_length_a 16.067872
_cell_length_b 8.445321
_cell_length_c 9.208866
_cell_angle_alpha 134.936033
_cell_angle_beta 129.425318
_cell_angle_gamma 76.463382
_cell_volume 628.551326
_symmetry_space_group_name_H-M "P -1"
_symmetry_group_IT_number 2
_symmetry_cell_setting 'triclinic'
loop_
_space_group_symop_operation_xyz
x,y,z
-x,-y,-z
loop_
_atom_site_type_symbol
_atom_site_label
_atom_site_fract_x
_atom_site_fract_y
_atom_site_fract_z
Si Si1 0.207526 0.716431 0.512102
Si Si2 0.714898 0.383971 0.783211
Si Si3 0.877148 0.898944 0.376095
Si Si4 0.602243 0.845673 0.386689
Si Si5 0.852371 0.937163 0.685722
Si Si6 0.428999 0.612836 0.784781
Si Si7 0.986297 0.610959 0.710781
Si Si8 0.500000 0.500000 0.500000
O O1 0.225180 0.671115 0.332019
O O2 0.308831 0.654147 0.662705
O O3 0.080526 0.566805 0.347587
O O4 0.212337 0.987888 0.710102
O O5 0.617121 0.475755 0.678543
O O6 0.645026 0.135862 0.635588
O O7 0.813636 0.608329 0.119372
O O8 0.913476 0.004741 0.644404
O O9 0.000000 0.000000 0.500000
O O10 0.715542 0.815437 0.424792
O O11 0.584304 0.671125 0.393391
O O12 0.498176 0.747001 0.091536
O O13 0.901884 0.756832 0.694896
O O14 0.888637 0.180924 0.976278
O O15 0.497020 0.681136 0.753338
O O16 0.000000 0.500000 0.500000
#
# Coordination Sequence:
#
# PCOD9047808 Si02
#       8
#     2   2   2   2   2   2   2   1
#     4  11  24  45  70 102 143 184 227 303 346 416
#     4  11  26  43  72 104 140 185 232 291 353 421
#     4  12  26  43  71 105 140 187 238 286 353 423
#     4  11  23  46  73  99 141 188 228 290 352 422
#     4  11  24  44  67 101 140 178 235 291 348 424
#     4  10  24  47  74 103 141 186 232 292 363 414
#     4  11  25  44  69  99 137 188 236 289 353 416
#     4  10  24  44  70 108 138 178 240 282 354 428
#
# _framework density 23.864398999999999
#
# number of rings (size 3 to 8) (size 9 to 14) (size 15 to 20)
#    0.000    1.067    2.667    2.400    5.600    3.733 
#    0.000    0.000    0.000    0.000    0.000    0.000 
#    0.000    0.000    0.000    0.000    0.000    0.000 
#
# Total GULP energy -83523.252318 kJ/mol
# GULP energy per Si atom -5568.216821 kJ/mol
# Density = 2.381008 g / cm^3
# Si number density = 23.864399 Si / 1000 Ang^3
#
#
#
# Elastic Constant Matrix: (Units=GPa)
#
#
# Indices 1 2 3 4 5 6 
#
# 1 71.0080 -2.4549 15.7884 9.5992 -3.7477 -10.9312
# 2 -2.4549 88.1832 45.6986 16.5876 5.2613 -22.8845
# 3 15.7884 45.6986 111.5309 17.6486 -0.0465 -9.5405
# 4 9.5992 16.5876 17.6486 38.0952 -2.7475 -2.6436
# 5 -3.7477 5.2613 -0.0465 -2.7475 23.5982 1.8262
# 6 -10.9312 -22.8845 -9.5405 -2.6436 1.8262 30.8007
#
#
#
# Elastic Compliance Matrix: (Units=1/GPa)
#
#
# Indices 1 2 3 4 5 6 
#
# 1 0.016832 0.005011 -0.003022 -0.004415 0.000389 0.008359
# 2 0.005011 0.020297 -0.006778 -0.006356 -0.005609 0.014547
# 3 -0.003022 -0.006778 0.012284 -0.002081 0.001010 -0.002543
# 4 -0.004415 -0.006356 -0.002081 0.031117 0.004686 -0.004541
# 5 0.000389 -0.005609 0.001010 0.004686 0.044698 -0.005964
# 6 0.008359 0.014547 -0.002543 -0.004541 -0.005964 0.045418
#
#
# Mechanical properties :
#
#
# Convention : Reuss Voigt Hill
#
# Bulk Modulus (GPa) = 25.10368 43.19848 34.15108
# Shear Modulus (GPa) = 25.83947 32.61149 29.22548
#
# Velocity S-wave (km/s) = 3.29411 3.70067 3.50329
# Velocity P-wave (km/s) = 5.00103 6.03332 5.54127
#
# Compressibility (1/GPa) = 0.03983480
#
# Stress axis : x y z
#
# Youngs Moduli (GPa) = 59.40934 49.26738 81.40930
#
# Poissons Ratio (x) = -0.24690 0.24604
# Poissons Ratio (y) = -0.29772 0.55182
# Poissons Ratio (z) = 0.17955 0.33395
#
# Static dielectric constant tensor:
#      x y z
#    x 1.958730 -0.029560 -0.026190 
#    y -0.029560 2.080790 0.085100 
#    z -0.026190 0.085100 1.921440 
# 
# From -- ./inp_files/299909.got.cif
#   From: 2010.05.17/outbox.cif.g08.bks.cpg/sg2_150_cif.got.tgz:299909.got - 2010.06.03 11:33:40.
