data_PCOD9047125
_publ_section_title
;
Structure prediction by ZEFSAII (Michael W. Deem and Ramdas Pophale) SiO2 
 PCOD9047125
Probable space group: P -1
;
_chemical_formula_sum "Si O2"
_cell_formula_units_Z 16
_cell_length_a 7.061028
_cell_length_b 6.967291
_cell_length_c 15.592455
_cell_angle_alpha 90.626565
_cell_angle_beta 54.936284
_cell_angle_gamma 101.847145
_cell_volume 608.992209
_symmetry_space_group_name_H-M "P -1"
_symmetry_group_IT_number 2
_symmetry_cell_setting 'triclinic'
loop_
_space_group_symop_operation_xyz
x,y,z
-x,-y,-z
loop_
_atom_site_type_symbol
_atom_site_label
_atom_site_fract_x
_atom_site_fract_y
_atom_site_fract_z
Si Si1 0.545188 0.866220 0.908602
Si Si2 0.452202 0.222731 0.567795
Si Si3 0.523614 0.473380 0.724720
Si Si4 0.508814 0.081210 0.321404
Si Si5 0.038852 0.604394 0.583961
Si Si6 0.751687 0.546302 0.032990
Si Si7 0.063760 0.986946 0.332622
Si Si8 0.891110 0.109994 0.101642
O O1 0.440966 0.635628 0.956303
O O2 0.795043 0.946584 0.793927
O O3 0.346368 0.867543 0.886519
O O4 0.500000 0.000000 0.000000
O O5 0.465517 0.337011 0.656569
O O6 0.684611 0.361736 0.460819
O O7 0.499822 0.008411 0.582400
O O8 0.179059 0.183405 0.607468
O O9 0.495776 0.690922 0.698784
O O10 0.356121 0.397664 0.849357
O O11 0.791254 0.492591 0.692289
O O12 0.274517 0.947968 0.336582
O O13 0.760370 0.046777 0.223539
O O14 0.000000 0.500000 0.500000
O O15 0.004429 0.826794 0.602813
O O16 0.000000 0.500000 0.000000
O O17 0.872502 0.719888 0.938132
O O18 0.000000 0.000000 0.000000
#
# Coordination Sequence:
#
# PCOD9047125 Si02
#       8
#     2   2   2   2   2   2   2   2
#     4  10  21  34  56  85 118 157 193 244 311 351
#     4  11  23  36  69  90 116 167 205 248 317 359
#     4  10  19  38  59  88 123 158 203 252 303 367
#     4  10  21  40  58  89 125 160 202 252 303 366
#     4   9  19  39  62  90 119 161 207 251 312 363
#     4  10  17  34  57  77 114 162 192 236 310 353
#     4  10  21  39  60  89 130 152 203 265 294 364
#     4  10  20  34  57  84 114 156 211 240 292 378
#
# _framework density 26.272915000000001
#
# number of rings (size 3 to 8) (size 9 to 14) (size 15 to 20)
#    0.000    2.000    5.000    1.125    5.250    2.000 
#    0.000    4.375    2.750    8.250    0.000    0.000 
#    0.000    0.000    0.000    0.000    0.000    0.000 
#
# Total GULP energy -89185.288236 kJ/mol
# GULP energy per Si atom -5574.080515 kJ/mol
# Density = 2.621312 g / cm^3
# Si number density = 26.272915 Si / 1000 Ang^3
#
#
#
# Elastic Constant Matrix: (Units=GPa)
#
#
# Indices 1 2 3 4 5 6 
#
# 1 122.2146 33.8413 54.2873 -27.4330 -27.8515 32.7028
# 2 33.8413 100.8924 35.1121 -14.4890 -11.6831 21.1236
# 3 54.2873 35.1121 213.3551 -32.4363 -33.6319 13.1553
# 4 -27.4330 -14.4890 -32.4363 42.7282 10.0920 -7.0850
# 5 -27.8515 -11.6831 -33.6319 10.0920 51.3182 -16.5509
# 6 32.7028 21.1236 13.1553 -7.0850 -16.5509 47.4641
#
#
#
# Elastic Compliance Matrix: (Units=1/GPa)
#
#
# Indices 1 2 3 4 5 6 
#
# 1 0.012491 -0.001454 -0.001419 0.004840 0.002658 -0.005916
# 2 -0.001454 0.011789 -0.001148 0.001657 -0.000417 -0.003825
# 3 -0.001419 -0.001148 0.006026 0.002823 0.002749 0.001199
# 4 0.004840 0.001657 0.002823 0.029353 -0.001206 -0.000894
# 5 0.002658 -0.000417 0.002749 -0.001206 0.024830 0.006071
# 6 -0.005916 -0.003825 0.001199 -0.000894 0.006071 0.028498
#
#
# Mechanical properties :
#
#
# Convention : Reuss Voigt Hill
#
# Bulk Modulus (GPa) = 44.91882 75.88261 60.40071
# Shear Modulus (GPa) = 38.92518 49.18353 44.05436
#
# Velocity S-wave (km/s) = 3.85329 4.33138 4.09931
# Velocity P-wave (km/s) = 6.07711 7.34572 6.74133
#
# Compressibility (1/GPa) = 0.02226239
#
# Stress axis : x y z
#
# Youngs Moduli (GPa) = 80.05978 84.82262 165.95543
#
# Poissons Ratio (x) = 0.12335 0.23554
# Poissons Ratio (y) = 0.11642 0.19055
# Poissons Ratio (z) = 0.11363 0.09739
#
# Static dielectric constant tensor:
#      x y z
#    x 2.003760 -0.057280 -0.119980 
#    y -0.057280 2.173990 0.143890 
#    z -0.119980 0.143890 1.954340 
# 
# From -- ./inp_files/587429.got.cif
#   From: 2010.05.17/outbox.cif.g08.bks.cpg/sg2_294_cif.got.tgz:587429.got - 2010.06.03 11:33:40.
