data_PCOD9047965
_publ_section_title
;
Structure prediction by ZEFSAII (Michael W. Deem and Ramdas Pophale) SiO2 
 PCOD9047965
Probable space group: P -1
;
_chemical_formula_sum "Si O2"
_cell_formula_units_Z 16
_cell_length_a 16.738383
_cell_length_b 8.830498
_cell_length_c 6.277515
_cell_angle_alpha 119.212633
_cell_angle_beta 80.430933
_cell_angle_gamma 119.991704
_cell_volume 697.697711
_symmetry_space_group_name_H-M "P -1"
_symmetry_group_IT_number 2
_symmetry_cell_setting 'triclinic'
loop_
_space_group_symop_operation_xyz
x,y,z
-x,-y,-z
loop_
_atom_site_type_symbol
_atom_site_label
_atom_site_fract_x
_atom_site_fract_y
_atom_site_fract_z
Si Si1 0.098840 0.188607 0.617904
Si Si2 0.808549 0.116241 0.064914
Si Si3 0.273176 0.150174 0.450117
Si Si4 0.459741 0.962393 0.744214
Si Si5 0.639255 0.782577 0.122777
Si Si6 0.980382 0.624315 0.915926
Si Si7 0.833833 0.485794 0.553076
Si Si8 0.654273 0.483588 0.654467
O O1 0.180340 0.137640 0.578068
O O2 0.122416 0.325217 0.491930
O O3 0.084354 0.298816 0.897760
O O4 0.000000 0.000000 0.500000
O O5 0.796562 0.292406 0.289737
O O6 0.918647 0.196142 0.067000
O O7 0.746324 0.918884 0.090725
O O8 0.764264 0.051611 0.806109
O O9 0.351963 0.190451 0.610624
O O10 0.313750 0.341318 0.411902
O O11 0.401932 0.723903 0.583298
O O12 0.500000 0.000000 0.500000
O O13 0.412137 0.103030 0.864574
O O14 0.500000 0.000000 0.000000
O O15 0.607652 0.559208 0.905136
O O16 0.916231 0.492889 0.662830
O O17 0.000000 0.500000 0.000000
O O18 0.745709 0.481226 0.702723
#
# Coordination Sequence:
#
# PCOD9047965 Si02
#       8
#     2   2   2   2   2   2   2   2
#     4  11  23  39  58  92 139 190 249 304 358 418
#     4  11  23  39  67  98 141 188 252 299 361 437
#     4  10  24  44  72 102 143 201 244 303 377 438
#     4  12  31  54  87 121 152 194 246 316 393 473
#     4  11  26  48  78 108 148 196 241 309 378 459
#     4  12  25  37  59  95 134 192 252 305 364 418
#     4  11  24  42  65  96 141 194 247 308 362 434
#     4  10  25  51  74 111 149 196 243 305 379 461
#
# _framework density 22.932569000000001
#
# number of rings (size 3 to 8) (size 9 to 14) (size 15 to 20)
#    0.000    1.000    3.750    1.125    8.750    1.500 
#    2.250    0.000    0.000    0.000    0.000    0.000 
#    0.000    0.000    0.000    0.000    0.000    0.000 
#
# Total GULP energy -89236.015977 kJ/mol
# GULP energy per Si atom -5577.250999 kJ/mol
# Density = 2.288037 g / cm^3
# Si number density = 22.932569 Si / 1000 Ang^3
#
#
#
# Elastic Constant Matrix: (Units=GPa)
#
#
# Indices 1 2 3 4 5 6 
#
# 1 93.8760 21.4827 77.5676 2.4897 17.2477 -29.3329
# 2 21.4827 59.1893 36.8382 18.9579 15.9449 -2.0565
# 3 77.5676 36.8382 156.5292 31.7861 9.3307 -16.9865
# 4 2.4897 18.9579 31.7861 42.2566 -0.4364 -2.8874
# 5 17.2477 15.9449 9.3307 -0.4364 41.7921 -7.3365
# 6 -29.3329 -2.0565 -16.9865 -2.8874 -7.3365 29.7758
#
#
#
# Elastic Compliance Matrix: (Units=1/GPa)
#
#
# Indices 1 2 3 4 5 6 
#
# 1 0.030313 -0.004510 -0.013813 0.012087 -0.003731 0.021924
# 2 -0.004510 0.024979 -0.001819 -0.010129 -0.008571 -0.006849
# 3 -0.013813 -0.001819 0.014957 -0.009989 0.001953 -0.005689
# 4 0.012087 -0.010129 -0.009989 0.035711 0.003192 0.009759
# 5 -0.003731 -0.008571 0.001953 0.003192 0.029094 0.004325
# 6 0.021924 -0.006849 -0.005689 0.009759 0.004325 0.053475
#
#
# Mechanical properties :
#
#
# Convention : Reuss Voigt Hill
#
# Bulk Modulus (GPa) = 33.37320 64.59684 48.98502
# Shear Modulus (GPa) = 20.93775 34.34528 27.64152
#
# Velocity S-wave (km/s) = 3.02489 3.87416 3.47557
# Velocity P-wave (km/s) = 5.17535 6.94561 6.12478
#
# Compressibility (1/GPa) = 0.02996416
#
# Stress axis : x y z
#
# Youngs Moduli (GPa) = 32.98887 40.03305 66.85974
#
# Poissons Ratio (x) = 0.18054 0.92356
# Poissons Ratio (y) = 0.14877 0.12165
# Poissons Ratio (z) = 0.45569 0.07284
#
# Static dielectric constant tensor:
#      x y z
#    x 1.852510 0.008890 -0.037180 
#    y 0.008890 1.849510 -0.040120 
#    z -0.037180 -0.040120 1.984740 
# 
# From -- ./inp_files/107590.got.cif
#   From: 2010.05.17/outbox.cif.g08.bks.cpg/sg2_54_cif.got.tgz:107590.got - 2010.06.03 11:33:40.
