data_PCOD9047830
_publ_section_title
;
Structure prediction by ZEFSAII (Michael W. Deem and Ramdas Pophale) SiO2 
 PCOD9047830
Probable space group: P -1
;
_chemical_formula_sum "Si O2"
_cell_formula_units_Z 15
_cell_length_a 10.705917
_cell_length_b 8.679899
_cell_length_c 13.872761
_cell_angle_alpha 69.202564
_cell_angle_beta 35.276871
_cell_angle_gamma 70.100174
_cell_volume 692.952564
_symmetry_space_group_name_H-M "P -1"
_symmetry_group_IT_number 2
_symmetry_cell_setting 'triclinic'
loop_
_space_group_symop_operation_xyz
x,y,z
-x,-y,-z
loop_
_atom_site_type_symbol
_atom_site_label
_atom_site_fract_x
_atom_site_fract_y
_atom_site_fract_z
Si Si1 0.000000 0.000000 0.500000
Si Si2 0.884045 0.383605 0.217159
Si Si3 0.666706 0.337432 0.924893
Si Si4 0.501381 0.062910 0.225574
Si Si5 0.876182 0.562171 0.366921
Si Si6 0.297823 0.300101 0.857872
Si Si7 0.765953 0.341717 0.637740
Si Si8 0.478833 0.820739 0.595989
O O1 0.076913 0.814345 0.458340
O O2 0.743598 0.978279 0.630455
O O3 0.848192 0.407981 0.347903
O O4 0.811543 0.566446 0.178904
O O5 0.733725 0.257453 0.290869
O O6 0.129617 0.320131 0.048668
O O7 0.717260 0.314859 0.785695
O O8 0.896367 0.372318 0.818928
O O9 0.500000 0.500000 0.000000
O O10 0.573621 0.182409 0.068937
O O11 0.518819 0.158307 0.294743
O O12 0.654784 0.888539 0.166250
O O13 0.872487 0.499023 0.492887
O O14 0.679659 0.702091 0.454901
O O15 0.529493 0.353793 0.732798
O O16 0.500000 0.000000 0.500000
#
# Coordination Sequence:
#
# PCOD9047830 Si02
#       8
#     1   2   2   2   2   2   2   2
#     4  10  24  44  72  94 136 174 228 274 342 390
#     4  11  25  44  71  99 135 183 223 276 340 407
#     4  12  26  43  69 103 136 177 229 282 338 394
#     4  11  26  46  70 102 137 177 228 283 335 405
#     4  12  25  43  72  98 140 180 225 275 343 402
#     4  10  24  44  70  97 138 176 229 275 339 402
#     4  11  23  44  68  99 134 180 226 277 334 403
#     4  12  27  44  71 102 138 174 228 280 340 400
#
# _framework density 21.646502999999999
#
# number of rings (size 3 to 8) (size 9 to 14) (size 15 to 20)
#    0.000    0.800    1.333    4.800    9.333    3.733 
#    0.000    0.000    0.000    0.000    0.000    0.000 
#    0.000    0.000    0.000    0.000    0.000    0.000 
#
# Total GULP energy -83642.390968 kJ/mol
# GULP energy per Si atom -5576.159398 kJ/mol
# Density = 2.159723 g / cm^3
# Si number density = 21.646503 Si / 1000 Ang^3
#
#
#
# Elastic Constant Matrix: (Units=GPa)
#
#
# Indices 1 2 3 4 5 6 
#
# 1 49.7023 -3.8666 26.0198 1.8769 9.7355 3.8103
# 2 -3.8666 88.4763 44.0570 25.1934 -3.5815 -4.3967
# 3 26.0198 44.0570 92.6360 15.6188 -2.8259 -11.8852
# 4 1.8769 25.1934 15.6188 39.8992 -11.7932 -9.7049
# 5 9.7355 -3.5815 -2.8259 -11.7932 35.9702 2.5899
# 6 3.8103 -4.3967 -11.8852 -9.7049 2.5899 21.6121
#
#
#
# Elastic Compliance Matrix: (Units=1/GPa)
#
#
# Indices 1 2 3 4 5 6 
#
# 1 0.031864 0.009862 -0.014309 -0.008690 -0.010599 -0.014113
# 2 0.009862 0.020465 -0.011710 -0.012471 -0.004991 -0.009017
# 3 -0.014309 -0.011710 0.021513 0.004323 0.004855 0.013331
# 4 -0.008690 -0.012471 0.004323 0.039873 0.013249 0.017690
# 5 -0.010599 -0.004991 0.004855 0.013249 0.034514 0.005337
# 6 -0.014113 -0.009017 0.013331 0.017690 0.005337 0.061559
#
#
# Mechanical properties :
#
#
# Convention : Reuss Voigt Hill
#
# Bulk Modulus (GPa) = 24.07978 40.35944 32.21961
# Shear Modulus (GPa) = 19.53548 30.46992 25.00270
#
# Velocity S-wave (km/s) = 3.00739 3.75589 3.40228
# Velocity P-wave (km/s) = 4.81741 6.12325 5.50916
#
# Compressibility (1/GPa) = 0.04152861
#
# Stress axis : x y z
#
# Youngs Moduli (GPa) = 31.38301 48.86337 46.48418
#
# Poissons Ratio (x) = -0.48189 0.66515
# Poissons Ratio (y) = -0.30950 0.54431
# Poissons Ratio (z) = 0.44907 0.57217
#
# Static dielectric constant tensor:
#      x y z
#    x 1.783380 0.080000 0.059460 
#    y 0.080000 1.599750 -0.086710 
#    z 0.059460 -0.086710 1.751160 
# 
# From -- ./inp_files/445603.got.cif
#   From: 2010.05.17/outbox.cif.g08.bks.cpg/sg2_223_cif.got.tgz:445603.got - 2010.06.03 11:33:40.
