data_PCOD9047174
_publ_section_title
;
Structure prediction by ZEFSAII (Michael W. Deem and Ramdas Pophale) SiO2 
 PCOD9047174
Probable space group: P -1
;
_chemical_formula_sum "Si O2"
_cell_formula_units_Z 14
_cell_length_a 11.396230
_cell_length_b 19.535950
_cell_length_c 7.890917
_cell_angle_alpha 34.304885
_cell_angle_beta 60.369393
_cell_angle_gamma 38.766942
_cell_volume 561.456588
_symmetry_space_group_name_H-M "P -1"
_symmetry_group_IT_number 2
_symmetry_cell_setting 'triclinic'
loop_
_space_group_symop_operation_xyz
x,y,z
-x,-y,-z
loop_
_atom_site_type_symbol
_atom_site_label
_atom_site_fract_x
_atom_site_fract_y
_atom_site_fract_z
Si Si1 0.199462 0.331249 0.811489
Si Si2 0.354415 0.363777 0.144391
Si Si3 0.058817 0.950603 0.255196
Si Si4 0.037554 0.242623 0.367381
Si Si5 0.346430 0.660600 0.137012
Si Si6 0.413000 0.054531 0.643583
Si Si7 0.449450 0.370987 0.439835
O O1 0.335192 0.361413 0.679566
O O2 0.000000 0.500000 0.500000
O O3 0.106593 0.314501 0.064403
O O4 0.387160 0.120898 0.032288
O O5 0.329125 0.240188 0.383025
O O6 0.360214 0.390322 0.284470
O O7 0.173019 0.571400 0.774953
O O8 0.565879 0.264964 0.112894
O O9 0.004408 0.844881 0.541678
O O10 0.303016 0.804808 0.394687
O O11 0.897281 0.152777 0.043402
O O12 0.000000 0.000000 0.000000
O O13 0.218137 0.098761 0.669969
O O14 0.500000 0.500000 0.500000
O O15 0.389778 0.546812 0.177258
O O16 0.500000 0.000000 0.500000
#
# Coordination Sequence:
#
# PCOD9047174 Si02
#       7
#     2   2   2   2   2   2   2
#     4  11  24  46  72 106 154 195 246 310 376 451
#     4  12  25  47  75 113 149 198 256 321 381 443
#     4  12  25  50  78 112 149 202 258 313 378 458
#     4  11  23  47  77 107 150 198 255 310 375 452
#     4  12  26  45  78 107 150 201 254 311 378 455
#     4  10  24  43  73 103 145 195 254 302 370 448
#     4  12  27  47  75 111 159 189 254 312 387 445
#
# _framework density 24.935141999999999
#
# number of rings (size 3 to 8) (size 9 to 14) (size 15 to 20)
#    0.000    0.571    4.286    3.429    4.000    2.286 
#    5.143    0.000    0.000    0.000    0.000    0.000 
#    0.000    0.000    0.000    0.000    0.000    0.000 
#
# Total GULP energy -78243.071857 kJ/mol
# GULP energy per Si atom -5588.790847 kJ/mol
# Density = 2.487839 g / cm^3
# Si number density = 24.935142 Si / 1000 Ang^3
#
#
#
# Elastic Constant Matrix: (Units=GPa)
#
#
# Indices 1 2 3 4 5 6 
#
# 1 133.9033 49.6999 50.3587 -21.3416 9.0886 -17.4205
# 2 49.6999 106.8089 43.2246 -37.7733 15.1896 -22.8324
# 3 50.3587 43.2246 114.4019 -34.7506 8.7836 -9.1492
# 4 -21.3416 -37.7733 -34.7506 65.2282 -17.7139 -0.2420
# 5 9.0886 15.1896 8.7836 -17.7139 37.7746 -5.5630
# 6 -17.4205 -22.8324 -9.1492 -0.2420 -5.5630 56.9383
#
#
#
# Elastic Compliance Matrix: (Units=1/GPa)
#
#
# Indices 1 2 3 4 5 6 
#
# 1 0.009964 -0.003162 -0.003173 -0.000359 -0.000375 0.001232
# 2 -0.003162 0.015005 -0.001886 0.006349 -0.001171 0.004659
# 3 -0.003173 -0.001886 0.012213 0.004622 0.000900 0.000343
# 4 -0.000359 0.006349 0.004622 0.023570 0.008111 0.004071
# 5 -0.000375 -0.001171 0.000900 0.008111 0.031015 0.002625
# 6 0.001232 0.004659 0.000343 0.004071 0.002625 0.020137
#
#
# Mechanical properties :
#
#
# Convention : Reuss Voigt Hill
#
# Bulk Modulus (GPa) = 48.21922 71.29782 59.75852
# Shear Modulus (GPa) = 36.96605 46.11027 41.53816
#
# Velocity S-wave (km/s) = 3.85449 4.30491 4.08591
# Velocity P-wave (km/s) = 6.26013 7.30514 6.80273
#
# Compressibility (1/GPa) = 0.02073862
#
# Stress axis : x y z
#
# Youngs Moduli (GPa) = 100.36504 66.64315 81.88278
#
# Poissons Ratio (x) = 0.21076 0.25979
# Poissons Ratio (y) = 0.31740 0.15445
# Poissons Ratio (z) = 0.31843 0.12570
#
# Static dielectric constant tensor:
#      x y z
#    x 1.969640 -0.040160 -0.016650 
#    y -0.040160 2.074370 0.016390 
#    z -0.016650 0.016390 2.162350 
# 
# From -- ./inp_files/282619.got.cif
#   From: 2010.05.17/outbox.cif.g08.bks.cpg/sg2_142_cif.got.tgz:282619.got - 2010.06.03 11:33:40.
