data_PCOD9047051
_publ_section_title
;
Structure prediction by ZEFSAII (Michael W. Deem and Ramdas Pophale) SiO2 
 PCOD9047051
Probable space group: P -1
;
_chemical_formula_sum "Si O2"
_cell_formula_units_Z 16
_cell_length_a 16.182058
_cell_length_b 5.778948
_cell_length_c 22.061655
_cell_angle_alpha 96.741513
_cell_angle_beta 157.023562
_cell_angle_gamma 70.131286
_cell_volume 641.054630
_symmetry_space_group_name_H-M "P -1"
_symmetry_group_IT_number 2
_symmetry_cell_setting 'triclinic'
loop_
_space_group_symop_operation_xyz
x,y,z
-x,-y,-z
loop_
_atom_site_type_symbol
_atom_site_label
_atom_site_fract_x
_atom_site_fract_y
_atom_site_fract_z
Si Si1 0.638206 0.499520 0.918109
Si Si2 0.418971 0.228689 0.898548
Si Si3 0.473212 0.875104 0.626187
Si Si4 0.407848 0.003230 0.174986
Si Si5 0.249436 0.082409 0.295965
Si Si6 0.082519 0.874987 0.741362
Si Si7 0.160651 0.989438 0.666300
Si Si8 0.864210 0.254484 0.866733
O O1 0.583085 0.271164 0.850295
O O2 0.438103 0.664965 0.844131
O O3 0.549180 0.792062 0.829496
O O4 0.955710 0.319457 0.130936
O O5 0.237175 0.542213 0.815808
O O6 0.248397 0.202445 0.733015
O O7 0.714137 0.121253 0.078143
O O8 0.500000 0.000000 0.000000
O O9 0.683860 0.838635 0.720681
O O10 0.624419 0.549947 0.743305
O O11 0.413100 0.088825 0.647057
O O12 0.197540 0.988841 0.413703
O O13 0.110481 0.231509 0.006024
O O14 0.500000 0.000000 0.500000
O O15 0.252642 0.810171 0.270959
O O16 0.028413 0.033842 0.644170
O O17 0.000000 0.000000 0.500000
O O18 0.000000 0.000000 0.000000
#
# Coordination Sequence:
#
# PCOD9047051 Si02
#       8
#     2   2   2   2   2   2   2   2
#     4  11  26  45  70 104 147 188 232 300 364 421
#     4   9  22  46  67  93 137 182 238 289 357 422
#     4  12  23  41  72 101 137 181 245 286 349 435
#     4  11  23  43  71 104 141 186 237 292 359 423
#     4  11  26  43  65 103 141 184 231 292 359 427
#     4  10  24  43  71 101 133 190 235 297 351 427
#     4  11  25  43  71 102 140 179 239 298 364 424
#     4  11  22  43  70  98 141 183 235 286 356 420
#
# _framework density 24.958870999999998
#
# number of rings (size 3 to 8) (size 9 to 14) (size 15 to 20)
#    0.000    1.250    2.500    2.625    3.500    7.000 
#    2.250    0.000    0.000    0.000    0.000    0.000 
#    0.000    0.000    0.000    0.000    0.000    0.000 
#
# Total GULP energy -89321.890467 kJ/mol
# GULP energy per Si atom -5582.618154 kJ/mol
# Density = 2.490206 g / cm^3
# Si number density = 24.958871 Si / 1000 Ang^3
#
#
#
# Elastic Constant Matrix: (Units=GPa)
#
#
# Indices 1 2 3 4 5 6 
#
# 1 60.6974 8.0143 17.8000 -3.1164 4.6998 5.3829
# 2 8.0143 91.0824 48.7291 11.4967 -0.2438 -1.0575
# 3 17.8000 48.7291 125.8627 38.7979 15.5433 0.0802
# 4 -3.1164 11.4967 38.7979 40.8011 -11.0189 -2.6969
# 5 4.6998 -0.2438 15.5433 -11.0189 50.9265 -2.7104
# 6 5.3829 -1.0575 0.0802 -2.6969 -2.7104 32.8770
#
#
#
# Elastic Compliance Matrix: (Units=1/GPa)
#
#
# Indices 1 2 3 4 5 6 
#
# 1 0.018212 0.000019 -0.004404 0.005614 0.000748 -0.002448
# 2 0.000019 0.014294 -0.006987 0.003497 0.003010 0.001009
# 3 -0.004404 -0.006987 0.017949 -0.018009 -0.009096 -0.001775
# 4 0.005614 0.003497 -0.018009 0.045419 0.015046 0.004203
# 5 0.000748 0.003010 -0.009096 0.015046 0.025792 0.003357
# 6 -0.002448 0.001009 -0.001775 0.004203 0.003357 0.031476
#
#
# Mechanical properties :
#
#
# Convention : Reuss Voigt Hill
#
# Bulk Modulus (GPa) = 36.08830 47.41438 41.75134
# Shear Modulus (GPa) = 27.00918 38.46086 32.73502
#
# Velocity S-wave (km/s) = 3.29317 3.92978 3.62547
# Velocity P-wave (km/s) = 5.38056 6.29517 5.85575
#
# Compressibility (1/GPa) = 0.02770982
#
# Stress axis : x y z
#
# Youngs Moduli (GPa) = 54.90989 69.96042 55.71330
#
# Poissons Ratio (x) = -0.00131 0.24537
# Poissons Ratio (y) = -0.00103 0.38927
# Poissons Ratio (z) = 0.24183 0.48881
#
# Static dielectric constant tensor:
#      x y z
#    x 2.291380 0.013020 -0.159530 
#    y 0.013020 2.070880 0.092770 
#    z -0.159530 0.092770 2.027650 
# 
# From -- ./inp_files/612684.got.cif
#   From: 2010.05.17/outbox.cif.g08.bks.cpg/sg2_307_cif.got.tgz:612684.got - 2010.06.03 11:33:40.
