data_PCOD9047756
_publ_section_title
;
Structure prediction by ZEFSAII (Michael W. Deem and Ramdas Pophale) SiO2 
 PCOD9047756
Probable space group: P -1
;
_chemical_formula_sum "Si O2"
_cell_formula_units_Z 16
_cell_length_a 9.020143
_cell_length_b 11.472725
_cell_length_c 8.205157
_cell_angle_alpha 108.249668
_cell_angle_beta 102.180657
_cell_angle_gamma 105.611594
_cell_volume 735.074834
_symmetry_space_group_name_H-M "P -1"
_symmetry_group_IT_number 2
_symmetry_cell_setting 'triclinic'
loop_
_space_group_symop_operation_xyz
x,y,z
-x,-y,-z
loop_
_atom_site_type_symbol
_atom_site_label
_atom_site_fract_x
_atom_site_fract_y
_atom_site_fract_z
Si Si1 0.808243 0.706158 0.145921
Si Si2 0.190251 0.783792 0.309385
Si Si3 0.181896 0.181318 0.460842
Si Si4 0.594304 0.964439 0.663726
Si Si5 0.172041 0.512450 0.123646
Si Si6 0.988040 0.626311 0.647410
Si Si7 0.713148 0.140354 0.260988
Si Si8 0.901724 0.967358 0.129695
O O1 0.758153 0.762111 0.321531
O O2 0.996900 0.728338 0.229923
O O3 0.817237 0.812036 0.057386
O O4 0.734912 0.557468 0.999892
O O5 0.257989 0.666420 0.248082
O O6 0.224051 0.833639 0.524587
O O7 0.259556 0.894619 0.236158
O O8 0.329387 0.146194 0.403740
O O9 0.110078 0.287764 0.417843
O O10 0.030410 0.041902 0.336375
O O11 0.477805 0.915802 0.770121
O O12 0.500000 0.000000 0.500000
O O13 0.112104 0.429681 0.237549
O O14 0.000000 0.500000 0.000000
O O15 0.000000 0.500000 0.500000
O O16 0.176599 0.726073 0.747471
O O17 0.766266 0.030513 0.142887
O O18 0.000000 0.000000 0.000000
#
# Coordination Sequence:
#
# PCOD9047756 Si02
#       8
#     2   2   2   2   2   2   2   2
#     4  11  17  32  56  88 115 148 205 250 300 350
#     4  10  17  34  57  87 118 155 198 242 299 356
#     4  11  21  36  63  90 117 160 204 256 307 352
#     4  10  21  36  61  90 124 160 201 246 304 373
#     4  10  21  33  58  92 117 156 199 255 302 356
#     4  11  19  37  62  90 121 153 204 258 303 355
#     4  10  20  36  59  88 116 157 195 244 310 358
#     4  11  21  34  58  88 119 150 203 261 302 350
#
# _framework density 21.766490999999998
#
# number of rings (size 3 to 8) (size 9 to 14) (size 15 to 20)
#    0.000    1.500    5.000    4.125    0.000    0.000 
#    0.000    1.250    0.000    6.750    0.000    0.000 
#    0.000    0.000    0.000    0.000    0.000    0.000 
#
# Total GULP energy -89134.526949 kJ/mol
# GULP energy per Si atom -5570.907934 kJ/mol
# Density = 2.171695 g / cm^3
# Si number density = 21.766491 Si / 1000 Ang^3
#
#
#
# Elastic Constant Matrix: (Units=GPa)
#
#
# Indices 1 2 3 4 5 6 
#
# 1 96.2097 29.8931 36.7158 11.0026 -40.4468 -9.2074
# 2 29.8931 105.4007 32.2785 10.1993 -29.4830 -20.3016
# 3 36.7158 32.2785 78.3683 13.3228 -33.8141 -9.1026
# 4 11.0026 10.1993 13.3228 23.4793 -13.4334 -11.5512
# 5 -40.4468 -29.4830 -33.8141 -13.4334 41.8854 2.2750
# 6 -9.2074 -20.3016 -9.1026 -11.5512 2.2750 26.9172
#
#
#
# Elastic Compliance Matrix: (Units=1/GPa)
#
#
# Indices 1 2 3 4 5 6 
#
# 1 0.018803 0.001601 -0.000876 0.006809 0.020296 0.008549
# 2 0.001601 0.014787 -0.001028 0.007291 0.012734 0.013405
# 3 -0.000876 -0.001028 0.020475 -0.000125 0.014673 0.004555
# 4 0.006809 0.007291 -0.000125 0.073125 0.033082 0.036370
# 5 0.020296 0.012734 0.014673 0.033082 0.073290 0.029512
# 6 0.008549 0.013405 0.004555 0.036370 0.029512 0.064840
#
#
# Mechanical properties :
#
#
# Convention : Reuss Voigt Hill
#
# Bulk Modulus (GPa) = 18.70608 53.08374 35.89491
# Shear Modulus (GPa) = 17.62137 30.52913 24.07525
#
# Velocity S-wave (km/s) = 2.84837 3.74916 3.32937
# Velocity P-wave (km/s) = 4.40798 6.57133 5.59520
#
# Compressibility (1/GPa) = 0.05345854
#
# Stress axis : x y z
#
# Youngs Moduli (GPa) = 53.18336 67.62656 48.83894
#
# Poissons Ratio (x) = -0.10824 0.04276
# Poissons Ratio (y) = -0.08512 0.05022
# Poissons Ratio (z) = 0.04657 0.06954
#
# Static dielectric constant tensor:
#      x y z
#    x 1.837300 0.008990 0.052350 
#    y 0.008990 1.875230 0.031950 
#    z 0.052350 0.031950 1.896200 
# 
# From -- ./inp_files/181573.got.cif
#   From: 2010.05.17/outbox.cif.g08.bks.cpg/sg2_91_cif.got.tgz:181573.got - 2010.06.03 11:33:40.
