data_PCOD9047362
_publ_section_title
;
Structure prediction by ZEFSAII (Michael W. Deem and Ramdas Pophale) SiO2 
 PCOD9047362
Probable space group: P -1
;
_chemical_formula_sum "Si O2"
_cell_formula_units_Z 12
_cell_length_a 11.016458
_cell_length_b 12.347909
_cell_length_c 11.600738
_cell_angle_alpha 35.630118
_cell_angle_beta 40.144671
_cell_angle_gamma 36.442289
_cell_volume 517.450086
_symmetry_space_group_name_H-M "P -1"
_symmetry_group_IT_number 2
_symmetry_cell_setting 'triclinic'
loop_
_space_group_symop_operation_xyz
x,y,z
-x,-y,-z
loop_
_atom_site_type_symbol
_atom_site_label
_atom_site_fract_x
_atom_site_fract_y
_atom_site_fract_z
Si Si1 0.629535 0.251815 0.000446
Si Si2 0.293289 0.187051 0.715398
Si Si3 0.221886 0.451664 0.735456
Si Si4 0.220775 0.557612 0.896831
Si Si5 0.687733 0.110757 0.337877
Si Si6 0.069066 0.646270 0.451215
O O1 0.391505 0.373324 0.015208
O O2 0.369888 0.764059 0.849331
O O3 0.758012 0.360096 0.758899
O O4 0.750504 0.008183 0.078247
O O5 0.367641 0.240602 0.736958
O O6 0.480528 0.130474 0.536367
O O7 0.087263 0.413102 0.635393
O O8 0.298758 0.496194 0.761362
O O9 0.155005 0.636849 0.528361
O O10 0.008450 0.431695 0.933430
O O11 0.212956 0.775053 0.753372
O O12 0.850156 0.863093 0.410182
#
# Coordination Sequence:
#
# PCOD9047362 Si02
#       6
#     2   2   2   2   2   2
#     4  12  24  43  68 100 135 176 213 271 332 390
#     4  10  24  44  65  99 131 174 220 267 327 387
#     4   9  23  44  65 102 124 177 224 271 328 377
#     4  11  22  42  72  94 136 171 224 270 326 397
#     4  12  24  43  68 100 135 176 213 271 332 390
#     4  10  24  44  65  99 131 174 220 267 327 387
#
# _framework density 23.190642
#
# number of rings (size 3 to 8) (size 9 to 14) (size 15 to 20)
#    1.000    0.333    1.667    3.500    0.000    4.667 
#    0.000    0.000    0.000    0.000    0.000    0.000 
#    0.000    0.000    0.000    0.000    0.000    0.000 
#
# Total GULP energy -67100.582949 kJ/mol
# GULP energy per Si atom -5591.715246 kJ/mol
# Density = 2.313786 g / cm^3
# Si number density = 23.190642 Si / 1000 Ang^3
#
#
#
# Elastic Constant Matrix: (Units=GPa)
#
#
# Indices 1 2 3 4 5 6 
#
# 1 82.5046 19.2821 5.9806 3.3775 -5.1576 14.4483
# 2 19.2821 75.1475 5.1912 -8.4634 0.6488 12.4186
# 3 5.9806 5.1912 64.5751 -7.1255 -2.7851 5.8507
# 4 3.3775 -8.4634 -7.1255 48.7091 13.3036 8.8762
# 5 -5.1576 0.6488 -2.7851 13.3036 28.1586 0.0778
# 6 14.4483 12.4186 5.8507 8.8762 0.0778 28.7096
#
#
#
# Elastic Compliance Matrix: (Units=1/GPa)
#
#
# Indices 1 2 3 4 5 6 
#
# 1 0.014024 -0.002892 -0.000618 -0.001517 0.003305 -0.005221
# 2 -0.002892 0.015802 0.000052 0.005121 -0.003289 -0.006965
# 3 -0.000618 0.000052 0.016250 0.003154 0.000014 -0.003998
# 4 -0.001517 0.005121 0.003154 0.027469 -0.013032 -0.010552
# 5 0.003305 -0.003289 0.000014 -0.013032 0.042343 0.003671
# 6 -0.005221 -0.006965 -0.003998 -0.010552 0.003671 0.044539
#
#
# Mechanical properties :
#
#
# Convention : Reuss Voigt Hill
#
# Bulk Modulus (GPa) = 25.53725 31.45945 28.49835
# Shear Modulus (GPa) = 27.71676 33.90034 30.80855
#
# Velocity S-wave (km/s) = 3.46087 3.82751 3.64880
# Velocity P-wave (km/s) = 5.19673 5.75571 5.48334
#
# Compressibility (1/GPa) = 0.03915848
#
# Stress axis : x y z
#
# Youngs Moduli (GPa) = 71.30478 63.28373 61.53937
#
# Poissons Ratio (x) = 0.18304 0.03804
# Poissons Ratio (y) = 0.20624 -0.00319
# Poissons Ratio (z) = 0.04408 -0.00328
#
# Static dielectric constant tensor:
#      x y z
#    x 1.930450 0.037560 0.004850 
#    y 0.037560 1.888360 -0.002630 
#    z 0.004850 -0.002630 1.838480 
# 
# From -- ./inp_files/533141.got.cif
#   From: 2010.05.17/outbox.cif.g08.bks.cpg/sg2_267_cif.got.tgz:533141.got - 2010.06.03 11:33:40.
