data_PCOD9047956
_publ_section_title
;
Structure prediction by ZEFSAII (Michael W. Deem and Ramdas Pophale) SiO2 
 PCOD9047956
Probable space group: P -1
;
_chemical_formula_sum "Si O2"
_cell_formula_units_Z 16
_cell_length_a 19.533867
_cell_length_b 12.618192
_cell_length_c 9.344292
_cell_angle_alpha 143.674440
_cell_angle_beta 60.643755
_cell_angle_gamma 144.772183
_cell_volume 685.462322
_symmetry_space_group_name_H-M "P -1"
_symmetry_group_IT_number 2
_symmetry_cell_setting 'triclinic'
loop_
_space_group_symop_operation_xyz
x,y,z
-x,-y,-z
loop_
_atom_site_type_symbol
_atom_site_label
_atom_site_fract_x
_atom_site_fract_y
_atom_site_fract_z
Si Si1 0.386557 0.747186 0.726107
Si Si2 0.017538 0.682158 0.559584
Si Si3 0.436598 0.042978 0.699306
Si Si4 0.837268 0.549590 0.797371
Si Si5 0.287499 0.300596 0.817973
Si Si6 0.186476 0.677388 0.886222
Si Si7 0.982730 0.774155 0.192699
Si Si8 0.713794 0.772784 0.603040
O O1 0.247928 0.592441 0.738057
O O2 0.369574 0.503187 0.499413
O O3 0.420849 0.914554 0.728174
O O4 0.500000 0.000000 0.000000
O O5 0.961094 0.750350 0.777931
O O6 0.911079 0.475831 0.314436
O O7 0.000000 0.500000 0.500000
O O8 0.169303 0.958140 0.636288
O O9 0.500000 0.000000 0.500000
O O10 0.288587 0.803254 0.521182
O O11 0.553136 0.412111 0.987830
O O12 0.769603 0.616964 0.970939
O O13 0.899258 0.625131 0.970600
O O14 0.291679 0.296264 0.634605
O O15 0.094897 0.510907 0.938443
O O16 0.303620 0.046282 0.170615
O O17 0.000000 0.000000 0.500000
O O18 0.132230 0.978594 0.237576
#
# Coordination Sequence:
#
# PCOD9047956 Si02
#       8
#     2   2   2   2   2   2   2   2
#     4  12  25  48  74 103 141 195 249 293 362 437
#     4  12  26  44  70 108 150 185 237 305 366 427
#     4  10  24  44  72 101 142 186 238 297 357 435
#     4  11  23  43  73 100 141 189 238 296 363 427
#     4  11  23  45  69 105 138 191 242 294 358 433
#     4  12  26  44  72 108 147 186 245 306 357 433
#     4  12  22  42  74 107 140 190 243 297 364 425
#     4  12  25  43  75 108 142 185 246 305 358 427
#
# _framework density 23.341909000000001
#
# number of rings (size 3 to 8) (size 9 to 14) (size 15 to 20)
#    0.000    0.500    6.250    1.500    3.500    4.500 
#    0.000    0.625    2.750    0.000    0.000    0.000 
#    0.000    0.000    0.000    0.000    0.000    0.000 
#
# Total GULP energy -89259.277712 kJ/mol
# GULP energy per Si atom -5578.704857 kJ/mol
# Density = 2.328878 g / cm^3
# Si number density = 23.341909 Si / 1000 Ang^3
#
#
#
# Elastic Constant Matrix: (Units=GPa)
#
#
# Indices 1 2 3 4 5 6 
#
# 1 11.8952 -13.2240 57.3523 -4.5028 25.4814 20.1297
# 2 -13.2240 80.5341 52.9351 -1.3797 18.8717 14.8037
# 3 57.3523 52.9351 110.7739 3.7447 17.7534 -35.0177
# 4 -4.5028 -1.3797 3.7447 35.1216 -0.2600 2.4832
# 5 25.4814 18.8717 17.7534 -0.2600 54.0978 -7.0999
# 6 20.1297 14.8037 -35.0177 2.4832 -7.0999 -10.6417
#
#
#
# Elastic Compliance Matrix: (Units=1/GPa)
#
#
# Indices 1 2 3 4 5 6 
#
# 1 0.022546 -0.002883 0.001948 -0.000011 -0.005539 0.035920
# 2 -0.002883 0.010411 -0.000154 -0.000658 -0.000915 0.009994
# 3 0.001948 -0.000154 0.005245 0.000433 -0.004027 -0.011003
# 4 -0.000011 -0.000658 0.000433 0.028141 0.000717 0.003729
# 5 -0.005539 -0.000915 -0.004027 0.000717 0.021109 -0.012415
# 6 0.035920 0.009994 -0.011003 0.003729 -0.012415 0.033237
#
#
# Mechanical properties :
#
#
# Convention : Reuss Voigt Hill
#
# Bulk Modulus (GPa) = 27.75991 44.14777 35.95384
# Shear Modulus (GPa) = 37.07110 22.79154 29.93132
#
# Velocity S-wave (km/s) = 3.98952 3.12816 3.58481
# Velocity P-wave (km/s) = 5.75675 5.65701 5.70710
#
# Compressibility (1/GPa) = 0.03602317
#
# Stress axis : x y z
#
# Youngs Moduli (GPa) = 44.35353 96.05098 190.64759
#
# Poissons Ratio (x) = 0.27693 -0.37135
# Poissons Ratio (y) = 0.12788 0.02942
# Poissons Ratio (z) = -0.08639 0.01482
#
# Static dielectric constant tensor:
#      x y z
#    x 1.885220 0.054360 -0.083020 
#    y 0.054360 1.922030 0.006250 
#    z -0.083020 0.006250 2.027710 
# 
# From -- ./inp_files/346479.got.cif
#   From: 2010.05.17/outbox.cif.g08.bks.cpg/sg2_174_cif.got.tgz:346479.got - 2010.06.03 11:33:40.
