data_PCOD9047023
_publ_section_title
;
Structure prediction by ZEFSAII (Michael W. Deem and Ramdas Pophale) SiO2 
 PCOD9047023
Probable space group: P -1
;
_chemical_formula_sum "Si O2"
_cell_formula_units_Z 14
_cell_length_a 17.468717
_cell_length_b 8.966010
_cell_length_c 12.008768
_cell_angle_alpha 124.312015
_cell_angle_beta 26.873219
_cell_angle_gamma 135.151579
_cell_volume 585.485658
_symmetry_space_group_name_H-M "P -1"
_symmetry_group_IT_number 2
_symmetry_cell_setting 'triclinic'
loop_
_space_group_symop_operation_xyz
x,y,z
-x,-y,-z
loop_
_atom_site_type_symbol
_atom_site_label
_atom_site_fract_x
_atom_site_fract_y
_atom_site_fract_z
Si Si1 0.651323 0.921039 0.777701
Si Si2 0.303982 0.579132 0.719614
Si Si3 0.725570 0.820077 0.882032
Si Si4 0.384524 0.481372 0.814609
Si Si5 0.743944 0.458777 0.585534
Si Si6 0.956451 0.303616 0.393231
Si Si7 0.978573 0.253073 0.859023
O O1 0.721518 0.926003 0.814253
O O2 0.532080 0.675103 0.787822
O O3 0.824174 0.081373 0.536388
O O4 0.500000 0.000000 0.000000
O O5 0.355629 0.585225 0.784438
O O6 0.504294 0.635416 0.417195
O O7 0.121234 0.335605 0.817118
O O8 0.207371 0.715289 0.874738
O O9 0.776098 0.644615 0.708425
O O10 0.499245 0.694009 0.173564
O O11 0.881550 0.014487 0.839365
O O12 0.164818 0.343061 0.095539
O O13 0.828474 0.322546 0.468536
O O14 0.871428 0.581375 0.362150
O O15 0.000000 0.500000 0.500000
#
# Coordination Sequence:
#
# PCOD9047023 Si02
#       7
#     2   2   2   2   2   2   2
#     4  12  22  40  71 103 134 178 222 281 355 401
#     4  10  24  43  70  93 135 195 229 275 326 410
#     4  11  24  42  69 105 143 171 222 290 354 406
#     4  11  23  46  65  98 143 176 231 281 335 408
#     4  11  23  40  67 106 136 174 224 287 348 413
#     4  12  23  39  69 103 138 172 221 282 350 404
#     4  11  22  45  68  96 135 186 231 277 344 395
#
# _framework density 23.911774000000001
#
# number of rings (size 3 to 8) (size 9 to 14) (size 15 to 20)
#    0.000    0.857    4.286    3.000    0.000    2.286 
#    0.000    8.571    0.000    0.000    0.000    0.000 
#    0.000    0.000    0.000    0.000    0.000    0.000 
#
# Total GULP energy -78507.000091 kJ/mol
# GULP energy per Si atom -5607.642864 kJ/mol
# Density = 2.385735 g / cm^3
# Si number density = 23.911774 Si / 1000 Ang^3
#
#
#
# Elastic Constant Matrix: (Units=GPa)
#
#
# Indices 1 2 3 4 5 6 
#
# 1 79.8888 29.4047 18.7553 6.3969 -18.2517 -1.0470
# 2 29.4047 81.4598 36.4148 -15.3526 -3.3486 -5.4969
# 3 18.7553 36.4148 197.8256 -7.3233 -19.0680 -27.5253
# 4 6.3969 -15.3526 -7.3233 36.9454 -6.6179 2.5735
# 5 -18.2517 -3.3486 -19.0680 -6.6179 36.0017 7.1232
# 6 -1.0470 -5.4969 -27.5253 2.5735 7.1232 36.2866
#
#
#
# Elastic Compliance Matrix: (Units=1/GPa)
#
#
# Indices 1 2 3 4 5 6 
#
# 1 0.017061 -0.006754 -0.000048 -0.004296 0.007551 -0.001745
# 2 -0.006754 0.017127 -0.002347 0.007470 -0.001788 0.000441
# 3 -0.000048 -0.002347 0.006282 0.000434 0.002391 0.003908
# 4 -0.004296 0.007470 0.000434 0.032033 0.005015 -0.001919
# 5 0.007551 -0.001788 0.002391 0.005015 0.034696 -0.005406
# 6 -0.001745 0.000441 0.003908 -0.001919 -0.005406 0.031737
#
#
# Mechanical properties :
#
#
# Convention : Reuss Voigt Hill
#
# Bulk Modulus (GPa) = 45.10217 58.70265 51.90241
# Shear Modulus (GPa) = 30.37211 40.15339 35.26275
#
# Velocity S-wave (km/s) = 3.56782 4.10229 3.84435
# Velocity P-wave (km/s) = 5.98960 6.85867 6.43881
#
# Compressibility (1/GPa) = 0.02217188
#
# Stress axis : x y z
#
# Youngs Moduli (GPa) = 58.61339 58.38641 159.18917
#
# Poissons Ratio (x) = 0.39434 0.00769
# Poissons Ratio (y) = 0.39587 0.37359
# Poissons Ratio (z) = 0.00283 0.13702
#
# Static dielectric constant tensor:
#      x y z
#    x 1.774460 -0.012790 0.074120 
#    y -0.012790 1.878070 0.024290 
#    z 0.074120 0.024290 1.868640 
# 
# From -- ./inp_files/462415.got.cif
#   From: 2010.05.17/outbox.cif.g08.bks.cpg/sg2_232_cif.got.tgz:462415.got - 2010.06.03 11:33:40.
