data_PCOD9047137
_publ_section_title
;
Structure prediction by ZEFSAII (Michael W. Deem and Ramdas Pophale) SiO2 
 PCOD9047137
Probable space group: P -1
;
_chemical_formula_sum "Si O2"
_cell_formula_units_Z 16
_cell_length_a 14.509251
_cell_length_b 8.179825
_cell_length_c 15.953116
_cell_angle_alpha 140.678013
_cell_angle_beta 45.099747
_cell_angle_gamma 147.805983
_cell_volume 631.831450
_symmetry_space_group_name_H-M "P -1"
_symmetry_group_IT_number 2
_symmetry_cell_setting 'triclinic'
loop_
_space_group_symop_operation_xyz
x,y,z
-x,-y,-z
loop_
_atom_site_type_symbol
_atom_site_label
_atom_site_fract_x
_atom_site_fract_y
_atom_site_fract_z
Si Si1 0.324842 0.099914 0.963486
Si Si2 0.546943 0.018337 0.880908
Si Si3 0.199246 0.204141 0.939806
Si Si4 0.806122 0.030671 0.322265
Si Si5 0.823300 0.499766 0.365697
Si Si6 0.440963 0.149526 0.438911
Si Si7 0.181570 0.358444 0.271366
Si Si8 0.805166 0.894756 0.667036
O O1 0.214104 0.133408 0.111082
O O2 0.500000 0.500000 0.000000
O O3 0.384270 0.901803 0.882665
O O4 0.236703 0.998444 0.888884
O O5 0.645219 0.879858 0.755548
O O6 0.698979 0.432076 0.936510
O O7 0.500000 0.000000 0.000000
O O8 0.245637 0.235874 0.824941
O O9 0.000000 0.000000 0.000000
O O10 0.855065 0.340217 0.356865
O O11 0.979575 0.167700 0.313382
O O12 0.654783 0.900003 0.432416
O O13 0.619247 0.224693 0.362338
O O14 0.822261 0.780743 0.521893
O O15 0.001823 0.733034 0.289105
O O16 0.500000 0.500000 0.500000
O O17 0.303006 0.767301 0.331712
O O18 0.230991 0.352261 0.332522
#
# Coordination Sequence:
#
# PCOD9047137 Si02
#       8
#     2   2   2   2   2   2   2   2
#     4  10  24  43  72 107 146 199 247 301 370 441
#     4  11  24  44  75 109 148 199 248 312 368 443
#     4  11  24  47  72 109 148 200 249 300 378 448
#     4  12  26  48  78 108 154 200 248 315 382 452
#     4  11  27  45  74 109 151 196 244 312 378 453
#     4  12  29  47  75 115 145 197 259 317 382 452
#     4  12  25  49  77 105 154 197 249 315 385 445
#     4  11  25  47  75 109 154 196 250 304 383 453
#
# _framework density 25.32321
#
# number of rings (size 3 to 8) (size 9 to 14) (size 15 to 20)
#    0.000    0.750    3.750    2.250   10.500    0.000 
#    0.000    3.750    0.000    0.000    0.000    0.000 
#    0.000    0.000    0.000    0.000    0.000    0.000 
#
# Total GULP energy -89490.214836 kJ/mol
# GULP energy per Si atom -5593.138427 kJ/mol
# Density = 2.526557 g / cm^3
# Si number density = 25.323210 Si / 1000 Ang^3
#
#
#
# Elastic Constant Matrix: (Units=GPa)
#
#
# Indices 1 2 3 4 5 6 
#
# 1 174.4180 35.1100 45.6376 -15.7286 -34.2512 6.4156
# 2 35.1100 97.4962 26.2180 -6.6934 -12.5159 1.8705
# 3 45.6376 26.2180 124.1051 -24.3266 -18.5130 10.4546
# 4 -15.7286 -6.6934 -24.3266 43.4409 6.1114 -1.0033
# 5 -34.2512 -12.5159 -18.5130 6.1114 51.5155 -3.0884
# 6 6.4156 1.8705 10.4546 -1.0033 -3.0884 44.0881
#
#
#
# Elastic Compliance Matrix: (Units=1/GPa)
#
#
# Indices 1 2 3 4 5 6 
#
# 1 0.007315 -0.001658 -0.001557 0.000984 0.003764 -0.000339
# 2 -0.001658 0.011438 -0.001645 0.000093 0.001088 0.000224
# 3 -0.001557 -0.001645 0.010295 0.004679 0.001594 -0.001927
# 4 0.000984 0.000093 0.004679 0.026104 -0.000781 -0.000717
# 5 0.003764 0.001088 0.001594 -0.000781 0.022881 0.000613
# 6 -0.000339 0.000224 -0.001927 -0.000717 0.000613 0.023205
#
#
# Mechanical properties :
#
#
# Convention : Reuss Voigt Hill
#
# Bulk Modulus (GPa) = 51.73865 67.77228 59.75547
# Shear Modulus (GPa) = 42.58921 47.07917 44.83419
#
# Velocity S-wave (km/s) = 4.10546 4.31644 4.21227
# Velocity P-wave (km/s) = 6.55352 7.18771 6.87793
#
# Compressibility (1/GPa) = 0.01932791
#
# Stress axis : x y z
#
# Youngs Moduli (GPa) = 136.70838 87.42747 97.13455
#
# Poissons Ratio (x) = 0.14498 0.15121
# Poissons Ratio (y) = 0.22671 0.15978
# Poissons Ratio (z) = 0.21281 0.14382
#
# Static dielectric constant tensor:
#      x y z
#    x 2.029440 0.005200 -0.018490 
#    y 0.005200 2.045360 0.098800 
#    z -0.018490 0.098800 1.966850 
# 
# From -- ./inp_files/572936.got.cif
#   From: 2010.05.17/outbox.cif.g08.bks.cpg/sg2_287_cif.got.tgz:572936.got - 2010.06.03 11:33:40.
