data_PCOD9047813
_publ_section_title
;
Structure prediction by ZEFSAII (Michael W. Deem and Ramdas Pophale) SiO2 
 PCOD9047813
Probable space group: P -1
;
_chemical_formula_sum "Si O2"
_cell_formula_units_Z 16
_cell_length_a 12.530773
_cell_length_b 10.656845
_cell_length_c 11.602789
_cell_angle_alpha 140.432582
_cell_angle_beta 65.081835
_cell_angle_gamma 84.990381
_cell_volume 627.254987
_symmetry_space_group_name_H-M "P -1"
_symmetry_group_IT_number 2
_symmetry_cell_setting 'triclinic'
loop_
_space_group_symop_operation_xyz
x,y,z
-x,-y,-z
loop_
_atom_site_type_symbol
_atom_site_label
_atom_site_fract_x
_atom_site_fract_y
_atom_site_fract_z
Si Si1 0.166520 0.823245 0.375088
Si Si2 0.951403 0.719241 0.885797
Si Si3 0.710372 0.363970 0.455782
Si Si4 0.549876 0.546855 0.204011
Si Si5 0.849745 0.502199 0.661063
Si Si6 0.750544 0.571733 0.292716
Si Si7 0.508519 0.090944 0.184064
Si Si8 0.769309 0.858184 0.294874
O O1 0.173177 0.628694 0.319347
O O2 0.161288 0.023644 0.597567
O O3 0.327878 0.654469 0.098644
O O4 0.000000 0.000000 0.500000
O O5 0.827932 0.044573 0.137289
O O6 0.852613 0.729394 0.042645
O O7 0.996652 0.481669 0.612865
O O8 0.107325 0.628133 0.818505
O O9 0.582484 0.448290 0.676344
O O10 0.830612 0.389264 0.475391
O O11 0.585916 0.592434 0.575739
O O12 0.668037 0.480821 0.206984
O O13 0.428074 0.866875 0.442074
O O14 0.695951 0.840317 0.962557
O O15 0.606500 0.864690 0.633394
O O16 0.806784 0.637847 0.207803
O O17 0.500000 0.000000 0.000000
#
# Coordination Sequence:
#
# PCOD9047813 Si02
#       8
#     2   2   2   2   2   2   2   2
#     4  12  23  38  65 100 137 171 209 270 336 397
#     4  11  23  42  68  98 139 168 209 278 334 399
#     4  10  24  46  66  95 128 175 229 268 325 378
#     4  11  23  38  66  95 130 174 219 269 324 398
#     4  11  22  44  68  92 135 173 217 270 328 383
#     4  12  24  40  65 101 131 172 222 268 337 383
#     4  10  24  44  70  92 127 177 228 278 309 388
#     4  11  22  40  63  96 137 170 216 266 326 402
#
# _framework density 25.507964999999999
#
# number of rings (size 3 to 8) (size 9 to 14) (size 15 to 20)
#    0.000    1.000    2.500    5.625    3.500    2.500 
#    0.000    2.500    0.000    0.000    0.000    0.000 
#    0.000    0.000    0.000    0.000    0.000    0.000 
#
# Total GULP energy -89541.205099 kJ/mol
# GULP energy per Si atom -5596.325319 kJ/mol
# Density = 2.544991 g / cm^3
# Si number density = 25.507965 Si / 1000 Ang^3
#
#
#
# Elastic Constant Matrix: (Units=GPa)
#
#
# Indices 1 2 3 4 5 6 
#
# 1 156.5607 29.9792 8.3530 5.8940 27.0988 1.2109
# 2 29.9792 118.4295 6.6911 8.9148 4.1547 -10.2359
# 3 8.3530 6.6911 63.7787 -6.5417 7.5483 0.4560
# 4 5.8940 8.9148 -6.5417 43.4008 -10.0252 -3.2770
# 5 27.0988 4.1547 7.5483 -10.0252 38.7685 -3.6309
# 6 1.2109 -10.2359 0.4560 -3.2770 -3.6309 41.8668
#
#
#
# Elastic Compliance Matrix: (Units=1/GPa)
#
#
# Indices 1 2 3 4 5 6 
#
# 1 0.007857 -0.001706 -0.000368 -0.002245 -0.005943 -0.001331
# 2 -0.001706 0.009234 -0.000947 -0.001599 0.000180 0.002208
# 3 -0.000368 -0.000947 0.016322 0.002139 -0.002307 -0.000431
# 4 -0.002245 -0.001599 0.002139 0.026096 0.008299 0.002413
# 5 -0.005943 0.000180 -0.002307 0.008299 0.032874 0.003742
# 6 -0.001331 0.002208 -0.000431 0.002413 0.003742 0.024982
#
#
# Mechanical properties :
#
#
# Convention : Reuss Voigt Hill
#
# Bulk Modulus (GPa) = 36.53145 47.64618 42.08882
# Shear Modulus (GPa) = 37.72752 44.39024 41.05888
#
# Velocity S-wave (km/s) = 3.85001 4.17616 4.01640
# Velocity P-wave (km/s) = 5.84090 6.47867 6.16804
#
# Compressibility (1/GPa) = 0.02737367
#
# Stress axis : x y z
#
# Youngs Moduli (GPa) = 127.27489 108.29547 61.26641
#
# Poissons Ratio (x) = 0.18472 0.02252
# Poissons Ratio (y) = 0.21710 0.05799
# Poissons Ratio (z) = 0.04677 0.10250
#
# Static dielectric constant tensor:
#      x y z
#    x 2.061990 0.014340 -0.056950 
#    y 0.014340 2.021430 -0.042430 
#    z -0.056950 -0.042430 2.018150 
# 
# From -- ./inp_files/429056.got.cif
#   From: 2010.05.17/outbox.cif.g08.bks.cpg/sg2_215_cif.got.tgz:429056.got - 2010.06.03 11:33:40.
