data_PCOD9047857
_publ_section_title
;
Structure prediction by ZEFSAII (Michael W. Deem and Ramdas Pophale) SiO2 
 PCOD9047857
Probable space group: P -1
;
_chemical_formula_sum "Si O2"
_cell_formula_units_Z 15
_cell_length_a 15.243028
_cell_length_b 10.791682
_cell_length_c 9.407384
_cell_angle_alpha 100.780717
_cell_angle_beta 106.181475
_cell_angle_gamma 142.575356
_cell_volume 645.280143
_symmetry_space_group_name_H-M "P -1"
_symmetry_group_IT_number 2
_symmetry_cell_setting 'triclinic'
loop_
_space_group_symop_operation_xyz
x,y,z
-x,-y,-z
loop_
_atom_site_type_symbol
_atom_site_label
_atom_site_fract_x
_atom_site_fract_y
_atom_site_fract_z
Si Si1 0.573021 0.132181 0.407986
Si Si2 0.500000 0.500000 0.000000
Si Si3 0.899222 0.019071 0.779476
Si Si4 0.826615 0.704218 0.277188
Si Si5 0.533353 0.905766 0.917887
Si Si6 0.824662 0.648714 0.766466
Si Si7 0.779713 0.161668 0.343964
Si Si8 0.574265 0.714843 0.359354
O O1 0.412650 0.002771 0.202159
O O2 0.761046 0.459048 0.593077
O O3 0.644200 0.098017 0.349086
O O4 0.500000 0.000000 0.500000
O O5 0.321335 0.384660 0.893609
O O6 0.490833 0.482038 0.811926
O O7 0.882283 0.846507 0.750552
O O8 0.689687 0.817515 0.578512
O O9 0.064886 0.249513 0.780668
O O10 0.995599 0.174149 0.007785
O O11 0.681198 0.435721 0.248203
O O12 0.000000 0.000000 0.500000
O O13 0.500000 0.000000 0.000000
O O14 0.691233 0.028081 0.117589
O O15 0.621016 0.440322 0.719922
O O16 0.000000 0.500000 0.500000
O O17 0.737095 0.986456 0.383559
#
# Coordination Sequence:
#
# PCOD9047857 Si02
#       8
#     2   1   2   2   2   2   2   2
#     4  11  24  45  73  95 138 188 231 290 358 422
#     4  12  24  38  70  98 138 178 234 294 352 418
#     4  11  25  40  70  97 137 185 230 291 353 428
#     4  12  23  43  70 104 136 183 238 291 355 418
#     4  10  24  44  71 100 140 187 234 291 359 424
#     4  11  24  47  64 100 142 182 234 288 365 422
#     4  11  25  46  70 107 139 183 243 295 349 429
#     4  12  24  44  68  99 143 180 236 299 352 421
#
# _framework density 23.245718
#
# number of rings (size 3 to 8) (size 9 to 14) (size 15 to 20)
#    0.000    0.800    5.333    1.200    5.600    1.067 
#    2.400    1.333    0.000    0.000    0.000    0.000 
#    0.000    0.000    0.000    0.000    0.000    0.000 
#
# Total GULP energy -83559.018493 kJ/mol
# GULP energy per Si atom -5570.601233 kJ/mol
# Density = 2.319281 g / cm^3
# Si number density = 23.245718 Si / 1000 Ang^3
#
#
#
# Elastic Constant Matrix: (Units=GPa)
#
#
# Indices 1 2 3 4 5 6 
#
# 1 30.7288 -9.3899 14.1679 -6.5989 3.3499 -2.1544
# 2 -9.3899 120.5077 49.5021 -16.0472 10.8862 -4.8874
# 3 14.1679 49.5021 163.3352 -36.1421 7.6370 -19.5004
# 4 -6.5989 -16.0472 -36.1421 41.8036 -4.0280 -0.5488
# 5 3.3499 10.8862 7.6370 -4.0280 32.0551 4.8094
# 6 -2.1544 -4.8874 -19.5004 -0.5488 4.8094 26.4353
#
#
#
# Elastic Compliance Matrix: (Units=1/GPa)
#
#
# Indices 1 2 3 4 5 6 
#
# 1 0.037451 0.005446 -0.003330 0.004698 -0.004765 0.002567
# 2 0.005446 0.010544 -0.002959 0.002041 -0.003317 0.000856
# 3 -0.003330 -0.002959 0.009617 0.006634 -0.001097 0.006613
# 4 0.004698 0.002041 0.006634 0.031286 0.000227 0.006262
# 5 -0.004765 -0.003317 -0.001097 0.000227 0.034318 -0.008049
# 6 0.002567 0.000856 0.006613 0.006262 -0.008049 0.044668
#
#
# Mechanical properties :
#
#
# Convention : Reuss Voigt Hill
#
# Bulk Modulus (GPa) = 17.88104 47.01464 32.44784
# Shear Modulus (GPa) = 26.56570 37.41155 31.98862
#
# Velocity S-wave (km/s) = 3.38423 4.01608 3.71362
# Velocity P-wave (km/s) = 4.79370 6.46329 5.69007
#
# Compressibility (1/GPa) = 0.05592516
#
# Stress axis : x y z
#
# Youngs Moduli (GPa) = 26.70170 94.83788 103.98476
#
# Poissons Ratio (x) = -0.51652 0.34632
# Poissons Ratio (y) = -0.14543 0.30772
# Poissons Ratio (z) = 0.08893 0.28065
#
# Static dielectric constant tensor:
#      x y z
#    x 1.919670 0.005990 0.013570 
#    y 0.005990 1.957990 0.027130 
#    z 0.013570 0.027130 1.927720 
# 
# From -- ./inp_files/332094.got.cif
#   From: 2010.05.17/outbox.cif.g08.bks.cpg/sg2_167_cif.got.tgz:332094.got - 2010.06.03 11:33:40.
