data_PCOD9047314
_publ_section_title
;
Structure prediction by ZEFSAII (Michael W. Deem and Ramdas Pophale) SiO2 
 PCOD9047314
Probable space group: P -1
;
_chemical_formula_sum "Si O2"
_cell_formula_units_Z 14
_cell_length_a 13.429979
_cell_length_b 14.211500
_cell_length_c 8.519548
_cell_angle_alpha 84.027016
_cell_angle_beta 105.566593
_cell_angle_gamma 33.767170
_cell_volume 689.223310
_symmetry_space_group_name_H-M "P -1"
_symmetry_group_IT_number 2
_symmetry_cell_setting 'triclinic'
loop_
_space_group_symop_operation_xyz
x,y,z
-x,-y,-z
loop_
_atom_site_type_symbol
_atom_site_label
_atom_site_fract_x
_atom_site_fract_y
_atom_site_fract_z
Si Si1 0.811942 0.787797 0.856004
Si Si2 0.046136 0.463057 0.771922
Si Si3 0.446095 0.392725 0.839491
Si Si4 0.618813 0.363213 0.416077
Si Si5 0.778734 0.412473 0.974333
Si Si6 0.648475 0.714747 0.358873
Si Si7 0.938093 0.070111 0.143438
O O1 0.888967 0.676197 0.743820
O O2 0.022534 0.687380 0.001229
O O3 0.569173 0.043321 0.717270
O O4 0.816693 0.700559 0.001262
O O5 0.856412 0.547627 0.601724
O O6 0.227468 0.344692 0.734602
O O7 0.361169 0.563130 0.704110
O O8 0.301827 0.477630 0.914092
O O9 0.438153 0.319037 0.716522
O O10 0.703955 0.202611 0.046156
O O11 0.500000 0.500000 0.500000
O O12 0.444323 0.429967 0.254173
O O13 0.863590 0.120897 0.617727
O O14 0.885350 0.223871 0.099259
O O15 0.000000 0.000000 0.000000
#
# Coordination Sequence:
#
# PCOD9047314 Si02
#       7
#     2   2   2   2   2   2   2
#     4  11  23  42  68  92 126 166 207 259 318 370
#     4  10  24  44  64  96 124 160 214 264 310 372
#     4  11  24  40  61  93 129 162 207 260 309 371
#     4  11  23  39  62  91 124 165 211 252 303 376
#     4  11  24  40  61  93 129 162 207 260 309 371
#     4  11  23  42  68  92 126 166 207 259 318 370
#     4  11  21  39  62  89 122 163 207 250 308 366
#
# _framework density 20.312719000000001
#
# number of rings (size 3 to 8) (size 9 to 14) (size 15 to 20)
#    0.000    1.143    4.286    3.429    2.000    2.286 
#    0.000    0.000    0.000    0.000    0.000    0.000 
#    0.000    0.000    0.000    0.000    0.000    0.000 
#
# Total GULP energy -78202.652339 kJ/mol
# GULP energy per Si atom -5585.903738 kJ/mol
# Density = 2.026649 g / cm^3
# Si number density = 20.312719 Si / 1000 Ang^3
#
#
#
# Elastic Constant Matrix: (Units=GPa)
#
#
# Indices 1 2 3 4 5 6 
#
# 1 48.3063 7.1695 17.8606 -8.2309 17.8075 -7.9603
# 2 7.1695 77.2960 7.4283 -2.0818 2.1844 -3.3572
# 3 17.8606 7.4283 103.4105 -20.5318 6.1843 5.3401
# 4 -8.2309 -2.0818 -20.5318 35.7032 1.6740 -0.2668
# 5 17.8075 2.1844 6.1843 1.6740 23.0450 12.8019
# 6 -7.9603 -3.3572 5.3401 -0.2668 12.8019 35.2849
#
#
#
# Elastic Compliance Matrix: (Units=1/GPa)
#
#
# Indices 1 2 3 4 5 6 
#
# 1 0.051353 -0.000916 -0.004678 0.012047 -0.057669 0.033220
# 2 -0.000916 0.013206 -0.000761 0.000192 -0.001254 0.001621
# 3 -0.004678 -0.000761 0.011675 0.005461 0.002183 -0.003645
# 4 0.012047 0.000192 0.005461 0.034857 -0.018200 0.008776
# 5 -0.057669 -0.001254 0.002183 -0.018200 0.120689 -0.057385
# 6 0.033220 0.001621 -0.003645 0.008776 -0.057385 0.057428
#
#
# Mechanical properties :
#
#
# Convention : Reuss Voigt Hill
#
# Bulk Modulus (GPa) = 15.74245 32.65886 24.20065
# Shear Modulus (GPa) = 15.47539 31.91027 23.69283
#
# Velocity S-wave (km/s) = 2.76317 3.96782 3.41897
# Velocity P-wave (km/s) = 4.23639 6.09134 5.24650
#
# Compressibility (1/GPa) = 0.06352252
#
# Stress axis : x y z
#
# Youngs Moduli (GPa) = 19.47310 75.72058 85.65335
#
# Poissons Ratio (x) = 0.06940 0.40072
# Poissons Ratio (y) = 0.01785 0.06518
# Poissons Ratio (z) = 0.09110 0.05762
#
# Static dielectric constant tensor:
#      x y z
#    x 1.720980 -0.027940 0.009600 
#    y -0.027940 1.780280 0.017060 
#    z 0.009600 0.017060 1.708720 
# 
# From -- ./inp_files/176952.got.cif
#   From: 2010.05.17/outbox.cif.g08.bks.cpg/sg2_89_cif.got.tgz:176952.got - 2010.06.03 11:33:40.
