data_PCOD9047912
_publ_section_title
;
Structure prediction by ZEFSAII (Michael W. Deem and Ramdas Pophale) SiO2 
 PCOD9047912
Probable space group: P -1
;
_chemical_formula_sum "Si O2"
_cell_formula_units_Z 14
_cell_length_a 12.459063
_cell_length_b 7.648204
_cell_length_c 9.732090
_cell_angle_alpha 97.942871
_cell_angle_beta 37.362984
_cell_angle_gamma 99.239744
_cell_volume 555.394876
_symmetry_space_group_name_H-M "P -1"
_symmetry_group_IT_number 2
_symmetry_cell_setting 'triclinic'
loop_
_space_group_symop_operation_xyz
x,y,z
-x,-y,-z
loop_
_atom_site_type_symbol
_atom_site_label
_atom_site_fract_x
_atom_site_fract_y
_atom_site_fract_z
Si Si1 0.357693 0.270144 0.794646
Si Si2 0.913809 0.448887 0.895153
Si Si3 0.768740 0.390800 0.744399
Si Si4 0.730447 0.369965 0.349312
Si Si5 0.372340 0.245179 0.097879
Si Si6 0.181618 0.013830 0.732222
Si Si7 0.851452 0.029206 0.542210
O O1 0.529142 0.403745 0.595457
O O2 0.324565 0.135980 0.687327
O O3 0.175218 0.364463 0.993941
O O4 0.380687 0.205365 0.920895
O O5 0.870591 0.375514 0.781780
O O6 0.119667 0.486561 0.728032
O O7 0.797491 0.349330 0.122298
O O8 0.761150 0.596608 0.733197
O O9 0.841869 0.240669 0.558754
O O10 0.562070 0.327980 0.965006
O O11 0.742816 0.175853 0.375837
O O12 0.316615 0.073471 0.224589
O O13 0.132888 0.061081 0.631329
O O14 0.000000 0.000000 0.000000
O O15 0.000000 0.000000 0.500000
#
# Coordination Sequence:
#
# PCOD9047912 Si02
#       7
#     2   2   2   2   2   2   2
#     4  11  23  46  75 104 143 187 242 295 361 432
#     4  10  24  44  71 107 145 188 236 307 346 444
#     4  10  24  47  73 104 147 185 242 300 362 429
#     4  11  24  42  71 107 144 189 240 291 368 420
#     4  10  24  50  74 105 145 189 243 304 358 437
#     4  12  26  47  70 102 146 186 241 299 358 431
#     4  12  28  45  74 109 142 195 238 299 370 436
#
# _framework density 25.207291999999999
#
# number of rings (size 3 to 8) (size 9 to 14) (size 15 to 20)
#    0.000    1.143    1.429    3.000    8.000    0.571 
#   12.857    0.000    0.000    0.000    0.000    0.000 
#    0.000    0.000    0.000    0.000    0.000    0.000 
#
# Total GULP energy -78332.927956 kJ/mol
# GULP energy per Si atom -5595.209140 kJ/mol
# Density = 2.514992 g / cm^3
# Si number density = 25.207292 Si / 1000 Ang^3
#
#
#
# Elastic Constant Matrix: (Units=GPa)
#
#
# Indices 1 2 3 4 5 6 
#
# 1 129.5499 31.9269 78.5634 -4.0513 19.7038 32.1712
# 2 31.9269 65.9603 23.1761 18.3253 9.5256 14.3221
# 3 78.5634 23.1761 126.6915 -9.6268 12.4655 22.3740
# 4 -4.0513 18.3253 -9.6268 32.0948 9.1047 -2.0616
# 5 19.7038 9.5256 12.4655 9.1047 51.7351 1.1651
# 6 32.1712 14.3221 22.3740 -2.0616 1.1651 34.4548
#
#
#
# Elastic Compliance Matrix: (Units=1/GPa)
#
#
# Indices 1 2 3 4 5 6 
#
# 1 0.015479 -0.003339 -0.006975 0.002322 -0.003822 -0.008267
# 2 -0.003339 0.022824 -0.002215 -0.014576 0.000299 -0.005813
# 3 -0.006975 -0.002215 0.013206 0.004546 -0.000899 -0.000839
# 4 0.002322 -0.014576 0.004546 0.043369 -0.007013 0.003771
# 5 -0.003822 0.000299 -0.000899 -0.007013 0.022116 0.002861
# 6 -0.008267 -0.005813 -0.000839 0.003771 0.002861 0.039833
#
#
# Mechanical properties :
#
#
# Convention : Reuss Voigt Hill
#
# Bulk Modulus (GPa) = 37.80759 65.50383 51.65571
# Shear Modulus (GPa) = 26.21878 36.22594 31.22236
#
# Velocity S-wave (km/s) = 3.22860 3.79505 3.52323
# Velocity P-wave (km/s) = 5.37863 6.72649 6.08997
#
# Compressibility (1/GPa) = 0.02644972
#
# Stress axis : x y z
#
# Youngs Moduli (GPa) = 64.60326 43.81393 75.72274
#
# Poissons Ratio (x) = 0.14631 0.52820
# Poissons Ratio (y) = 0.21574 0.16771
# Poissons Ratio (z) = 0.45064 0.09704
#
# Static dielectric constant tensor:
#      x y z
#    x 2.032840 -0.005150 -0.022460 
#    y -0.005150 2.041340 0.022270 
#    z -0.022460 0.022270 2.018470 
# 
# From -- ./inp_files/244323.got.cif
#   From: 2010.05.17/outbox.cif.g08.bks.cpg/sg2_123_cif.got.tgz:244323.got - 2010.06.03 11:33:40.
