data_PCOD9047866
_publ_section_title
;
Structure prediction by ZEFSAII (Michael W. Deem and Ramdas Pophale) SiO2 
 PCOD9047866
Probable space group: P -1
;
_chemical_formula_sum "Si O2"
_cell_formula_units_Z 14
_cell_length_a 19.118431
_cell_length_b 5.112768
_cell_length_c 8.099452
_cell_angle_alpha 68.854148
_cell_angle_beta 48.097690
_cell_angle_gamma 82.957088
_cell_volume 541.535855
_symmetry_space_group_name_H-M "P -1"
_symmetry_group_IT_number 2
_symmetry_cell_setting 'triclinic'
loop_
_space_group_symop_operation_xyz
x,y,z
-x,-y,-z
loop_
_atom_site_type_symbol
_atom_site_label
_atom_site_fract_x
_atom_site_fract_y
_atom_site_fract_z
Si Si1 0.407406 0.199532 0.683117
Si Si2 0.120314 0.734904 0.118004
Si Si3 0.804638 0.231350 0.486771
Si Si4 0.534977 0.541206 0.129323
Si Si5 0.775351 0.615689 0.182876
Si Si6 0.716193 0.333283 0.916497
Si Si7 0.933929 0.794438 0.279209
O O1 0.470943 0.297440 0.399341
O O2 0.458288 0.225754 0.778387
O O3 0.317709 0.373051 0.783579
O O4 0.352331 0.884292 0.811642
O O5 0.179493 0.582536 0.191266
O O6 0.010789 0.756160 0.308113
O O7 0.138369 0.539254 0.980762
O O8 0.177555 0.057605 0.932014
O O9 0.740601 0.398177 0.434090
O O10 0.741375 0.149705 0.764600
O O11 0.890523 0.489526 0.341277
O O12 0.849715 0.965364 0.417141
O O13 0.500000 0.500000 0.000000
O O14 0.647729 0.544300 0.923536
O O15 0.000000 0.000000 0.000000
#
# Coordination Sequence:
#
# PCOD9047866 Si02
#       7
#     2   2   2   2   2   2   2
#     4  10  24  44  71 101 146 181 232 291 359 425
#     4  11  23  40  69  89 142 177 229 285 352 403
#     4  12  25  39  72 100 141 183 242 289 345 422
#     4  11  23  46  74 103 137 182 236 292 356 434
#     4  11  20  42  65 102 130 186 224 285 345 413
#     4  11  26  44  64 101 139 182 229 291 357 425
#     4  12  23  42  66 104 135 185 241 296 344 413
#
# _framework density 25.852398000000001
#
# number of rings (size 3 to 8) (size 9 to 14) (size 15 to 20)
#    0.000    0.857    4.286    2.571    2.000    1.714 
#    5.143    0.000    0.000    0.000    0.000    0.000 
#    0.000    0.000    0.000    0.000    0.000    0.000 
#
# Total GULP energy -77961.059165 kJ/mol
# GULP energy per Si atom -5568.647083 kJ/mol
# Density = 2.579356 g / cm^3
# Si number density = 25.852398 Si / 1000 Ang^3
#
#
#
# Elastic Constant Matrix: (Units=GPa)
#
#
# Indices 1 2 3 4 5 6 
#
# 1 164.9947 41.1030 19.2359 0.1975 9.3458 -1.5471
# 2 41.1030 115.1134 21.9719 13.4959 -7.4609 3.8755
# 3 19.2359 21.9719 97.2492 4.0766 -2.0259 5.3642
# 4 0.1975 13.4959 4.0766 38.1624 2.4468 -4.6988
# 5 9.3458 -7.4609 -2.0259 2.4468 34.6772 4.3436
# 6 -1.5471 3.8755 5.3642 -4.6988 4.3436 35.4993
#
#
#
# Elastic Compliance Matrix: (Units=1/GPa)
#
#
# Indices 1 2 3 4 5 6 
#
# 1 0.007014 -0.002703 -0.000961 0.001357 -0.002782 0.001266
# 2 -0.002703 0.010718 -0.001531 -0.004085 0.003487 -0.002024
# 3 -0.000961 -0.001531 0.010971 -0.000896 0.000854 -0.001756
# 4 0.001357 -0.004085 -0.000896 0.028593 -0.003929 0.004906
# 5 -0.002782 0.003487 0.000854 -0.003929 0.031288 -0.004979
# 6 0.001266 -0.002024 -0.001756 0.004906 -0.004979 0.029970
#
#
# Mechanical properties :
#
#
# Convention : Reuss Voigt Hill
#
# Bulk Modulus (GPa) = 54.61020 60.21987 57.41504
# Shear Modulus (GPa) = 37.02358 41.33756 39.18057
#
# Velocity S-wave (km/s) = 3.78843 4.00307 3.89723
# Velocity P-wave (km/s) = 6.34870 6.68658 6.51983
#
# Compressibility (1/GPa) = 0.01831160
#
# Stress axis : x y z
#
# Youngs Moduli (GPa) = 142.57017 93.30445 91.14789
#
# Poissons Ratio (x) = 0.25220 0.08762
# Poissons Ratio (y) = 0.38537 0.13957
# Poissons Ratio (z) = 0.13706 0.14288
#
# Static dielectric constant tensor:
#      x y z
#    x 2.243490 -0.005200 0.166850 
#    y -0.005200 2.076050 0.033210 
#    z 0.166850 0.033210 2.175100 
# 
# From -- ./inp_files/339258.got.cif
#   From: 2010.05.17/outbox.cif.g08.bks.cpg/sg2_170_cif.got.tgz:339258.got - 2010.06.03 11:33:40.
