data_PCOD9047056
_publ_section_title
;
Structure prediction by ZEFSAII (Michael W. Deem and Ramdas Pophale) SiO2 
 PCOD9047056
Probable space group: P -1
;
_chemical_formula_sum "Si O2"
_cell_formula_units_Z 16
_cell_length_a 8.540756
_cell_length_b 17.918921
_cell_length_c 12.281607
_cell_angle_alpha 40.290845
_cell_angle_beta 48.819274
_cell_angle_gamma 77.773191
_cell_volume 734.048962
_symmetry_space_group_name_H-M "P -1"
_symmetry_group_IT_number 2
_symmetry_cell_setting 'triclinic'
loop_
_space_group_symop_operation_xyz
x,y,z
-x,-y,-z
loop_
_atom_site_type_symbol
_atom_site_label
_atom_site_fract_x
_atom_site_fract_y
_atom_site_fract_z
Si Si1 0.221270 0.166308 0.226442
Si Si2 0.932539 0.323605 0.501376
Si Si3 0.272103 0.088809 0.711803
Si Si4 0.109190 0.617435 0.145918
Si Si5 0.295882 0.417600 0.781121
Si Si6 0.725554 0.370282 0.323688
Si Si7 0.720282 0.171896 0.982059
Si Si8 0.309113 0.270392 0.300808
O O1 0.475734 0.173203 0.104016
O O2 0.176214 0.217353 0.303477
O O3 0.263064 0.278325 0.993450
O O4 0.000000 0.000000 0.500000
O O5 0.788088 0.315483 0.465401
O O6 0.953468 0.447952 0.423579
O O7 0.204416 0.353793 0.309363
O O8 0.801171 0.195710 0.791604
O O9 0.512407 0.232573 0.502634
O O10 0.224812 0.140443 0.564211
O O11 0.337528 0.976633 0.788674
O O12 0.000000 0.000000 0.000000
O O13 0.981790 0.633882 0.080701
O O14 0.089682 0.701272 0.160214
O O15 0.391518 0.660957 0.936903
O O16 0.500000 0.500000 0.500000
O O17 0.385778 0.540980 0.691425
O O18 0.000000 0.500000 0.000000
#
# Coordination Sequence:
#
# PCOD9047056 Si02
#       8
#     2   2   2   2   2   2   2   2
#     4  11  27  44  71 103 139 186 236 293 355 424
#     4  11  22  45  70 103 136 185 234 294 344 421
#     4  12  27  46  70 108 142 189 230 296 364 419
#     4  10  24  43  71 101 141 181 236 288 358 416
#     4  11  25  46  72 102 137 189 238 294 352 429
#     4  11  26  46  74 100 140 185 241 289 351 426
#     4  11  26  44  67 102 144 182 232 291 356 423
#     4  11  25  42  69 101 140 185 233 293 351 422
#
# _framework density 21.796911999999999
#
# number of rings (size 3 to 8) (size 9 to 14) (size 15 to 20)
#    0.000    1.000    1.250    4.500    8.750    5.500 
#    0.000    0.000    0.000    0.000    0.000    0.000 
#    0.000    0.000    0.000    0.000    0.000    0.000 
#
# Total GULP energy -89317.204298 kJ/mol
# GULP energy per Si atom -5582.325269 kJ/mol
# Density = 2.174730 g / cm^3
# Si number density = 21.796912 Si / 1000 Ang^3
#
#
#
# Elastic Constant Matrix: (Units=GPa)
#
#
# Indices 1 2 3 4 5 6 
#
# 1 62.9775 26.2950 28.5608 -22.2253 13.0594 -7.4186
# 2 26.2950 119.3186 37.5965 -15.0315 0.5668 -9.7691
# 3 28.5608 37.5965 100.0872 -7.3470 15.4235 10.8318
# 4 -22.2253 -15.0315 -7.3470 36.0381 -6.9208 9.6927
# 5 13.0594 0.5668 15.4235 -6.9208 39.4026 -3.4885
# 6 -7.4186 -9.7691 10.8318 9.6927 -3.4885 36.5473
#
#
#
# Elastic Compliance Matrix: (Units=1/GPa)
#
#
# Indices 1 2 3 4 5 6 
#
# 1 0.024166 -0.002095 -0.004922 0.011666 -0.003796 0.002348
# 2 -0.002095 0.010622 -0.004039 0.001942 0.002761 0.003359
# 3 -0.004922 -0.004039 0.014260 -0.000957 -0.004635 -0.006494
# 4 0.011666 0.001942 -0.000957 0.037826 0.002538 -0.006619
# 5 -0.003796 0.002761 -0.004635 0.002538 0.029163 0.003452
# 6 0.002348 0.003359 -0.006494 -0.006619 0.003452 0.032746
#
#
# Mechanical properties :
#
#
# Convention : Reuss Voigt Hill
#
# Bulk Modulus (GPa) = 37.12394 51.92088 44.52241
# Shear Modulus (GPa) = 27.79756 35.05968 31.42862
#
# Velocity S-wave (km/s) = 3.57501 4.01492 3.80133
# Velocity P-wave (km/s) = 5.84034 6.73534 6.30375
#
# Compressibility (1/GPa) = 0.02693680
#
# Stress axis : x y z
#
# Youngs Moduli (GPa) = 41.37998 94.14734 70.12774
#
# Poissons Ratio (x) = 0.19723 0.34517
# Poissons Ratio (y) = 0.08669 0.28322
# Poissons Ratio (z) = 0.20367 0.38022
#
# Static dielectric constant tensor:
#      x y z
#    x 1.973750 0.201370 -0.236750 
#    y 0.201370 2.107290 -0.363190 
#    z -0.236750 -0.363190 2.313730 
# 
# From -- ./inp_files/306622.got.cif
#   From: 2010.05.17/outbox.cif.g08.bks.cpg/sg2_154_cif.got.tgz:306622.got - 2010.06.03 11:33:40.
