data_PCOD9047686
_publ_section_title
;
Structure prediction by ZEFSAII (Michael W. Deem and Ramdas Pophale) SiO2 
 PCOD9047686
Probable space group: P -1
;
_chemical_formula_sum "Si O2"
_cell_formula_units_Z 14
_cell_length_a 20.068301
_cell_length_b 11.105281
_cell_length_c 5.176456
_cell_angle_alpha 64.239973
_cell_angle_beta 112.200558
_cell_angle_gamma 148.735167
_cell_volume 539.185148
_symmetry_space_group_name_H-M "P -1"
_symmetry_group_IT_number 2
_symmetry_cell_setting 'triclinic'
loop_
_space_group_symop_operation_xyz
x,y,z
-x,-y,-z
loop_
_atom_site_type_symbol
_atom_site_label
_atom_site_fract_x
_atom_site_fract_y
_atom_site_fract_z
Si Si1 0.113439 0.128392 0.358611
Si Si2 0.845152 0.299045 0.851822
Si Si3 0.626452 0.543028 0.264687
Si Si4 0.652876 0.860123 0.699096
Si Si5 0.370860 0.736190 0.653780
Si Si6 0.911558 0.205393 0.437763
Si Si7 0.221210 0.562152 0.074228
O O1 0.246898 0.288550 0.539806
O O2 0.145381 0.315747 0.087618
O O3 0.071841 0.925538 0.360075
O O4 0.000000 0.000000 0.500000
O O5 0.846416 0.402730 0.997283
O O6 0.946930 0.510374 0.596004
O O7 0.701690 0.056895 0.766332
O O8 0.886128 0.216412 0.094771
O O9 0.492614 0.338145 0.421503
O O10 0.615626 0.403496 0.178479
O O11 0.641532 0.705682 0.987866
O O12 0.776289 0.035563 0.530941
O O13 0.269088 0.600260 0.398431
O O14 0.500000 0.000000 0.500000
O O15 0.331681 0.743632 0.857098
#
# Coordination Sequence:
#
# PCOD9047686 Si02
#       7
#     2   2   2   2   2   2   2
#     4  11  22  48  69 103 144 188 246 297 364 437
#     4  11  24  43  67 107 139 186 242 298 362 436
#     4  10  24  44  69 106 139 191 238 301 364 443
#     4  11  23  45  69 103 145 182 244 297 371 434
#     4  11  24  45  69 105 144 190 242 295 370 436
#     4  11  24  43  72 100 140 190 240 298 367 429
#     4  11  25  43  72 103 143 189 241 301 364 432
#
# _framework density 25.965104
#
# number of rings (size 3 to 8) (size 9 to 14) (size 15 to 20)
#    0.000    1.143    2.857    2.571    4.000    0.571 
#    5.143    2.143    0.000    0.000    0.000    0.000 
#    0.000    0.000    0.000    0.000    0.000    0.000 
#
# Total GULP energy -78236.152884 kJ/mol
# GULP energy per Si atom -5588.296635 kJ/mol
# Density = 2.590601 g / cm^3
# Si number density = 25.965104 Si / 1000 Ang^3
#
#
#
# Elastic Constant Matrix: (Units=GPa)
#
#
# Indices 1 2 3 4 5 6 
#
# 1 148.4122 52.8557 50.5682 -19.1802 -17.4700 10.1842
# 2 52.8557 144.7932 58.4626 -29.9083 9.1978 33.1376
# 3 50.5682 58.4626 62.3144 -20.3381 -10.2413 3.6912
# 4 -19.1802 -29.9083 -20.3381 46.9476 11.9511 4.9968
# 5 -17.4700 9.1978 -10.2413 11.9511 46.7341 -16.1927
# 6 10.1842 33.1376 3.6912 4.9968 -16.1927 54.8113
#
#
#
# Elastic Compliance Matrix: (Units=1/GPa)
#
#
# Indices 1 2 3 4 5 6 
#
# 1 0.009573 -0.001175 -0.006337 -0.000239 0.002526 0.000126
# 2 -0.001175 0.023208 -0.018499 0.013244 -0.019184 -0.019442
# 3 -0.006337 -0.018499 0.039315 -0.002892 0.015690 0.014613
# 4 -0.000239 0.013244 -0.002892 0.034639 -0.017795 -0.016183
# 5 0.002526 -0.019184 0.015690 -0.017795 0.042510 0.024253
# 6 0.000126 -0.019442 0.014613 -0.016183 0.024253 0.037631
#
#
# Mechanical properties :
#
#
# Convention : Reuss Voigt Hill
#
# Bulk Modulus (GPa) = 49.81314 75.47696 62.64505
# Shear Modulus (GPa) = 20.35913 42.60749 31.48331
#
# Velocity S-wave (km/s) = 2.80321 4.05526 3.48591
# Velocity P-wave (km/s) = 5.45010 7.14553 6.35461
#
# Compressibility (1/GPa) = 0.02007502
#
# Stress axis : x y z
#
# Youngs Moduli (GPa) = 104.45659 43.08801 25.43557
#
# Poissons Ratio (x) = 0.05062 0.16118
# Poissons Ratio (y) = 0.12271 0.47054
# Poissons Ratio (z) = 0.66194 0.79709
#
# Static dielectric constant tensor:
#      x y z
#    x 2.124720 -0.021590 0.009040 
#    y -0.021590 2.103820 0.026660 
#    z 0.009040 0.026660 2.053650 
# 
# From -- ./inp_files/118542.got.cif
#   From: 2010.05.17/outbox.cif.g08.bks.cpg/sg2_60_cif.got.tgz:118542.got - 2010.06.03 11:33:40.
