data_PCOD9047511
_publ_section_title
;
Structure prediction by ZEFSAII (Michael W. Deem and Ramdas Pophale) SiO2 
 PCOD9047511
Probable space group: P -1
;
_chemical_formula_sum "Si O2"
_cell_formula_units_Z 15
_cell_length_a 15.452158
_cell_length_b 11.611104
_cell_length_c 7.114776
_cell_angle_alpha 113.898228
_cell_angle_beta 49.031649
_cell_angle_gamma 133.790898
_cell_volume 693.006509
_symmetry_space_group_name_H-M "P -1"
_symmetry_group_IT_number 2
_symmetry_cell_setting 'triclinic'
loop_
_space_group_symop_operation_xyz
x,y,z
-x,-y,-z
loop_
_atom_site_type_symbol
_atom_site_label
_atom_site_fract_x
_atom_site_fract_y
_atom_site_fract_z
Si Si1 0.747926 0.631924 0.233811
Si Si2 0.433857 0.557649 0.273327
Si Si3 0.699604 0.868491 0.295418
Si Si4 0.000000 0.500000 0.000000
Si Si5 0.135085 0.715674 0.319834
Si Si6 0.930820 0.232597 0.147461
Si Si7 0.599850 0.946583 0.856117
Si Si8 0.331622 0.621888 0.138533
O O1 0.639355 0.552703 0.511852
O O2 0.764722 0.783337 0.229826
O O3 0.686688 0.499474 0.070678
O O4 0.905164 0.683887 0.100757
O O5 0.565879 0.735279 0.269285
O O6 0.311528 0.550883 0.326455
O O7 0.500000 0.500000 0.000000
O O8 0.631628 0.901438 0.584200
O O9 0.823375 0.042136 0.148458
O O10 0.113015 0.676046 0.849463
O O11 0.959299 0.410159 0.791192
O O12 0.059608 0.729969 0.617487
O O13 0.230398 0.667521 0.246056
O O14 0.245678 0.894284 0.193028
O O15 0.498782 0.784097 0.008422
O O16 0.500000 0.000000 0.000000
#
# Coordination Sequence:
#
# PCOD9047511 Si02
#       8
#     2   2   2   1   2   2   2   2
#     4  12  24  45  70 100 139 189 226 285 346 414
#     4  12  25  41  72 104 135 183 232 280 345 412
#     4  11  23  47  68 102 144 180 229 287 342 410
#     4  12  24  42  70  96 138 180 234 272 354 400
#     4  10  24  44  67  99 140 180 229 295 338 413
#     4  11  27  45  70 100 142 183 231 289 347 409
#     4   9  20  42  67  98 134 177 223 289 340 398
#     4  11  22  41  69 100 142 175 233 281 352 403
#
# _framework density 21.644817
#
# number of rings (size 3 to 8) (size 9 to 14) (size 15 to 20)
#    0.000    1.067    4.000    2.000    3.733    0.000 
#    0.000    2.667    0.000    0.000    0.000    0.000 
#    0.000    0.000    0.000    0.000    0.000    0.000 
#
# Total GULP energy -83573.753319 kJ/mol
# GULP energy per Si atom -5571.583555 kJ/mol
# Density = 2.159555 g / cm^3
# Si number density = 21.644817 Si / 1000 Ang^3
#
#
#
# Elastic Constant Matrix: (Units=GPa)
#
#
# Indices 1 2 3 4 5 6 
#
# 1 30.4772 10.2699 19.2293 5.9100 8.3374 7.0848
# 2 10.2699 167.2379 45.0370 -1.8616 13.6670 4.0441
# 3 19.2293 45.0370 66.3944 8.9428 2.1871 12.8339
# 4 5.9100 -1.8616 8.9428 43.2188 -6.3405 2.6121
# 5 8.3374 13.6670 2.1871 -6.3405 32.4497 -1.5384
# 6 7.0848 4.0441 12.8339 2.6121 -1.5384 27.9024
#
#
#
# Elastic Compliance Matrix: (Units=1/GPa)
#
#
# Indices 1 2 3 4 5 6 
#
# 1 0.045935 0.001560 -0.011948 -0.005248 -0.012993 -0.006619
# 2 0.001560 0.007699 -0.005868 0.000829 -0.003041 0.000942
# 3 -0.011948 -0.005868 0.024078 -0.002743 0.003061 -0.006765
# 4 -0.005248 0.000829 -0.002743 0.025335 0.006155 0.000442
# 5 -0.012993 -0.003041 0.003061 0.006155 0.036612 0.003774
# 6 -0.006619 0.000942 -0.006765 0.000442 0.003774 0.040662
#
#
# Mechanical properties :
#
#
# Convention : Reuss Voigt Hill
#
# Bulk Modulus (GPa) = 22.12308 45.90910 34.01609
# Shear Modulus (GPa) = 21.93960 33.35241 27.64600
#
# Velocity S-wave (km/s) = 3.18719 3.92968 3.57775
# Velocity P-wave (km/s) = 4.87723 6.46886 5.72859
#
# Compressibility (1/GPa) = 0.04520167
#
# Stress axis : x y z
#
# Youngs Moduli (GPa) = 21.76999 129.88921 41.53108
#
# Poissons Ratio (x) = -0.20265 0.49620
# Poissons Ratio (y) = -0.03396 0.24369
# Poissons Ratio (z) = 0.26010 0.76215
#
# Static dielectric constant tensor:
#      x y z
#    x 1.829890 -0.030790 -0.029000 
#    y -0.030790 1.807910 -0.031030 
#    z -0.029000 -0.031030 1.764620 
# 
# From -- ./inp_files/109847.got.cif
#   From: 2010.05.17/outbox.cif.g08.bks.cpg/sg2_55_cif.got.tgz:109847.got - 2010.06.03 11:33:40.
