data_PCOD9047596
_publ_section_title
;
Structure prediction by ZEFSAII (Michael W. Deem and Ramdas Pophale) SiO2 
 PCOD9047596
Probable space group: P -1
;
_chemical_formula_sum "Si O2"
_cell_formula_units_Z 14
_cell_length_a 7.749084
_cell_length_b 14.080425
_cell_length_c 8.016597
_cell_angle_alpha 90.645116
_cell_angle_beta 101.770437
_cell_angle_gamma 135.373324
_cell_volume 585.768299
_symmetry_space_group_name_H-M "P -1"
_symmetry_group_IT_number 2
_symmetry_cell_setting 'triclinic'
loop_
_space_group_symop_operation_xyz
x,y,z
-x,-y,-z
loop_
_atom_site_type_symbol
_atom_site_label
_atom_site_fract_x
_atom_site_fract_y
_atom_site_fract_z
Si Si1 0.579523 0.272160 0.239018
Si Si2 0.046618 0.906280 0.471050
Si Si3 0.630385 0.522302 0.854984
Si Si4 0.959194 0.264527 0.272779
Si Si5 0.581782 0.750491 0.147983
Si Si6 0.567966 0.183622 0.579507
Si Si7 0.845371 0.566365 0.385776
O O1 0.505685 0.235789 0.419474
O O2 0.780348 0.439166 0.291718
O O3 0.684007 0.207207 0.214862
O O4 0.397903 0.223889 0.045100
O O5 0.011187 0.820006 0.617424
O O6 0.843760 0.810614 0.280208
O O7 0.348531 0.020545 0.492183
O O8 0.000000 0.000000 0.500000
O O9 0.895860 0.679126 0.872003
O O10 0.642262 0.414230 0.864924
O O11 0.410284 0.472704 0.687663
O O12 0.500000 0.500000 0.000000
O O13 0.110815 0.406967 0.407931
O O14 0.498103 0.805950 0.247820
O O15 0.875575 0.287609 0.624958
#
# Coordination Sequence:
#
# PCOD9047596 Si02
#       7
#     2   2   2   2   2   2   2
#     4  11  24  41  69 106 133 169 219 278 335 399
#     4  10  24  44  69  93 129 187 224 267 322 392
#     4  12  24  37  67 103 135 165 220 278 337 397
#     4  11  24  43  67  95 139 175 219 271 335 395
#     4  11  23  43  67  98 135 177 213 277 337 384
#     4  10  24  44  68  91 138 176 224 266 326 396
#     4  11  22  40  67 102 128 170 214 276 331 392
#
# _framework density 23.900234999999999
#
# number of rings (size 3 to 8) (size 9 to 14) (size 15 to 20)
#    0.000    1.143    2.857    3.857    6.000    4.000 
#    0.000    4.286    0.000    0.000    0.000    0.000 
#    0.000    0.000    0.000    0.000    0.000    0.000 
#
# Total GULP energy -77968.008346 kJ/mol
# GULP energy per Si atom -5569.143453 kJ/mol
# Density = 2.384584 g / cm^3
# Si number density = 23.900235 Si / 1000 Ang^3
#
#
#
# Elastic Constant Matrix: (Units=GPa)
#
#
# Indices 1 2 3 4 5 6 
#
# 1 84.9759 15.4013 -0.3278 2.3076 11.0585 -8.0618
# 2 15.4013 91.1825 24.3477 -2.2520 5.5578 4.9142
# 3 -0.3278 24.3477 74.2249 -12.8020 1.5422 -14.1761
# 4 2.3076 -2.2520 -12.8020 4.5825 -4.5248 5.5195
# 5 11.0585 5.5578 1.5422 -4.5248 26.6710 -13.1356
# 6 -8.0618 4.9142 -14.1761 5.5195 -13.1356 30.2014
#
#
#
# Elastic Compliance Matrix: (Units=1/GPa)
#
#
# Indices 1 2 3 4 5 6 
#
# 1 0.014645 -0.001912 -0.004177 -0.034455 -0.008989 0.004647
# 2 -0.001912 0.014026 -0.008253 -0.013759 -0.007676 -0.007491
# 3 -0.004177 -0.008253 0.037496 0.119064 0.024875 0.006887
# 4 -0.034455 -0.013759 0.119064 0.713307 0.116031 -0.030966
# 5 -0.008989 -0.007676 0.024875 0.116031 0.071020 0.020209
# 6 0.004647 -0.007491 0.006887 -0.030966 0.020209 0.053252
#
#
# Mechanical properties :
#
#
# Convention : Reuss Voigt Hill
#
# Bulk Modulus (GPa) = 26.67929 36.58063 31.62996
# Shear Modulus (GPa) = 5.29144 26.35511 15.82328
#
# Velocity S-wave (km/s) = 1.48956 3.32432 2.57583
# Velocity P-wave (km/s) = 3.76103 5.48394 4.70207
#
# Compressibility (1/GPa) = 0.03748226
#
# Stress axis : x y z
#
# Youngs Moduli (GPa) = 68.28364 71.29838 26.66971
#
# Poissons Ratio (x) = 0.13632 0.11139
# Poissons Ratio (y) = 0.13055 0.22012
# Poissons Ratio (z) = 0.28519 0.58846
#
# Static dielectric constant tensor:
#      x y z
#    x 2.024080 0.002490 0.041090 
#    y 0.002490 2.001800 -0.035570 
#    z 0.041090 -0.035570 2.012820 
# 
# From -- ./inp_files/207069.got.cif
#   From: 2010.05.17/outbox.cif.g08.bks.cpg/sg2_104_cif.got.tgz:207069.got - 2010.06.03 11:33:40.
