data_PCOD9047548
_publ_section_title
;
Structure prediction by ZEFSAII (Michael W. Deem and Ramdas Pophale) SiO2 
 PCOD9047548
Probable space group: P -1
;
_chemical_formula_sum "Si O2"
_cell_formula_units_Z 16
_cell_length_a 19.765266
_cell_length_b 11.323717
_cell_length_c 11.586368
_cell_angle_alpha 38.264335
_cell_angle_beta 149.461077
_cell_angle_gamma 147.622973
_cell_volume 689.512114
_symmetry_space_group_name_H-M "P -1"
_symmetry_group_IT_number 2
_symmetry_cell_setting 'triclinic'
loop_
_space_group_symop_operation_xyz
x,y,z
-x,-y,-z
loop_
_atom_site_type_symbol
_atom_site_label
_atom_site_fract_x
_atom_site_fract_y
_atom_site_fract_z
Si Si1 0.835494 0.879235 0.284282
Si Si2 0.201712 0.227888 0.946206
Si Si3 0.809945 0.224756 0.662858
Si Si4 0.373389 0.592153 0.305158
Si Si5 0.816777 0.305434 0.867883
Si Si6 0.546376 0.619843 0.219772
Si Si7 0.609661 0.099759 0.239974
Si Si8 0.141478 0.490338 0.842267
O O1 0.843398 0.784449 0.244267
O O2 0.696944 0.697821 0.301488
O O3 0.000000 0.000000 0.500000
O O4 0.797807 0.070549 0.053989
O O5 0.121535 0.322449 0.838733
O O6 0.388887 0.405433 0.100034
O O7 0.168026 0.986048 0.122169
O O8 0.771589 0.287971 0.680776
O O9 0.677329 0.157924 0.424376
O O10 0.976906 0.422577 0.707081
O O11 0.284106 0.646264 0.231040
O O12 0.427382 0.447486 0.563731
O O13 0.518750 0.834663 0.294572
O O14 0.249750 0.473343 0.111630
O O15 0.000000 0.500000 0.000000
O O16 0.508970 0.815512 0.018126
O O17 0.756692 0.256180 0.252272
#
# Coordination Sequence:
#
# PCOD9047548 Si02
#       8
#     2   2   2   2   2   2   2   2
#     4  11  24  43  71 108 137 179 235 287 345 410
#     4  10  24  44  68 102 140 184 230 279 353 413
#     4  11  23  46  70 100 139 181 235 287 347 404
#     4  12  24  47  71 102 143 178 234 288 339 411
#     4  11  23  42  72 101 137 178 226 290 347 400
#     4  11  24  45  72 102 141 184 224 291 343 411
#     4  11  25  46  69 105 135 186 233 280 349 413
#     4  11  25  45  71  99 141 188 229 284 342 412
#
# _framework density 23.204813999999999
#
# number of rings (size 3 to 8) (size 9 to 14) (size 15 to 20)
#    0.000    1.000    3.750    2.250    1.750    7.500 
#    4.500    0.000    0.000    0.000    0.000    0.000 
#    0.000    0.000    0.000    0.000    0.000    0.000 
#
# Total GULP energy -89708.175752 kJ/mol
# GULP energy per Si atom -5606.760984 kJ/mol
# Density = 2.315200 g / cm^3
# Si number density = 23.204814 Si / 1000 Ang^3
#
#
#
# Elastic Constant Matrix: (Units=GPa)
#
#
# Indices 1 2 3 4 5 6 
#
# 1 129.6344 56.6716 47.7902 -2.2083 -14.7222 -4.5113
# 2 56.6716 78.7556 26.4661 -13.7556 -8.3835 4.5809
# 3 47.7902 26.4661 133.1378 -1.8304 -34.3855 -14.6870
# 4 -2.2083 -13.7556 -1.8304 37.6504 -5.2005 -9.7931
# 5 -14.7222 -8.3835 -34.3855 -5.2005 43.4002 7.2484
# 6 -4.5113 4.5809 -14.6870 -9.7931 7.2484 32.1711
#
#
#
# Elastic Compliance Matrix: (Units=1/GPa)
#
#
# Indices 1 2 3 4 5 6 
#
# 1 0.012407 -0.008476 -0.002683 -0.002227 0.000005 0.001043
# 2 -0.008476 0.020554 -0.000841 0.006446 0.001689 -0.002917
# 3 -0.002683 -0.000841 0.010946 0.002036 0.007220 0.003734
# 4 -0.002227 0.006446 0.002036 0.031671 0.004507 0.008325
# 5 0.000005 0.001689 0.007220 0.004507 0.030020 -0.002335
# 6 0.001043 -0.002917 0.003734 0.008325 -0.002335 0.036410
#
#
# Mechanical properties :
#
#
# Convention : Reuss Voigt Hill
#
# Bulk Modulus (GPa) = 50.22939 67.04261 58.63600
# Shear Modulus (GPa) = 28.96137 36.68434 32.82286
#
# Velocity S-wave (km/s) = 3.53664 3.98036 3.76504
# Velocity P-wave (km/s) = 6.19437 7.07663 6.65015
#
# Compressibility (1/GPa) = 0.01990866
#
# Stress axis : x y z
#
# Youngs Moduli (GPa) = 80.59776 48.65154 91.35894
#
# Poissons Ratio (x) = 0.41235 0.24513
# Poissons Ratio (y) = 0.68312 0.07679
# Poissons Ratio (z) = 0.21626 0.04090
#
# Static dielectric constant tensor:
#      x y z
#    x 1.865430 -0.002160 0.000930 
#    y -0.002160 1.854120 -0.037560 
#    z 0.000930 -0.037560 1.871520 
# 
# From -- ./inp_files/206978.got.cif
#   From: 2010.05.17/outbox.cif.g08.bks.cpg/sg2_104_cif.got.tgz:206978.got - 2010.06.03 11:33:40.
