data_PCOD9047854
_publ_section_title
;
Structure prediction by ZEFSAII (Michael W. Deem and Ramdas Pophale) SiO2 
 PCOD9047854
Probable space group: P -1
;
_chemical_formula_sum "Si O2"
_cell_formula_units_Z 14
_cell_length_a 9.491801
_cell_length_b 5.192838
_cell_length_c 13.636564
_cell_angle_alpha 88.177241
_cell_angle_beta 99.845792
_cell_angle_gamma 95.941483
_cell_volume 658.612592
_symmetry_space_group_name_H-M "P -1"
_symmetry_group_IT_number 2
_symmetry_cell_setting 'triclinic'
loop_
_space_group_symop_operation_xyz
x,y,z
-x,-y,-z
loop_
_atom_site_type_symbol
_atom_site_label
_atom_site_fract_x
_atom_site_fract_y
_atom_site_fract_z
Si Si1 0.012682 0.888518 0.192322
Si Si2 0.345935 0.017651 0.187685
Si Si3 0.253920 0.495183 0.512935
Si Si4 0.615125 0.444611 0.933990
Si Si5 0.903467 0.387038 0.079605
Si Si6 0.453844 0.194199 0.409804
Si Si7 0.995970 0.189492 0.588098
O O1 0.000333 0.942455 0.305191
O O2 0.936047 0.603310 0.164593
O O3 0.179885 0.904707 0.182626
O O4 0.943144 0.108616 0.121098
O O5 0.350086 0.293122 0.128732
O O6 0.413963 0.068311 0.302411
O O7 0.421285 0.801506 0.138643
O O8 0.317253 0.317475 0.438789
O O9 0.400762 0.610485 0.581820
O O10 0.153026 0.680411 0.441215
O O11 0.141322 0.376430 0.582571
O O12 0.500000 0.500000 0.000000
O O13 0.746609 0.373436 0.016947
O O14 0.000000 0.500000 0.000000
O O15 0.500000 0.000000 0.500000
O O16 0.000000 0.000000 0.500000
#
# Coordination Sequence:
#
# PCOD9047854 Si02
#       7
#     2   2   2   2   2   2   2
#     4  12  25  42  80 105 134 194 239 289 363 421
#     4  12  25  45  79 100 141 191 239 285 371 427
#     4  10  24  44  70  99 154 187 233 296 357 414
#     4  12  28  50  70 106 143 184 233 309 361 423
#     4  12  24  48  74 103 138 179 245 302 346 429
#     4  11  25  45  72 104 145 190 241 289 354 441
#     4  11  25  45  69 106 151 181 238 299 356 428
#
# _framework density 21.256806000000001
#
# number of rings (size 3 to 8) (size 9 to 14) (size 15 to 20)
#    0.000    0.571    2.857    4.286   12.000    1.143 
#    5.143    0.000    0.000    0.000    0.000    0.000 
#    0.000    0.000    0.000    0.000    0.000    0.000 
#
# Total GULP energy -78287.394509 kJ/mol
# GULP energy per Si atom -5591.956751 kJ/mol
# Density = 2.120842 g / cm^3
# Si number density = 21.256806 Si / 1000 Ang^3
#
#
#
# Elastic Constant Matrix: (Units=GPa)
#
#
# Indices 1 2 3 4 5 6 
#
# 1 111.7421 20.8297 48.2485 9.1697 1.7863 -30.9197
# 2 20.8297 77.5671 25.7409 19.2772 -0.4793 -20.0316
# 3 48.2485 25.7409 122.8809 20.4058 -2.6642 -16.5664
# 4 9.1697 19.2772 20.4058 45.6763 2.0283 -2.9526
# 5 1.7863 -0.4793 -2.6642 2.0283 23.7738 5.9738
# 6 -30.9197 -20.0316 -16.5664 -2.9526 5.9738 32.2509
#
#
#
# Elastic Compliance Matrix: (Units=1/GPa)
#
#
# Indices 1 2 3 4 5 6 
#
# 1 0.014232 0.000951 -0.004075 -0.000388 -0.004736 0.012983
# 2 0.000951 0.017437 -0.001620 -0.006039 -0.002086 0.010743
# 3 -0.004075 -0.001620 0.010662 -0.003345 0.001771 -0.000071
# 4 -0.000388 -0.006039 -0.003345 0.025896 -0.001893 -0.003120
# 5 -0.004736 -0.002086 0.001771 -0.001893 0.046167 -0.013651
# 6 0.012983 0.010743 -0.000071 -0.003120 -0.013651 0.052333
#
#
# Mechanical properties :
#
#
# Convention : Reuss Voigt Hill
#
# Bulk Modulus (GPa) = 30.44933 55.75870 43.10402
# Shear Modulus (GPa) = 26.71477 34.83158 30.77317
#
# Velocity S-wave (km/s) = 3.54893 4.05236 3.80897
# Velocity P-wave (km/s) = 5.58111 6.94143 6.29811
#
# Compressibility (1/GPa) = 0.03284144
#
# Stress axis : x y z
#
# Youngs Moduli (GPa) = 70.26639 57.35034 93.79464
#
# Poissons Ratio (x) = -0.05452 0.38221
# Poissons Ratio (y) = -0.06680 0.15194
# Poissons Ratio (z) = 0.28633 0.09290
#
# Static dielectric constant tensor:
#      x y z
#    x 1.858810 0.218240 -0.047600 
#    y 0.218240 2.047430 -0.006240 
#    z -0.047600 -0.006240 1.750780 
# 
# From -- ./inp_files/373079.got.cif
#   From: 2010.05.17/outbox.cif.g08.bks.cpg/sg2_187_cif.got.tgz:373079.got - 2010.06.03 11:33:40.
