data_PCOD9047936
_publ_section_title
;
Structure prediction by ZEFSAII (Michael W. Deem and Ramdas Pophale) SiO2 
 PCOD9047936
Probable space group: P -1
;
_chemical_formula_sum "Si O2"
_cell_formula_units_Z 16
_cell_length_a 15.617214
_cell_length_b 8.561845
_cell_length_c 5.413791
_cell_angle_alpha 92.727883
_cell_angle_beta 91.932122
_cell_angle_gamma 65.477378
_cell_volume 657.769091
_symmetry_space_group_name_H-M "P -1"
_symmetry_group_IT_number 2
_symmetry_cell_setting 'triclinic'
loop_
_space_group_symop_operation_xyz
x,y,z
-x,-y,-z
loop_
_atom_site_type_symbol
_atom_site_label
_atom_site_fract_x
_atom_site_fract_y
_atom_site_fract_z
Si Si1 0.254187 0.341830 0.158352
Si Si2 0.951268 0.347147 0.214868
Si Si3 0.645161 0.486354 0.096697
Si Si4 0.554439 0.352385 0.700468
Si Si5 0.906051 0.711648 0.146395
Si Si6 0.439591 0.006089 0.252827
Si Si7 0.214101 0.671608 0.515992
Si Si8 0.093370 0.032264 0.471848
O O1 0.344952 0.181060 0.251544
O O2 0.223672 0.504932 0.350067
O O3 0.293695 0.406321 0.929711
O O4 0.170787 0.293864 0.056064
O O5 0.921565 0.544265 0.300390
O O6 0.866274 0.300512 0.279631
O O7 0.047747 0.202819 0.317156
O O8 0.986147 0.334558 0.934784
O O9 0.537283 0.611186 0.134816
O O10 0.691857 0.363084 0.322056
O O11 0.635349 0.392095 0.842323
O O12 0.500000 0.500000 0.500000
O O13 0.591469 0.147687 0.689383
O O14 0.871520 0.895911 0.284028
O O15 0.500000 0.000000 0.500000
O O16 0.500000 0.000000 0.000000
O O17 0.172418 0.851728 0.379954
O O18 0.000000 0.000000 0.500000
#
# Coordination Sequence:
#
# PCOD9047936 Si02
#       8
#     2   2   2   2   2   2   2   2
#     4  12  27  46  72 111 148 195 256 322 388 466
#     4  10  24  44  71  97 140 191 248 303 381 449
#     4  11  23  45  72 101 150 187 250 306 395 456
#     4  11  25  47  76 109 146 205 250 320 396 476
#     4  11  25  43  72 103 142 191 249 315 380 453
#     4  12  27  51  83 115 159 209 269 327 403 485
#     4  11  25  44  69 103 147 196 243 316 375 463
#     4  10  25  43  67  98 140 190 250 302 381 455
#
# _framework density 24.324646000000001
#
# number of rings (size 3 to 8) (size 9 to 14) (size 15 to 20)
#    0.000    1.000    2.500    2.625   12.250    3.000 
#    2.250    0.000    0.000    0.000    0.000    0.000 
#    0.000    0.000    0.000    0.000    0.000    0.000 
#
# Total GULP energy -89169.866323 kJ/mol
# GULP energy per Si atom -5573.116645 kJ/mol
# Density = 2.426928 g / cm^3
# Si number density = 24.324646 Si / 1000 Ang^3
#
#
#
# Elastic Constant Matrix: (Units=GPa)
#
#
# Indices 1 2 3 4 5 6 
#
# 1 108.1696 36.0694 25.1736 4.4408 17.9138 -6.1225
# 2 36.0694 196.5759 48.1481 -6.8903 28.6325 -21.1313
# 3 25.1736 48.1481 82.7047 -5.4494 33.3377 -6.2294
# 4 4.4408 -6.8903 -5.4494 32.3161 -3.4238 6.5245
# 5 17.9138 28.6325 33.3377 -3.4238 45.6218 -12.2110
# 6 -6.1225 -21.1313 -6.2294 6.5245 -12.2110 50.3073
#
#
#
# Elastic Compliance Matrix: (Units=1/GPa)
#
#
# Indices 1 2 3 4 5 6 
#
# 1 0.010534 -0.001237 -0.001735 -0.002299 -0.002180 0.000317
# 2 -0.001237 0.006349 -0.002763 0.000581 -0.000935 0.001872
# 3 -0.001735 -0.002763 0.018991 0.002030 -0.011891 -0.002170
# 4 -0.002299 0.000581 0.002030 0.032561 0.000455 -0.003897
# 5 -0.002180 -0.000935 -0.011891 0.000455 0.033688 0.005988
# 6 0.000317 0.001872 -0.002170 -0.003897 0.005988 0.022393
#
#
# Mechanical properties :
#
#
# Convention : Reuss Voigt Hill
#
# Bulk Modulus (GPa) = 40.97821 67.35916 54.16869
# Shear Modulus (GPa) = 34.69287 44.18630 39.43959
#
# Velocity S-wave (km/s) = 3.78066 4.26669 4.03101
# Velocity P-wave (km/s) = 5.99507 7.21282 6.63195
#
# Compressibility (1/GPa) = 0.02440321
#
# Stress axis : x y z
#
# Youngs Moduli (GPa) = 94.92765 157.51408 52.65520
#
# Poissons Ratio (x) = 0.19484 0.09137
# Poissons Ratio (y) = 0.11742 0.14551
# Poissons Ratio (z) = 0.16473 0.43528
#
# Static dielectric constant tensor:
#      x y z
#    x 1.489980 0.001650 -0.551540 
#    y 0.001650 2.053350 -0.025960 
#    z -0.551540 -0.025960 1.732110 
# 
# From -- ./inp_files/90498.got.cif
#   From: 2010.05.17/outbox.cif.g08.bks.cpg/sg2_46_cif.got.tgz:90498.got - 2010.06.03 11:33:40.
