data_PCOD9047015
_publ_section_title
;
Structure prediction by ZEFSAII (Michael W. Deem and Ramdas Pophale) SiO2 
 PCOD9047015
Probable space group: P -1
;
_chemical_formula_sum "Si O2"
_cell_formula_units_Z 12
_cell_length_a 15.919281
_cell_length_b 8.729966
_cell_length_c 15.523044
_cell_angle_alpha 138.397737
_cell_angle_beta 28.138897
_cell_angle_gamma 148.986312
_cell_volume 523.931342
_symmetry_space_group_name_H-M "P -1"
_symmetry_group_IT_number 2
_symmetry_cell_setting 'triclinic'
loop_
_space_group_symop_operation_xyz
x,y,z
-x,-y,-z
loop_
_atom_site_type_symbol
_atom_site_label
_atom_site_fract_x
_atom_site_fract_y
_atom_site_fract_z
Si Si1 0.124198 0.068260 0.325719
Si Si2 0.932731 0.259430 0.069173
Si Si3 0.633709 0.382522 0.294080
Si Si4 0.844034 0.391734 0.831473
Si Si5 0.430426 0.428436 0.931400
Si Si6 0.149082 0.806135 0.443297
O O1 0.334510 0.414867 0.267097
O O2 0.950693 0.014480 0.386011
O O3 0.200438 0.861856 0.170069
O O4 0.000000 0.000000 0.500000
O O5 0.186278 0.433126 0.870175
O O6 0.796774 0.377045 0.210438
O O7 0.969020 0.309310 0.159627
O O8 0.767616 0.919178 0.046713
O O9 0.500000 0.500000 0.500000
O O10 0.419301 0.041101 0.317428
O O11 0.899056 0.315077 0.660546
O O12 0.658955 0.419170 0.974570
O O13 0.500000 0.500000 0.000000
O O14 0.000000 0.500000 0.500000
#
# Coordination Sequence:
#
# PCOD9047015 Si02
#       6
#     2   2   2   2   2   2
#     4  10  24  43  70 106 140 187 246 300 365 440
#     4  11  27  47  70 112 144 193 247 304 370 437
#     4  11  26  46  74 106 153 189 242 307 372 436
#     4  11  25  45  73 101 146 187 243 303 369 435
#     4  12  26  46  74 102 144 193 248 302 372 443
#     4  11  24  46  74 108 140 195 245 301 368 440
#
# _framework density 22.903762
#
# number of rings (size 3 to 8) (size 9 to 14) (size 15 to 20)
#    0.000    1.000    0.000    5.000   16.333    0.000 
#    0.000    4.167    0.000    0.000    0.000    0.000 
#    0.000    0.000    0.000    0.000    0.000    0.000 
#
# Total GULP energy -66852.584795 kJ/mol
# GULP energy per Si atom -5571.048733 kJ/mol
# Density = 2.285163 g / cm^3
# Si number density = 22.903762 Si / 1000 Ang^3
#
#
#
# Elastic Constant Matrix: (Units=GPa)
#
#
# Indices 1 2 3 4 5 6 
#
# 1 126.9890 58.6625 36.9760 -7.4163 -22.2991 30.7980
# 2 58.6625 174.9587 60.7215 -27.1279 8.0463 22.3406
# 3 36.9760 60.7215 114.7833 -12.9800 -20.6325 9.7495
# 4 -7.4163 -27.1279 -12.9800 37.7001 -3.5585 4.0423
# 5 -22.2991 8.0463 -20.6325 -3.5585 42.6879 14.2894
# 6 30.7980 22.3406 9.7495 4.0423 14.2894 28.0218
#
#
#
# Elastic Compliance Matrix: (Units=1/GPa)
#
#
# Indices 1 2 3 4 5 6 
#
# 1 0.025694 -0.004336 0.004990 0.011536 0.032613 -0.044814
# 2 -0.004336 0.009352 -0.004436 0.003572 -0.006412 0.001606
# 3 0.004990 -0.004436 0.014447 0.006041 0.016346 -0.016181
# 4 0.011536 0.003572 0.006041 0.039426 0.023350 -0.035224
# 5 0.032613 -0.006412 0.016346 0.023350 0.078182 -0.079656
# 6 -0.044814 0.001606 -0.016181 -0.035224 -0.079656 0.134990
#
#
# Mechanical properties :
#
#
# Convention : Reuss Voigt Hill
#
# Bulk Modulus (GPa) = 23.84929 81.05010 52.44969
# Shear Modulus (GPa) = 15.44970 39.04004 27.24487
#
# Velocity S-wave (km/s) = 2.60003 4.13307 3.45271
# Velocity P-wave (km/s) = 4.41010 7.63154 6.23255
#
# Compressibility (1/GPa) = 0.04192997
#
# Stress axis : x y z
#
# Youngs Moduli (GPa) = 38.92014 106.92334 69.21873
#
# Poissons Ratio (x) = 0.46358 -0.34540
# Poissons Ratio (y) = 0.16874 0.30705
# Poissons Ratio (z) = -0.19421 0.47430
#
# Static dielectric constant tensor:
#      x y z
#    x 2.028970 -0.043150 -0.210260 
#    y -0.043150 1.888470 0.059600 
#    z -0.210260 0.059600 2.090350 
# 
# From -- ./inp_files/159695.got.cif
#   From: 2010.05.17/outbox.cif.g08.bks.cpg/sg2_80_cif.got.tgz:159695.got - 2010.06.03 11:33:40.
