data_PCOD9047779
_publ_section_title
;
Structure prediction by ZEFSAII (Michael W. Deem and Ramdas Pophale) SiO2 
 PCOD9047779
Probable space group: P -1
;
_chemical_formula_sum "Si O2"
_cell_formula_units_Z 16
_cell_length_a 7.888981
_cell_length_b 14.305656
_cell_length_c 14.179015
_cell_angle_alpha 137.612707
_cell_angle_beta 136.760748
_cell_angle_gamma 54.602459
_cell_volume 736.056251
_symmetry_space_group_name_H-M "P -1"
_symmetry_group_IT_number 2
_symmetry_cell_setting 'triclinic'
loop_
_space_group_symop_operation_xyz
x,y,z
-x,-y,-z
loop_
_atom_site_type_symbol
_atom_site_label
_atom_site_fract_x
_atom_site_fract_y
_atom_site_fract_z
Si Si1 0.328913 0.350382 0.920192
Si Si2 0.057327 0.729421 0.165139
Si Si3 0.816462 0.786902 0.795413
Si Si4 0.831863 0.417047 0.093958
Si Si5 0.504817 0.931118 0.321882
Si Si6 0.330682 0.790131 0.495624
Si Si7 0.946137 0.041859 0.140971
Si Si8 0.020757 0.064194 0.385575
O O1 0.187650 0.343765 0.957069
O O2 0.153360 0.430188 0.829183
O O3 0.406935 0.193688 0.804503
O O4 0.586092 0.420354 0.062023
O O5 0.241673 0.700235 0.306605
O O6 0.998812 0.897616 0.263890
O O7 0.177042 0.672360 0.073906
O O8 0.569011 0.737214 0.613099
O O9 0.992959 0.846036 0.829447
O O10 0.951676 0.663306 0.818509
O O11 0.771839 0.928687 0.946140
O O12 0.685954 0.907338 0.469044
O O13 0.583442 0.073044 0.417576
O O14 0.207225 0.952114 0.208323
O O15 0.109377 0.849962 0.518050
O O16 0.883009 0.109266 0.266289
#
# Coordination Sequence:
#
# PCOD9047779 Si02
#       8
#     2   2   2   2   2   2   2   2
#     4  11  21  38  64  85 114 153 202 240 274 348
#     4  11  20  40  61  90 117 147 196 246 287 337
#     4  10  21  38  50  85 122 155 186 234 293 350
#     4  11  24  40  61  86 116 158 197 237 284 336
#     4  10  17  34  57  88 113 142 192 246 287 334
#     4  10  21  34  59  86 121 145 184 246 296 347
#     4  10  20  32  58  83 119 155 181 240 301 339
#     4  11  18  33  59  91 114 146 190 242 295 346
#
# _framework density 21.737469000000001
#
# number of rings (size 3 to 8) (size 9 to 14) (size 15 to 20)
#    0.000    1.500    5.000    1.500    0.000    2.500 
#    2.250    0.625    0.000    3.750    0.000    0.000 
#    0.000    0.000    0.000    0.000    0.000    0.000 
#
# Total GULP energy -89208.371702 kJ/mol
# GULP energy per Si atom -5575.523231 kJ/mol
# Density = 2.168799 g / cm^3
# Si number density = 21.737469 Si / 1000 Ang^3
#
#
#
# Elastic Constant Matrix: (Units=GPa)
#
#
# Indices 1 2 3 4 5 6 
#
# 1 68.5586 18.1643 14.0663 -1.4822 -5.8626 4.4655
# 2 18.1643 83.3709 14.2158 -16.3328 -2.4839 -2.2650
# 3 14.0663 14.2158 56.5276 -20.4761 -10.3668 -0.5866
# 4 -1.4822 -16.3328 -20.4761 31.1907 11.2491 -4.8663
# 5 -5.8626 -2.4839 -10.3668 11.2491 23.7891 -0.8356
# 6 4.4655 -2.2650 -0.5866 -4.8663 -0.8356 18.1403
#
#
#
# Elastic Compliance Matrix: (Units=1/GPa)
#
#
# Indices 1 2 3 4 5 6 
#
# 1 0.017570 -0.004516 -0.005232 -0.007870 0.005056 -0.006936
# 2 -0.004516 0.014936 0.000370 0.010154 -0.004000 0.005528
# 3 -0.005232 0.000370 0.025511 0.017013 0.002061 0.006818
# 4 -0.007870 0.010154 0.017013 0.058431 -0.020446 0.018488
# 5 0.005056 -0.004000 0.002061 -0.020446 0.053266 -0.004709
# 6 -0.006936 0.005528 0.006818 0.018488 -0.004709 0.062487
#
#
# Mechanical properties :
#
#
# Convention : Reuss Voigt Hill
#
# Bulk Modulus (GPa) = 25.47107 33.48333 29.47720
# Shear Modulus (GPa) = 18.93632 25.42471 22.18052
#
# Velocity S-wave (km/s) = 2.95471 3.42369 3.19781
# Velocity P-wave (km/s) = 4.83564 5.57367 5.21772
#
# Compressibility (1/GPa) = 0.03926023
#
# Stress axis : x y z
#
# Youngs Moduli (GPa) = 56.91541 66.95395 39.19926
#
# Poissons Ratio (x) = 0.30233 0.20509
# Poissons Ratio (y) = 0.25700 -0.01448
# Poissons Ratio (z) = 0.29778 -0.02474
#
# Static dielectric constant tensor:
#      x y z
#    x 1.887220 -0.005340 -0.013240 
#    y -0.005340 1.802020 -0.040810 
#    z -0.013240 -0.040810 1.865460 
# 
# From -- ./inp_files/199688.got.cif
#   From: 2010.05.17/outbox.cif.g08.bks.cpg/sg2_100_cif.got.tgz:199688.got - 2010.06.03 11:33:40.
