data_PCOD9047615
_publ_section_title
;
Structure prediction by ZEFSAII (Michael W. Deem and Ramdas Pophale) SiO2 
 PCOD9047615
Probable space group: P -1
;
_chemical_formula_sum "Si O2"
_cell_formula_units_Z 14
_cell_length_a 9.799285
_cell_length_b 13.596996
_cell_length_c 11.921500
_cell_angle_alpha 135.767304
_cell_angle_beta 52.624459
_cell_angle_gamma 89.147483
_cell_volume 514.592199
_symmetry_space_group_name_H-M "P -1"
_symmetry_group_IT_number 2
_symmetry_cell_setting 'triclinic'
loop_
_space_group_symop_operation_xyz
x,y,z
-x,-y,-z
loop_
_atom_site_type_symbol
_atom_site_label
_atom_site_fract_x
_atom_site_fract_y
_atom_site_fract_z
Si Si1 0.173948 0.801808 0.852063
Si Si2 0.625141 0.121752 0.737107
Si Si3 0.688472 0.770184 0.471221
Si Si4 0.563786 0.580643 0.735623
Si Si5 0.942039 0.552213 0.385232
Si Si6 0.146213 0.109115 0.185584
Si Si7 0.379502 0.929874 0.543934
O O1 0.937188 0.851425 0.059915
O O2 0.211936 0.901407 0.005126
O O3 0.451961 0.538793 0.442704
O O4 0.000000 0.000000 0.000000
O O5 0.662332 0.138013 0.601090
O O6 0.779826 0.868518 0.474480
O O7 0.671189 0.200821 0.880352
O O8 0.273140 0.322764 0.075451
O O9 0.903916 0.551495 0.271801
O O10 0.602120 0.741279 0.379265
O O11 0.385728 0.983568 0.868175
O O12 0.734941 0.594604 0.599789
O O13 0.816644 0.347280 0.500679
O O14 0.835811 0.785436 0.642479
O O15 0.500000 0.000000 0.500000
#
# Coordination Sequence:
#
# PCOD9047615 Si02
#       7
#     2   2   2   2   2   2   2
#     4  10  19  36  63  83 118 157 190 240 295 341
#     4  10  20  35  55  88 117 145 196 241 283 341
#     4  11  19  34  60  88 114 153 197 240 286 341
#     4  10  17  34  57  85 114 148 193 240 277 340
#     4  11  20  33  61  89 116 150 202 242 278 343
#     4  10  18  34  58  85 117 148 192 243 289 334
#     4  10  20  36  59  88 116 156 194 232 296 353
#
# _framework density 27.206009000000002
#
# number of rings (size 3 to 8) (size 9 to 14) (size 15 to 20)
#    0.000    1.714    5.714    2.143    0.000    0.571 
#    0.000    7.143    0.000    3.429    0.000    0.000 
#    0.000    1.429    0.000    0.000    0.000    0.000 
#
# Total GULP energy -78259.672736 kJ/mol
# GULP energy per Si atom -5589.976624 kJ/mol
# Density = 2.714409 g / cm^3
# Si number density = 27.206009 Si / 1000 Ang^3
#
#
#
# Elastic Constant Matrix: (Units=GPa)
#
#
# Indices 1 2 3 4 5 6 
#
# 1 90.0862 32.8946 29.1116 -5.1395 36.1925 -21.7881
# 2 32.8946 107.8078 40.3821 6.1482 22.4829 -8.1065
# 3 29.1116 40.3821 108.3837 -2.4786 31.5198 4.0596
# 4 -5.1395 6.1482 -2.4786 50.2974 -3.8907 13.3046
# 5 36.1925 22.4829 31.5198 -3.8907 48.1001 -8.3162
# 6 -21.7881 -8.1065 4.0596 13.3046 -8.3162 45.3203
#
#
#
# Elastic Compliance Matrix: (Units=1/GPa)
#
#
# Indices 1 2 3 4 5 6 
#
# 1 0.018226 -0.002364 -0.001146 -0.000486 -0.010754 0.006611
# 2 -0.002364 0.011869 -0.003514 -0.002438 -0.001357 0.001768
# 3 -0.001146 -0.003514 0.012926 0.001496 -0.006532 -0.003975
# 4 -0.000486 -0.002438 0.001496 0.022169 0.001089 -0.007112
# 5 -0.010754 -0.001357 -0.006532 0.001089 0.034076 0.001105
# 6 0.006611 0.001768 -0.003975 -0.007112 0.001105 0.028207
#
#
# Mechanical properties :
#
#
# Convention : Reuss Voigt Hill
#
# Bulk Modulus (GPa) = 34.51607 56.78382 45.64995
# Shear Modulus (GPa) = 33.07347 42.33618 37.70483
#
# Velocity S-wave (km/s) = 3.49043 3.94907 3.72681
# Velocity P-wave (km/s) = 5.38132 6.45837 5.94429
#
# Compressibility (1/GPa) = 0.02897201
#
# Stress axis : x y z
#
# Youngs Moduli (GPa) = 54.86711 84.25624 77.36165
#
# Poissons Ratio (x) = 0.19922 0.08863
# Poissons Ratio (y) = 0.12973 0.27187
# Poissons Ratio (z) = 0.06286 0.29610
#
# Static dielectric constant tensor:
#      x y z
#    x 2.294410 -0.080240 0.061180 
#    y -0.080240 2.099390 0.021130 
#    z 0.061180 0.021130 2.153100 
# 
# From -- ./inp_files/254850.got.cif
#   From: 2010.05.17/outbox.cif.g08.bks.cpg/sg2_128_cif.got.tgz:254850.got - 2010.06.03 11:33:40.
