data_PCOD9047327
_publ_section_title
;
Structure prediction by ZEFSAII (Michael W. Deem and Ramdas Pophale) SiO2 
 PCOD9047327
Probable space group: P -1
;
_chemical_formula_sum "Si O2"
_cell_formula_units_Z 14
_cell_length_a 13.816943
_cell_length_b 13.541523
_cell_length_c 8.468604
_cell_angle_alpha 122.432025
_cell_angle_beta 79.483775
_cell_angle_gamma 148.244372
_cell_volume 554.618250
_symmetry_space_group_name_H-M "P -1"
_symmetry_group_IT_number 2
_symmetry_cell_setting 'triclinic'
loop_
_space_group_symop_operation_xyz
x,y,z
-x,-y,-z
loop_
_atom_site_type_symbol
_atom_site_label
_atom_site_fract_x
_atom_site_fract_y
_atom_site_fract_z
Si Si1 0.257800 0.786233 0.095939
Si Si2 0.303940 0.282791 0.209198
Si Si3 0.391668 0.651370 0.456109
Si Si4 0.512758 0.861542 0.258069
Si Si5 0.908181 0.941515 0.242607
Si Si6 0.697143 0.559097 0.247670
Si Si7 0.049941 0.450799 0.566690
O O1 0.432126 0.902339 0.258937
O O2 0.370974 0.037126 0.274176
O O3 0.221057 0.687016 0.852103
O O4 0.000000 0.500000 0.000000
O O5 0.370492 0.489304 0.333924
O O6 0.523010 0.438403 0.313258
O O7 0.092197 0.051765 0.197106
O O8 0.221047 0.145883 0.944298
O O9 0.387672 0.683705 0.301553
O O10 0.180871 0.487076 0.470006
O O11 0.419047 0.681012 0.988576
O O12 0.788976 0.143629 0.442983
O O13 0.059871 0.192767 0.519827
O O14 0.749438 0.700772 0.205896
O O15 0.000000 0.500000 0.500000
#
# Coordination Sequence:
#
# PCOD9047327 Si02
#       7
#     2   2   2   2   2   2   2
#     4  12  26  48  75 105 143 181 233 294 355 419
#     4  11  25  44  70 100 142 181 236 287 343 408
#     4  12  26  47  71 106 141 188 237 290 352 416
#     4  12  27  46  71 106 144 187 235 288 351 423
#     4  10  24  44  65 100 137 183 236 282 343 411
#     4  11  25  44  71 100 142 186 231 285 348 411
#     4  12  27  48  74 102 145 186 234 292 351 421
#
# _framework density 25.242588999999999
#
# number of rings (size 3 to 8) (size 9 to 14) (size 15 to 20)
#    0.000    0.571    4.286    2.571    6.000    2.286 
#    2.571    0.000    0.000    0.000    0.000    0.000 
#    0.000    0.000    0.000    0.000    0.000    0.000 
#
# Total GULP energy -78497.247868 kJ/mol
# GULP energy per Si atom -5606.946276 kJ/mol
# Density = 2.518514 g / cm^3
# Si number density = 25.242589 Si / 1000 Ang^3
#
#
#
# Elastic Constant Matrix: (Units=GPa)
#
#
# Indices 1 2 3 4 5 6 
#
# 1 52.4813 12.6610 28.6388 -1.3068 -6.3334 7.0484
# 2 12.6610 120.2840 12.4914 -1.9929 -1.5679 9.5056
# 3 28.6388 12.4914 144.9963 3.7183 -2.0789 5.8150
# 4 -1.3068 -1.9929 3.7183 48.7813 -3.7086 15.1054
# 5 -6.3334 -1.5679 -2.0789 -3.7086 49.6508 -1.6770
# 6 7.0484 9.5056 5.8150 15.1054 -1.6770 27.9601
#
#
#
# Elastic Compliance Matrix: (Units=1/GPa)
#
#
# Indices 1 2 3 4 5 6 
#
# 1 0.022867 -0.001430 -0.004196 0.002875 0.002715 -0.005796
# 2 -0.001430 0.008787 -0.000377 0.001372 0.000071 -0.003285
# 3 -0.004196 -0.000377 0.007775 -0.000724 -0.000278 -0.000057
# 4 0.002875 0.001372 -0.000724 0.025354 0.001779 -0.014631
# 5 0.002715 0.000071 -0.000278 0.001779 0.020598 -0.000377
# 6 -0.005796 -0.003285 -0.000057 -0.014631 -0.000377 0.046237
#
#
# Mechanical properties :
#
#
# Convention : Reuss Voigt Hill
#
# Bulk Modulus (GPa) = 36.46627 47.26046 41.86336
# Shear Modulus (GPa) = 32.73044 42.87647 37.80345
#
# Velocity S-wave (km/s) = 3.60479 4.12585 3.87409
# Velocity P-wave (km/s) = 5.63948 6.43894 6.05243
#
# Compressibility (1/GPa) = 0.02742261
#
# Stress axis : x y z
#
# Youngs Moduli (GPa) = 43.73188 113.80944 128.62146
#
# Poissons Ratio (x) = 0.16276 0.53965
# Poissons Ratio (y) = 0.06254 0.04848
# Poissons Ratio (z) = 0.18348 0.04290
#
# Static dielectric constant tensor:
#      x y z
#    x 1.943580 0.016330 0.015600 
#    y 0.016330 1.975750 -0.010830 
#    z 0.015600 -0.010830 2.061950 
# 
# From -- ./inp_files/315851.got.cif
#   From: 2010.05.17/outbox.cif.g08.bks.cpg/sg2_158_cif.got.tgz:315851.got - 2010.06.03 11:33:40.
