data_PCOD9047773
_publ_section_title
;
Structure prediction by ZEFSAII (Michael W. Deem and Ramdas Pophale) SiO2 
 PCOD9047773
Probable space group: P -1
;
_chemical_formula_sum "Si O2"
_cell_formula_units_Z 15
_cell_length_a 6.609040
_cell_length_b 12.657900
_cell_length_c 11.525541
_cell_angle_alpha 90.621990
_cell_angle_beta 98.522761
_cell_angle_gamma 134.744233
_cell_volume 668.089978
_symmetry_space_group_name_H-M "P -1"
_symmetry_group_IT_number 2
_symmetry_cell_setting 'triclinic'
loop_
_space_group_symop_operation_xyz
x,y,z
-x,-y,-z
loop_
_atom_site_type_symbol
_atom_site_label
_atom_site_fract_x
_atom_site_fract_y
_atom_site_fract_z
Si Si1 0.214023 0.835230 0.925556
Si Si2 0.114066 0.454662 0.774637
Si Si3 0.790914 0.229861 0.537981
Si Si4 0.843898 0.038425 0.424645
Si Si5 0.631098 0.308159 0.919714
Si Si6 0.391823 0.774385 0.730647
Si Si7 0.500000 0.500000 0.000000
Si Si8 0.023762 0.965382 0.826435
O O1 0.224777 0.797629 0.794868
O O2 0.987777 0.849396 0.906327
O O3 0.193185 0.719292 0.993860
O O4 0.500000 0.000000 0.000000
O O5 0.307107 0.628375 0.766952
O O6 0.301619 0.438523 0.862719
O O7 0.006602 0.371194 0.640895
O O8 0.820616 0.380536 0.819079
O O9 0.505474 0.095546 0.588277
O O10 0.673135 0.242305 0.411136
O O11 0.938828 0.179308 0.499467
O O12 0.923734 0.058349 0.298301
O O13 0.000000 0.000000 0.500000
O O14 0.597744 0.411429 0.973173
O O15 0.307043 0.138932 0.880918
O O16 0.727013 0.920131 0.793980
#
# Coordination Sequence:
#
# PCOD9047773 Si02
#       8
#     2   2   2   2   2   2   1   2
#     4  10  24  44  70 103 142 187 232 296 347 408
#     4  12  28  47  70 104 145 189 233 292 361 424
#     4  11  25  44  74 100 142 187 232 293 355 424
#     4  11  22  42  70 106 135 179 234 289 349 421
#     4  11  26  48  72 102 144 189 237 293 352 426
#     4  12  25  46  69 109 141 185 236 292 354 421
#     4  12  28  46  74 104 140 190 240 290 350 430
#     4  11  24  44  75 104 139 181 240 291 350 418
#
# _framework density 22.452065000000001
#
# number of rings (size 3 to 8) (size 9 to 14) (size 15 to 20)
#    0.000    0.800    5.333    0.800    3.733    4.267 
#    0.000    0.667    0.000    0.000    0.000    0.000 
#    0.000    0.000    0.000    0.000    0.000    0.000 
#
# Total GULP energy -83565.198824 kJ/mol
# GULP energy per Si atom -5571.013255 kJ/mol
# Density = 2.240096 g / cm^3
# Si number density = 22.452065 Si / 1000 Ang^3
#
#
#
# Elastic Constant Matrix: (Units=GPa)
#
#
# Indices 1 2 3 4 5 6 
#
# 1 53.2611 39.4494 24.2993 -10.9697 15.1592 -23.1125
# 2 39.4494 80.1309 21.8495 11.8454 5.4062 -4.9725
# 3 24.2993 21.8495 94.6765 8.8217 10.3676 -6.5840
# 4 -10.9697 11.8454 8.8217 35.0579 -2.1799 3.4389
# 5 15.1592 5.4062 10.3676 -2.1799 43.2675 -1.2619
# 6 -23.1125 -4.9725 -6.5840 3.4389 -1.2619 32.3430
#
#
#
# Elastic Compliance Matrix: (Units=1/GPa)
#
#
# Indices 1 2 3 4 5 6 
#
# 1 0.095698 -0.045240 -0.011924 0.041631 -0.021354 0.053744
# 2 -0.045240 0.035424 0.003092 -0.024066 0.008790 -0.023352
# 3 -0.011924 0.003092 0.013301 -0.007674 0.000086 -0.004519
# 4 0.041631 -0.024066 -0.007674 0.049334 -0.006701 0.018981
# 5 -0.021354 0.008790 0.000086 -0.006701 0.028786 -0.012055
# 6 0.053744 -0.023352 -0.004519 0.018981 -0.012055 0.062326
#
#
# Mechanical properties :
#
#
# Convention : Reuss Voigt Hill
#
# Bulk Modulus (GPa) = 27.56493 44.36276 35.96385
# Shear Modulus (GPa) = 12.34244 31.63170 21.98707
#
# Velocity S-wave (km/s) = 2.34716 3.75754 3.13275
# Velocity P-wave (km/s) = 4.43277 6.21509 5.39800
#
# Compressibility (1/GPa) = 0.03627798
#
# Stress axis : x y z
#
# Youngs Moduli (GPa) = 10.44952 28.22928 75.18508
#
# Poissons Ratio (x) = 1.27710 0.89652
# Poissons Ratio (y) = 0.47274 -0.23246
# Poissons Ratio (z) = 0.12460 -0.08728
#
# Static dielectric constant tensor:
#      x y z
#    x 1.830170 0.019170 0.005130 
#    y 0.019170 1.859380 -0.037600 
#    z 0.005130 -0.037600 1.814470 
# 
# From -- ./inp_files/364593.got.cif
#   From: 2010.05.17/outbox.cif.g08.bks.cpg/sg2_183_cif.got.tgz:364593.got - 2010.06.03 11:33:40.
