data_PCOD9047039
_publ_section_title
;
Structure prediction by ZEFSAII (Michael W. Deem and Ramdas Pophale) SiO2 
 PCOD9047039
Probable space group: P -1
;
_chemical_formula_sum "Si O2"
_cell_formula_units_Z 14
_cell_length_a 9.140690
_cell_length_b 7.368150
_cell_length_c 14.591310
_cell_angle_alpha 131.117111
_cell_angle_beta 49.379113
_cell_angle_gamma 118.566737
_cell_volume 559.795763
_symmetry_space_group_name_H-M "P -1"
_symmetry_group_IT_number 2
_symmetry_cell_setting 'triclinic'
loop_
_space_group_symop_operation_xyz
x,y,z
-x,-y,-z
loop_
_atom_site_type_symbol
_atom_site_label
_atom_site_fract_x
_atom_site_fract_y
_atom_site_fract_z
Si Si1 0.874392 0.125334 0.218047
Si Si2 0.078211 0.320189 0.832607
Si Si3 0.293615 0.141804 0.965014
Si Si4 0.812040 0.502379 0.513380
Si Si5 0.419301 0.352196 0.575603
Si Si6 0.310011 0.701310 0.113885
Si Si7 0.771349 0.984313 0.599060
O O1 0.873070 0.382097 0.352673
O O2 0.834618 0.908917 0.234243
O O3 0.725607 0.055834 0.173314
O O4 0.092007 0.104428 0.087439
O O5 0.240600 0.437294 0.735899
O O6 0.884769 0.224298 0.826321
O O7 0.000000 0.500000 0.000000
O O8 0.487608 0.157912 0.951225
O O9 0.304182 0.413503 0.008897
O O10 0.606242 0.349609 0.563869
O O11 0.746780 0.770232 0.613743
O O12 0.000000 0.500000 0.500000
O O13 0.500000 0.500000 0.500000
O O14 0.332867 0.104973 0.480861
O O15 0.296511 0.772963 0.250263
O O16 0.000000 0.000000 0.500000
#
# Coordination Sequence:
#
# PCOD9047039 Si02
#       7
#     2   2   2   2   2   2   2
#     4  11  24  44  66  98 139 177 225 284 345 397
#     4  12  25  43  69 101 140 176 226 286 339 406
#     4  10  24  43  70  98 135 183 225 282 338 413
#     4  11  25  43  64  99 135 174 225 285 338 401
#     4  10  25  45  70  98 134 187 229 277 341 411
#     4  11  22  43  70 100 133 182 232 276 340 411
#     4  11  21  41  71  94 131 179 231 272 333 413
#
# _framework density 25.009122000000001
#
# number of rings (size 3 to 8) (size 9 to 14) (size 15 to 20)
#    0.000    1.143    2.857    2.571    2.000    4.571 
#    2.571    0.000    0.000    0.000    0.000    0.000 
#    0.000    0.000    0.000    0.000    0.000    0.000 
#
# Total GULP energy -78225.421775 kJ/mol
# GULP energy per Si atom -5587.530127 kJ/mol
# Density = 2.495220 g / cm^3
# Si number density = 25.009122 Si / 1000 Ang^3
#
#
#
# Elastic Constant Matrix: (Units=GPa)
#
#
# Indices 1 2 3 4 5 6 
#
# 1 154.8023 54.9478 32.3768 -7.9512 -3.3967 44.0680
# 2 54.9478 91.4640 28.4581 -1.0425 6.5775 17.4503
# 3 32.3768 28.4581 139.3662 4.3225 7.4223 19.2189
# 4 -7.9512 -1.0425 4.3225 40.4969 13.0583 -5.5550
# 5 -3.3967 6.5775 7.4223 13.0583 33.6531 3.5487
# 6 44.0680 17.4503 19.2189 -5.5550 3.5487 52.7701
#
#
#
# Elastic Compliance Matrix: (Units=1/GPa)
#
#
# Indices 1 2 3 4 5 6 
#
# 1 0.010399 -0.004926 -0.000597 0.000098 0.002846 -0.007019
# 2 -0.004926 0.014632 -0.001717 0.000669 -0.003258 0.000190
# 3 -0.000597 -0.001717 0.008004 -0.000982 -0.000910 -0.001891
# 4 0.000098 0.000669 -0.000982 0.029114 -0.011613 0.003900
# 5 0.002846 -0.003258 -0.000910 -0.011613 0.035831 -0.004600
# 6 -0.007019 0.000190 -0.001891 0.003900 -0.004600 0.026157
#
#
# Mechanical properties :
#
#
# Convention : Reuss Voigt Hill
#
# Bulk Modulus (GPa) = 53.88969 68.57756 61.23362
# Shear Modulus (GPa) = 34.52996 43.37402 38.95199
#
# Velocity S-wave (km/s) = 3.71980 4.16904 3.95081
# Velocity P-wave (km/s) = 6.32803 7.11724 6.73421
#
# Compressibility (1/GPa) = 0.01855643
#
# Stress axis : x y z
#
# Youngs Moduli (GPa) = 96.16663 68.34109 124.93359
#
# Poissons Ratio (x) = 0.33664 0.07454
# Poissons Ratio (y) = 0.47371 0.21450
# Poissons Ratio (z) = 0.05738 0.11734
#
# Static dielectric constant tensor:
#      x y z
#    x 2.044090 -0.013250 -0.005110 
#    y -0.013250 2.049970 -0.009600 
#    z -0.005110 -0.009600 2.011330 
# 
# From -- ./inp_files/493775.got.cif
#   From: 2010.05.17/outbox.cif.g08.bks.cpg/sg2_247_cif.got.tgz:493775.got - 2010.06.03 11:33:40.
