data_PCOD9047708
_publ_section_title
;
Structure prediction by ZEFSAII (Michael W. Deem and Ramdas Pophale) SiO2 
 PCOD9047708
Probable space group: P -1
;
_chemical_formula_sum "Si O2"
_cell_formula_units_Z 14
_cell_length_a 10.014756
_cell_length_b 9.161888
_cell_length_c 22.642241
_cell_angle_alpha 39.360984
_cell_angle_beta 27.364598
_cell_angle_gamma 47.660656
_cell_volume 605.008341
_symmetry_space_group_name_H-M "P -1"
_symmetry_group_IT_number 2
_symmetry_cell_setting 'triclinic'
loop_
_space_group_symop_operation_xyz
x,y,z
-x,-y,-z
loop_
_atom_site_type_symbol
_atom_site_label
_atom_site_fract_x
_atom_site_fract_y
_atom_site_fract_z
Si Si1 0.656319 0.319944 0.034603
Si Si2 0.323614 0.973245 0.356251
Si Si3 0.529327 0.034355 0.384011
Si Si4 0.870406 0.511428 0.112600
Si Si5 0.367394 0.998885 0.962446
Si Si6 0.912182 0.189481 0.746439
Si Si7 0.013639 0.345630 0.484924
O O1 0.436844 0.189024 0.206492
O O2 0.500000 0.500000 0.000000
O O3 0.746390 0.135402 0.008435
O O4 0.901094 0.444210 0.939138
O O5 0.522920 0.967059 0.337954
O O6 0.000000 0.000000 0.500000
O O7 0.284536 0.756044 0.395552
O O8 0.696387 0.271828 0.261882
O O9 0.201640 0.120833 0.495682
O O10 0.742653 0.848653 0.385696
O O11 0.000000 0.500000 0.000000
O O12 0.690424 0.737323 0.109381
O O13 0.200739 0.892764 0.118580
O O14 0.712622 0.020799 0.835078
O O15 0.857959 0.460762 0.672560
O O16 0.000000 0.500000 0.500000
#
# Coordination Sequence:
#
# PCOD9047708 Si02
#       7
#     2   2   2   2   2   2   2
#     4  12  26  41  71 111 138 177 247 300 347 422
#     4  10  24  44  69  95 142 188 227 282 359 422
#     4  11  23  44  69  99 137 187 234 284 359 422
#     4  12  22  43  71  98 146 186 224 300 367 411
#     4  11  24  40  69 104 143 175 240 293 360 419
#     4  11  23  41  71 100 137 186 233 288 360 419
#     4  11  25  45  70  95 141 188 236 291 350 423
#
# _framework density 23.140177000000001
#
# number of rings (size 3 to 8) (size 9 to 14) (size 15 to 20)
#    0.000    0.857    4.286    2.143    6.000    1.143 
#    0.000    1.429    0.000    0.000    0.000    0.000 
#    0.000    0.000    0.000    0.000    0.000    0.000 
#
# Total GULP energy -78125.747820 kJ/mol
# GULP energy per Si atom -5580.410559 kJ/mol
# Density = 2.308751 g / cm^3
# Si number density = 23.140177 Si / 1000 Ang^3
#
#
#
# Elastic Constant Matrix: (Units=GPa)
#
#
# Indices 1 2 3 4 5 6 
#
# 1 171.5327 33.1211 39.0347 -2.1652 -41.3496 18.9774
# 2 33.1211 77.9838 -8.4749 0.3581 -18.3516 7.5608
# 3 39.0347 -8.4749 62.6426 -15.5711 -26.2454 3.9379
# 4 -2.1652 0.3581 -15.5711 26.3767 8.0218 -8.8641
# 5 -41.3496 -18.3516 -26.2454 8.0218 38.3242 -10.7471
# 6 18.9774 7.5608 3.9379 -8.8641 -10.7471 46.7501
#
#
#
# Elastic Compliance Matrix: (Units=1/GPa)
#
#
# Indices 1 2 3 4 5 6 
#
# 1 0.008924 -0.002773 -0.004622 -0.004396 0.005388 -0.002380
# 2 -0.002773 0.017737 0.009440 0.001695 0.011747 0.000484
# 3 -0.004622 0.009440 0.031402 0.013705 0.019513 0.004788
# 4 -0.004396 0.001695 0.013705 0.049411 -0.002311 0.009194
# 5 0.005388 0.011747 0.019513 -0.002311 0.053069 0.006031
# 6 -0.002380 0.000484 0.004788 0.009194 0.006031 0.025004
#
#
# Mechanical properties :
#
#
# Convention : Reuss Voigt Hill
#
# Bulk Modulus (GPa) = 16.08970 48.83564 32.46267
# Shear Modulus (GPa) = 24.73122 38.85541 31.79332
#
# Velocity S-wave (km/s) = 3.27273 4.10217 3.71070
# Velocity P-wave (km/s) = 4.60969 6.60205 5.69370
#
# Compressibility (1/GPa) = 0.06215156
#
# Stress axis : x y z
#
# Youngs Moduli (GPa) = 112.06215 56.38058 31.84559
#
# Poissons Ratio (x) = 0.15637 0.14718
# Poissons Ratio (y) = 0.31080 -0.30063
# Poissons Ratio (z) = 0.51792 -0.53224
#
# Static dielectric constant tensor:
#      x y z
#    x 1.911930 0.008040 -0.020060 
#    y 0.008040 1.775840 0.094270 
#    z -0.020060 0.094270 1.869250 
# 
# From -- ./inp_files/378276.got.cif
#   From: 2010.05.17/outbox.cif.g08.bks.cpg/sg2_190_cif.got.tgz:378276.got - 2010.06.03 11:33:40.
