data_PCOD9047163
_publ_section_title
;
Structure prediction by ZEFSAII (Michael W. Deem and Ramdas Pophale) SiO2 
 PCOD9047163
Probable space group: P -1
;
_chemical_formula_sum "Si O2"
_cell_formula_units_Z 13
_cell_length_a 5.217324
_cell_length_b 13.819987
_cell_length_c 16.021836
_cell_angle_alpha 154.772923
_cell_angle_beta 111.930933
_cell_angle_gamma 66.715952
_cell_volume 451.892953
_symmetry_space_group_name_H-M "P -1"
_symmetry_group_IT_number 2
_symmetry_cell_setting 'triclinic'
loop_
_space_group_symop_operation_xyz
x,y,z
-x,-y,-z
loop_
_atom_site_type_symbol
_atom_site_label
_atom_site_fract_x
_atom_site_fract_y
_atom_site_fract_z
Si Si1 0.571003 0.019401 0.353152
Si Si2 0.157972 0.421641 0.641867
Si Si3 0.207637 0.658394 0.607441
Si Si4 0.000000 0.000000 0.000000
Si Si5 0.198540 0.785160 0.240424
Si Si6 0.573631 0.153061 0.975002
Si Si7 0.944186 0.496701 0.848830
O O1 0.899650 0.946497 0.333964
O O2 0.444113 0.911577 0.334838
O O3 0.451502 0.285936 0.541593
O O4 0.433126 0.909363 0.171068
O O5 0.177303 0.695736 0.847737
O O6 0.930597 0.305377 0.473364
O O7 0.120504 0.387714 0.708513
O O8 0.500000 0.500000 0.500000
O O9 0.156396 0.878396 0.833521
O O10 0.000000 0.500000 0.500000
O O11 0.307563 0.055718 0.116605
O O12 0.220335 0.658981 0.233413
O O13 0.146517 0.599421 0.018632
O O14 0.277168 0.305785 0.066453
#
# Coordination Sequence:
#
# PCOD9047163 Si02
#       7
#     2   2   2   1   2   2   2
#     4  11  25  44  70 105 144 185 242 290 358 430
#     4  12  25  44  71 105 143 188 237 307 353 435
#     4  12  28  49  75 111 145 193 254 305 368 443
#     4  12  24  52  78 108 150 200 242 310 378 444
#     4  10  24  45  71 104 142 194 236 291 361 430
#     4  11  24  46  69 106 141 191 235 305 359 433
#     4  10  24  43  73 100 148 185 242 297 359 425
#
# _framework density 28.767875
#
# number of rings (size 3 to 8) (size 9 to 14) (size 15 to 20)
#    0.000    0.923    4.615    0.923    4.308    3.692 
#    2.769    0.000    0.000    0.000    0.000    0.000 
#    0.000    0.000    0.000    0.000    0.000    0.000 
#
# Total GULP energy -72674.917723 kJ/mol
# GULP energy per Si atom -5590.378286 kJ/mol
# Density = 2.870240 g / cm^3
# Si number density = 28.767875 Si / 1000 Ang^3
#
#
#
# Elastic Constant Matrix: (Units=GPa)
#
#
# Indices 1 2 3 4 5 6 
#
# 1 126.0462 37.5020 53.2549 7.5538 -34.5595 10.9229
# 2 37.5020 108.4495 46.0101 -24.7375 -10.5681 -30.9836
# 3 53.2549 46.0101 195.4255 -5.1124 -31.4896 3.4076
# 4 7.5538 -24.7375 -5.1124 53.1481 0.1792 -2.8101
# 5 -34.5595 -10.5681 -31.4896 0.1792 50.6203 12.8482
# 6 10.9229 -30.9836 3.4076 -2.8101 12.8482 52.5484
#
#
#
# Elastic Compliance Matrix: (Units=1/GPa)
#
#
# Indices 1 2 3 4 5 6 
#
# 1 0.015243 -0.009013 -0.000177 -0.007032 0.011392 -0.011633
# 2 -0.009013 0.020530 -0.003749 0.011399 -0.008534 0.016918
# 3 -0.000177 -0.003749 0.006765 -0.001280 0.004253 -0.003721
# 4 -0.007032 0.011399 -0.001280 0.025607 -0.006135 0.011135
# 5 0.011392 -0.008534 0.004253 -0.006135 0.032465 -0.015942
# 6 -0.011633 0.016918 -0.003721 0.011135 -0.015942 0.036158
#
#
# Mechanical properties :
#
#
# Convention : Reuss Voigt Hill
#
# Bulk Modulus (GPa) = 60.02893 78.16171 69.09532
# Shear Modulus (GPa) = 29.72629 50.80698 40.26663
#
# Velocity S-wave (km/s) = 3.21801 4.20706 3.74533
# Velocity P-wave (km/s) = 5.89232 7.12937 6.54016
#
# Compressibility (1/GPa) = 0.01665864
#
# Stress axis : x y z
#
# Youngs Moduli (GPa) = 65.60240 48.70818 147.82349
#
# Poissons Ratio (x) = 0.43903 0.02620
# Poissons Ratio (y) = 0.59130 0.55424
# Poissons Ratio (z) = 0.01163 0.18262
#
# Static dielectric constant tensor:
#      x y z
#    x 2.276040 -0.180300 0.019250 
#    y -0.180300 1.387500 -0.563030 
#    z 0.019250 -0.563030 2.019670 
# 
# From -- ./inp_files/41713.got.cif
#   From: 2010.05.17/outbox.cif.g08.bks.cpg/sg2_21_cif.got.tgz:41713.got - 2010.06.03 11:33:40.
