data_PCOD9047317
_publ_section_title
;
Structure prediction by ZEFSAII (Michael W. Deem and Ramdas Pophale) SiO2 
 PCOD9047317
Probable space group: P -1
;
_chemical_formula_sum "Si O2"
_cell_formula_units_Z 16
_cell_length_a 17.696378
_cell_length_b 7.479363
_cell_length_c 9.946770
_cell_angle_alpha 62.197082
_cell_angle_beta 139.047465
_cell_angle_gamma 91.604780
_cell_volume 632.731493
_symmetry_space_group_name_H-M "P -1"
_symmetry_group_IT_number 2
_symmetry_cell_setting 'triclinic'
loop_
_space_group_symop_operation_xyz
x,y,z
-x,-y,-z
loop_
_atom_site_type_symbol
_atom_site_label
_atom_site_fract_x
_atom_site_fract_y
_atom_site_fract_z
Si Si1 0.398381 0.406313 0.283394
Si Si2 0.755617 0.517476 0.228411
Si Si3 0.505868 0.986587 0.765627
Si Si4 0.339379 0.814190 0.701333
Si Si5 0.813640 0.214499 0.926533
Si Si6 0.943047 0.727828 0.744287
Si Si7 0.566828 0.578327 0.316689
Si Si8 0.028195 0.195929 0.539943
O O1 0.270724 0.565367 0.157409
O O2 0.476507 0.538616 0.315950
O O3 0.494712 0.141052 0.567939
O O4 0.334990 0.412137 0.053877
O O5 0.732780 0.335035 0.346226
O O6 0.908121 0.383057 0.416433
O O7 0.664935 0.776832 0.089349
O O8 0.406291 0.887789 0.649215
O O9 0.438091 0.187054 0.722889
O O10 0.216950 0.064995 0.516318
O O11 0.475876 0.654018 0.034656
O O12 0.718254 0.328830 0.626572
O O13 0.962547 0.171586 0.122312
O O14 0.840937 0.978550 0.125052
O O15 0.959760 0.679936 0.621715
O O16 0.000000 0.500000 0.000000
O O17 0.000000 0.000000 0.500000
#
# Coordination Sequence:
#
# PCOD9047317 Si02
#       8
#     2   2   2   2   2   2   2   2
#     4  10  19  36  58  85 112 154 194 240 283 346
#     4  11  20  36  57  88 118 152 191 244 290 341
#     4  11  22  34  56  91 121 149 191 246 293 339
#     4  11  22  38  58  88 118 158 193 238 291 347
#     4  10  17  34  58  85 108 148 197 235 276 338
#     4  11  20  32  57  89 114 143 199 242 278 339
#     4  10  22  38  61  85 118 155 200 238 288 341
#     4  10  17  34  57  81 109 153 193 231 280 343
#
# _framework density 25.287186999999999
#
# number of rings (size 3 to 8) (size 9 to 14) (size 15 to 20)
#    0.000    1.500    5.000    4.875    0.000    0.000 
#    0.000    0.000    0.000    7.500    0.000    0.000 
#    0.000    0.000    0.000    0.000    0.000    0.000 
#
# Total GULP energy -89342.644352 kJ/mol
# GULP energy per Si atom -5583.915272 kJ/mol
# Density = 2.522963 g / cm^3
# Si number density = 25.287187 Si / 1000 Ang^3
#
#
#
# Elastic Constant Matrix: (Units=GPa)
#
#
# Indices 1 2 3 4 5 6 
#
# 1 131.4856 30.9720 62.7724 -18.4626 -5.3027 7.5380
# 2 30.9720 52.8966 35.4314 -7.6407 -2.4449 12.4659
# 3 62.7724 35.4314 173.8224 -20.9800 -1.3731 -2.4891
# 4 -18.4626 -7.6407 -20.9800 40.9655 2.8311 -4.0150
# 5 -5.3027 -2.4449 -1.3731 2.8311 56.5066 -5.2331
# 6 7.5380 12.4659 -2.4891 -4.0150 -5.2331 33.9420
#
#
#
# Elastic Compliance Matrix: (Units=1/GPa)
#
#
# Indices 1 2 3 4 5 6 
#
# 1 0.010117 -0.003611 -0.002631 0.002429 0.000539 -0.000743
# 2 -0.003611 0.025899 -0.004076 0.000245 -0.000164 -0.009005
# 3 -0.002631 -0.004076 0.007862 0.002373 -0.000080 0.002926
# 4 0.002429 0.000245 0.002373 0.027080 -0.000818 0.002622
# 5 0.000539 -0.000164 -0.000080 -0.000818 0.018022 0.002616
# 6 -0.000743 -0.009005 0.002926 0.002622 0.002616 0.033863
#
#
# Mechanical properties :
#
#
# Convention : Reuss Voigt Hill
#
# Bulk Modulus (GPa) = 43.02405 68.50626 55.76515
# Shear Modulus (GPa) = 33.06329 41.55140 37.30734
#
# Velocity S-wave (km/s) = 3.61988 4.05801 3.84519
# Velocity P-wave (km/s) = 5.87558 7.00762 6.46642
#
# Compressibility (1/GPa) = 0.02324282
#
# Stress axis : x y z
#
# Youngs Moduli (GPa) = 98.84034 38.61121 127.20117
#
# Poissons Ratio (x) = 0.13942 0.33465
# Poissons Ratio (y) = 0.35689 0.51847
# Poissons Ratio (z) = 0.26004 0.15738
#
# Static dielectric constant tensor:
#      x y z
#    x 2.045950 -0.057620 -0.026920 
#    y -0.057620 2.119110 0.008930 
#    z -0.026920 0.008930 2.014800 
# 
# From -- ./inp_files/261647.got.cif
#   From: 2010.05.17/outbox.cif.g08.bks.cpg/sg2_131_cif.got.tgz:261647.got - 2010.06.03 11:33:40.
