data_PCOD9047726
_publ_section_title
;
Structure prediction by ZEFSAII (Michael W. Deem and Ramdas Pophale) SiO2 
 PCOD9047726
Probable space group: P -1
;
_chemical_formula_sum "Si O2"
_cell_formula_units_Z 13
_cell_length_a 16.396363
_cell_length_b 17.388901
_cell_length_c 9.303173
_cell_angle_alpha 46.467576
_cell_angle_beta 134.831242
_cell_angle_gamma 162.858169
_cell_volume 552.989482
_symmetry_space_group_name_H-M "P -1"
_symmetry_group_IT_number 2
_symmetry_cell_setting 'triclinic'
loop_
_space_group_symop_operation_xyz
x,y,z
-x,-y,-z
loop_
_atom_site_type_symbol
_atom_site_label
_atom_site_fract_x
_atom_site_fract_y
_atom_site_fract_z
Si Si1 0.418422 0.503355 0.029482
Si Si2 0.178145 0.470941 0.580121
Si Si3 0.500000 0.500000 0.500000
Si Si4 0.250659 0.501842 0.315478
Si Si5 0.105847 0.014827 0.797401
Si Si6 0.687936 0.019797 0.070528
Si Si7 0.469959 0.020078 0.596317
O O1 0.206842 0.414217 0.820539
O O2 0.500000 0.500000 0.000000
O O3 0.699843 0.797446 0.061519
O O4 0.235028 0.285431 0.205244
O O5 0.274660 0.496229 0.520274
O O6 0.862254 0.243773 0.453242
O O7 0.375502 0.737368 0.511983
O O8 0.394174 0.531009 0.363754
O O9 0.201677 0.198773 0.590622
O O10 0.932356 0.247076 0.195736
O O11 0.417368 0.749256 0.168129
O O12 0.201170 0.983231 0.889188
O O13 0.608971 0.054026 0.834000
O O14 0.500000 0.000000 0.500000
#
# Coordination Sequence:
#
# PCOD9047726 Si02
#       7
#     2   2   1   2   2   2   2
#     4  12  25  43  67  98 138 176 218 279 342 402
#     4  12  26  43  68 100 133 173 223 276 330 401
#     4  10  24  44  70 100 136 178 220 276 334 404
#     4  11  25  43  67 100 135 173 223 273 336 398
#     4  11  24  43  68  98 133 175 228 274 334 404
#     4  11  24  43  67  95 130 177 223 277 330 393
#     4  12  26  45  69  95 132 176 225 277 333 395
#
# _framework density 23.508586000000001
#
# number of rings (size 3 to 8) (size 9 to 14) (size 15 to 20)
#    0.000    0.615    0.000    8.308    0.000   11.692 
#    0.000    0.000    0.000    0.000    0.000    0.000 
#    0.000    0.000    0.000    0.000    0.000    0.000 
#
# Total GULP energy -72646.238741 kJ/mol
# GULP energy per Si atom -5588.172211 kJ/mol
# Density = 2.345508 g / cm^3
# Si number density = 23.508586 Si / 1000 Ang^3
#
#
#
# Elastic Constant Matrix: (Units=GPa)
#
#
# Indices 1 2 3 4 5 6 
#
# 1 20.9017 44.1415 -22.2331 24.1637 -22.3152 79.3410
# 2 44.1415 174.3058 25.5875 -21.5262 15.8055 -30.4324
# 3 -22.2331 25.5875 105.5188 -11.7687 10.5327 27.5229
# 4 24.1637 -21.5262 -11.7687 22.0067 12.1730 -67.2406
# 5 -22.3152 15.8055 10.5327 12.1730 28.0792 39.7652
# 6 79.3410 -30.4324 27.5229 -67.2406 39.7652 -109.4075
#
#
#
# Elastic Compliance Matrix: (Units=1/GPa)
#
#
# Indices 1 2 3 4 5 6 
#
# 1 0.015688 -0.002012 0.002675 0.006930 -0.001474 0.007815
# 2 -0.002012 0.005820 -0.001237 -0.001094 -0.000059 -0.002738
# 3 0.002675 -0.001237 0.011254 0.005270 -0.004186 0.000355
# 4 0.006930 -0.001094 0.005270 0.021336 0.002668 -0.005488
# 5 -0.001474 -0.000059 -0.004186 0.002668 0.026535 0.005899
# 6 0.007815 -0.002738 0.000355 -0.005488 0.005899 0.002895
#
#
# Mechanical properties :
#
#
# Convention : Reuss Voigt Hill
#
# Bulk Modulus (GPa) = 31.63085 43.96867 37.79976
# Shear Modulus (GPa) = 52.51348 5.01770 28.76559
#
# Velocity S-wave (km/s) = 4.73144 1.46255 3.50182
# Velocity P-wave (km/s) = 6.58277 4.64714 5.69775
#
# Compressibility (1/GPa) = 0.03161470
#
# Stress axis : x y z
#
# Youngs Moduli (GPa) = 63.74227 171.81265 88.85945
#
# Poissons Ratio (x) = 0.34564 -0.23771
# Poissons Ratio (y) = 0.12823 0.10993
# Poissons Ratio (z) = -0.17052 0.21255
#
# Static dielectric constant tensor:
#      x y z
#    x 2.068120 -0.379020 -0.526280 
#    y -0.379020 2.631740 1.029400 
#    z -0.526280 1.029400 3.024590 
# 
# From -- ./inp_files/76534.got.cif
#   From: 2010.05.17/outbox.cif.g08.bks.cpg/sg2_39_cif.got.tgz:76534.got - 2010.06.03 11:33:40.
