data_PCOD9047066
_publ_section_title
;
Structure prediction by ZEFSAII (Michael W. Deem and Ramdas Pophale) SiO2 
 PCOD9047066
Probable space group: P -1
;
_chemical_formula_sum "Si O2"
_cell_formula_units_Z 14
_cell_length_a 19.824234
_cell_length_b 11.782337
_cell_length_c 9.569352
_cell_angle_alpha 152.422406
_cell_angle_beta 51.275390
_cell_angle_gamma 141.169204
_cell_volume 632.391527
_symmetry_space_group_name_H-M "P -1"
_symmetry_group_IT_number 2
_symmetry_cell_setting 'triclinic'
loop_
_space_group_symop_operation_xyz
x,y,z
-x,-y,-z
loop_
_atom_site_type_symbol
_atom_site_label
_atom_site_fract_x
_atom_site_fract_y
_atom_site_fract_z
Si Si1 0.087915 0.837724 0.686014
Si Si2 0.070149 0.369380 0.785486
Si Si3 0.478868 0.236945 0.345067
Si Si4 0.690545 0.328926 0.674740
Si Si5 0.879093 0.644582 0.599781
Si Si6 0.764538 0.268324 0.778752
Si Si7 0.537626 0.336123 0.683909
O O1 0.188651 0.874560 0.527533
O O2 0.000000 0.500000 0.500000
O O3 0.007849 0.809887 0.641185
O O4 0.124797 0.097835 0.037804
O O5 0.137429 0.431824 0.624432
O O6 0.149200 0.530726 0.992277
O O7 0.000000 0.000000 0.500000
O O8 0.000000 0.500000 0.000000
O O9 0.500000 0.500000 0.500000
O O10 0.549483 0.399334 0.572764
O O11 0.351391 0.010332 0.309032
O O12 0.500000 0.000000 0.000000
O O13 0.782406 0.336473 0.476178
O O14 0.749684 0.461416 0.894246
O O15 0.646386 0.431692 0.723593
O O16 0.570736 0.024988 0.551258
O O17 0.500000 0.500000 0.000000
#
# Coordination Sequence:
#
# PCOD9047066 Si02
#       7
#     2   2   2   2   2   2   2
#     4  11  22  43  68 104 137 184 243 299 356 438
#     4  12  28  48  69 107 152 195 242 302 368 444
#     4  11  29  50  75 110 152 195 246 307 378 448
#     4  10  24  43  71 104 137 187 246 300 370 422
#     4  11  25  39  71 101 142 184 246 294 363 435
#     4  11  25  47  77 103 152 199 246 307 380 438
#     4  10  25  46  73 103 142 183 251 307 362 435
#
# _framework density 22.138183999999999
#
# number of rings (size 3 to 8) (size 9 to 14) (size 15 to 20)
#    0.000    1.143    2.857    0.857   14.000    1.143 
#    0.000    0.000    0.000    0.000    0.000    0.000 
#    0.000    0.000    0.000    0.000    0.000    0.000 
#
# Total GULP energy -78036.714529 kJ/mol
# GULP energy per Si atom -5574.051038 kJ/mol
# Density = 2.208780 g / cm^3
# Si number density = 22.138184 Si / 1000 Ang^3
#
#
#
# Elastic Constant Matrix: (Units=GPa)
#
#
# Indices 1 2 3 4 5 6 
#
# 1 198.6371 67.0240 85.2368 -7.5547 28.1612 -16.0343
# 2 67.0240 128.4547 30.3912 -25.7172 -7.9362 -8.7799
# 3 85.2368 30.3912 120.6354 -30.1121 6.0024 -19.0855
# 4 -7.5547 -25.7172 -30.1121 36.1402 -2.2979 3.8379
# 5 28.1612 -7.9362 6.0024 -2.2979 38.6797 -13.9780
# 6 -16.0343 -8.7799 -19.0855 3.8379 -13.9780 49.7621
#
#
#
# Elastic Compliance Matrix: (Units=1/GPa)
#
#
# Indices 1 2 3 4 5 6 
#
# 1 0.012602 -0.007390 -0.009785 -0.011134 -0.011001 -0.003227
# 2 -0.007390 0.013836 0.005012 0.012691 0.009525 0.003679
# 3 -0.009785 0.005012 0.018711 0.017013 0.008413 0.005959
# 4 -0.011134 0.012691 0.017013 0.048831 0.012778 0.005000
# 5 -0.011001 0.009525 0.008413 0.012778 0.039407 0.011446
# 6 -0.003227 0.003679 0.005959 0.005000 0.011446 0.024820
#
#
# Mechanical properties :
#
#
# Convention : Reuss Voigt Hill
#
# Bulk Modulus (GPa) = 48.02260 90.33679 69.17969
# Shear Modulus (GPa) = 26.38893 42.58808 34.48850
#
# Velocity S-wave (km/s) = 3.45630 4.39080 3.95127
# Velocity P-wave (km/s) = 6.13737 8.16088 7.22036
#
# Compressibility (1/GPa) = 0.02082353
#
# Stress axis : x y z
#
# Youngs Moduli (GPa) = 79.35169 72.27734 53.44320
#
# Poissons Ratio (x) = 0.53410 0.52294
# Poissons Ratio (y) = 0.58638 -0.26784
# Poissons Ratio (z) = 0.77645 -0.36224
#
# Static dielectric constant tensor:
#      x y z
#    x 1.931730 -0.036010 -0.017960 
#    y -0.036010 2.007190 0.059610 
#    z -0.017960 0.059610 1.830900 
# 
# From -- ./inp_files/345789.got.cif
#   From: 2010.05.17/outbox.cif.g08.bks.cpg/sg2_173_cif.got.tgz:345789.got - 2010.06.03 11:33:40.
