data_PCOD9047446
_publ_section_title
;
Structure prediction by ZEFSAII (Michael W. Deem and Ramdas Pophale) SiO2 
 PCOD9047446
Probable space group: P -1
;
_chemical_formula_sum "Si O2"
_cell_formula_units_Z 16
_cell_length_a 11.978627
_cell_length_b 11.569012
_cell_length_c 11.508737
_cell_angle_alpha 117.852693
_cell_angle_beta 31.156197
_cell_angle_gamma 119.674509
_cell_volume 713.565571
_symmetry_space_group_name_H-M "P -1"
_symmetry_group_IT_number 2
_symmetry_cell_setting 'triclinic'
loop_
_space_group_symop_operation_xyz
x,y,z
-x,-y,-z
loop_
_atom_site_type_symbol
_atom_site_label
_atom_site_fract_x
_atom_site_fract_y
_atom_site_fract_z
Si Si1 0.205229 0.096048 0.298857
Si Si2 0.829932 0.618990 0.484630
Si Si3 0.484847 0.581892 0.167142
Si Si4 0.935112 0.599887 0.880790
Si Si5 0.696573 0.197922 0.478842
Si Si6 0.927338 0.696603 0.179722
Si Si7 0.330959 0.083627 0.573371
Si Si8 0.375923 0.891485 0.900648
O O1 0.139439 0.239081 0.412238
O O2 0.423612 0.119108 0.196330
O O3 0.000000 0.000000 0.500000
O O4 0.272063 0.016541 0.092280
O O5 0.631009 0.519285 0.677114
O O6 0.799336 0.641962 0.385199
O O7 0.028976 0.539759 0.269698
O O8 0.348422 0.699078 0.334764
O O9 0.500000 0.500000 0.000000
O O10 0.728987 0.639044 0.021279
O O11 0.147472 0.712816 0.711992
O O12 0.909649 0.595722 0.040243
O O13 0.463538 0.137572 0.596541
O O14 0.787599 0.070630 0.379144
O O15 0.825664 0.819179 0.279950
O O16 0.180085 0.760899 0.017311
O O17 0.515946 0.087608 0.311721
#
# Coordination Sequence:
#
# PCOD9047446 Si02
#       8
#     2   2   2   2   2   2   2   2
#     4  11  23  44  63  99 141 174 227 269 340 412
#     4  11  26  43  70 105 134 180 228 279 343 415
#     4  11  27  50  66  95 137 190 233 277 336 414
#     4  11  25  46  71  96 142 180 231 282 339 410
#     4  10  24  44  67 102 130 184 237 277 334 406
#     4  12  23  44  70 109 136 175 224 288 354 400
#     4  11  22  42  71 100 142 170 229 289 338 402
#     4  11  23  39  68  98 139 177 213 283 340 404
#
# _framework density 22.422606999999999
#
# number of rings (size 3 to 8) (size 9 to 14) (size 15 to 20)
#    0.000    1.000    5.000    0.375    3.500    4.000 
#    4.500    0.000    0.000    0.000    0.000    0.000 
#    0.000    0.000    0.000    0.000    0.000    0.000 
#
# Total GULP energy -89466.825609 kJ/mol
# GULP energy per Si atom -5591.676601 kJ/mol
# Density = 2.237157 g / cm^3
# Si number density = 22.422607 Si / 1000 Ang^3
#
#
#
# Elastic Constant Matrix: (Units=GPa)
#
#
# Indices 1 2 3 4 5 6 
#
# 1 52.0549 2.6183 21.1188 -4.1001 5.2950 9.8801
# 2 2.6183 95.2587 30.1709 14.3072 -2.6276 -3.6246
# 3 21.1188 30.1709 86.5188 21.2309 9.8626 9.3976
# 4 -4.1001 14.3072 21.2309 34.3957 5.7585 0.9190
# 5 5.2950 -2.6276 9.8626 5.7585 37.2686 7.2516
# 6 9.8801 -3.6246 9.3976 0.9190 7.2516 37.0352
#
#
#
# Elastic Compliance Matrix: (Units=1/GPa)
#
#
# Indices 1 2 3 4 5 6 
#
# 1 0.023635 0.000234 -0.007006 0.007461 -0.001796 -0.004338
# 2 0.000234 0.012353 -0.004063 -0.002990 0.002013 0.001857
# 3 -0.007006 -0.004063 0.017512 -0.009559 -0.001992 -0.002345
# 4 0.007461 -0.002990 -0.009559 0.037876 -0.004614 0.000106
# 5 -0.001796 0.002013 -0.001992 -0.004614 0.029335 -0.004448
# 6 -0.004338 0.001857 -0.002345 0.000106 -0.004448 0.029804
#
#
# Mechanical properties :
#
#
# Convention : Reuss Voigt Hill
#
# Bulk Modulus (GPa) = 31.41497 37.96092 34.68795
# Shear Modulus (GPa) = 27.35320 33.73485 30.54403
#
# Velocity S-wave (km/s) = 3.49649 3.88300 3.69480
# Velocity P-wave (km/s) = 5.50830 6.08852 5.80566
#
# Compressibility (1/GPa) = 0.03183196
#
# Stress axis : x y z
#
# Youngs Moduli (GPa) = 42.31079 80.95034 57.10259
#
# Poissons Ratio (x) = -0.01895 0.40004
# Poissons Ratio (y) = -0.00990 0.23199
# Poissons Ratio (z) = 0.29641 0.32887
#
# Static dielectric constant tensor:
#      x y z
#    x 1.812750 -0.007530 0.002650 
#    y -0.007530 1.836820 0.027120 
#    z 0.002650 0.027120 1.813720 
# 
# From -- ./inp_files/78788.got.cif
#   From: 2010.05.17/outbox.cif.g08.bks.cpg/sg2_40_cif.got.tgz:78788.got - 2010.06.03 11:33:40.
