data_PCOD9047551
_publ_section_title
;
Structure prediction by ZEFSAII (Michael W. Deem and Ramdas Pophale) SiO2 
 PCOD9047551
Probable space group: P -1
;
_chemical_formula_sum "Si O2"
_cell_formula_units_Z 14
_cell_length_a 32.042630
_cell_length_b 9.829252
_cell_length_c 6.418068
_cell_angle_alpha 54.467186
_cell_angle_beta 45.154534
_cell_angle_gamma 26.742325
_cell_volume 637.382326
_symmetry_space_group_name_H-M "P -1"
_symmetry_group_IT_number 2
_symmetry_cell_setting 'triclinic'
loop_
_space_group_symop_operation_xyz
x,y,z
-x,-y,-z
loop_
_atom_site_type_symbol
_atom_site_label
_atom_site_fract_x
_atom_site_fract_y
_atom_site_fract_z
Si Si1 0.676372 0.320964 0.364073
Si Si2 0.413594 0.807932 0.166046
Si Si3 0.087144 0.260374 0.092935
Si Si4 0.084118 0.837222 0.160162
Si Si5 0.475657 0.870143 0.280585
Si Si6 0.671709 0.680434 0.241580
Si Si7 0.035846 0.659199 0.197205
O O1 0.679007 0.114758 0.584024
O O2 0.581238 0.567808 0.310695
O O3 0.646825 0.540861 0.435200
O O4 0.798194 0.073764 0.090801
O O5 0.454035 0.773429 0.278862
O O6 0.500000 0.500000 0.000000
O O7 0.388441 0.047362 0.940660
O O8 0.032012 0.272678 0.446784
O O9 0.112017 0.361556 0.058968
O O10 0.000000 0.500000 0.000000
O O11 0.093837 0.661000 0.123255
O O12 0.204617 0.590541 0.016902
O O13 0.000000 0.000000 0.500000
O O14 0.039687 0.086814 0.943317
O O15 0.367913 0.155801 0.543097
O O16 0.500000 0.000000 0.000000
#
# Coordination Sequence:
#
# PCOD9047551 Si02
#       7
#     2   2   2   2   2   2   2
#     4  12  26  47  75 102 146 190 240 299 366 427
#     4  12  27  47  73 106 144 188 242 292 366 430
#     4  11  25  46  69 106 144 187 240 304 359 438
#     4  11  25  44  72 101 145 192 240 301 365 431
#     4  12  26  48  74 104 149 186 242 303 358 432
#     4  12  27  47  72 107 144 190 242 300 363 436
#     4  10  24  44  68 102 142 186 248 288 367 439
#
# _framework density 21.964836999999999
#
# number of rings (size 3 to 8) (size 9 to 14) (size 15 to 20)
#    0.000    0.571    2.857    4.286    8.000    1.143 
#    2.571    0.000    0.000    0.000    0.000    0.000 
#    0.000    0.000    0.000    0.000    0.000    0.000 
#
# Total GULP energy -78041.286271 kJ/mol
# GULP energy per Si atom -5574.377591 kJ/mol
# Density = 2.191484 g / cm^3
# Si number density = 21.964837 Si / 1000 Ang^3
#
#
#
# Elastic Constant Matrix: (Units=GPa)
#
#
# Indices 1 2 3 4 5 6 
#
# 1 257.4017 -25.9545 69.1487 16.1883 -42.3012 80.9500
# 2 -25.9545 125.5068 15.5909 25.3890 33.0615 -5.4066
# 3 69.1487 15.5909 123.0500 11.4948 -3.9594 5.9966
# 4 16.1883 25.3890 11.4948 40.7891 4.0352 -4.9336
# 5 -42.3012 33.0615 -3.9594 4.0352 47.4170 -15.6407
# 6 80.9500 -5.4066 5.9966 -4.9336 -15.6407 54.5690
#
#
#
# Elastic Compliance Matrix: (Units=1/GPa)
#
#
# Indices 1 2 3 4 5 6 
#
# 1 0.011744 0.003049 -0.005408 -0.007316 0.003151 -0.016284
# 2 0.003049 0.012193 -0.002449 -0.008102 -0.007226 -0.005849
# 3 -0.005408 -0.002449 0.011018 0.001382 -0.000118 0.006660
# 4 -0.007316 -0.008102 0.001382 0.033592 0.000713 0.013140
# 5 0.003151 -0.007226 -0.000118 0.000713 0.029947 0.003271
# 6 -0.016284 -0.005849 0.006660 0.013140 0.003271 0.043295
#
#
# Mechanical properties :
#
#
# Convention : Reuss Voigt Hill
#
# Bulk Modulus (GPa) = 39.46286 69.28098 54.37192
# Shear Modulus (GPa) = 31.27893 58.36656 44.82274
#
# Velocity S-wave (km/s) = 3.77775 5.16047 4.52227
# Velocity P-wave (km/s) = 6.08555 8.19252 7.21635
#
# Compressibility (1/GPa) = 0.02534028
#
# Stress axis : x y z
#
# Youngs Moduli (GPa) = 85.14902 82.01511 90.75713
#
# Poissons Ratio (x) = -0.25005 0.49078
# Poissons Ratio (y) = -0.25961 0.22225
# Poissons Ratio (z) = 0.46045 0.20084
#
# Static dielectric constant tensor:
#      x y z
#    x 1.844830 0.037460 -0.075700 
#    y 0.037460 1.826360 -0.110700 
#    z -0.075700 -0.110700 1.893120 
# 
# From -- ./inp_files/53830.got.cif
#   From: 2010.05.17/outbox.cif.g08.bks.cpg/sg2_27_cif.got.tgz:53830.got - 2010.06.03 11:33:40.
