data_PCOD9047512
_publ_section_title
;
Structure prediction by ZEFSAII (Michael W. Deem and Ramdas Pophale) SiO2 
 PCOD9047512
Probable space group: P -1
;
_chemical_formula_sum "Si O2"
_cell_formula_units_Z 12
_cell_length_a 15.130510
_cell_length_b 5.495618
_cell_length_c 21.593522
_cell_angle_alpha 120.426669
_cell_angle_beta 20.576873
_cell_angle_gamma 111.546429
_cell_volume 509.197059
_symmetry_space_group_name_H-M "P -1"
_symmetry_group_IT_number 2
_symmetry_cell_setting 'triclinic'
loop_
_space_group_symop_operation_xyz
x,y,z
-x,-y,-z
loop_
_atom_site_type_symbol
_atom_site_label
_atom_site_fract_x
_atom_site_fract_y
_atom_site_fract_z
Si Si1 0.572443 0.769937 0.839973
Si Si2 0.832364 0.794442 0.104669
Si Si3 0.069021 0.292744 0.512538
Si Si4 0.185120 0.413143 0.043471
Si Si5 0.345703 0.026649 0.540554
Si Si6 0.064896 0.304935 0.241147
O O1 0.652417 0.759672 0.712992
O O2 0.858739 0.607382 0.663695
O O3 0.402920 0.557757 0.938745
O O4 0.367409 0.096593 0.036859
O O5 0.572614 0.995933 0.337989
O O6 0.730021 0.719519 0.096485
O O7 0.000000 0.500000 0.000000
O O8 0.000000 0.000000 0.000000
O O9 0.029276 0.368134 0.621660
O O10 0.000000 0.000000 0.500000
O O11 0.118044 0.253588 0.126241
O O12 0.896720 0.664192 0.254807
O O13 0.187429 0.803052 0.596784
O O14 0.500000 0.000000 0.500000
#
# Coordination Sequence:
#
# PCOD9047512 Si02
#       6
#     2   2   2   2   2   2
#     4  10  24  44  67  99 140 180 240 290 365 429
#     4  12  27  45  72 103 146 190 243 302 363 431
#     4  11  24  44  70 100 140 183 236 296 365 434
#     4  11  25  43  70 101 137 187 238 297 357 432
#     4  11  24  45  69 100 139 185 240 291 359 426
#     4  11  25  43  71 100 142 185 241 296 359 434
#
# _framework density 23.566514000000002
#
# number of rings (size 3 to 8) (size 9 to 14) (size 15 to 20)
#    0.000    1.000    1.667    3.500    4.667   12.000 
#    0.000    0.000    0.000    0.000    0.000    0.000 
#    0.000    0.000    0.000    0.000    0.000    0.000 
#
# Total GULP energy -66914.069673 kJ/mol
# GULP energy per Si atom -5576.172473 kJ/mol
# Density = 2.351288 g / cm^3
# Si number density = 23.566514 Si / 1000 Ang^3
#
#
#
# Elastic Constant Matrix: (Units=GPa)
#
#
# Indices 1 2 3 4 5 6 
#
# 1 68.6255 3.2312 15.3183 6.1812 25.4385 10.1677
# 2 3.2312 46.2778 43.3017 -0.2356 5.5715 -16.3271
# 3 15.3183 43.3017 128.0623 -40.9659 30.6804 47.1529
# 4 6.1812 -0.2356 -40.9659 30.3243 0.5000 31.6681
# 5 25.4385 5.5715 30.6804 0.5000 54.3487 0.1097
# 6 10.1677 -16.3271 47.1529 31.6681 0.1097 -7.4792
#
#
#
# Elastic Compliance Matrix: (Units=1/GPa)
#
#
# Indices 1 2 3 4 5 6 
#
# 1 0.018291 0.000405 -0.001278 -0.004027 -0.007842 -0.001240
# 2 0.000405 0.019247 -0.000338 0.008337 -0.002032 -0.008324
# 3 -0.001278 -0.000338 0.004014 -0.003624 -0.001618 0.008935
# 4 -0.004027 0.008337 -0.003624 0.014287 0.002917 0.014010
# 5 -0.007842 -0.002032 -0.001618 0.002917 0.023173 -0.003736
# 6 -0.001240 -0.008324 0.008935 0.014010 -0.003736 -0.001618
#
#
# Mechanical properties :
#
#
# Convention : Reuss Voigt Hill
#
# Bulk Modulus (GPa) = 25.55564 40.74088 33.14826
# Shear Modulus (GPa) = 53.84527 27.51306 40.67916
#
# Velocity S-wave (km/s) = 4.78517 3.42052 4.15919
# Velocity P-wave (km/s) = 6.43413 5.73804 6.09603
#
# Compressibility (1/GPa) = 0.03913030
#
# Stress axis : x y z
#
# Youngs Moduli (GPa) = 54.67045 51.95696 249.13679
#
# Poissons Ratio (x) = -0.02102 0.31833
# Poissons Ratio (y) = -0.02212 0.08414
# Poissons Ratio (z) = 0.06986 0.01755
#
# Static dielectric constant tensor:
#      x y z
#    x 0.940770 -0.123390 -0.078700 
#    y -0.123390 1.946150 0.007130 
#    z -0.078700 0.007130 1.782570 
# 
# From -- ./inp_files/3560.got.cif
#   From: 2010.05.17/outbox.cif.g08.bks.cpg/sg2_2_cif.got.tgz:3560.got - 2010.06.03 11:33:40.
