data_PCOD9047942
_publ_section_title
;
Structure prediction by ZEFSAII (Michael W. Deem and Ramdas Pophale) SiO2 
 PCOD9047942
Probable space group: P -1
;
_chemical_formula_sum "Si O2"
_cell_formula_units_Z 16
_cell_length_a 14.704427
_cell_length_b 9.111859
_cell_length_c 15.267307
_cell_angle_alpha 36.051428
_cell_angle_beta 40.134387
_cell_angle_gamma 43.525965
_cell_volume 744.505305
_symmetry_space_group_name_H-M "P -1"
_symmetry_group_IT_number 2
_symmetry_cell_setting 'triclinic'
loop_
_space_group_symop_operation_xyz
x,y,z
-x,-y,-z
loop_
_atom_site_type_symbol
_atom_site_label
_atom_site_fract_x
_atom_site_fract_y
_atom_site_fract_z
Si Si1 0.156140 0.119182 0.113115
Si Si2 0.354022 0.236826 0.509261
Si Si3 0.617597 0.367180 0.550405
Si Si4 0.341950 0.547060 0.048543
Si Si5 0.836479 0.467865 0.652159
Si Si6 0.853892 0.487672 0.204088
Si Si7 0.369042 0.104213 0.114501
Si Si8 0.854976 0.917669 0.129130
O O1 0.223809 0.108559 0.164760
O O2 0.985742 0.276824 0.163994
O O3 0.167009 0.831017 0.212291
O O4 0.227441 0.299987 0.911700
O O5 0.388742 0.442490 0.453373
O O6 0.281607 0.370731 0.408672
O O7 0.500000 0.000000 0.500000
O O8 0.224536 0.145893 0.695687
O O9 0.500000 0.500000 0.500000
O O10 0.764727 0.340333 0.399834
O O11 0.607655 0.096228 0.725898
O O12 0.229260 0.456557 0.239121
O O13 0.362104 0.383917 0.023174
O O14 0.500000 0.500000 0.000000
O O15 0.267950 0.848846 0.938181
O O16 0.000000 0.500000 0.500000
O O17 0.902705 0.671510 0.149059
O O18 0.500000 0.000000 0.000000
O O19 0.000000 0.000000 0.000000
#
# Coordination Sequence:
#
# PCOD9047942 Si02
#       8
#     2   2   2   2   2   2   2   2
#     4  11  23  47  71 100 141 183 235 285 351 421
#     4  11  26  45  71 101 142 182 234 292 349 417
#     4  11  26  45  68 100 139 181 238 287 351 418
#     4  12  27  45  74 100 141 184 232 290 353 420
#     4  12  26  46  72 109 143 186 237 294 354 424
#     4  10  24  44  71  99 138 184 229 290 346 420
#     4  12  27  45  72 102 138 184 236 288 352 419
#     4  11  23  45  68 101 137 181 231 281 348 415
#
# _framework density 21.490780999999998
#
# number of rings (size 3 to 8) (size 9 to 14) (size 15 to 20)
#    0.000    0.750    2.500    3.750    8.750    1.500 
#    2.250    0.000    0.000    0.000    0.000    0.000 
#    0.000    0.000    0.000    0.000    0.000    0.000 
#
# Total GULP energy -89462.054461 kJ/mol
# GULP energy per Si atom -5591.378404 kJ/mol
# Density = 2.144187 g / cm^3
# Si number density = 21.490781 Si / 1000 Ang^3
#
#
#
# Elastic Constant Matrix: (Units=GPa)
#
#
# Indices 1 2 3 4 5 6 
#
# 1 51.9527 7.1072 -10.1165 -3.6529 4.3199 -7.3078
# 2 7.1072 100.1131 18.3720 1.0830 5.1165 -3.2721
# 3 -10.1165 18.3720 68.6760 -4.6654 18.2411 -2.3446
# 4 -3.6529 1.0830 -4.6654 30.4589 -3.9853 12.5929
# 5 4.3199 5.1165 18.2411 -3.9853 38.3398 -0.9482
# 6 -7.3078 -3.2721 -2.3446 12.5929 -0.9482 30.9294
#
#
#
# Elastic Compliance Matrix: (Units=1/GPa)
#
#
# Indices 1 2 3 4 5 6 
#
# 1 0.021639 -0.002109 0.005143 0.000909 -0.004391 0.004775
# 2 -0.002109 0.010787 -0.003332 -0.001538 0.000249 0.001024
# 3 0.005143 -0.003332 0.018724 0.001946 -0.008811 0.001219
# 4 0.000909 -0.001538 0.001946 0.040355 0.002972 -0.016139
# 5 -0.004391 0.000249 -0.008811 0.002972 0.030997 -0.001939
# 6 0.004775 0.001024 0.001219 -0.016139 -0.001939 0.040172
#
#
# Mechanical properties :
#
#
# Convention : Reuss Voigt Hill
#
# Bulk Modulus (GPa) = 19.78106 27.94080 23.86093
# Shear Modulus (GPa) = 27.75887 33.63758 30.69822
#
# Velocity S-wave (km/s) = 3.59787 3.96057 3.78357
# Velocity P-wave (km/s) = 5.14626 5.82617 5.49674
#
# Compressibility (1/GPa) = 0.05055340
#
# Stress axis : x y z
#
# Youngs Moduli (GPa) = 46.21297 92.70153 53.40676
#
# Poissons Ratio (x) = 0.19554 -0.27467
# Poissons Ratio (y) = 0.09748 0.17796
# Poissons Ratio (z) = -0.23767 0.30889
#
# Static dielectric constant tensor:
#      x y z
#    x 1.773990 -0.005530 -0.003670 
#    y -0.005530 1.744380 0.010800 
#    z -0.003670 0.010800 1.845630 
# 
# From -- ./inp_files/209142.got.cif
#   From: 2010.05.17/outbox.cif.g08.bks.cpg/sg2_105_cif.got.tgz:209142.got - 2010.06.03 11:33:40.
