data_PCOD9047962
_publ_section_title
;
Structure prediction by ZEFSAII (Michael W. Deem and Ramdas Pophale) SiO2 
 PCOD9047962
Probable space group: P -1
;
_chemical_formula_sum "Si O2"
_cell_formula_units_Z 16
_cell_length_a 7.692265
_cell_length_b 5.524492
_cell_length_c 16.235951
_cell_angle_alpha 100.659257
_cell_angle_beta 103.187523
_cell_angle_gamma 77.518743
_cell_volume 649.176135
_symmetry_space_group_name_H-M "P -1"
_symmetry_group_IT_number 2
_symmetry_cell_setting 'triclinic'
loop_
_space_group_symop_operation_xyz
x,y,z
-x,-y,-z
loop_
_atom_site_type_symbol
_atom_site_label
_atom_site_fract_x
_atom_site_fract_y
_atom_site_fract_z
Si Si1 0.349510 0.667138 0.704769
Si Si2 0.256600 0.123766 0.355627
Si Si3 0.932513 0.009449 0.399538
Si Si4 0.219056 0.921784 0.005298
Si Si5 0.431231 0.968551 0.197197
Si Si6 0.428846 0.611976 0.412189
Si Si7 0.150062 0.407893 0.940333
Si Si8 0.837611 0.636253 0.239206
O O1 0.417303 0.420491 0.643618
O O2 0.199114 0.630042 0.751605
O O3 0.507403 0.761228 0.777212
O O4 0.272473 0.854928 0.633831
O O5 0.057788 0.170202 0.374914
O O6 0.303747 0.980055 0.265031
O O7 0.347227 0.905971 0.417446
O O8 0.310885 0.395429 0.366103
O O9 0.938917 0.759494 0.330046
O O10 0.000000 0.000000 0.500000
O O11 0.262752 0.142169 0.965169
O O12 0.320969 0.924526 0.102550
O O13 0.255774 0.639390 0.957606
O O14 0.000000 0.000000 0.000000
O O15 0.629359 0.787704 0.212493
O O16 0.500000 0.500000 0.500000
O O17 0.067888 0.371952 0.839355
O O18 0.000000 0.500000 0.000000
#
# Coordination Sequence:
#
# PCOD9047962 Si02
#       8
#     2   2   2   2   2   2   2   2
#     4  10  24  45  69 101 144 192 236 297 363 427
#     4  11  25  42  69 105 133 190 233 294 357 419
#     4  11  27  44  70 107 145 190 245 303 360 427
#     4  10  24  44  72 102 140 177 238 291 352 428
#     4  10  24  45  71 102 141 184 241 289 360 432
#     4  11  23  43  70  97 141 185 240 291 354 429
#     4  10  25  44  69 103 138 184 231 291 361 423
#     4  11  25  45  72  98 147 186 240 298 361 431
#
# _framework density 24.646623999999999
#
# number of rings (size 3 to 8) (size 9 to 14) (size 15 to 20)
#    0.000    1.500    1.250    1.125   12.250    2.500 
#    2.250    0.000    0.000    0.000    0.000    0.000 
#    0.000    0.000    0.000    0.000    0.000    0.000 
#
# Total GULP energy -89204.397923 kJ/mol
# GULP energy per Si atom -5575.274870 kJ/mol
# Density = 2.459053 g / cm^3
# Si number density = 24.646624 Si / 1000 Ang^3
#
#
#
# Elastic Constant Matrix: (Units=GPa)
#
#
# Indices 1 2 3 4 5 6 
#
# 1 42.0952 4.1452 39.0786 -5.3705 -10.2598 1.9910
# 2 4.1452 110.9251 40.4773 -11.5701 8.1051 8.9955
# 3 39.0786 40.4773 188.5100 -1.1217 8.4561 12.3019
# 4 -5.3705 -11.5701 -1.1217 31.6950 4.5807 0.1478
# 5 -10.2598 8.1051 8.4561 4.5807 38.9229 -9.4514
# 6 1.9910 8.9955 12.3019 0.1478 -9.4514 35.7869
#
#
#
# Elastic Compliance Matrix: (Units=1/GPa)
#
#
# Indices 1 2 3 4 5 6 
#
# 1 0.034074 0.001010 -0.007965 0.004279 0.010831 0.003431
# 2 0.001010 0.010639 -0.002173 0.004373 -0.002648 -0.002701
# 3 -0.007965 -0.002173 0.007762 -0.001302 -0.003832 -0.002686
# 4 0.004279 0.004373 -0.001302 0.034423 -0.004062 -0.002105
# 5 0.010831 -0.002648 -0.003832 -0.004062 0.032855 0.010074
# 6 0.003431 -0.002701 -0.002686 -0.002105 0.010074 0.032024
#
#
# Mechanical properties :
#
#
# Convention : Reuss Voigt Hill
#
# Bulk Modulus (GPa) = 29.22355 56.54805 42.88580
# Shear Modulus (GPa) = 27.55766 38.46956 33.01361
#
# Velocity S-wave (km/s) = 3.34744 3.95504 3.66386
# Velocity P-wave (km/s) = 5.17912 6.62192 5.94445
#
# Compressibility (1/GPa) = 0.03421898
#
# Stress axis : x y z
#
# Youngs Moduli (GPa) = 29.34811 93.99560 128.83602
#
# Poissons Ratio (x) = -0.09491 1.02614
# Poissons Ratio (y) = -0.02963 0.27992
# Poissons Ratio (z) = 0.23375 0.20422
#
# Static dielectric constant tensor:
#      x y z
#    x 2.053650 -0.039840 0.019090 
#    y -0.039840 2.092730 0.015440 
#    z 0.019090 0.015440 1.936500 
# 
# From -- ./inp_files/116129.got.cif
#   From: 2010.05.17/outbox.cif.g08.bks.cpg/sg2_59_cif.got.tgz:116129.got - 2010.06.03 11:33:40.
