data_PCOD9047853
_publ_section_title
;
Structure prediction by ZEFSAII (Michael W. Deem and Ramdas Pophale) SiO2 
 PCOD9047853
Probable space group: P -1
;
_chemical_formula_sum "Si O2"
_cell_formula_units_Z 16
_cell_length_a 10.164372
_cell_length_b 15.760896
_cell_length_c 6.982932
_cell_angle_alpha 72.279626
_cell_angle_beta 64.146639
_cell_angle_gamma 117.513486
_cell_volume 690.649169
_symmetry_space_group_name_H-M "P -1"
_symmetry_group_IT_number 2
_symmetry_cell_setting 'triclinic'
loop_
_space_group_symop_operation_xyz
x,y,z
-x,-y,-z
loop_
_atom_site_type_symbol
_atom_site_label
_atom_site_fract_x
_atom_site_fract_y
_atom_site_fract_z
Si Si1 0.631294 0.470521 0.496750
Si Si2 0.468114 0.843176 0.725609
Si Si3 0.644158 0.789980 0.971591
Si Si4 0.084987 0.380729 0.448995
Si Si5 0.792967 0.428477 0.072081
Si Si6 0.296460 0.889385 0.088900
Si Si7 0.762746 0.889625 0.246484
Si Si8 0.886312 0.800466 0.515612
O O1 0.500000 0.500000 0.500000
O O2 0.506472 0.356631 0.803186
O O3 0.838086 0.580767 0.406906
O O4 0.669300 0.432919 0.303356
O O5 0.653295 0.922595 0.405151
O O6 0.555072 0.828524 0.866743
O O7 0.311660 0.708535 0.820549
O O8 0.369545 0.891805 0.829781
O O9 0.674986 0.838896 0.129323
O O10 0.848192 0.837365 0.710338
O O11 0.155331 0.493794 0.204056
O O12 0.182579 0.331011 0.337017
O O13 0.843431 0.257343 0.666637
O O14 0.000000 0.500000 0.000000
O O15 0.120570 0.889079 0.236799
O O16 0.500000 0.000000 0.000000
O O17 0.750299 0.795945 0.451954
O O18 0.000000 0.000000 0.000000
#
# Coordination Sequence:
#
# PCOD9047853 Si02
#       8
#     2   2   2   2   2   2   2   2
#     4  12  24  39  71 104 139 178 229 281 348 417
#     4  11  25  46  70 102 135 182 229 282 351 411
#     4  11  23  41  71  98 136 177 223 284 347 400
#     4  10  24  44  70  99 141 182 225 290 342 408
#     4  12  26  43  67 104 141 182 230 282 348 418
#     4  10  25  46  71  94 133 185 233 277 343 408
#     4  11  25  43  71 103 134 178 235 286 338 414
#     4   9  24  45  66  98 138 175 232 275 349 398
#
# _framework density 23.166608
#
# number of rings (size 3 to 8) (size 9 to 14) (size 15 to 20)
#    0.750    0.500    2.500    2.250    7.000    3.000 
#    0.000    0.625    0.000    0.000    0.000    0.000 
#    0.000    0.000    0.000    0.000    0.000    0.000 
#
# Total GULP energy -89381.944731 kJ/mol
# GULP energy per Si atom -5586.371546 kJ/mol
# Density = 2.311388 g / cm^3
# Si number density = 23.166608 Si / 1000 Ang^3
#
#
#
# Elastic Constant Matrix: (Units=GPa)
#
#
# Indices 1 2 3 4 5 6 
#
# 1 99.5263 42.2078 44.9037 9.2959 -11.6549 3.7947
# 2 42.2078 100.2641 41.5589 2.1095 -7.3052 16.8623
# 3 44.9037 41.5589 129.5101 20.1805 -28.2245 -0.4228
# 4 9.2959 2.1095 20.1805 41.7720 -3.9564 0.3735
# 5 -11.6549 -7.3052 -28.2245 -3.9564 42.5855 7.8850
# 6 3.7947 16.8623 -0.4228 0.3735 7.8850 39.0947
#
#
#
# Elastic Compliance Matrix: (Units=1/GPa)
#
#
# Indices 1 2 3 4 5 6 
#
# 1 0.013422 -0.004460 -0.002836 -0.001317 0.000826 0.000436
# 2 -0.004460 0.014152 -0.003248 0.001927 0.000305 -0.005786
# 3 -0.002836 -0.003248 0.011707 -0.004307 0.005905 0.000653
# 4 -0.001317 0.001927 -0.004307 0.026199 -0.000276 -0.000945
# 5 0.000826 0.000305 0.005905 -0.000276 0.028749 -0.005944
# 6 0.000436 -0.005786 0.000653 -0.000945 -0.005944 0.029247
#
#
# Mechanical properties :
#
#
# Convention : Reuss Voigt Hill
#
# Bulk Modulus (GPa) = 54.96450 65.18236 60.07343
# Shear Modulus (GPa) = 33.19466 38.06577 35.63022
#
# Velocity S-wave (km/s) = 3.78943 4.05795 3.92599
# Velocity P-wave (km/s) = 6.55161 7.08191 6.82191
#
# Compressibility (1/GPa) = 0.01819356
#
# Stress axis : x y z
#
# Youngs Moduli (GPa) = 74.50694 70.66048 85.41989
#
# Poissons Ratio (x) = 0.31516 0.24222
# Poissons Ratio (y) = 0.33232 0.27742
# Poissons Ratio (z) = 0.21128 0.22948
#
# Static dielectric constant tensor:
#      x y z
#    x 1.831810 -0.051960 -0.013150 
#    y -0.051960 1.853580 -0.012720 
#    z -0.013150 -0.012720 1.928480 
# 
# From -- ./inp_files/81398.got.cif
#   From: 2010.05.17/outbox.cif.g08.bks.cpg/sg2_41_cif.got.tgz:81398.got - 2010.06.03 11:33:40.
