data_PCOD9047227
_publ_section_title
;
Structure prediction by ZEFSAII (Michael W. Deem and Ramdas Pophale) SiO2 
 PCOD9047227
Probable space group: P -1
;
_chemical_formula_sum "Si O2"
_cell_formula_units_Z 14
_cell_length_a 16.661129
_cell_length_b 14.577430
_cell_length_c 6.464069
_cell_angle_alpha 40.660603
_cell_angle_beta 123.975737
_cell_angle_gamma 148.681479
_cell_volume 512.951547
_symmetry_space_group_name_H-M "P -1"
_symmetry_group_IT_number 2
_symmetry_cell_setting 'triclinic'
loop_
_space_group_symop_operation_xyz
x,y,z
-x,-y,-z
loop_
_atom_site_type_symbol
_atom_site_label
_atom_site_fract_x
_atom_site_fract_y
_atom_site_fract_z
Si Si1 0.000543 0.487872 0.776776
Si Si2 0.854794 0.908709 0.709970
Si Si3 0.286664 0.855928 0.331265
Si Si4 0.427198 0.759544 0.167404
Si Si5 0.098341 0.338640 0.584978
Si Si6 0.640135 0.567076 0.677929
Si Si7 0.406207 0.192832 0.295404
O O1 0.839061 0.242407 0.860867
O O2 0.997426 0.653514 0.442316
O O3 0.166301 0.618889 0.699334
O O4 0.000000 0.500000 0.000000
O O5 0.800507 0.832319 0.523273
O O6 0.716976 0.828735 0.781309
O O7 0.884856 0.786986 0.050435
O O8 0.005603 0.182796 0.510336
O O9 0.338893 0.027709 0.287070
O O10 0.454745 0.009019 0.200729
O O11 0.266215 0.611068 0.310595
O O12 0.358034 0.558000 0.263493
O O13 0.546781 0.836630 0.381072
O O14 0.500000 0.500000 0.500000
O O15 0.571843 0.440412 0.017590
#
# Coordination Sequence:
#
# PCOD9047227 Si02
#       7
#     2   2   2   2   2   2   2
#     4  11  24  50  73 101 135 184 233 294 346 418
#     4  11  22  42  68 102 148 186 222 288 342 421
#     4  10  24  43  75 100 130 183 239 276 348 418
#     4  11  23  42  67 108 137 182 230 288 346 415
#     4  11  25  43  69 103 147 181 226 294 357 391
#     4  11  21  35  66 101 135 189 235 267 338 418
#     4  11  20  41  69  97 143 184 229 278 344 423
#
# _framework density 27.293023999999999
#
# number of rings (size 3 to 8) (size 9 to 14) (size 15 to 20)
#    0.000    1.143    4.286    2.143    0.000    1.143 
#    5.143    1.429    0.000    0.000    0.000    0.000 
#    0.000    0.000    0.000    0.000    0.000    0.000 
#
# Total GULP energy -78264.538422 kJ/mol
# GULP energy per Si atom -5590.324173 kJ/mol
# Density = 2.723090 g / cm^3
# Si number density = 27.293024 Si / 1000 Ang^3
#
#
#
# Elastic Constant Matrix: (Units=GPa)
#
#
# Indices 1 2 3 4 5 6 
#
# 1 99.4545 36.6173 25.4725 -8.3195 0.5565 -2.5842
# 2 36.6173 219.3001 27.5755 0.6632 -2.8934 -34.8072
# 3 25.4725 27.5755 83.6633 13.1282 -22.1992 -2.4856
# 4 -8.3195 0.6632 13.1282 40.7332 9.5922 -12.8320
# 5 0.5565 -2.8934 -22.1992 9.5922 41.1232 -8.9431
# 6 -2.5842 -34.8072 -2.4856 -12.8320 -8.9431 53.5026
#
#
#
# Elastic Compliance Matrix: (Units=1/GPa)
#
#
# Indices 1 2 3 4 5 6 
#
# 1 0.012420 -0.001498 -0.005275 0.005262 -0.004367 -0.000088
# 2 -0.001498 0.005594 -0.001412 0.001216 0.000200 0.003826
# 3 -0.005275 -0.001412 0.018920 -0.010297 0.012438 -0.000685
# 4 0.005262 0.001216 -0.010297 0.033851 -0.011987 0.006682
# 5 -0.004367 0.000200 0.012438 -0.011987 0.034643 0.003413
# 6 -0.000088 0.003826 -0.000685 0.006682 0.003413 0.023317
#
#
# Mechanical properties :
#
#
# Convention : Reuss Voigt Hill
#
# Bulk Modulus (GPa) = 48.62755 64.63873 56.63314
# Shear Modulus (GPa) = 32.90158 47.92198 40.41178
#
# Velocity S-wave (km/s) = 3.47579 4.19481 3.85211
# Velocity P-wave (km/s) = 5.82784 6.86998 6.37025
#
# Compressibility (1/GPa) = 0.02056447
#
# Stress axis : x y z
#
# Youngs Moduli (GPa) = 80.51750 178.76646 52.85496
#
# Poissons Ratio (x) = 0.26778 0.27879
# Poissons Ratio (y) = 0.12061 0.07462
# Poissons Ratio (z) = 0.42471 0.25237
#
# Static dielectric constant tensor:
#      x y z
#    x 2.088600 0.046500 -0.024120 
#    y 0.046500 2.194320 0.004080 
#    z -0.024120 0.004080 2.274880 
# 
# From -- ./inp_files/110657.got.cif
#   From: 2010.05.17/outbox.cif.g08.bks.cpg/sg2_56_cif.got.tgz:110657.got - 2010.06.03 11:33:40.
