data_PCOD9047905
_publ_section_title
;
Structure prediction by ZEFSAII (Michael W. Deem and Ramdas Pophale) SiO2 
 PCOD9047905
Probable space group: P -1
;
_chemical_formula_sum "Si O2"
_cell_formula_units_Z 13
_cell_length_a 21.900344
_cell_length_b 22.065150
_cell_length_c 5.447149
_cell_angle_alpha 54.194894
_cell_angle_beta 53.540713
_cell_angle_gamma 12.426122
_cell_volume 455.383091
_symmetry_space_group_name_H-M "P -1"
_symmetry_group_IT_number 2
_symmetry_cell_setting 'triclinic'
loop_
_space_group_symop_operation_xyz
x,y,z
-x,-y,-z
loop_
_atom_site_type_symbol
_atom_site_label
_atom_site_fract_x
_atom_site_fract_y
_atom_site_fract_z
Si Si1 0.628407 0.299280 0.725100
Si Si2 0.931255 0.449462 0.261087
Si Si3 0.000000 0.000000 0.000000
Si Si4 0.300494 0.884329 0.363454
Si Si5 0.500790 0.927688 0.842066
Si Si6 0.401391 0.917140 0.696072
Si Si7 0.787260 0.360162 0.738219
O O1 0.500000 0.500000 0.500000
O O2 0.776615 0.125372 0.538795
O O3 0.371584 0.489614 0.979057
O O4 0.846041 0.102475 0.891988
O O5 0.643122 0.675350 0.482482
O O6 0.152066 0.210983 0.510894
O O7 0.736158 0.707121 0.023748
O O8 0.178548 0.215902 0.016900
O O9 0.229452 0.710072 0.144539
O O10 0.611823 0.575421 0.452799
O O11 0.269249 0.970203 0.012788
O O12 0.103399 0.090840 0.575754
O O13 0.578145 0.787403 0.804890
O O14 0.500000 0.000000 0.500000
#
# Coordination Sequence:
#
# PCOD9047905 Si02
#       7
#     2   2   1   2   2   2   2
#     4  12  27  48  73  98 139 175 230 290 355 410
#     4  10  24  44  71 106 139 187 232 277 341 409
#     4  12  24  50  68 106 130 176 230 292 348 418
#     4  12  28  47  71 101 137 186 228 286 350 406
#     4  11  24  43  73 107 143 185 228 285 340 397
#     4  11  25  47  68 101 145 183 232 285 337 410
#     4  12  26  47  70 104 132 177 236 284 345 425
#
# _framework density 28.547395000000002
#
# number of rings (size 3 to 8) (size 9 to 14) (size 15 to 20)
#    0.000    0.615    3.077    3.692    2.154    8.615 
#    2.769    0.000    0.000    0.000    0.000    0.000 
#    0.000    0.000    0.000    0.000    0.000    0.000 
#
# Total GULP energy -72473.170596 kJ/mol
# GULP energy per Si atom -5574.859277 kJ/mol
# Density = 2.848242 g / cm^3
# Si number density = 28.547395 Si / 1000 Ang^3
#
#
#
# Elastic Constant Matrix: (Units=GPa)
#
#
# Indices 1 2 3 4 5 6 
#
# 1 61.1264 33.3432 2.7830 4.3768 9.4295 0.7791
# 2 33.3432 178.2097 81.6772 -1.2722 9.3020 -14.1476
# 3 2.7830 81.6772 172.3350 -9.6619 -5.0398 0.7704
# 4 4.3768 -1.2722 -9.6619 60.0388 -2.2184 11.6240
# 5 9.4295 9.3020 -5.0398 -2.2184 30.9902 -0.6984
# 6 0.7791 -14.1476 0.7704 11.6240 -0.6984 30.6913
#
#
#
# Elastic Compliance Matrix: (Units=1/GPa)
#
#
# Indices 1 2 3 4 5 6 
#
# 1 0.019423 -0.004292 0.001543 -0.000991 -0.004492 -0.002237
# 2 -0.004292 0.008838 -0.004265 -0.001168 -0.002019 0.004687
# 3 0.001543 -0.004265 0.007970 0.001702 0.002165 -0.002801
# 4 -0.000991 -0.001168 0.001702 0.018510 0.002085 -0.007519
# 5 -0.004492 -0.002019 0.002165 0.002085 0.034723 -0.000870
# 6 -0.002237 0.004687 -0.002801 -0.007519 -0.000870 0.037698
#
#
# Mechanical properties :
#
#
# Convention : Reuss Voigt Hill
#
# Bulk Modulus (GPa) = 45.03516 71.91976 58.47746
# Shear Modulus (GPa) = 33.64969 43.93523 38.79246
#
# Velocity S-wave (km/s) = 3.43699 3.92730 3.69030
# Velocity P-wave (km/s) = 5.61786 6.76851 6.21985
#
# Compressibility (1/GPa) = 0.02220487
#
# Stress axis : x y z
#
# Youngs Moduli (GPa) = 51.48623 113.14643 125.46505
#
# Poissons Ratio (x) = 0.48557 -0.19363
# Poissons Ratio (y) = 0.22095 0.53510
# Poissons Ratio (z) = -0.07946 0.48256
#
# Static dielectric constant tensor:
#      x y z
#    x 2.195700 0.014660 0.021870 
#    y 0.014660 2.192110 0.004600 
#    z 0.021870 0.004600 2.011800 
# 
# From -- ./inp_files/127694.got.cif
#   From: 2010.05.17/outbox.cif.g08.bks.cpg/sg2_64_cif.got.tgz:127694.got - 2010.06.03 11:33:40.
