data_PCOD9047821
_publ_section_title
;
Structure prediction by ZEFSAII (Michael W. Deem and Ramdas Pophale) SiO2 
 PCOD9047821
Probable space group: P -1
;
_chemical_formula_sum "Si O2"
_cell_formula_units_Z 13
_cell_length_a 12.555968
_cell_length_b 8.532402
_cell_length_c 15.233231
_cell_angle_alpha 123.797934
_cell_angle_beta 151.134366
_cell_angle_gamma 57.491163
_cell_volume 649.543042
_symmetry_space_group_name_H-M "P -1"
_symmetry_group_IT_number 2
_symmetry_cell_setting 'triclinic'
loop_
_space_group_symop_operation_xyz
x,y,z
-x,-y,-z
loop_
_atom_site_type_symbol
_atom_site_label
_atom_site_fract_x
_atom_site_fract_y
_atom_site_fract_z
Si Si1 0.773038 0.505015 0.283851
Si Si2 0.914858 0.555984 0.201898
Si Si3 0.524443 0.219594 0.102729
Si Si4 0.800212 0.137703 0.445186
Si Si5 0.500000 0.000000 0.500000
Si Si6 0.489253 0.888302 0.249355
Si Si7 0.999342 0.883814 0.874063
O O1 0.823064 0.549700 0.233525
O O2 0.672574 0.308826 0.164379
O O3 0.597462 0.670746 0.248696
O O4 0.000000 0.500000 0.500000
O O5 0.001563 0.339705 0.174978
O O6 0.100222 0.697399 0.379179
O O7 0.712661 0.653554 0.028712
O O8 0.649450 0.233565 0.288426
O O9 0.500000 0.000000 0.000000
O O10 0.654754 0.015096 0.360874
O O11 0.000000 0.000000 0.500000
O O12 0.473433 0.944981 0.358342
O O13 0.779138 0.949911 0.679555
O O14 0.251308 0.906531 0.032929
O O15 0.000000 0.000000 0.000000
#
# Coordination Sequence:
#
# PCOD9047821 Si02
#       7
#     2   2   2   2   1   2   2
#     4  12  22  39  67 100 140 185 225 276 347 418
#     4  12  24  41  67 101 144 182 223 279 351 415
#     4  12  24  37  61  98 146 180 216 273 348 413
#     4  12  24  41  61 107 149 173 219 282 348 414
#     4  10  24  46  74  92 124 184 242 286 344 388
#     4  11  23  44  68 100 138 178 233 286 334 419
#     4  10  24  44  70  96 127 180 244 287 326 409
#
# _framework density 20.014071000000001
#
# number of rings (size 3 to 8) (size 9 to 14) (size 15 to 20)
#    0.000    0.615    6.154    1.385    2.154    1.231 
#    0.000    3.077    0.000    6.462    0.000    0.000 
#    0.000    0.000    0.000    0.000    0.000    0.000 
#
# Total GULP energy -72369.511755 kJ/mol
# GULP energy per Si atom -5566.885520 kJ/mol
# Density = 1.996852 g / cm^3
# Si number density = 20.014071 Si / 1000 Ang^3
#
#
#
# Elastic Constant Matrix: (Units=GPa)
#
#
# Indices 1 2 3 4 5 6 
#
# 1 67.8847 41.0138 25.8173 -0.4442 9.8283 -3.2751
# 2 41.0138 90.9538 59.9762 19.1337 15.1096 4.5405
# 3 25.8173 59.9762 196.3854 -21.7681 17.1476 1.5169
# 4 -0.4442 19.1337 -21.7681 48.5139 13.2879 4.6302
# 5 9.8283 15.1096 17.1476 13.2879 37.7922 8.0023
# 6 -3.2751 4.5405 1.5169 4.6302 8.0023 28.7298
#
#
#
# Elastic Compliance Matrix: (Units=1/GPa)
#
#
# Indices 1 2 3 4 5 6 
#
# 1 0.022394 -0.012212 0.001973 0.006897 -0.005264 0.004733
# 2 -0.012212 0.023868 -0.007308 -0.013108 0.002256 -0.003294
# 3 0.001973 -0.007308 0.008281 0.007693 -0.004241 0.000884
# 4 0.006897 -0.013108 0.007693 0.032414 -0.011534 0.000440
# 5 -0.005264 0.002256 -0.004241 -0.011534 0.034716 -0.008543
# 6 0.004733 -0.003294 0.000884 0.000440 -0.008543 0.038129
#
#
# Mechanical properties :
#
#
# Convention : Reuss Voigt Hill
#
# Bulk Modulus (GPa) = 51.41823 67.64875 59.53349
# Shear Modulus (GPa) = 24.82879 38.23496 31.53187
#
# Velocity S-wave (km/s) = 3.52599 4.37556 3.97354
# Velocity P-wave (km/s) = 6.50566 7.70723 7.13179
#
# Compressibility (1/GPa) = 0.01944835
#
# Stress axis : x y z
#
# Youngs Moduli (GPa) = 44.65455 41.89777 120.76213
#
# Poissons Ratio (x) = 0.51165 -0.23827
# Poissons Ratio (y) = 0.54532 0.88255
# Poissons Ratio (z) = -0.08811 0.30620
#
# Static dielectric constant tensor:
#      x y z
#    x 1.715550 -0.026120 0.019640 
#    y -0.026120 1.719910 -0.006180 
#    z 0.019640 -0.006180 1.713450 
# 
# From -- ./inp_files/391029.got.cif
#   From: 2010.05.17/outbox.cif.g08.bks.cpg/sg2_196_cif.got.tgz:391029.got - 2010.06.03 11:33:40.
