data_PCOD9047998
_publ_section_title
;
Structure prediction by ZEFSAII (Michael W. Deem and Ramdas Pophale) SiO2 
 PCOD9047998
Probable space group: P -1
;
_chemical_formula_sum "Si O2"
_cell_formula_units_Z 12
_cell_length_a 11.767699
_cell_length_b 10.045756
_cell_length_c 7.768912
_cell_angle_alpha 107.044489
_cell_angle_beta 142.702121
_cell_angle_gamma 64.861341
_cell_volume 502.119582
_symmetry_space_group_name_H-M "P -1"
_symmetry_group_IT_number 2
_symmetry_cell_setting 'triclinic'
loop_
_space_group_symop_operation_xyz
x,y,z
-x,-y,-z
loop_
_atom_site_type_symbol
_atom_site_label
_atom_site_fract_x
_atom_site_fract_y
_atom_site_fract_z
Si Si1 0.262571 0.240152 0.580190
Si Si2 0.957092 0.130249 0.358048
Si Si3 0.639637 0.021197 0.831024
Si Si4 0.888806 0.709555 0.976696
Si Si5 0.265354 0.551930 0.200763
Si Si6 0.273207 0.550772 0.809793
O O1 0.492739 0.139192 0.825609
O O2 0.199759 0.268917 0.316168
O O3 0.215396 0.403956 0.659746
O O4 0.145675 0.145158 0.493929
O O5 0.851822 0.295114 0.370488
O O6 0.810641 0.091735 0.027925
O O7 0.000000 0.000000 0.500000
O O8 0.500000 0.000000 0.500000
O O9 0.763165 0.857329 0.979771
O O10 0.828536 0.578459 0.937562
O O11 0.122672 0.673156 0.203817
O O12 0.500000 0.500000 0.500000
O O13 0.248384 0.592475 0.996230
O O14 0.500000 0.500000 0.000000
#
# Coordination Sequence:
#
# PCOD9047998 Si02
#       6
#     2   2   2   2   2   2
#     4  11  24  48  77 102 148 193 249 308 372 439
#     4  12  28  45  72 110 150 197 245 303 380 439
#     4  10  25  46  72 103 149 191 249 301 373 438
#     4  10  24  44  72 105 143 191 244 302 373 432
#     4  11  25  43  73 108 144 190 251 302 368 442
#     4  12  25  48  78 106 148 195 247 307 373 444
#
# _framework density 23.898686999999999
#
# number of rings (size 3 to 8) (size 9 to 14) (size 15 to 20)
#    0.000    1.000    3.333    1.500    4.667    8.667 
#    0.000    0.000    0.000    0.000    0.000    0.000 
#    0.000    0.000    0.000    0.000    0.000    0.000 
#
# Total GULP energy -67060.105652 kJ/mol
# GULP energy per Si atom -5588.342138 kJ/mol
# Density = 2.384429 g / cm^3
# Si number density = 23.898687 Si / 1000 Ang^3
#
#
#
# Elastic Constant Matrix: (Units=GPa)
#
#
# Indices 1 2 3 4 5 6 
#
# 1 108.4784 48.7817 32.8052 -19.8539 10.1438 18.3062
# 2 48.7817 172.8531 30.2019 -17.5819 10.2096 0.9302
# 3 32.8052 30.2019 88.1229 3.8088 13.6558 3.0023
# 4 -19.8539 -17.5819 3.8088 40.9877 -5.9223 14.0114
# 5 10.1438 10.2096 13.6558 -5.9223 49.3395 -4.6982
# 6 18.3062 0.9302 3.0023 14.0114 -4.6982 50.1544
#
#
#
# Elastic Compliance Matrix: (Units=1/GPa)
#
#
# Indices 1 2 3 4 5 6 
#
# 1 0.014707 -0.002320 -0.004672 0.009052 -0.000893 -0.007658
# 2 -0.002320 0.006915 -0.001553 0.001856 -0.000276 0.000267
# 3 -0.004672 -0.001553 0.014265 -0.005424 -0.003117 0.002103
# 4 0.009052 0.001856 -0.005424 0.034674 0.002229 -0.012492
# 5 -0.000893 -0.000276 -0.003117 0.002229 0.021823 0.001939
# 6 -0.007658 0.000267 0.002103 -0.012492 0.001939 0.026274
#
#
# Mechanical properties :
#
#
# Convention : Reuss Voigt Hill
#
# Bulk Modulus (GPa) = 53.19698 65.89244 59.54471
# Shear Modulus (GPa) = 35.20815 45.27402 40.24109
#
# Velocity S-wave (km/s) = 3.84243 4.35721 4.10789
# Velocity P-wave (km/s) = 6.48023 7.27634 6.88979
#
# Compressibility (1/GPa) = 0.01879806
#
# Stress axis : x y z
#
# Youngs Moduli (GPa) = 67.99628 144.61684 70.10181
#
# Poissons Ratio (x) = 0.33544 0.32750
# Poissons Ratio (y) = 0.15772 0.10886
# Poissons Ratio (z) = 0.31766 0.22458
#
# Static dielectric constant tensor:
#      x y z
#    x 1.863380 -0.074500 -0.035140 
#    y -0.074500 2.015730 -0.007370 
#    z -0.035140 -0.007370 2.014460 
# 
# From -- ./inp_files/240800.got.cif
#   From: 2010.05.17/outbox.cif.g08.bks.cpg/sg2_121_cif.got.tgz:240800.got - 2010.06.03 11:33:40.
