data_PCOD9047736
_publ_section_title
;
Structure prediction by ZEFSAII (Michael W. Deem and Ramdas Pophale) SiO2 
 PCOD9047736
Probable space group: P -1
;
_chemical_formula_sum "Si O2"
_cell_formula_units_Z 16
_cell_length_a 20.720461
_cell_length_b 10.550887
_cell_length_c 15.535787
_cell_angle_alpha 23.911806
_cell_angle_beta 28.260966
_cell_angle_gamma 26.236156
_cell_volume 572.472638
_symmetry_space_group_name_H-M "P -1"
_symmetry_group_IT_number 2
_symmetry_cell_setting 'triclinic'
loop_
_space_group_symop_operation_xyz
x,y,z
-x,-y,-z
loop_
_atom_site_type_symbol
_atom_site_label
_atom_site_fract_x
_atom_site_fract_y
_atom_site_fract_z
Si Si1 0.340544 0.028977 0.002648
Si Si2 0.109889 0.287191 0.792477
Si Si3 0.713112 0.307400 0.468529
Si Si4 0.024730 0.173428 0.236926
Si Si5 0.214376 0.607182 0.926034
Si Si6 0.686345 0.649211 0.845550
Si Si7 0.582824 0.932470 0.354154
Si Si8 0.269966 0.237410 0.454410
O O1 0.320762 0.364284 0.759420
O O2 0.512762 0.709344 0.999862
O O3 0.294364 0.214909 0.034874
O O4 0.209624 0.939180 0.174846
O O5 0.035099 0.652993 0.707210
O O6 0.260266 0.046736 0.824466
O O7 0.965239 0.213392 0.000915
O O8 0.166801 0.332826 0.602872
O O9 0.899350 0.069449 0.411982
O O10 0.653507 0.046851 0.665619
O O11 0.640240 0.529538 0.503434
O O12 0.000000 0.500000 0.000000
O O13 0.233806 0.582941 0.020709
O O14 0.288835 0.844502 0.658128
O O15 0.783525 0.557390 0.699996
O O16 0.442450 0.181163 0.303042
O O17 0.500000 0.000000 0.500000
#
# Coordination Sequence:
#
# PCOD9047736 Si02
#       8
#     2   2   2   2   2   2   2   2
#     4  10  18  35  55  82 116 146 191 236 282 338
#     4   9  20  38  60  85 113 156 196 238 287 343
#     4  10  17  34  57  87 115 148 195 232 290 343
#     4   8  17  32  59  86 109 148 198 236 280 345
#     4  11  23  38  56  89 120 150 196 235 288 349
#     4  12  23  35  59  91 119 153 187 240 293 344
#     4   9  18  34  62  87 108 153 200 235 283 344
#     4  11  21  39  62  84 118 154 192 237 291 348
#
# _framework density 27.948933
#
# number of rings (size 3 to 8) (size 9 to 14) (size 15 to 20)
#    0.000    2.000    2.500    1.875    0.000    0.500 
#    0.000    6.875    0.000    6.750    9.750    0.000 
#    0.000    0.000    0.000    0.000    0.000    0.000 
#
# Total GULP energy -89649.825289 kJ/mol
# GULP energy per Si atom -5603.114081 kJ/mol
# Density = 2.788532 g / cm^3
# Si number density = 27.948933 Si / 1000 Ang^3
#
#
#
# Elastic Constant Matrix: (Units=GPa)
#
#
# Indices 1 2 3 4 5 6 
#
# 1 138.9651 36.3699 62.6859 19.8083 1.0346 -19.7310
# 2 36.3699 113.3483 28.3975 16.0151 0.7424 -20.0802
# 3 62.6859 28.3975 96.5643 -2.1929 3.1482 -0.1693
# 4 19.8083 16.0151 -2.1929 43.5012 -0.3780 -6.2592
# 5 1.0346 0.7424 3.1482 -0.3780 60.4711 23.0001
# 6 -19.7310 -20.0802 -0.1693 -6.2592 23.0001 55.1377
#
#
#
# Elastic Compliance Matrix: (Units=1/GPa)
#
#
# Indices 1 2 3 4 5 6 
#
# 1 0.012201 -0.000467 -0.007848 -0.005191 -0.001414 0.004173
# 2 -0.000467 0.010911 -0.002925 -0.003382 -0.001537 0.004055
# 3 -0.007848 -0.002925 0.016394 0.004972 0.000698 -0.003550
# 4 -0.005191 -0.003382 0.004972 0.026841 0.000059 -0.000052
# 5 -0.001414 -0.001537 0.000698 0.000059 0.020142 -0.009459
# 6 0.004173 0.004055 -0.003550 -0.000052 -0.009459 0.025035
#
#
# Mechanical properties :
#
#
# Convention : Reuss Voigt Hill
#
# Bulk Modulus (GPa) = 58.72976 67.08714 62.90845
# Shear Modulus (GPa) = 35.79613 46.58363 41.18988
#
# Velocity S-wave (km/s) = 3.58267 4.08700 3.84312
# Velocity P-wave (km/s) = 6.17842 6.80640 6.50000
#
# Compressibility (1/GPa) = 0.01702714
#
# Stress axis : x y z
#
# Youngs Moduli (GPa) = 81.95852 91.64820 60.99620
#
# Poissons Ratio (x) = 0.04279 0.47869
# Poissons Ratio (y) = 0.03827 0.17843
# Poissons Ratio (z) = 0.64319 0.26809
#
# Static dielectric constant tensor:
#      x y z
#    x 2.180110 0.044420 0.031050 
#    y 0.044420 2.217690 -0.029400 
#    z 0.031050 -0.029400 2.118410 
# 
# From -- ./inp_files/259416.got.cif
#   From: 2010.05.17/outbox.cif.g08.bks.cpg/sg2_130_cif.got.tgz:259416.got - 2010.06.03 11:33:40.
