data_PCOD9047300
_publ_section_title
;
Structure prediction by ZEFSAII (Michael W. Deem and Ramdas Pophale) SiO2 
 PCOD9047300
Probable space group: P -1
;
_chemical_formula_sum "Si O2"
_cell_formula_units_Z 14
_cell_length_a 5.671487
_cell_length_b 17.956539
_cell_length_c 9.019473
_cell_angle_alpha 50.053227
_cell_angle_beta 126.706321
_cell_angle_gamma 126.698675
_cell_volume 529.292260
_symmetry_space_group_name_H-M "P -1"
_symmetry_group_IT_number 2
_symmetry_cell_setting 'triclinic'
loop_
_space_group_symop_operation_xyz
x,y,z
-x,-y,-z
loop_
_atom_site_type_symbol
_atom_site_label
_atom_site_fract_x
_atom_site_fract_y
_atom_site_fract_z
Si Si1 0.560627 0.904921 0.227315
Si Si2 0.135888 0.646717 0.843689
Si Si3 0.903461 0.804849 0.631869
Si Si4 0.913365 0.479654 0.739723
Si Si5 0.173853 0.268629 0.979291
Si Si6 0.322072 0.635082 0.464775
Si Si7 0.086359 0.123112 0.871202
O O1 0.860513 0.911237 0.431965
O O2 0.651551 0.843424 0.201488
O O3 0.257296 0.865163 0.272179
O O4 0.500000 0.000000 0.000000
O O5 0.145853 0.763978 0.688634
O O6 0.919563 0.571275 0.737455
O O7 0.013795 0.600195 0.018891
O O8 0.487590 0.647368 0.966620
O O9 0.582375 0.716461 0.562046
O O10 0.951410 0.794323 0.836718
O O11 0.623856 0.411543 0.615315
O O12 0.174730 0.539096 0.643201
O O13 0.227777 0.187176 0.988206
O O14 0.945757 0.318150 0.747892
O O15 0.000000 0.000000 0.000000
#
# Coordination Sequence:
#
# PCOD9047300 Si02
#       7
#     2   2   2   2   2   2   2
#     4  10  24  48  79 107 145 189 243 303 373 452
#     4  11  26  42  70 106 144 188 252 304 366 437
#     4  12  26  45  72 107 144 191 250 301 376 439
#     4  10  24  44  64 104 142 194 244 308 361 429
#     4  12  26  45  72 107 144 191 250 301 376 439
#     4  11  24  44  72  92 146 200 242 298 372 433
#     4  10  24  48  79 107 145 189 243 303 373 452
#
# _framework density 26.450417000000002
#
# number of rings (size 3 to 8) (size 9 to 14) (size 15 to 20)
#    0.000    1.143    4.286    0.000    8.000    6.857 
#    0.000    5.714    0.000    0.000    0.000    0.000 
#    0.000    0.000    0.000    0.000    0.000    0.000 
#
# Total GULP energy -78061.151852 kJ/mol
# GULP energy per Si atom -5575.796561 kJ/mol
# Density = 2.639021 g / cm^3
# Si number density = 26.450417 Si / 1000 Ang^3
#
#
#
# Elastic Constant Matrix: (Units=GPa)
#
#
# Indices 1 2 3 4 5 6 
#
# 1 104.6911 17.0665 53.0130 5.1222 6.2161 -24.7537
# 2 17.0665 82.7672 30.9753 16.7245 -3.5442 -20.6672
# 3 53.0130 30.9753 140.2311 5.2291 -1.0740 -12.8795
# 4 5.1222 16.7245 5.2291 43.7353 -3.8328 -2.3962
# 5 6.2161 -3.5442 -1.0740 -3.8328 55.5573 10.3528
# 6 -24.7537 -20.6672 -12.8795 -2.3962 10.3528 48.1257
#
#
#
# Elastic Compliance Matrix: (Units=1/GPa)
#
#
# Indices 1 2 3 4 5 6 
#
# 1 0.013590 0.000712 -0.004665 -0.001196 -0.002879 0.006607
# 2 0.000712 0.015654 -0.002963 -0.005435 -0.000663 0.006168
# 3 -0.004665 -0.002963 0.009416 0.000552 0.000795 -0.001296
# 4 -0.001196 -0.005435 0.000552 0.025076 0.001893 -0.001961
# 5 -0.002879 -0.000663 0.000795 0.001893 0.019478 -0.005649
# 6 0.006607 0.006168 -0.001296 -0.001961 -0.005649 0.027597
#
#
# Mechanical properties :
#
#
# Convention : Reuss Voigt Hill
#
# Bulk Modulus (GPa) = 40.27816 58.86656 49.57236
# Shear Modulus (GPa) = 37.61691 44.59264 41.10477
#
# Velocity S-wave (km/s) = 3.77525 4.11042 3.94640
# Velocity P-wave (km/s) = 5.85357 6.69561 6.28870
#
# Compressibility (1/GPa) = 0.02482735
#
# Stress axis : x y z
#
# Youngs Moduli (GPa) = 73.58344 63.88067 106.20466
#
# Poissons Ratio (x) = -0.04549 0.49549
# Poissons Ratio (y) = -0.05240 0.31468
# Poissons Ratio (z) = 0.34330 0.18927
#
# Static dielectric constant tensor:
#      x y z
#    x 2.168560 0.004180 0.025900 
#    y 0.004180 2.215120 -0.070550 
#    z 0.025900 -0.070550 2.168990 
# 
# From -- ./inp_files/137414.got.cif
#   From: 2010.05.17/outbox.cif.g08.bks.cpg/sg2_69_cif.got.tgz:137414.got - 2010.06.03 11:33:40.
