data_PCOD9047180
_publ_section_title
;
Structure prediction by ZEFSAII (Michael W. Deem and Ramdas Pophale) SiO2 
 PCOD9047180
Probable space group: P -1
;
_chemical_formula_sum "Si O2"
_cell_formula_units_Z 16
_cell_length_a 10.972725
_cell_length_b 8.907376
_cell_length_c 15.822527
_cell_angle_alpha 42.956082
_cell_angle_beta 132.472140
_cell_angle_gamma 138.949289
_cell_volume 665.283873
_symmetry_space_group_name_H-M "P -1"
_symmetry_group_IT_number 2
_symmetry_cell_setting 'triclinic'
loop_
_space_group_symop_operation_xyz
x,y,z
-x,-y,-z
loop_
_atom_site_type_symbol
_atom_site_label
_atom_site_fract_x
_atom_site_fract_y
_atom_site_fract_z
Si Si1 0.508317 0.682923 0.354701
Si Si2 0.732354 0.471960 0.055922
Si Si3 0.765768 0.315714 0.472438
Si Si4 0.206405 0.668965 0.330566
Si Si5 0.358873 0.452671 0.831610
Si Si6 0.963513 0.964630 0.872151
Si Si7 0.762897 0.797109 0.673618
Si Si8 0.090186 0.833438 0.697998
O O1 0.500000 0.500000 0.500000
O O2 0.367459 0.772618 0.290169
O O3 0.405514 0.492324 0.306854
O O4 0.726739 0.906189 0.354987
O O5 0.664889 0.430016 0.139550
O O6 0.810709 0.285518 0.148009
O O7 0.557006 0.456185 0.928390
O O8 0.910061 0.759478 0.005042
O O9 0.719897 0.345707 0.535646
O O10 0.669887 0.405277 0.319945
O O11 0.000000 0.500000 0.500000
O O12 0.712273 0.021901 0.554865
O O13 0.032079 0.387855 0.337309
O O14 0.127609 0.859389 0.225900
O O15 0.185355 0.158031 0.875272
O O16 0.857860 0.810418 0.801984
O O17 0.933175 0.873352 0.654330
#
# Coordination Sequence:
#
# PCOD9047180 Si02
#       8
#     2   2   2   2   2   2   2   2
#     4  11  28  40  67 103 144 183 229 278 348 422
#     4  11  26  42  68 104 141 183 230 280 338 422
#     4  11  21  44  77 104 137 176 229 295 355 391
#     4  10  24  43  73 105 134 182 229 292 347 405
#     4  11  24  41  71 104 139 178 225 287 346 402
#     4  11  23  44  73 102 135 178 235 289 342 396
#     4  10  26  46  71 104 139 183 228 287 351 410
#     4  11  25  48  69 100 146 186 226 276 351 416
#
# _framework density 24.049883000000001
#
# number of rings (size 3 to 8) (size 9 to 14) (size 15 to 20)
#    0.000    1.250    3.750    0.375    8.750    4.500 
#    0.000    6.250    0.000    0.000    0.000    0.000 
#    0.000    0.000    0.000    0.000    0.000    0.000 
#
# Total GULP energy -89660.586636 kJ/mol
# GULP energy per Si atom -5603.786665 kJ/mol
# Density = 2.399514 g / cm^3
# Si number density = 24.049883 Si / 1000 Ang^3
#
#
#
# Elastic Constant Matrix: (Units=GPa)
#
#
# Indices 1 2 3 4 5 6 
#
# 1 94.3135 56.9193 19.1525 1.2654 0.7848 -0.8586
# 2 56.9193 96.6711 17.1355 -6.8054 -12.6289 -4.5979
# 3 19.1525 17.1355 118.1355 6.7113 -0.1015 0.7343
# 4 1.2654 -6.8054 6.7113 41.4942 5.8921 -10.7028
# 5 0.7848 -12.6289 -0.1015 5.8921 25.2451 4.9912
# 6 -0.8586 -4.5979 0.7343 -10.7028 4.9912 31.8964
#
#
#
# Elastic Compliance Matrix: (Units=1/GPa)
#
#
# Indices 1 2 3 4 5 6 
#
# 1 0.017526 -0.010981 -0.001161 -0.001553 -0.005534 -0.000739
# 2 -0.010981 0.018400 -0.001055 0.002836 0.008483 0.002005
# 3 -0.001161 -0.001055 0.008919 -0.001878 0.000190 -0.001048
# 4 -0.001553 0.002836 -0.001878 0.028893 -0.007514 0.011281
# 5 -0.005534 0.008483 0.000190 -0.007514 0.047540 -0.008891
# 6 -0.000739 0.002005 -0.001048 0.011281 -0.008891 0.036821
#
#
# Mechanical properties :
#
#
# Convention : Reuss Voigt Hill
#
# Bulk Modulus (GPa) = 54.19281 55.05943 54.62612
# Shear Modulus (GPa) = 26.22708 34.12133 30.17421
#
# Velocity S-wave (km/s) = 3.30590 3.77075 3.54595
# Velocity P-wave (km/s) = 6.09544 6.47314 6.28713
#
# Compressibility (1/GPa) = 0.01845263
#
# Stress axis : x y z
#
# Youngs Moduli (GPa) = 57.05873 54.34776 112.11554
#
# Poissons Ratio (x) = 0.59678 0.13011
# Poissons Ratio (y) = 0.62655 0.11828
# Poissons Ratio (z) = 0.06622 0.05733
#
# Static dielectric constant tensor:
#      x y z
#    x 1.969840 0.015880 0.005960 
#    y 0.015880 1.955770 0.034310 
#    z 0.005960 0.034310 1.922810 
# 
# From -- ./inp_files/515098.got.cif
#   From: 2010.05.17/outbox.cif.g08.bks.cpg/sg2_258_cif.got.tgz:515098.got - 2010.06.03 11:33:40.
