data_PCOD9047454
_publ_section_title
;
Structure prediction by ZEFSAII (Michael W. Deem and Ramdas Pophale) SiO2 
 PCOD9047454
Probable space group: P -1
;
_chemical_formula_sum "Si O2"
_cell_formula_units_Z 14
_cell_length_a 5.516680
_cell_length_b 12.459872
_cell_length_c 12.028295
_cell_angle_alpha 55.199047
_cell_angle_beta 101.299952
_cell_angle_gamma 76.132115
_cell_volume 598.963394
_symmetry_space_group_name_H-M "P -1"
_symmetry_group_IT_number 2
_symmetry_cell_setting 'triclinic'
loop_
_space_group_symop_operation_xyz
x,y,z
-x,-y,-z
loop_
_atom_site_type_symbol
_atom_site_label
_atom_site_fract_x
_atom_site_fract_y
_atom_site_fract_z
Si Si1 0.042407 0.417126 0.368834
Si Si2 0.408787 0.380880 0.615574
Si Si3 0.723224 0.056226 0.520231
Si Si4 0.888264 0.433910 0.929344
Si Si5 0.328335 0.676311 0.739651
Si Si6 0.314373 0.910066 0.041267
Si Si7 0.094029 0.846002 0.843314
O O1 0.810767 0.521908 0.370368
O O2 0.937024 0.318183 0.348676
O O3 0.288922 0.335189 0.523735
O O4 0.074758 0.518914 0.217740
O O5 0.500000 0.500000 0.500000
O O6 0.581780 0.233370 0.786343
O O7 0.573413 0.228236 0.385701
O O8 0.500000 0.000000 0.500000
O O9 0.000000 0.000000 0.500000
O O10 0.852402 0.993260 0.688295
O O11 0.557537 0.512594 0.866614
O O12 0.019520 0.261894 0.051456
O O13 0.000000 0.500000 0.000000
O O14 0.259112 0.753149 0.806524
O O15 0.287327 0.868308 0.936448
O O16 0.500000 0.000000 0.000000
O O17 0.000000 0.000000 0.000000
#
# Coordination Sequence:
#
# PCOD9047454 Si02
#       7
#     2   2   2   2   2   2   2
#     4  11  25  44  80 112 148 196 260 315 388 461
#     4  11  27  52  80 106 154 209 267 321 383 471
#     4  10  24  44  67 102 148 196 241 295 373 455
#     4  12  24  41  75 115 153 188 244 322 391 461
#     4  11  24  43  71 110 147 195 246 310 388 460
#     4  12  32  52  79 114 157 211 267 328 396 465
#     4  11  25  47  72 108 155 197 250 319 386 456
#
# _framework density 23.373718
#
# number of rings (size 3 to 8) (size 9 to 14) (size 15 to 20)
#    0.000    0.857    1.429    3.857   12.000    3.429 
#    0.000    0.000    0.000    0.000    0.000    0.000 
#    0.000    0.000    0.000    0.000    0.000    0.000 
#
# Total GULP energy -78227.488467 kJ/mol
# GULP energy per Si atom -5587.677748 kJ/mol
# Density = 2.332052 g / cm^3
# Si number density = 23.373718 Si / 1000 Ang^3
#
#
#
# Elastic Constant Matrix: (Units=GPa)
#
#
# Indices 1 2 3 4 5 6 
#
# 1 102.7654 42.5756 54.3163 11.8711 -3.6427 11.9659
# 2 42.5756 104.7548 63.6433 32.0414 -0.3900 15.9858
# 3 54.3163 63.6433 224.7209 9.7525 -7.2582 22.7530
# 4 11.8711 32.0414 9.7525 58.0460 7.9943 -2.1129
# 5 -3.6427 -0.3900 -7.2582 7.9943 37.1368 8.0162
# 6 11.9659 15.9858 22.7530 -2.1129 8.0162 48.3343
#
#
#
# Elastic Compliance Matrix: (Units=1/GPa)
#
#
# Indices 1 2 3 4 5 6 
#
# 1 0.012420 -0.003629 -0.001790 -0.000447 0.001196 -0.001250
# 2 -0.003629 0.015663 -0.002802 -0.007800 0.001715 -0.003588
# 3 -0.001790 -0.002802 0.005835 0.000724 0.001110 -0.001530
# 4 -0.000447 -0.007800 0.000724 0.022450 -0.005741 0.004283
# 5 0.001196 0.001715 0.001110 -0.005741 0.029941 -0.006602
# 6 -0.001250 -0.003588 -0.001530 0.004283 -0.006602 0.024188
#
#
# Mechanical properties :
#
#
# Convention : Reuss Voigt Hill
#
# Bulk Modulus (GPa) = 57.21510 83.70127 70.45819
# Shear Modulus (GPa) = 37.66148 46.81715 42.23931
#
# Velocity S-wave (km/s) = 4.01842 4.48032 4.25565
# Velocity P-wave (km/s) = 6.78689 7.91531 7.37272
#
# Compressibility (1/GPa) = 0.01747790
#
# Stress axis : x y z
#
# Youngs Moduli (GPa) = 80.51717 63.84614 171.37058
#
# Poissons Ratio (x) = 0.23168 0.30669
# Poissons Ratio (y) = 0.29217 0.48011
# Poissons Ratio (z) = 0.14410 0.17887
#
# Static dielectric constant tensor:
#      x y z
#    x 1.917880 -0.036900 0.124620 
#    y -0.036900 1.864450 0.057570 
#    z 0.124620 0.057570 1.561250 
# 
# From -- ./inp_files/363951.got.cif
#   From: 2010.05.17/outbox.cif.g08.bks.cpg/sg2_182_cif.got.tgz:363951.got - 2010.06.03 11:33:40.
