data_PCOD9047330
_publ_section_title
;
Structure prediction by ZEFSAII (Michael W. Deem and Ramdas Pophale) SiO2 
 PCOD9047330
Probable space group: P -1
;
_chemical_formula_sum "Si O2"
_cell_formula_units_Z 16
_cell_length_a 10.671203
_cell_length_b 8.210118
_cell_length_c 24.541025
_cell_angle_alpha 145.923236
_cell_angle_beta 34.156957
_cell_angle_gamma 133.011346
_cell_volume 676.356061
_symmetry_space_group_name_H-M "P -1"
_symmetry_group_IT_number 2
_symmetry_cell_setting 'triclinic'
loop_
_space_group_symop_operation_xyz
x,y,z
-x,-y,-z
loop_
_atom_site_type_symbol
_atom_site_label
_atom_site_fract_x
_atom_site_fract_y
_atom_site_fract_z
Si Si1 0.092915 0.319302 0.560942
Si Si2 0.749883 0.875716 0.051265
Si Si3 0.512868 0.813097 0.854234
Si Si4 0.202494 0.310304 0.849718
Si Si5 0.818733 0.413057 0.584188
Si Si6 0.102801 0.773364 0.164491
Si Si7 0.148889 0.235669 0.636711
Si Si8 0.420211 0.793231 0.695545
O O1 0.058771 0.385603 0.654951
O O2 0.348368 0.295073 0.441946
O O3 0.939920 0.479405 0.616557
O O4 0.000000 0.000000 0.500000
O O5 0.664303 0.965196 0.047144
O O6 0.587901 0.009860 0.192869
O O7 0.776936 0.537683 0.959518
O O8 0.000000 0.000000 0.000000
O O9 0.402314 0.542048 0.849348
O O10 0.614776 0.631450 0.716367
O O11 0.708811 0.004484 0.861953
O O12 0.110274 0.245018 0.803979
O O13 0.276538 0.004871 0.765306
O O14 0.000000 0.500000 0.000000
O O15 0.000000 0.500000 0.500000
O O16 0.755157 0.076804 0.504684
O O17 0.017466 0.834738 0.273778
O O18 0.315638 0.484562 0.664572
#
# Coordination Sequence:
#
# PCOD9047330 Si02
#       8
#     2   2   2   2   2   2   2   2
#     4  10  24  44  65 102 146 189 241 293 357 436
#     4  12  23  49  73 107 150 191 240 301 367 445
#     4  12  26  47  76 106 147 195 241 300 375 424
#     4  12  26  49  71 108 153 185 248 308 353 439
#     4  11  23  46  70 108 148 186 243 306 359 433
#     4  12  26  48  76 109 145 198 244 299 370 440
#     4  11  24  44  73 104 144 193 243 296 365 442
#     4  12  24  45  75 103 148 198 231 307 380 421
#
# _framework density 23.656178000000001
#
# number of rings (size 3 to 8) (size 9 to 14) (size 15 to 20)
#    0.000    0.500    5.000    3.000    3.500    0.500 
#    0.000    3.750    0.000    0.000    0.000    0.000 
#    0.000    0.000    0.000    0.000    0.000    0.000 
#
# Total GULP energy -89314.175075 kJ/mol
# GULP energy per Si atom -5582.135942 kJ/mol
# Density = 2.360234 g / cm^3
# Si number density = 23.656178 Si / 1000 Ang^3
#
#
#
# Elastic Constant Matrix: (Units=GPa)
#
#
# Indices 1 2 3 4 5 6 
#
# 1 74.0633 -6.7839 20.8241 6.2717 -3.7931 -15.5899
# 2 -6.7839 127.1845 15.2897 13.4874 -13.2246 17.6365
# 3 20.8241 15.2897 72.5434 13.5804 -7.7521 2.6386
# 4 6.2717 13.4874 13.5804 49.1255 -10.9900 0.2627
# 5 -3.7931 -13.2246 -7.7521 -10.9900 37.7109 5.0622
# 6 -15.5899 17.6365 2.6386 0.2627 5.0622 31.7315
#
#
#
# Elastic Compliance Matrix: (Units=1/GPa)
#
#
# Indices 1 2 3 4 5 6 
#
# 1 0.016835 0.000354 -0.005100 -0.001037 -0.000690 0.008617
# 2 0.000354 0.009282 -0.001228 -0.001480 0.003332 -0.005402
# 3 -0.005100 -0.001228 0.016426 -0.003086 0.002001 -0.003483
# 4 -0.001037 -0.001480 -0.003086 0.022982 0.005507 -0.000499
# 5 -0.000690 0.003332 0.002001 0.005507 0.030611 -0.007286
# 6 0.008617 -0.005402 -0.003483 -0.000499 -0.007286 0.040206
#
#
# Mechanical properties :
#
#
# Convention : Reuss Voigt Hill
#
# Bulk Modulus (GPa) = 32.68625 36.93902 34.81264
# Shear Modulus (GPa) = 31.54802 40.01100 35.77951
#
# Velocity S-wave (km/s) = 3.65582 4.11707 3.89328
# Velocity P-wave (km/s) = 5.62736 6.18460 5.91255
#
# Compressibility (1/GPa) = 0.03059390
#
# Stress axis : x y z
#
# Youngs Moduli (GPa) = 59.40113 107.74007 60.87888
#
# Poissons Ratio (x) = -0.03819 0.31050
# Poissons Ratio (y) = -0.02106 0.07479
# Poissons Ratio (z) = 0.30296 0.13236
#
# Static dielectric constant tensor:
#      x y z
#    x 1.979590 -0.110360 0.021930 
#    y -0.110360 1.607130 -0.043180 
#    z 0.021930 -0.043180 1.888150 
# 
# From -- ./inp_files/428185.got.cif
#   From: 2010.05.17/outbox.cif.g08.bks.cpg/sg2_215_cif.got.tgz:428185.got - 2010.06.03 11:33:40.
