data_PCOD9047268
_publ_section_title
;
Structure prediction by ZEFSAII (Michael W. Deem and Ramdas Pophale) SiO2 
 PCOD9047268
Probable space group: P -1
;
_chemical_formula_sum "Si O2"
_cell_formula_units_Z 16
_cell_length_a 11.710748
_cell_length_b 8.548305
_cell_length_c 11.485959
_cell_angle_alpha 113.151137
_cell_angle_beta 59.909105
_cell_angle_gamma 141.755099
_cell_volume 615.844802
_symmetry_space_group_name_H-M "P -1"
_symmetry_group_IT_number 2
_symmetry_cell_setting 'triclinic'
loop_
_space_group_symop_operation_xyz
x,y,z
-x,-y,-z
loop_
_atom_site_type_symbol
_atom_site_label
_atom_site_fract_x
_atom_site_fract_y
_atom_site_fract_z
Si Si1 0.794511 0.234661 0.477208
Si Si2 0.264196 0.715723 0.936032
Si Si3 0.659395 0.816792 0.271655
Si Si4 0.726676 0.586521 0.019942
Si Si5 0.123339 0.463368 0.682173
Si Si6 0.335472 0.366497 0.446711
Si Si7 0.701910 0.883510 0.004806
Si Si8 0.317467 0.957742 0.277468
O O1 0.751425 0.310308 0.410494
O O2 0.659087 0.093917 0.618936
O O3 0.000000 0.500000 0.500000
O O4 0.785714 0.039061 0.365821
O O5 0.195886 0.522994 0.016878
O O6 0.189814 0.573102 0.808901
O O7 0.209626 0.862192 0.019885
O O8 0.500941 0.926860 0.859941
O O9 0.731479 0.695297 0.170089
O O10 0.438255 0.580191 0.358502
O O11 0.663714 0.898036 0.163585
O O12 0.808732 0.801340 0.945820
O O13 0.502121 0.348260 0.023535
O O14 0.161481 0.304151 0.578096
O O15 0.898853 0.297313 0.726713
O O16 0.500000 0.500000 0.500000
O O17 0.305510 0.150849 0.348908
#
# Coordination Sequence:
#
# PCOD9047268 Si02
#       8
#     2   2   2   2   2   2   2   2
#     4  10  21  34  51  84 120 154 192 233 287 354
#     4  12  20  37  65  85 115 161 195 244 310 346
#     4  10  17  34  57  80 118 157 189 240 295 342
#     4   9  19  36  58  91 114 144 209 251 298 352
#     4  11  23  36  54  85 120 156 194 238 294 353
#     4  12  20  34  55  83 117 157 194 238 288 352
#     4   9  20  34  59  90 115 148 202 259 291 350
#     4  11  23  37  53  87 121 152 201 237 286 369
#
# _framework density 25.980571999999999
#
# number of rings (size 3 to 8) (size 9 to 14) (size 15 to 20)
#    0.750    0.750    5.000    0.750    1.750    1.000 
#    0.000    0.000    0.000    3.000    0.000   13.125 
#    0.000    0.000    0.000    0.000    0.000    0.000 
#
# Total GULP energy -89410.023094 kJ/mol
# GULP energy per Si atom -5588.126443 kJ/mol
# Density = 2.592144 g / cm^3
# Si number density = 25.980572 Si / 1000 Ang^3
#
#
#
# Elastic Constant Matrix: (Units=GPa)
#
#
# Indices 1 2 3 4 5 6 
#
# 1 122.7976 65.4687 37.1164 -9.9524 12.7995 -25.6405
# 2 65.4687 104.6882 61.0096 13.5472 -11.3734 -19.7377
# 3 37.1164 61.0096 105.1728 10.6307 3.8227 -7.7050
# 4 -9.9524 13.5472 10.6307 40.5809 -8.7805 -1.9792
# 5 12.7995 -11.3734 3.8227 -8.7805 44.0493 -0.5777
# 6 -25.6405 -19.7377 -7.7050 -1.9792 -0.5777 64.8896
#
#
#
# Elastic Compliance Matrix: (Units=1/GPa)
#
#
# Indices 1 2 3 4 5 6 
#
# 1 0.015607 -0.011102 0.000758 0.006140 -0.006204 0.003012
# 2 -0.011102 0.024307 -0.009758 -0.006220 0.009132 0.001739
# 3 0.000758 -0.009758 0.015143 -0.001515 -0.004368 -0.000955
# 4 0.006140 -0.006220 -0.001515 0.029243 0.002587 0.001269
# 5 -0.006204 0.009132 -0.004368 0.002587 0.027759 0.000134
# 6 0.003012 0.001739 -0.000955 0.001269 0.000134 0.017056
#
#
# Mechanical properties :
#
#
# Convention : Reuss Voigt Hill
#
# Bulk Modulus (GPa) = 67.32886 73.31647 70.32266
# Shear Modulus (GPa) = 28.69124 41.17488 34.93306
#
# Velocity S-wave (km/s) = 3.32676 3.98532 3.67084
# Velocity P-wave (km/s) = 6.38183 7.03264 6.71512
#
# Compressibility (1/GPa) = 0.01485247
#
# Stress axis : x y z
#
# Youngs Moduli (GPa) = 64.07538 41.14076 66.03775
#
# Poissons Ratio (x) = 0.45676 -0.05007
# Poissons Ratio (y) = 0.71139 0.64438
# Poissons Ratio (z) = -0.04858 0.40144
#
# Static dielectric constant tensor:
#      x y z
#    x 2.099120 -0.078980 -0.000040 
#    y -0.078980 2.088310 0.012170 
#    z -0.000040 0.012170 2.002550 
# 
# From -- ./inp_files/513452.got.cif
#   From: 2010.05.17/outbox.cif.g08.bks.cpg/sg2_257_cif.got.tgz:513452.got - 2010.06.03 11:33:40.
