data_PCOD9047597
_publ_section_title
;
Structure prediction by ZEFSAII (Michael W. Deem and Ramdas Pophale) SiO2 
 PCOD9047597
Probable space group: P -1
;
_chemical_formula_sum "Si O2"
_cell_formula_units_Z 15
_cell_length_a 10.861666
_cell_length_b 7.615275
_cell_length_c 12.529140
_cell_angle_alpha 69.078999
_cell_angle_beta 129.090679
_cell_angle_gamma 74.990978
_cell_volume 559.256850
_symmetry_space_group_name_H-M "P -1"
_symmetry_group_IT_number 2
_symmetry_cell_setting 'triclinic'
loop_
_space_group_symop_operation_xyz
x,y,z
-x,-y,-z
loop_
_atom_site_type_symbol
_atom_site_label
_atom_site_fract_x
_atom_site_fract_y
_atom_site_fract_z
Si Si1 0.498065 0.385569 0.417669
Si Si2 0.500000 0.000000 0.000000
Si Si3 0.685018 0.871505 0.729695
Si Si4 0.058404 0.650912 0.120680
Si Si5 0.330406 0.002278 0.661071
Si Si6 0.631013 0.239883 0.065466
Si Si7 0.901929 0.134645 0.549487
Si Si8 0.002999 0.595568 0.338933
O O1 0.500000 0.500000 0.500000
O O2 0.261546 0.599923 0.196083
O O3 0.695307 0.280368 0.477457
O O4 0.542698 0.134910 0.532432
O O5 0.242926 0.263968 0.827022
O O6 0.451317 0.810229 0.068291
O O7 0.859882 0.626219 0.804702
O O8 0.533880 0.862210 0.725873
O O9 0.838266 0.861985 0.897142
O O10 0.041957 0.680766 0.231976
O O11 0.176200 0.295493 0.492532
O O12 0.402357 0.928124 0.840414
O O13 0.185188 0.929334 0.580080
O O14 0.500000 0.500000 0.000000
O O15 0.874319 0.116323 0.223978
O O16 0.952020 0.316328 0.548967
#
# Coordination Sequence:
#
# PCOD9047597 Si02
#       8
#     2   1   2   2   2   2   2   2
#     4  12  22  43  65  96 140 174 219 283 329 396
#     4  10  24  44  68  92 136 172 220 282 330 398
#     4  11  24  39  69 102 126 184 226 264 344 397
#     4  11  22  41  65  95 135 172 225 272 329 400
#     4  12  23  43  71  96 135 177 225 281 334 404
#     4  11  26  45  66 100 132 177 227 281 336 399
#     4  11  24  41  68  98 131 176 225 276 339 397
#     4  11  23  44  68  98 134 179 222 278 342 398
#
# _framework density 26.821307000000001
#
# number of rings (size 3 to 8) (size 9 to 14) (size 15 to 20)
#    0.000    0.800    4.000    3.200    0.000    5.867 
#    0.000    2.667    0.000    0.000    0.000    0.000 
#    0.000    0.000    0.000    0.000    0.000    0.000 
#
# Total GULP energy -83643.991753 kJ/mol
# GULP energy per Si atom -5576.266117 kJ/mol
# Density = 2.676026 g / cm^3
# Si number density = 26.821307 Si / 1000 Ang^3
#
#
#
# Elastic Constant Matrix: (Units=GPa)
#
#
# Indices 1 2 3 4 5 6 
#
# 1 68.6499 -17.0586 38.6559 4.9071 36.5091 -0.6232
# 2 -17.0586 129.7883 17.0394 -3.5792 8.5371 6.3486
# 3 38.6559 17.0394 144.2149 8.1716 50.6562 2.0033
# 4 4.9071 -3.5792 8.1716 47.2487 4.7596 12.5310
# 5 36.5091 8.5371 50.6562 4.7596 56.6890 9.4615
# 6 -0.6232 6.3486 2.0033 12.5310 9.4615 37.9600
#
#
#
# Elastic Compliance Matrix: (Units=1/GPa)
#
#
# Indices 1 2 3 4 5 6 
#
# 1 0.025235 0.004332 -0.001611 -0.001533 -0.016051 0.004281
# 2 0.004332 0.008695 -0.001187 0.000950 -0.002969 -0.000894
# 3 -0.001611 -0.001187 0.010520 -0.001478 -0.008428 0.002206
# 4 -0.001533 0.000950 -0.001478 0.023700 0.001563 -0.008320
# 5 -0.016051 -0.002969 -0.008428 0.001563 0.037351 -0.009148
# 6 0.004281 -0.000894 0.002206 -0.008320 -0.009148 0.031473
#
#
# Mechanical properties :
#
#
# Convention : Reuss Voigt Hill
#
# Bulk Modulus (GPa) = 21.04431 46.65849 33.85140
# Shear Modulus (GPa) = 33.39017 48.64729 41.01873
#
# Velocity S-wave (km/s) = 3.53216 4.26344 3.91491
# Velocity P-wave (km/s) = 4.94955 6.45521 5.75186
#
# Compressibility (1/GPa) = 0.04751877
#
# Stress axis : x y z
#
# Youngs Moduli (GPa) = 39.62823 115.00395 95.06107
#
# Poissons Ratio (x) = -0.49822 0.15310
# Poissons Ratio (y) = -0.17168 0.11284
# Poissons Ratio (z) = 0.06382 0.13651
#
# Static dielectric constant tensor:
#      x y z
#    x 2.139050 0.105840 -0.018850 
#    y 0.105840 2.487200 0.227170 
#    z -0.018850 0.227170 2.272960 
# 
# From -- ./inp_files/515418.got.cif
#   From: 2010.05.17/outbox.cif.g08.bks.cpg/sg2_258_cif.got.tgz:515418.got - 2010.06.03 11:33:40.
