data_PCOD9047149
_publ_section_title
;
Structure prediction by ZEFSAII (Michael W. Deem and Ramdas Pophale) SiO2 
 PCOD9047149
Probable space group: P -1
;
_chemical_formula_sum "Si O2"
_cell_formula_units_Z 16
_cell_length_a 9.467313
_cell_length_b 15.096851
_cell_length_c 19.376745
_cell_angle_alpha 35.897581
_cell_angle_beta 36.379844
_cell_angle_gamma 25.703565
_cell_volume 672.791935
_symmetry_space_group_name_H-M "P -1"
_symmetry_group_IT_number 2
_symmetry_cell_setting 'triclinic'
loop_
_space_group_symop_operation_xyz
x,y,z
-x,-y,-z
loop_
_atom_site_type_symbol
_atom_site_label
_atom_site_fract_x
_atom_site_fract_y
_atom_site_fract_z
Si Si1 0.238943 0.691912 0.427683
Si Si2 0.620314 0.326021 0.415559
Si Si3 0.855109 0.430546 0.895795
Si Si4 0.394950 0.187338 0.339706
Si Si5 0.719213 0.019095 0.064924
Si Si6 0.874738 0.148694 0.277822
Si Si7 0.420152 0.983434 0.335159
Si Si8 0.737607 0.777295 0.002614
O O1 0.500000 0.500000 0.500000
O O2 0.391832 0.572066 0.370127
O O3 0.873435 0.782667 0.528056
O O4 0.188420 0.892495 0.331482
O O5 0.008685 0.170609 0.387345
O O6 0.663661 0.274646 0.350214
O O7 0.476156 0.239397 0.563076
O O8 0.798541 0.601274 0.763612
O O9 0.095780 0.203063 0.905940
O O10 0.500000 0.500000 0.000000
O O11 0.024982 0.404865 0.917596
O O12 0.565843 0.997933 0.336754
O O13 0.655778 0.159647 0.300950
O O14 0.510508 0.038008 0.197736
O O15 0.495757 0.198433 0.978508
O O16 0.000000 0.000000 0.000000
O O17 0.014524 0.235282 0.134201
O O18 0.500000 0.000000 0.000000
#
# Coordination Sequence:
#
# PCOD9047149 Si02
#       8
#     2   2   2   2   2   2   2   2
#     4  12  25  43  73 108 135 189 236 287 358 428
#     4  11  23  43  72 104 139 187 233 283 361 423
#     4  11  23  46  69 101 134 189 243 284 354 422
#     4  12  25  44  71 100 144 184 231 297 356 421
#     4  11  24  43  69 103 139 185 236 296 357 418
#     4  12  25  48  68 104 148 180 234 297 357 420
#     4  11  22  43  69 101 144 180 228 297 350 419
#     4  10  24  43  72  95 139 192 233 293 357 421
#
# _framework density 23.781499
#
# number of rings (size 3 to 8) (size 9 to 14) (size 15 to 20)
#    0.000    0.750    5.000    2.625    5.250    0.500 
#    2.250    3.750    0.000    0.000    0.000    0.000 
#    0.000    0.000    0.000    0.000    0.000    0.000 
#
# Total GULP energy -89624.448436 kJ/mol
# GULP energy per Si atom -5601.528027 kJ/mol
# Density = 2.372737 g / cm^3
# Si number density = 23.781499 Si / 1000 Ang^3
#
#
#
# Elastic Constant Matrix: (Units=GPa)
#
#
# Indices 1 2 3 4 5 6 
#
# 1 176.1938 17.6848 32.8291 7.6565 17.6256 -8.2485
# 2 17.6848 63.6132 23.4987 4.4927 15.5300 14.7034
# 3 32.8291 23.4987 87.2279 -6.1651 13.3501 1.2006
# 4 7.6565 4.4927 -6.1651 28.5143 -0.4803 7.6889
# 5 17.6256 15.5300 13.3501 -0.4803 38.9576 3.7956
# 6 -8.2485 14.7034 1.2006 7.6889 3.7956 43.9536
#
#
#
# Elastic Compliance Matrix: (Units=1/GPa)
#
#
# Indices 1 2 3 4 5 6 
#
# 1 0.006602 -0.000836 -0.002153 -0.002749 -0.002169 0.002245
# 2 -0.000836 0.020548 -0.004434 -0.002455 -0.005741 -0.005984
# 3 -0.002153 -0.004434 0.014080 0.004252 -0.002044 0.000127
# 4 -0.002749 -0.002455 0.004252 0.038978 0.001907 -0.006794
# 5 -0.002169 -0.005741 -0.002044 0.001907 0.029793 -0.001337
# 6 0.002245 -0.005984 0.000127 -0.006794 -0.001337 0.026475
#
#
# Mechanical properties :
#
#
# Convention : Reuss Voigt Hill
#
# Bulk Modulus (GPa) = 37.89782 52.78446 45.34114
# Shear Modulus (GPa) = 31.22722 39.15327 35.19025
#
# Velocity S-wave (km/s) = 3.62759 4.06196 3.85090
# Velocity P-wave (km/s) = 5.78933 6.65155 6.23536
#
# Compressibility (1/GPa) = 0.02638674
#
# Stress axis : x y z
#
# Youngs Moduli (GPa) = 151.46738 48.66603 71.02051
#
# Poissons Ratio (x) = 0.04066 0.15290
# Poissons Ratio (y) = 0.12656 0.31487
# Poissons Ratio (z) = 0.32610 0.21576
#
# Static dielectric constant tensor:
#      x y z
#    x 1.946940 -0.012260 0.010530 
#    y -0.012260 1.914580 -0.012750 
#    z 0.010530 -0.012750 1.871710 
# 
# From -- ./inp_files/222428.got.cif
#   From: 2010.05.17/outbox.cif.g08.bks.cpg/sg2_112_cif.got.tgz:222428.got - 2010.06.03 11:33:40.
