data_PCOD9047788
_publ_section_title
;
Structure prediction by ZEFSAII (Michael W. Deem and Ramdas Pophale) SiO2 
 PCOD9047788
Probable space group: P -1
;
_chemical_formula_sum "Si O2"
_cell_formula_units_Z 16
_cell_length_a 13.365546
_cell_length_b 19.673192
_cell_length_c 5.300236
_cell_angle_alpha 112.420668
_cell_angle_beta 133.599604
_cell_angle_gamma 43.579517
_cell_volume 675.969999
_symmetry_space_group_name_H-M "P -1"
_symmetry_group_IT_number 2
_symmetry_cell_setting 'triclinic'
loop_
_space_group_symop_operation_xyz
x,y,z
-x,-y,-z
loop_
_atom_site_type_symbol
_atom_site_label
_atom_site_fract_x
_atom_site_fract_y
_atom_site_fract_z
Si Si1 0.855444 0.105829 0.244243
Si Si2 0.445900 0.580164 0.314720
Si Si3 0.724660 0.498809 0.289621
Si Si4 0.809559 0.927425 0.125468
Si Si5 0.510014 0.303188 0.179189
Si Si6 0.756735 0.774999 0.847876
Si Si7 0.140081 0.343865 0.653701
Si Si8 0.319181 0.942479 0.422168
O O1 0.656585 0.191760 0.160142
O O2 0.973534 0.137364 0.499865
O O3 0.804257 0.086720 0.863037
O O4 0.000000 0.000000 0.500000
O O5 0.500000 0.500000 0.500000
O O6 0.652294 0.529102 0.491491
O O7 0.369334 0.687101 0.414515
O O8 0.305373 0.578820 0.911878
O O9 0.928705 0.452583 0.490245
O O10 0.570713 0.607687 0.036679
O O11 0.694408 0.010665 0.269268
O O12 0.773134 0.855146 0.943602
O O13 0.755038 0.980876 0.833403
O O14 0.322214 0.330090 0.988398
O O15 0.839740 0.698432 0.649226
O O16 0.533834 0.841922 0.592672
O O17 0.849486 0.720029 0.196731
#
# Coordination Sequence:
#
# PCOD9047788 Si02
#       8
#     2   2   2   2   2   2   2   2
#     4  10  24  44  70 104 141 180 239 293 357 422
#     4   9  22  43  74 101 139 176 239 288 357 418
#     4  10  24  46  71 106 138 187 234 299 349 430
#     4  11  24  43  72 100 136 193 235 297 355 419
#     4  11  24  46  71 102 140 193 231 296 357 420
#     4  12  26  44  69 105 142 190 239 294 354 422
#     4  12  28  44  72 104 149 183 242 291 349 428
#     4  11  22  46  69  99 144 181 244 294 355 419
#
# _framework density 23.669688000000001
#
# number of rings (size 3 to 8) (size 9 to 14) (size 15 to 20)
#    0.000    1.250    1.250    3.000    8.750    2.500 
#    4.500    0.000    0.000    0.000    0.000    0.000 
#    0.000    0.000    0.000    0.000    0.000    0.000 
#
# Total GULP energy -89289.520016 kJ/mol
# GULP energy per Si atom -5580.595001 kJ/mol
# Density = 2.361581 g / cm^3
# Si number density = 23.669688 Si / 1000 Ang^3
#
#
#
# Elastic Constant Matrix: (Units=GPa)
#
#
# Indices 1 2 3 4 5 6 
#
# 1 90.3688 41.4356 16.8426 -8.9050 -6.3579 -45.5313
# 2 41.4356 66.5250 22.1182 11.7135 23.0362 32.2527
# 3 16.8426 22.1182 41.9972 1.0734 20.0808 -5.0029
# 4 -8.9050 11.7135 1.0734 36.1363 -10.2745 -12.6782
# 5 -6.3579 23.0362 20.0808 -10.2745 27.0929 -21.9183
# 6 -45.5313 32.2527 -5.0029 -12.6782 -21.9183 -61.1148
#
#
#
# Elastic Compliance Matrix: (Units=1/GPa)
#
#
# Indices 1 2 3 4 5 6 
#
# 1 0.008818 -0.000963 -0.004043 0.000278 0.000376 -0.006939
# 2 -0.000963 0.013624 -0.005023 -0.001674 -0.001326 0.009142
# 3 -0.004043 -0.005023 0.039957 -0.004867 -0.023002 0.006350
# 4 0.000278 -0.001674 -0.004867 0.027458 0.008016 -0.009263
# 5 0.000376 -0.001326 -0.023002 0.008016 0.044646 -0.016772
# 6 -0.006939 0.009142 0.006350 -0.009263 -0.016772 0.001049
#
#
# Mechanical properties :
#
#
# Convention : Reuss Voigt Hill
#
# Bulk Modulus (GPa) = 23.61739 39.96487 31.79113
# Shear Modulus (GPa) = 29.45973 8.32253 18.89113
#
# Velocity S-wave (km/s) = 3.53174 1.87716 2.82816
# Velocity P-wave (km/s) = 5.16048 4.64967 4.91172
#
# Compressibility (1/GPa) = 0.04234168
#
# Stress axis : x y z
#
# Youngs Moduli (GPa) = 113.40107 73.40044 25.02687
#
# Poissons Ratio (x) = 0.07069 0.10118
# Poissons Ratio (y) = 0.10921 0.12571
# Poissons Ratio (z) = 0.45845 0.36869
#
# Static dielectric constant tensor:
#      x y z
#    x 1.971380 -0.050840 -0.006240 
#    y -0.050840 1.988630 -0.020000 
#    z -0.006240 -0.020000 2.032840 
# 
# From -- ./inp_files/100678.got.cif
#   From: 2010.05.17/outbox.cif.g08.bks.cpg/sg2_51_cif.got.tgz:100678.got - 2010.06.03 11:33:40.
