data_PCOD9047698
_publ_section_title
;
Structure prediction by ZEFSAII (Michael W. Deem and Ramdas Pophale) SiO2 
 PCOD9047698
Probable space group: P -1
;
_chemical_formula_sum "Si O2"
_cell_formula_units_Z 13
_cell_length_a 5.148373
_cell_length_b 8.805189
_cell_length_c 12.730104
_cell_angle_alpha 117.945870
_cell_angle_beta 83.401804
_cell_angle_gamma 82.649507
_cell_volume 495.430623
_symmetry_space_group_name_H-M "P -1"
_symmetry_group_IT_number 2
_symmetry_cell_setting 'triclinic'
loop_
_space_group_symop_operation_xyz
x,y,z
-x,-y,-z
loop_
_atom_site_type_symbol
_atom_site_label
_atom_site_fract_x
_atom_site_fract_y
_atom_site_fract_z
Si Si1 0.589901 0.750645 0.307275
Si Si2 0.844877 0.140236 0.971227
Si Si3 0.957367 0.064512 0.712193
Si Si4 0.231414 0.431966 0.382872
Si Si5 0.000000 0.500000 0.000000
Si Si6 0.443603 0.768884 0.536937
Si Si7 0.375371 0.422354 0.146083
O O1 0.834758 0.803075 0.252991
O O2 0.624698 0.805652 0.443941
O O3 0.574937 0.553060 0.212871
O O4 0.300338 0.860994 0.321866
O O5 0.973867 0.310116 0.998052
O O6 0.550472 0.230030 0.055027
O O7 0.854126 0.045792 0.827635
O O8 0.000000 0.000000 0.000000
O O9 0.155382 0.891827 0.603424
O O10 0.401779 0.581660 0.437171
O O11 0.406019 0.255239 0.367323
O O12 0.184735 0.422702 0.257848
O O13 0.000000 0.500000 0.500000
O O14 0.238642 0.510290 0.076154
#
# Coordination Sequence:
#
# PCOD9047698 Si02
#       7
#     2   2   2   2   1   2   2
#     4  11  26  45  79 110 154 206 265 322 407 476
#     4  12  28  48  75 114 156 209 272 328 400 478
#     4  12  26  45  74 113 155 206 259 331 400 478
#     4  10  24  44  73 107 148 205 260 328 405 473
#     4  12  26  50  80 106 166 210 266 332 400 472
#     4  10  24  44  69 109 152 198 260 329 397 477
#     4  11  26  48  76 112 154 213 265 329 402 482
#
# _framework density 26.239798
#
# number of rings (size 3 to 8) (size 9 to 14) (size 15 to 20)
#    0.000    0.923    1.538    3.231    8.615    4.308 
#    0.000    0.000    0.000    0.000    0.000    0.000 
#    0.000    0.000    0.000    0.000    0.000    0.000 
#
# Total GULP energy -72549.072413 kJ/mol
# GULP energy per Si atom -5580.697878 kJ/mol
# Density = 2.618008 g / cm^3
# Si number density = 26.239798 Si / 1000 Ang^3
#
#
#
# Elastic Constant Matrix: (Units=GPa)
#
#
# Indices 1 2 3 4 5 6 
#
# 1 101.4116 39.5091 48.1278 -7.2571 -9.7601 -19.8126
# 2 39.5091 128.4771 64.8214 -12.3373 -16.1890 -37.4846
# 3 48.1278 64.8214 172.6841 -18.6549 -18.9885 -20.8013
# 4 -7.2571 -12.3373 -18.6549 36.3992 -7.8247 -2.2937
# 5 -9.7601 -16.1890 -18.9885 -7.8247 25.4452 12.5123
# 6 -19.8126 -37.4846 -20.8013 -2.2937 12.5123 50.9089
#
#
#
# Elastic Compliance Matrix: (Units=1/GPa)
#
#
# Indices 1 2 3 4 5 6 
#
# 1 0.012236 -0.001689 -0.002249 0.001103 0.001112 0.002376
# 2 -0.001689 0.012322 -0.002624 0.003567 0.003003 0.006766
# 3 -0.002249 -0.002624 0.008347 0.004022 0.005173 -0.000487
# 4 0.001103 0.003567 0.004022 0.034348 0.014997 0.002561
# 5 0.001112 0.003003 0.005173 0.014997 0.053959 -0.007828
# 6 0.002376 0.006766 -0.000487 0.002561 -0.007828 0.027390
#
#
# Mechanical properties :
#
#
# Convention : Reuss Voigt Hill
#
# Bulk Modulus (GPa) = 50.55135 78.60995 64.58065
# Shear Modulus (GPa) = 29.70539 39.22497 34.46518
#
# Velocity S-wave (km/s) = 3.36828 3.87054 3.62811
# Velocity P-wave (km/s) = 5.86805 7.07094 6.49739
#
# Compressibility (1/GPa) = 0.01978186
#
# Stress axis : x y z
#
# Youngs Moduli (GPa) = 81.72514 81.15781 119.79954
#
# Poissons Ratio (x) = 0.13708 0.26938
# Poissons Ratio (y) = 0.13804 0.31435
# Poissons Ratio (z) = 0.18376 0.21296
#
# Static dielectric constant tensor:
#      x y z
#    x 2.079880 0.060760 -0.051460 
#    y 0.060760 2.195680 -0.041150 
#    z -0.051460 -0.041150 2.178330 
# 
# From -- ./inp_files/130543.got.cif
#   From: 2010.05.17/outbox.cif.g08.bks.cpg/sg2_66_cif.got.tgz:130543.got - 2010.06.03 11:33:40.
