data_PCOD9047690
_publ_section_title
;
Structure prediction by ZEFSAII (Michael W. Deem and Ramdas Pophale) SiO2 
 PCOD9047690
Probable space group: P -1
;
_chemical_formula_sum "Si O2"
_cell_formula_units_Z 16
_cell_length_a 16.369030
_cell_length_b 19.309447
_cell_length_c 10.272423
_cell_angle_alpha 141.502943
_cell_angle_beta 147.357004
_cell_angle_gamma 21.647513
_cell_volume 646.073893
_symmetry_space_group_name_H-M "P -1"
_symmetry_group_IT_number 2
_symmetry_cell_setting 'triclinic'
loop_
_space_group_symop_operation_xyz
x,y,z
-x,-y,-z
loop_
_atom_site_type_symbol
_atom_site_label
_atom_site_fract_x
_atom_site_fract_y
_atom_site_fract_z
Si Si1 0.490748 0.286142 0.006530
Si Si2 0.328471 0.701015 0.135450
Si Si3 0.061108 0.211794 0.366594
Si Si4 0.730206 0.609086 0.417335
Si Si5 0.063915 0.973940 0.394523
Si Si6 0.478561 0.954595 0.171316
Si Si7 0.006249 0.662030 0.980899
Si Si8 0.836412 0.837827 0.280716
O O1 0.787571 0.136690 0.191512
O O2 0.380143 0.312933 0.759658
O O3 0.439386 0.217266 0.937942
O O4 0.301982 0.496811 0.102632
O O5 0.483175 0.718763 0.329297
O O6 0.252131 0.769720 0.283993
O O7 0.500000 0.500000 0.000000
O O8 0.053815 0.836098 0.902552
O O9 0.363814 0.054883 0.537801
O O10 0.998352 0.262868 0.511211
O O11 0.175926 0.140456 0.042424
O O12 0.880420 0.623537 0.699424
O O13 0.925428 0.389171 0.363374
O O14 0.179877 0.026737 0.594124
O O15 0.000000 0.000000 0.500000
O O16 0.577879 0.937186 0.139117
O O17 0.962656 0.694178 0.123428
#
# Coordination Sequence:
#
# PCOD9047690 Si02
#       8
#     2   2   2   2   2   2   2   2
#     4  12  28  45  72 112 156 196 254 320 384 446
#     4  10  24  47  78 105 142 200 255 310 373 445
#     4   9  22  43  71 106 141 195 253 313 366 441
#     4  11  24  45  72 111 147 192 261 315 366 454
#     4  12  28  51  76 114 156 196 254 323 384 454
#     4  10  24  44  69 106 148 194 253 316 371 443
#     4  12  24  43  71 106 155 206 247 308 385 458
#     4  10  24  45  72 105 148 205 258 304 382 451
#
# _framework density 24.764968
#
# number of rings (size 3 to 8) (size 9 to 14) (size 15 to 20)
#    0.750    0.500    1.250    3.000    1.750   11.000 
#    0.000    0.000    0.000    0.000    0.000    0.000 
#    0.000    0.000    0.000    0.000    0.000    0.000 
#
# Total GULP energy -89364.165089 kJ/mol
# GULP energy per Si atom -5585.260318 kJ/mol
# Density = 2.470860 g / cm^3
# Si number density = 24.764968 Si / 1000 Ang^3
#
#
#
# Elastic Constant Matrix: (Units=GPa)
#
#
# Indices 1 2 3 4 5 6 
#
# 1 126.0584 42.2519 45.5414 11.9094 -6.2599 -3.9721
# 2 42.2519 118.9041 40.1491 8.7791 -14.3574 -9.2037
# 3 45.5414 40.1491 91.7032 -2.0453 -11.5582 -14.2984
# 4 11.9094 8.7791 -2.0453 28.6317 -10.4366 -8.4044
# 5 -6.2599 -14.3574 -11.5582 -10.4366 40.0905 0.6682
# 6 -3.9721 -9.2037 -14.2984 -8.4044 0.6682 41.0461
#
#
#
# Elastic Compliance Matrix: (Units=1/GPa)
#
#
# Indices 1 2 3 4 5 6 
#
# 1 0.010895 -0.002109 -0.005237 -0.005687 -0.002005 -0.002375
# 2 -0.002109 0.010706 -0.003309 -0.001680 0.002103 0.000666
# 3 -0.005237 -0.003309 0.016683 0.007914 0.004766 0.006106
# 4 -0.005687 -0.001680 0.007914 0.046237 0.012644 0.011091
# 5 -0.002005 0.002103 0.004766 0.012644 0.029982 0.004038
# 6 -0.002375 0.000666 0.006106 0.011091 0.004038 0.028614
#
#
# Mechanical properties :
#
#
# Convention : Reuss Voigt Hill
#
# Bulk Modulus (GPa) = 58.91036 65.83895 62.37466
# Shear Modulus (GPa) = 29.39725 35.86855 32.63290
#
# Velocity S-wave (km/s) = 3.44910 3.80986 3.63396
# Velocity P-wave (km/s) = 6.30088 6.78208 6.54590
#
# Compressibility (1/GPa) = 0.01697494
#
# Stress axis : x y z
#
# Youngs Moduli (GPa) = 91.78906 93.40368 59.94063
#
# Poissons Ratio (x) = 0.19699 0.31390
# Poissons Ratio (y) = 0.19359 0.19832
# Poissons Ratio (z) = 0.48068 0.30904
#
# Static dielectric constant tensor:
#      x y z
#    x 1.963210 -0.017570 -0.004590 
#    y -0.017570 2.020340 0.021520 
#    z -0.004590 0.021520 1.980780 
# 
# From -- ./inp_files/467492.got.cif
#   From: 2010.05.17/outbox.cif.g08.bks.cpg/sg2_234_cif.got.tgz:467492.got - 2010.06.03 11:33:40.
