data_PCOD9047122
_publ_section_title
;
Structure prediction by ZEFSAII (Michael W. Deem and Ramdas Pophale) SiO2 
 PCOD9047122
Probable space group: P -1
;
_chemical_formula_sum "Si O2"
_cell_formula_units_Z 12
_cell_length_a 10.098742
_cell_length_b 11.056395
_cell_length_c 9.634426
_cell_angle_alpha 138.384305
_cell_angle_beta 53.750560
_cell_angle_gamma 128.546616
_cell_volume 542.223082
_symmetry_space_group_name_H-M "P -1"
_symmetry_group_IT_number 2
_symmetry_cell_setting 'triclinic'
loop_
_space_group_symop_operation_xyz
x,y,z
-x,-y,-z
loop_
_atom_site_type_symbol
_atom_site_label
_atom_site_fract_x
_atom_site_fract_y
_atom_site_fract_z
Si Si1 0.601322 0.825230 0.690169
Si Si2 0.138261 0.534920 0.144375
Si Si3 0.569197 0.088294 0.680905
Si Si4 0.753543 0.489923 0.257695
Si Si5 0.751244 0.933026 0.979319
Si Si6 0.973416 0.696642 0.741213
O O1 0.709449 0.683165 0.474385
O O2 0.409231 0.686257 0.735700
O O3 0.593212 0.941496 0.656467
O O4 0.306856 0.045350 0.123340
O O5 0.247753 0.744624 0.312969
O O6 0.147687 0.373745 0.107785
O O7 0.934423 0.502820 0.227612
O O8 0.216033 0.526679 0.938471
O O9 0.424593 0.164152 0.906953
O O10 0.500000 0.000000 0.500000
O O11 0.872988 0.799543 0.792088
O O12 0.854535 0.134668 0.165383
O O13 0.000000 0.500000 0.500000
#
# Coordination Sequence:
#
# PCOD9047122 Si02
#       6
#     2   2   2   2   2   2
#     4  11  24  47  71 100 142 189 238 283 359 427
#     4  11  24  43  68 104 142 176 238 295 349 410
#     4  12  27  43  69 104 142 182 238 296 353 415
#     4  10  24  43  72 103 135 191 233 292 352 415
#     4  11  25  46  73 102 141 194 233 287 361 421
#     4  11  25  46  73 104 146 187 236 291 358 426
#
# _framework density 22.131111000000001
#
# number of rings (size 3 to 8) (size 9 to 14) (size 15 to 20)
#    0.000    1.000    1.667    3.500    7.000    6.667 
#    0.000    0.000    0.000    0.000    0.000    0.000 
#    0.000    0.000    0.000    0.000    0.000    0.000 
#
# Total GULP energy -67142.402944 kJ/mol
# GULP energy per Si atom -5595.200245 kJ/mol
# Density = 2.208074 g / cm^3
# Si number density = 22.131111 Si / 1000 Ang^3
#
#
#
# Elastic Constant Matrix: (Units=GPa)
#
#
# Indices 1 2 3 4 5 6 
#
# 1 132.2158 41.5880 52.9513 -2.0050 26.0242 -12.5607
# 2 41.5880 85.3395 -4.6612 1.0035 4.3897 -1.9134
# 3 52.9513 -4.6612 104.2753 7.8468 -0.6034 4.3330
# 4 -2.0050 1.0035 7.8468 25.8891 -2.7176 5.5827
# 5 26.0242 4.3897 -0.6034 -2.7176 35.4341 -1.7645
# 6 -12.5607 -1.9134 4.3330 5.5827 -1.7645 33.7323
#
#
#
# Elastic Compliance Matrix: (Units=1/GPa)
#
#
# Indices 1 2 3 4 5 6 
#
# 1 0.016400 -0.007825 -0.009133 0.001925 -0.010787 0.005953
# 2 -0.007825 0.015586 0.004921 -0.001852 0.003650 -0.002165
# 3 -0.009133 0.004921 0.014947 -0.003934 0.005847 -0.004085
# 4 0.001925 -0.001852 -0.003934 0.041431 0.001644 -0.005654
# 5 -0.010787 0.003650 0.005847 0.001644 0.035770 -0.002962
# 6 0.005953 -0.002165 -0.004085 -0.005654 -0.002962 0.033045
#
#
# Mechanical properties :
#
#
# Convention : Reuss Voigt Hill
#
# Bulk Modulus (GPa) = 43.74685 55.73187 49.73936
# Shear Modulus (GPa) = 26.47282 34.47459 30.47371
#
# Velocity S-wave (km/s) = 3.46234 3.95111 3.71477
# Velocity P-wave (km/s) = 5.98279 6.78618 6.39711
#
# Compressibility (1/GPa) = 0.02285879
#
# Stress axis : x y z
#
# Youngs Moduli (GPa) = 60.97409 64.16153 66.90235
#
# Poissons Ratio (x) = 0.50209 0.61100
# Poissons Ratio (y) = 0.47715 -0.32922
# Poissons Ratio (z) = 0.55686 -0.31573
#
# Static dielectric constant tensor:
#      x y z
#    x 1.817430 -0.000170 0.019630 
#    y -0.000170 1.770550 -0.008340 
#    z 0.019630 -0.008340 1.829890 
# 
# From -- ./inp_files/424656.got.cif
#   From: 2010.05.17/outbox.cif.g08.bks.cpg/sg2_213_cif.got.tgz:424656.got - 2010.06.03 11:33:40.
