data_PCOD9047339
_publ_section_title
;
Structure prediction by ZEFSAII (Michael W. Deem and Ramdas Pophale) SiO2 
 PCOD9047339
Probable space group: P -1
;
_chemical_formula_sum "Si O2"
_cell_formula_units_Z 16
_cell_length_a 6.514035
_cell_length_b 15.096228
_cell_length_c 12.007283
_cell_angle_alpha 123.600503
_cell_angle_beta 49.961470
_cell_angle_gamma 103.314870
_cell_volume 738.189260
_symmetry_space_group_name_H-M "P -1"
_symmetry_group_IT_number 2
_symmetry_cell_setting 'triclinic'
loop_
_space_group_symop_operation_xyz
x,y,z
-x,-y,-z
loop_
_atom_site_type_symbol
_atom_site_label
_atom_site_fract_x
_atom_site_fract_y
_atom_site_fract_z
Si Si1 0.613212 0.346076 0.107111
Si Si2 0.203162 0.229182 0.579290
Si Si3 0.603514 0.306503 0.820852
Si Si4 0.901261 0.801252 0.039319
Si Si5 0.284009 0.059301 0.267496
Si Si6 0.306559 0.438032 0.814560
Si Si7 0.282979 0.157205 0.098931
Si Si8 0.817273 0.949734 0.358691
O O1 0.551182 0.474518 0.237665
O O2 0.411304 0.264420 0.146377
O O3 0.638361 0.342052 0.960780
O O4 0.884575 0.295057 0.045767
O O5 0.386291 0.143632 0.373327
O O6 0.299149 0.334397 0.666649
O O7 0.149496 0.157975 0.654414
O O8 0.911937 0.264811 0.644641
O O9 0.402181 0.220989 0.843982
O O10 0.459225 0.395159 0.845473
O O11 0.925215 0.910311 0.171082
O O12 0.931861 0.812544 0.904983
O O13 0.207198 0.117234 0.216810
O O14 0.010279 0.027118 0.389143
O O15 0.496727 0.946206 0.097278
O O16 0.000000 0.500000 0.000000
O O17 0.500000 0.000000 0.500000
#
# Coordination Sequence:
#
# PCOD9047339 Si02
#       8
#     2   2   2   2   2   2   2   2
#     4  11  21  39  63  93 122 160 214 255 305 372
#     4  12  24  39  60  98 130 159 206 257 326 374
#     4  11  19  36  62  92 133 157 195 265 319 376
#     4  11  19  37  61  92 122 161 208 252 307 370
#     4  11  24  44  61  91 128 173 211 255 309 370
#     4  12  22  37  63  98 127 162 203 256 328 381
#     4  10  24  44  65  85 127 172 218 256 295 370
#     4  12  21  38  63  95 130 161 197 261 324 374
#
# _framework density 21.674657
#
# number of rings (size 3 to 8) (size 9 to 14) (size 15 to 20)
#    0.000    0.750    6.250    3.000    0.000    0.500 
#    2.250    0.625    0.000    1.500    0.000    0.000 
#    0.000    0.000    0.000    0.000    0.000    0.000 
#
# Total GULP energy -89361.386206 kJ/mol
# GULP energy per Si atom -5585.086638 kJ/mol
# Density = 2.162532 g / cm^3
# Si number density = 21.674657 Si / 1000 Ang^3
#
#
#
# Elastic Constant Matrix: (Units=GPa)
#
#
# Indices 1 2 3 4 5 6 
#
# 1 103.4880 53.7985 30.0651 13.5801 17.8567 -18.7992
# 2 53.7985 148.4473 41.5247 22.7670 21.4747 -5.5236
# 3 30.0651 41.5247 45.3849 13.5671 18.9701 6.5779
# 4 13.5801 22.7670 13.5671 27.9257 1.6380 8.3416
# 5 17.8567 21.4747 18.9701 1.6380 32.8422 10.8566
# 6 -18.7992 -5.5236 6.5779 8.3416 10.8566 42.7712
#
#
#
# Elastic Compliance Matrix: (Units=1/GPa)
#
#
# Indices 1 2 3 4 5 6 
#
# 1 0.016519 -0.001836 -0.005562 -0.006715 -0.007937 0.011203
# 2 -0.001836 0.010504 -0.005779 -0.005682 -0.003374 0.003403
# 3 -0.005562 -0.005779 0.041027 -0.010553 -0.015182 -0.003589
# 4 -0.006715 -0.005682 -0.010553 0.052806 0.016280 -0.016493
# 5 -0.007937 -0.003374 -0.015182 0.016280 0.050761 -0.017649
# 6 0.011203 0.003403 -0.003589 -0.016493 -0.017649 0.036992
#
#
# Mechanical properties :
#
#
# Convention : Reuss Voigt Hill
#
# Bulk Modulus (GPa) = 23.98351 60.89964 42.44157
# Shear Modulus (GPa) = 20.09139 32.16995 26.13067
#
# Velocity S-wave (km/s) = 3.04789 3.85674 3.47592
# Velocity P-wave (km/s) = 4.84515 6.92753 5.97772
#
# Compressibility (1/GPa) = 0.04169532
#
# Stress axis : x y z
#
# Youngs Moduli (GPa) = 60.53627 95.19737 24.37440
#
# Poissons Ratio (x) = 0.17477 0.13558
# Poissons Ratio (y) = 0.11113 0.14087
# Poissons Ratio (z) = 0.33672 0.55018
#
# Static dielectric constant tensor:
#      x y z
#    x 1.826990 0.031990 0.017950 
#    y 0.031990 1.797990 0.029090 
#    z 0.017950 0.029090 1.836630 
# 
# From -- ./inp_files/367904.got.cif
#   From: 2010.05.17/outbox.cif.g08.bks.cpg/sg2_184_cif.got.tgz:367904.got - 2010.06.03 11:33:40.
