data_PCOD9047281
_publ_section_title
;
Structure prediction by ZEFSAII (Michael W. Deem and Ramdas Pophale) SiO2 
 PCOD9047281
Probable space group: P -1
;
_chemical_formula_sum "Si O2"
_cell_formula_units_Z 14
_cell_length_a 7.858752
_cell_length_b 24.546757
_cell_length_c 16.329248
_cell_angle_alpha 157.029477
_cell_angle_beta 36.611111
_cell_angle_gamma 142.165640
_cell_volume 715.511754
_symmetry_space_group_name_H-M "P -1"
_symmetry_group_IT_number 2
_symmetry_cell_setting 'triclinic'
loop_
_space_group_symop_operation_xyz
x,y,z
-x,-y,-z
loop_
_atom_site_type_symbol
_atom_site_label
_atom_site_fract_x
_atom_site_fract_y
_atom_site_fract_z
Si Si1 0.656398 0.432138 0.055764
Si Si2 0.727867 0.487249 0.822179
Si Si3 0.761803 0.177961 0.361456
Si Si4 0.076080 0.079843 0.496241
Si Si5 0.691438 0.881532 0.252595
Si Si6 0.821353 0.896342 0.034522
Si Si7 0.238754 0.692606 0.994825
O O1 0.446313 0.514162 0.198793
O O2 0.513133 0.270599 0.855220
O O3 0.646331 0.414735 0.134829
O O4 0.000000 0.500000 0.000000
O O5 0.840517 0.341307 0.585036
O O6 0.500000 0.500000 0.000000
O O7 0.003198 0.615258 0.913310
O O8 0.413658 0.142575 0.439030
O O9 0.834754 0.061037 0.234506
O O10 0.924761 0.154429 0.182416
O O11 0.911070 0.210905 0.751343
O O12 0.000000 0.000000 0.500000
O O13 0.963645 0.952538 0.300542
O O14 0.808134 0.874842 0.106725
O O15 0.500000 0.000000 0.500000
O O16 0.508958 0.797885 0.992728
#
# Coordination Sequence:
#
# PCOD9047281 Si02
#       7
#     2   2   2   2   2   2   2
#     4  11  22  38  58  97 129 159 210 270 317 370
#     4  12  24  37  66  96 125 171 216 263 327 384
#     4  11  24  42  64  93 132 166 215 270 318 392
#     4  12  20  36  67  97 122 160 217 272 312 377
#     4  11  22  37  67  92 123 170 214 263 318 377
#     4  10  24  44  63  92 129 171 213 267 328 377
#     4  11  22  41  64  94 129 164 215 269 316 382
#
# _framework density 19.566416
#
# number of rings (size 3 to 8) (size 9 to 14) (size 15 to 20)
#    0.000    0.857    7.143    0.857    2.000    1.143 
#    0.000    2.857    0.000    0.000    0.000    0.000 
#    0.000    0.000    0.000    0.000    0.000    0.000 
#
# Total GULP energy -78043.009014 kJ/mol
# GULP energy per Si atom -5574.500644 kJ/mol
# Density = 1.952188 g / cm^3
# Si number density = 19.566416 Si / 1000 Ang^3
#
#
#
# Elastic Constant Matrix: (Units=GPa)
#
#
# Indices 1 2 3 4 5 6 
#
# 1 79.0435 20.5288 12.8371 3.1912 10.1041 7.2206
# 2 20.5288 103.0957 50.3816 -1.8787 10.6081 6.8540
# 3 12.8371 50.3816 90.0877 4.1832 -1.5937 -1.0440
# 4 3.1912 -1.8787 4.1832 37.8616 4.7156 2.4974
# 5 10.1041 10.6081 -1.5937 4.7156 24.0561 10.2110
# 6 7.2206 6.8540 -1.0440 2.4974 10.2110 34.7278
#
#
#
# Elastic Compliance Matrix: (Units=1/GPa)
#
#
# Indices 1 2 3 4 5 6 
#
# 1 0.013991 -0.001695 -0.001119 -0.000488 -0.004588 -0.001224
# 2 -0.001695 0.014905 -0.008346 0.002684 -0.006458 -0.001134
# 3 -0.001119 -0.008346 0.016165 -0.002838 0.005355 0.000995
# 4 -0.000488 0.002684 -0.002838 0.027731 -0.006328 -0.000647
# 5 -0.004588 -0.006458 0.005355 -0.006328 0.053396 -0.012855
# 6 -0.001224 -0.001134 0.000995 -0.000647 -0.012855 0.033130
#
#
# Mechanical properties :
#
#
# Convention : Reuss Voigt Hill
#
# Bulk Modulus (GPa) = 43.97071 48.85799 46.41435
# Shear Modulus (GPa) = 26.42466 31.89441 29.15953
#
# Velocity S-wave (km/s) = 3.67892 4.04178 3.86461
# Velocity P-wave (km/s) = 6.36924 6.84148 6.60958
#
# Compressibility (1/GPa) = 0.02274241
#
# Stress axis : x y z
#
# Youngs Moduli (GPa) = 71.47407 67.09361 61.86125
#
# Poissons Ratio (x) = 0.11370 0.06920
# Poissons Ratio (y) = 0.12113 0.51629
# Poissons Ratio (z) = 0.07995 0.55996
#
# Static dielectric constant tensor:
#      x y z
#    x 1.889180 0.000040 -0.026170 
#    y 0.000040 1.701510 0.058450 
#    z -0.026170 0.058450 1.702490 
# 
# From -- ./inp_files/169489.got.cif
#   From: 2010.05.17/outbox.cif.g08.bks.cpg/sg2_85_cif.got.tgz:169489.got - 2010.06.03 11:33:40.
