data_PCOD9047127
_publ_section_title
;
Structure prediction by ZEFSAII (Michael W. Deem and Ramdas Pophale) SiO2 
 PCOD9047127
Probable space group: P -1
;
_chemical_formula_sum "Si O2"
_cell_formula_units_Z 16
_cell_length_a 13.457389
_cell_length_b 13.804304
_cell_length_c 13.449097
_cell_angle_alpha 122.109841
_cell_angle_beta 144.660248
_cell_angle_gamma 33.952021
_cell_volume 721.103166
_symmetry_space_group_name_H-M "P -1"
_symmetry_group_IT_number 2
_symmetry_cell_setting 'triclinic'
loop_
_space_group_symop_operation_xyz
x,y,z
-x,-y,-z
loop_
_atom_site_type_symbol
_atom_site_label
_atom_site_fract_x
_atom_site_fract_y
_atom_site_fract_z
Si Si1 0.782412 0.074747 0.450706
Si Si2 0.830605 0.793230 0.677087
Si Si3 0.909201 0.206380 0.745148
Si Si4 0.932123 0.555726 0.360019
Si Si5 0.698723 0.402746 0.888418
Si Si6 0.195076 0.299242 0.996011
Si Si7 0.481193 0.251555 0.027612
Si Si8 0.072374 0.717121 0.616705
O O1 0.511410 0.148461 0.225167
O O2 0.695474 0.242528 0.523327
O O3 0.000000 0.000000 0.500000
O O4 0.947264 0.900510 0.566907
O O5 0.843642 0.648554 0.623194
O O6 0.990087 0.747212 0.680999
O O7 0.500000 0.000000 0.500000
O O8 0.007140 0.750571 0.889933
O O9 0.766837 0.298986 0.787305
O O10 0.028194 0.268654 0.850238
O O11 0.204480 0.972455 0.849133
O O12 0.932968 0.689969 0.423969
O O13 0.000000 0.500000 0.500000
O O14 0.631306 0.669714 0.133395
O O15 0.417528 0.508558 0.774707
O O16 0.583820 0.595185 0.883629
O O17 0.269753 0.281137 0.931796
O O18 0.000000 0.500000 0.000000
#
# Coordination Sequence:
#
# PCOD9047127 Si02
#       8
#     2   2   2   2   2   2   2   2
#     4  12  27  47  73 108 147 189 248 297 360 436
#     4  10  24  43  72 104 141 186 243 296 355 442
#     4  12  26  44  75 103 142 193 246 292 366 428
#     4   9  22  40  71 100 136 186 237 285 368 421
#     4  11  24  45  69 103 142 181 238 295 359 431
#     4  12  26  45  71 105 144 192 240 300 364 425
#     4  11  22  46  66 100 143 184 237 300 351 426
#     4  11  23  46  69 100 147 186 232 307 361 417
#
# _framework density 22.188227000000001
#
# number of rings (size 3 to 8) (size 9 to 14) (size 15 to 20)
#    0.000    1.000    3.750    1.500    7.000    2.500 
#    0.000    1.250    0.000    0.000    0.000    0.000 
#    0.000    0.000    0.000    0.000    0.000    0.000 
#
# Total GULP energy -89195.185750 kJ/mol
# GULP energy per Si atom -5574.699109 kJ/mol
# Density = 2.213773 g / cm^3
# Si number density = 22.188227 Si / 1000 Ang^3
#
#
#
# Elastic Constant Matrix: (Units=GPa)
#
#
# Indices 1 2 3 4 5 6 
#
# 1 88.8244 37.2132 25.3876 9.8555 5.6523 -14.0513
# 2 37.2132 105.3624 25.3097 17.5612 -0.4471 -0.6495
# 3 25.3876 25.3097 52.8024 15.6141 -14.6308 -10.0765
# 4 9.8555 17.5612 15.6141 49.7710 -6.1519 3.8059
# 5 5.6523 -0.4471 -14.6308 -6.1519 27.1097 1.3559
# 6 -14.0513 -0.6495 -10.0765 3.8059 1.3559 42.3560
#
#
#
# Elastic Compliance Matrix: (Units=1/GPa)
#
#
# Indices 1 2 3 4 5 6 
#
# 1 0.016068 -0.003866 -0.006960 -0.000870 -0.007564 0.003936
# 2 -0.003866 0.012212 -0.004112 -0.002319 -0.001647 -0.001812
# 3 -0.006960 -0.004112 0.031487 -0.005346 0.016911 0.005058
# 4 -0.000870 -0.002319 -0.005346 0.023390 0.002755 -0.003786
# 5 -0.007564 -0.001647 0.016911 0.002755 0.048204 -0.000302
# 6 0.003936 -0.001812 0.005058 -0.003786 -0.000302 0.026440
#
#
# Mechanical properties :
#
#
# Convention : Reuss Voigt Hill
#
# Bulk Modulus (GPa) = 33.45317 46.97890 40.21604
# Shear Modulus (GPa) = 25.29848 34.45257 29.87552
#
# Velocity S-wave (km/s) = 3.38031 3.94476 3.67339
# Velocity P-wave (km/s) = 5.50864 6.47820 6.01299
#
# Compressibility (1/GPa) = 0.02989253
#
# Stress axis : x y z
#
# Youngs Moduli (GPa) = 62.23738 81.88385 31.75870
#
# Poissons Ratio (x) = 0.31655 0.22104
# Poissons Ratio (y) = 0.24060 0.13058
# Poissons Ratio (z) = 0.43317 0.33668
#
# Static dielectric constant tensor:
#      x y z
#    x 1.880510 0.047790 -0.029480 
#    y 0.047790 1.836750 0.013540 
#    z -0.029480 0.013540 2.058260 
# 
# From -- ./inp_files/534381.got.cif
#   From: 2010.05.17/outbox.cif.g08.bks.cpg/sg2_268_cif.got.tgz:534381.got - 2010.06.03 11:33:40.
