data_PCOD9047407
_publ_section_title
;
Structure prediction by ZEFSAII (Michael W. Deem and Ramdas Pophale) SiO2 
 PCOD9047407
Probable space group: P -1
;
_chemical_formula_sum "Si O2"
_cell_formula_units_Z 14
_cell_length_a 6.867629
_cell_length_b 9.267458
_cell_length_c 29.567111
_cell_angle_alpha 28.197000
_cell_angle_beta 132.663057
_cell_angle_gamma 124.488788
_cell_volume 651.238371
_symmetry_space_group_name_H-M "P -1"
_symmetry_group_IT_number 2
_symmetry_cell_setting 'triclinic'
loop_
_space_group_symop_operation_xyz
x,y,z
-x,-y,-z
loop_
_atom_site_type_symbol
_atom_site_label
_atom_site_fract_x
_atom_site_fract_y
_atom_site_fract_z
Si Si1 0.192392 0.801271 0.797219
Si Si2 0.998683 0.757255 0.027101
Si Si3 0.016345 0.252388 0.501813
Si Si4 0.757646 0.200327 0.566486
Si Si5 0.444033 0.068429 0.844788
Si Si6 0.311079 0.752536 0.639710
Si Si7 0.718835 0.365012 0.981414
O O1 0.267092 0.044587 0.779100
O O2 0.459765 0.608208 0.875261
O O3 0.013558 0.972222 0.683892
O O4 0.026390 0.568689 0.863856
O O5 0.231410 0.760527 0.026746
O O6 0.716681 0.870944 0.928695
O O7 0.000000 0.000000 0.000000
O O8 0.791544 0.283157 0.496535
O O9 0.889327 0.295071 0.420264
O O10 0.216952 0.498560 0.481746
O O11 0.154801 0.905374 0.615791
O O12 0.505231 0.011329 0.585871
O O13 0.465462 0.420666 0.763385
O O14 0.329125 0.890948 0.918025
O O15 0.000000 0.500000 0.000000
#
# Coordination Sequence:
#
# PCOD9047407 Si02
#       7
#     2   2   2   2   2   2   2
#     4  11  22  39  63  94 127 164 216 255 307 385
#     4  11  23  39  61  91 127 163 206 263 311 366
#     4  10  24  44  66  96 124 162 218 260 312 388
#     4  11  23  43  67  93 129 166 207 264 320 367
#     4  11  22  39  63  94 127 164 216 255 307 385
#     4  11  23  43  67  93 129 166 207 264 320 367
#     4  11  21  41  65  88 127 174 207 250 316 372
#
# _framework density 21.497502999999998
#
# number of rings (size 3 to 8) (size 9 to 14) (size 15 to 20)
#    0.000    1.143    4.286    2.571    0.000    6.857 
#    0.000    1.429    0.000    0.000    0.000    0.000 
#    0.000    0.000    0.000    0.000    0.000    0.000 
#
# Total GULP energy -78185.215657 kJ/mol
# GULP energy per Si atom -5584.658261 kJ/mol
# Density = 2.144857 g / cm^3
# Si number density = 21.497503 Si / 1000 Ang^3
#
#
#
# Elastic Constant Matrix: (Units=GPa)
#
#
# Indices 1 2 3 4 5 6 
#
# 1 117.1706 38.3711 15.7806 -14.3890 13.4875 -20.1947
# 2 38.3711 105.1960 6.3789 -22.2292 4.1854 -16.3293
# 3 15.7806 6.3789 59.8719 -21.1176 5.5562 -12.5487
# 4 -14.3890 -22.2292 -21.1176 37.0059 2.6742 0.0820
# 5 13.4875 4.1854 5.5562 2.6742 11.5755 -5.8120
# 6 -20.1947 -16.3293 -12.5487 0.0820 -5.8120 34.3163
#
#
#
# Elastic Compliance Matrix: (Units=1/GPa)
#
#
# Indices 1 2 3 4 5 6 
#
# 1 0.011865 -0.002296 0.000705 0.004520 -0.012346 0.004046
# 2 -0.002296 0.013158 0.004118 0.009590 -0.003349 0.005825
# 3 0.000705 0.004118 0.025917 0.018552 -0.014326 0.009381
# 4 0.004520 0.009590 0.018552 0.046801 -0.023469 0.009920
# 5 -0.012346 -0.003349 -0.014326 -0.023469 0.117200 0.005808
# 6 0.004046 0.005825 0.009381 0.009920 0.005808 0.038684
#
#
# Mechanical properties :
#
#
# Convention : Reuss Voigt Hill
#
# Bulk Modulus (GPa) = 17.85950 44.81111 31.33531
# Shear Modulus (GPa) = 18.71004 31.36005 25.03504
#
# Velocity S-wave (km/s) = 2.95335 3.82354 3.41626
# Velocity P-wave (km/s) = 4.46715 6.35473 5.49263
#
# Compressibility (1/GPa) = 0.05599260
#
# Stress axis : x y z
#
# Youngs Moduli (GPa) = 84.28103 75.99971 38.58500
#
# Poissons Ratio (x) = 0.17452 -0.02721
# Poissons Ratio (y) = 0.19354 -0.15888
# Poissons Ratio (z) = -0.05943 -0.31293
#
# Static dielectric constant tensor:
#      x y z
#    x 1.758240 0.020420 0.017820 
#    y 0.020420 1.887300 0.026890 
#    z 0.017820 0.026890 1.859170 
# 
# From -- ./inp_files/36174.got.cif
#   From: 2010.05.17/outbox.cif.g08.bks.cpg/sg2_19_cif.got.tgz:36174.got - 2010.06.03 11:33:40.
