data_PCOD9047669
_publ_section_title
;
Structure prediction by ZEFSAII (Michael W. Deem and Ramdas Pophale) SiO2 
 PCOD9047669
Probable space group: P -1
;
_chemical_formula_sum "Si O2"
_cell_formula_units_Z 14
_cell_length_a 11.785343
_cell_length_b 12.016999
_cell_length_c 11.887762
_cell_angle_alpha 26.236544
_cell_angle_beta 132.779721
_cell_angle_gamma 136.057523
_cell_volume 513.427172
_symmetry_space_group_name_H-M "P -1"
_symmetry_group_IT_number 2
_symmetry_cell_setting 'triclinic'
loop_
_space_group_symop_operation_xyz
x,y,z
-x,-y,-z
loop_
_atom_site_type_symbol
_atom_site_label
_atom_site_fract_x
_atom_site_fract_y
_atom_site_fract_z
Si Si1 0.838217 0.035991 0.407781
Si Si2 0.542596 0.382213 0.249122
Si Si3 0.926360 0.327138 0.865588
Si Si4 0.176322 0.066350 0.277382
Si Si5 0.294971 0.574385 0.182045
Si Si6 0.207758 0.795115 0.338542
Si Si7 0.628541 0.842508 0.067339
O O1 0.887363 0.135008 0.479198
O O2 0.719023 0.725526 0.592683
O O3 0.000000 0.000000 0.500000
O O4 0.781385 0.255145 0.107360
O O5 0.369922 0.151347 0.356563
O O6 0.709206 0.321692 0.403369
O O7 0.591609 0.575429 0.213551
O O8 0.500000 0.500000 0.000000
O O9 0.811540 0.438598 0.765046
O O10 0.914740 0.386564 0.670770
O O11 0.100652 0.301470 0.036630
O O12 0.810224 0.001222 0.090492
O O13 0.141640 0.986364 0.196202
O O14 0.487830 0.758324 0.142816
O O15 0.362994 0.954110 0.216749
#
# Coordination Sequence:
#
# PCOD9047669 Si02
#       7
#     2   2   2   2   2   2   2
#     4  12  27  44  74 109 147 186 250 301 369 418
#     4  12  23  42  71 106 137 190 244 299 361 441
#     4  10  25  47  70 103 147 190 240 296 375 429
#     4  12  23  46  73 102 147 183 244 310 359 434
#     4  12  25  49  74 107 144 200 242 303 353 448
#     4  10  25  44  71 102 142 188 240 295 371 433
#     4  10  24  44  69 102 145 184 247 289 364 435
#
# _framework density 27.267741999999998
#
# number of rings (size 3 to 8) (size 9 to 14) (size 15 to 20)
#    0.857    0.000    4.286    2.571    2.000    1.143 
#    0.000    3.571    0.000    0.000    0.000    0.000 
#    0.000    0.000    0.000    0.000    0.000    0.000 
#
# Total GULP energy -78078.932059 kJ/mol
# GULP energy per Si atom -5577.066576 kJ/mol
# Density = 2.720568 g / cm^3
# Si number density = 27.267742 Si / 1000 Ang^3
#
#
#
# Elastic Constant Matrix: (Units=GPa)
#
#
# Indices 1 2 3 4 5 6 
#
# 1 96.1784 26.3468 8.4088 7.3953 -13.8465 -13.1271
# 2 26.3468 97.6484 10.2138 -9.9551 10.9325 -28.4777
# 3 8.4088 10.2138 78.8514 2.1773 9.5202 -6.3736
# 4 7.3953 -9.9551 2.1773 33.8311 3.0210 5.1118
# 5 -13.8465 10.9325 9.5202 3.0210 30.6598 -4.4032
# 6 -13.1271 -28.4777 -6.3736 5.1118 -4.4032 63.4791
#
#
#
# Elastic Compliance Matrix: (Units=1/GPa)
#
#
# Indices 1 2 3 4 5 6 
#
# 1 0.013766 -0.004619 -0.001693 -0.005329 0.009154 0.001669
# 2 -0.004619 0.014110 -0.000284 0.005122 -0.006894 0.004456
# 3 -0.001693 -0.000284 0.013527 -0.000245 -0.004757 0.000570
# 4 -0.005329 0.005122 -0.000245 0.033245 -0.007726 -0.002042
# 5 0.009154 -0.006894 -0.004757 -0.007726 0.041711 0.001838
# 6 0.001669 0.004456 0.000570 -0.002042 0.001838 0.018446
#
#
# Mechanical properties :
#
#
# Convention : Reuss Voigt Hill
#
# Bulk Modulus (GPa) = 35.44670 40.29078 37.86874
# Shear Modulus (GPa) = 31.76612 40.77458 36.27035
#
# Velocity S-wave (km/s) = 3.41687 3.87116 3.65109
# Velocity P-wave (km/s) = 5.34737 5.89824 5.62955
#
# Compressibility (1/GPa) = 0.02821137
#
# Stress axis : x y z
#
# Youngs Moduli (GPa) = 72.64262 70.87089 73.92789
#
# Poissons Ratio (x) = 0.32733 0.12516
# Poissons Ratio (y) = 0.33551 0.02101
# Poissons Ratio (z) = 0.12298 0.02014
#
# Static dielectric constant tensor:
#      x y z
#    x 2.938850 -0.276080 0.411110 
#    y -0.276080 2.568200 -0.493200 
#    z 0.411110 -0.493200 2.763120 
# 
# From -- ./inp_files/427313.got.cif
#   From: 2010.05.17/outbox.cif.g08.bks.cpg/sg2_214_cif.got.tgz:427313.got - 2010.06.03 11:33:40.
