data_PCOD9047528
_publ_section_title
;
Structure prediction by ZEFSAII (Michael W. Deem and Ramdas Pophale) SiO2 
 PCOD9047528
Probable space group: P -1
;
_chemical_formula_sum "Si O2"
_cell_formula_units_Z 16
_cell_length_a 9.284304
_cell_length_b 17.340790
_cell_length_c 11.061420
_cell_angle_alpha 143.402037
_cell_angle_beta 85.883033
_cell_angle_gamma 68.161121
_cell_volume 732.170725
_symmetry_space_group_name_H-M "P -1"
_symmetry_group_IT_number 2
_symmetry_cell_setting 'triclinic'
loop_
_space_group_symop_operation_xyz
x,y,z
-x,-y,-z
loop_
_atom_site_type_symbol
_atom_site_label
_atom_site_fract_x
_atom_site_fract_y
_atom_site_fract_z
Si Si1 0.023519 0.080918 0.715204
Si Si2 0.675931 0.194497 0.042463
Si Si3 0.574309 0.153317 0.452801
Si Si4 0.230666 0.806733 0.713124
Si Si5 0.369288 0.073570 0.226038
Si Si6 0.751446 0.403135 0.975254
Si Si7 0.953120 0.423937 0.802839
Si Si8 0.405502 0.440193 0.137746
O O1 0.258993 0.950982 0.580363
O O2 0.000000 0.000000 0.500000
O O3 0.895857 0.100762 0.857531
O O4 0.897509 0.289592 0.940757
O O5 0.640048 0.289170 0.290959
O O6 0.516916 0.321891 0.103445
O O7 0.670279 0.049139 0.895955
O O8 0.683342 0.136025 0.303857
O O9 0.496845 0.060983 0.309956
O O10 0.385458 0.378737 0.753553
O O11 0.252970 0.657118 0.455290
O O12 0.000000 0.000000 0.000000
O O13 0.142350 0.289326 0.526732
O O14 0.500000 0.000000 0.000000
O O15 0.582821 0.395705 0.987628
O O16 0.909164 0.317891 0.746363
O O17 0.734898 0.578894 0.939075
O O18 0.000000 0.500000 0.000000
#
# Coordination Sequence:
#
# PCOD9047528 Si02
#       8
#     2   2   2   2   2   2   2   2
#     4  11  25  40  69 105 134 175 236 293 347 414
#     4  11  23  43  67 100 136 174 235 292 349 420
#     4  11  24  43  68  97 139 185 226 290 349 413
#     4  11  20  40  70  97 132 176 235 284 349 408
#     4  12  26  45  67  99 138 187 235 279 349 419
#     4  10  24  44  68 101 137 177 231 286 349 410
#     4  12  25  45  68  99 142 189 228 277 358 423
#     4  10  25  40  71 103 133 176 231 298 350 406
#
# _framework density 21.852827000000001
#
# number of rings (size 3 to 8) (size 9 to 14) (size 15 to 20)
#    0.000    1.000    3.750    2.250    8.750    1.000 
#    0.000    2.500    0.000    0.000    0.000    0.000 
#    0.000    0.000    0.000    0.000    0.000    0.000 
#
# Total GULP energy -89304.347967 kJ/mol
# GULP energy per Si atom -5581.521748 kJ/mol
# Density = 2.180309 g / cm^3
# Si number density = 21.852827 Si / 1000 Ang^3
#
#
#
# Elastic Constant Matrix: (Units=GPa)
#
#
# Indices 1 2 3 4 5 6 
#
# 1 95.8384 43.1523 38.0146 2.3610 -4.2171 -37.4666
# 2 43.1523 119.3150 28.7380 1.0350 -6.5565 -22.8005
# 3 38.0146 28.7380 98.3267 0.1813 -14.4934 -3.0943
# 4 2.3610 1.0350 0.1813 36.9217 0.8213 -7.1607
# 5 -4.2171 -6.5565 -14.4934 0.8213 37.0244 -5.8179
# 6 -37.4666 -22.8005 -3.0943 -7.1607 -5.8179 39.7428
#
#
#
# Elastic Compliance Matrix: (Units=1/GPa)
#
#
# Indices 1 2 3 4 5 6 
#
# 1 0.021899 -0.002447 -0.006786 0.002430 0.002415 0.019504
# 2 -0.002447 0.010521 -0.001788 0.000597 0.001487 0.003915
# 3 -0.006786 -0.001788 0.013616 -0.000825 0.003312 -0.006027
# 4 0.002430 0.000597 -0.000825 0.028411 0.000652 0.007784
# 5 0.002415 0.001487 0.003312 0.000652 0.030072 0.007908
# 6 0.019504 0.003915 -0.006027 0.007784 0.007908 0.047886
#
#
# Mechanical properties :
#
#
# Convention : Reuss Voigt Hill
#
# Bulk Modulus (GPa) = 41.67484 59.25442 50.46463
# Shear Modulus (GPa) = 27.40541 36.30946 31.85744
#
# Velocity S-wave (km/s) = 3.54516 4.08063 3.82228
# Velocity P-wave (km/s) = 5.98912 7.02681 6.52862
#
# Compressibility (1/GPa) = 0.02399530
#
# Stress axis : x y z
#
# Youngs Moduli (GPa) = 45.66460 95.04365 73.44136
#
# Poissons Ratio (x) = 0.23256 0.49837
# Poissons Ratio (y) = 0.11173 0.13130
# Poissons Ratio (z) = 0.30988 0.16993
#
# Static dielectric constant tensor:
#      x y z
#    x 1.830530 -0.028670 -0.029690 
#    y -0.028670 1.828400 -0.014050 
#    z -0.029690 -0.014050 1.890740 
# 
# From -- ./inp_files/402318.got.cif
#   From: 2010.05.17/outbox.cif.g08.bks.cpg/sg2_202_cif.got.tgz:402318.got - 2010.06.03 11:33:40.
