data_PCOD9047297
_publ_section_title
;
Structure prediction by ZEFSAII (Michael W. Deem and Ramdas Pophale) SiO2 
 PCOD9047297
Probable space group: P -1
;
_chemical_formula_sum "Si O2"
_cell_formula_units_Z 16
_cell_length_a 20.377079
_cell_length_b 5.608200
_cell_length_c 9.087728
_cell_angle_alpha 121.440639
_cell_angle_beta 119.269483
_cell_angle_gamma 51.686426
_cell_volume 673.636515
_symmetry_space_group_name_H-M "P -1"
_symmetry_group_IT_number 2
_symmetry_cell_setting 'triclinic'
loop_
_space_group_symop_operation_xyz
x,y,z
-x,-y,-z
loop_
_atom_site_type_symbol
_atom_site_label
_atom_site_fract_x
_atom_site_fract_y
_atom_site_fract_z
Si Si1 0.603402 0.713553 0.097271
Si Si2 0.964756 0.834438 0.297990
Si Si3 0.223927 0.856626 0.417435
Si Si4 0.606832 0.217366 0.453082
Si Si5 0.029557 0.105230 0.208729
Si Si6 0.321217 0.232633 0.117076
Si Si7 0.772610 0.118937 0.218102
Si Si8 0.531779 0.360157 0.741340
O O1 0.686442 0.426611 0.170652
O O2 0.571918 0.994871 0.272382
O O3 0.639487 0.746610 0.989613
O O4 0.533275 0.612650 0.940333
O O5 0.978580 0.498274 0.273243
O O6 0.015973 0.863852 0.225016
O O7 0.000000 0.000000 0.500000
O O8 0.862797 0.056452 0.230003
O O9 0.290032 0.990869 0.505176
O O10 0.274627 0.529236 0.273594
O O11 0.218956 0.857085 0.589164
O O12 0.127726 0.031084 0.307488
O O13 0.576516 0.334977 0.622280
O O14 0.565828 0.511944 0.383314
O O15 0.000000 0.000000 0.000000
O O16 0.402714 0.968655 0.214175
O O17 0.247389 0.151469 0.955939
#
# Coordination Sequence:
#
# PCOD9047297 Si02
#       8
#     2   2   2   2   2   2   2   2
#     4  11  23  43  68  98 137 182 231 292 351 432
#     4  12  27  48  76 109 148 192 248 308 371 449
#     4  12  25  45  71 103 137 187 237 296 362 440
#     4  11  23  42  70  98 141 182 236 289 360 429
#     4  12  29  49  77 112 150 197 246 312 378 446
#     4  11  24  44  68 101 139 180 238 292 357 429
#     4  11  26  44  72  98 141 186 233 298 364 433
#     4  10  24  44  64 102 139 184 230 296 354 427
#
# _framework density 23.751683
#
# number of rings (size 3 to 8) (size 9 to 14) (size 15 to 20)
#    0.000    0.750    3.750    2.625    5.250    2.000 
#    2.250    0.000    0.000    0.000    0.000    0.000 
#    0.000    0.000    0.000    0.000    0.000    0.000 
#
# Total GULP energy -89211.535987 kJ/mol
# GULP energy per Si atom -5575.720999 kJ/mol
# Density = 2.369762 g / cm^3
# Si number density = 23.751683 Si / 1000 Ang^3
#
#
#
# Elastic Constant Matrix: (Units=GPa)
#
#
# Indices 1 2 3 4 5 6 
#
# 1 76.3046 1.0737 19.6449 -10.0120 20.4643 -17.8798
# 2 1.0737 30.6472 35.3790 -8.2259 -5.6860 -5.0207
# 3 19.6449 35.3790 174.2182 -1.5765 16.4273 -1.4058
# 4 -10.0120 -8.2259 -1.5765 53.1831 -5.9107 8.8205
# 5 20.4643 -5.6860 16.4273 -5.9107 27.7606 -4.0310
# 6 -17.8798 -5.0207 -1.4058 8.8205 -4.0310 29.8973
#
#
#
# Elastic Compliance Matrix: (Units=1/GPa)
#
#
# Indices 1 2 3 4 5 6 
#
# 1 0.018802 -0.000117 -0.000897 0.000618 -0.011857 0.009402
# 2 -0.000117 0.056395 -0.013441 0.009338 0.022900 0.009101
# 3 -0.000897 -0.013441 0.009331 -0.002459 -0.008541 -0.002781
# 4 0.000618 0.009338 -0.002459 0.021670 0.007000 -0.003628
# 5 -0.011857 0.022900 -0.008541 0.007000 0.056270 0.001875
# 6 0.009402 0.009101 -0.002781 -0.003628 0.001875 0.041791
#
#
# Mechanical properties :
#
#
# Convention : Reuss Voigt Hill
#
# Bulk Modulus (GPa) = 17.97946 43.70727 30.84336
# Shear Modulus (GPa) = 19.86430 37.17303 28.51866
#
# Velocity S-wave (km/s) = 2.89508 3.96039 3.46887
# Velocity P-wave (km/s) = 4.33145 6.27332 5.39055
#
# Compressibility (1/GPa) = 0.05561902
#
# Stress axis : x y z
#
# Youngs Moduli (GPa) = 53.18622 17.73201 107.16851
#
# Poissons Ratio (x) = 0.00208 0.09612
# Poissons Ratio (y) = 0.00623 1.44040
# Poissons Ratio (z) = 0.04770 0.23833
#
# Static dielectric constant tensor:
#      x y z
#    x 1.910360 0.023580 0.074330 
#    y 0.023580 1.981740 0.073550 
#    z 0.074330 0.073550 1.822410 
# 
# From -- ./inp_files/48833.got.cif
#   From: 2010.05.17/outbox.cif.g08.bks.cpg/sg2_25_cif.got.tgz:48833.got - 2010.06.03 11:33:40.
