data_PCOD9047185
_publ_section_title
;
Structure prediction by ZEFSAII (Michael W. Deem and Ramdas Pophale) SiO2 
 PCOD9047185
Probable space group: P -1
;
_chemical_formula_sum "Si O2"
_cell_formula_units_Z 15
_cell_length_a 12.020830
_cell_length_b 8.463247
_cell_length_c 7.594635
_cell_angle_alpha 120.186895
_cell_angle_beta 75.480351
_cell_angle_gamma 112.646963
_cell_volume 614.787375
_symmetry_space_group_name_H-M "P -1"
_symmetry_group_IT_number 2
_symmetry_cell_setting 'triclinic'
loop_
_space_group_symop_operation_xyz
x,y,z
-x,-y,-z
loop_
_atom_site_type_symbol
_atom_site_label
_atom_site_fract_x
_atom_site_fract_y
_atom_site_fract_z
Si Si1 0.279980 0.269431 0.686118
Si Si2 0.735603 0.163319 0.460933
Si Si3 0.898218 0.879919 0.609737
Si Si4 0.025331 0.681642 0.720166
Si Si5 0.289335 0.901829 0.085349
Si Si6 0.818560 0.478190 0.912558
Si Si7 0.528374 0.103000 0.270305
Si Si8 0.500000 0.500000 0.500000
O O1 0.188635 0.286180 0.573273
O O2 0.411975 0.363464 0.608468
O O3 0.254200 0.043089 0.601998
O O4 0.253233 0.373506 0.928430
O O5 0.779653 0.338338 0.680334
O O6 0.601079 0.145309 0.445887
O O7 0.831679 0.222852 0.293578
O O8 0.961120 0.815205 0.714163
O O9 0.807713 0.988500 0.780771
O O10 0.000000 0.000000 0.500000
O O11 0.955464 0.607351 0.887499
O O12 0.000000 0.500000 0.500000
O O13 0.216269 0.677798 0.005904
O O14 0.394118 0.958879 0.228149
O O15 0.379066 0.971426 0.925475
O O16 0.529709 0.308047 0.306986
#
# Coordination Sequence:
#
# PCOD9047185 Si02
#       8
#     2   2   2   2   2   2   2   1
#     4  12  26  45  75 101 142 191 243 288 365 423
#     4  11  25  51  67 107 151 184 233 305 360 418
#     4  12  23  47  75 101 148 194 234 298 358 432
#     4  10  24  43  73 106 144 187 235 296 359 421
#     4  11  24  48  70 107 140 192 244 285 367 429
#     4  11  24  44  70 109 140 181 246 290 353 435
#     4  11  26  46  77  97 147 193 234 302 357 430
#     4  12  24  46  70 104 130 196 244 286 360 424
#
# _framework density 24.398679000000001
#
# number of rings (size 3 to 8) (size 9 to 14) (size 15 to 20)
#    0.000    0.800    5.333    0.800    5.600    3.733 
#    2.400    6.667    0.000    0.000    0.000    0.000 
#    0.000    0.000    0.000    0.000    0.000    0.000 
#
# Total GULP energy -83559.484628 kJ/mol
# GULP energy per Si atom -5570.632309 kJ/mol
# Density = 2.434315 g / cm^3
# Si number density = 24.398679 Si / 1000 Ang^3
#
#
#
# Elastic Constant Matrix: (Units=GPa)
#
#
# Indices 1 2 3 4 5 6 
#
# 1 121.6006 35.1455 31.8039 10.3206 -15.5173 21.0057
# 2 35.1455 100.6950 35.8049 -5.4494 -12.4592 32.0493
# 3 31.8039 35.8049 109.1743 7.8013 -35.7301 7.4056
# 4 10.3206 -5.4494 7.8013 34.0800 7.9866 -11.1117
# 5 -15.5173 -12.4592 -35.7301 7.9866 43.7506 -15.6277
# 6 21.0057 32.0493 7.4056 -11.1117 -15.6277 29.8397
#
#
#
# Elastic Compliance Matrix: (Units=1/GPa)
#
#
# Indices 1 2 3 4 5 6 
#
# 1 0.010911 -0.000706 -0.001919 -0.005789 0.000105 -0.008547
# 2 -0.000706 0.018940 -0.007354 -0.000433 -0.008953 -0.022871
# 3 -0.001919 -0.007354 0.016889 -0.004362 0.016042 0.011835
# 4 -0.005789 -0.000433 -0.004362 0.039042 -0.006967 0.016513
# 5 0.000105 -0.008953 0.016042 -0.006967 0.044010 0.026015
# 6 -0.008547 -0.022871 0.011835 0.016513 0.026015 0.080930
#
#
# Mechanical properties :
#
#
# Convention : Reuss Voigt Hill
#
# Bulk Modulus (GPa) = 37.33619 59.66428 48.50024
# Shear Modulus (GPa) = 20.86747 36.78176 28.82462
#
# Velocity S-wave (km/s) = 2.92767 3.88691 3.44088
# Velocity P-wave (km/s) = 5.17341 6.68214 5.97558
#
# Compressibility (1/GPa) = 0.02678367
#
# Stress axis : x y z
#
# Youngs Moduli (GPa) = 91.65275 52.79715 59.20841
#
# Poissons Ratio (x) = 0.03726 0.11363
# Poissons Ratio (y) = 0.06468 0.43540
# Poissons Ratio (z) = 0.17589 0.38825
#
# Static dielectric constant tensor:
#      x y z
#    x 1.981390 -0.035190 0.023070 
#    y -0.035190 2.009990 -0.030480 
#    z 0.023070 -0.030480 2.039500 
# 
# From -- ./inp_files/245830.got.cif
#   From: 2010.05.17/outbox.cif.g08.bks.cpg/sg2_123_cif.got.tgz:245830.got - 2010.06.03 11:33:40.
