data_PCOD9047567
_publ_section_title
;
Structure prediction by ZEFSAII (Michael W. Deem and Ramdas Pophale) SiO2 
 PCOD9047567
Probable space group: P -1
;
_chemical_formula_sum "Si O2"
_cell_formula_units_Z 15
_cell_length_a 17.987879
_cell_length_b 4.916985
_cell_length_c 19.113186
_cell_angle_alpha 105.177434
_cell_angle_beta 158.950165
_cell_angle_gamma 70.107529
_cell_volume 563.130351
_symmetry_space_group_name_H-M "P -1"
_symmetry_group_IT_number 2
_symmetry_cell_setting 'triclinic'
loop_
_space_group_symop_operation_xyz
x,y,z
-x,-y,-z
loop_
_atom_site_type_symbol
_atom_site_label
_atom_site_fract_x
_atom_site_fract_y
_atom_site_fract_z
Si Si1 0.759742 0.022830 0.401334
Si Si2 0.645481 0.595953 0.191040
Si Si3 0.382330 0.599932 0.095391
Si Si4 0.144721 0.311026 0.175040
Si Si5 0.314921 0.665219 0.463246
Si Si6 0.286596 0.785967 0.171223
Si Si7 0.000000 0.000000 0.500000
Si Si8 0.111849 0.313317 0.365666
O O1 0.748632 0.873957 0.301297
O O2 0.821042 0.796573 0.503586
O O3 0.540878 0.281268 0.232998
O O4 0.964199 0.125933 0.564278
O O5 0.494216 0.690366 0.132399
O O6 0.839160 0.317340 0.354236
O O7 0.500000 0.500000 0.000000
O O8 0.362470 0.806086 0.159841
O O9 0.143074 0.602942 0.864056
O O10 0.251900 0.506592 0.329725
O O11 0.302120 0.032310 0.256703
O O12 0.000000 0.500000 0.000000
O O13 0.962787 0.208140 0.051169
O O14 0.565208 0.520570 0.689615
O O15 0.195330 0.564073 0.418088
O O16 0.231385 0.012490 0.408828
#
# Coordination Sequence:
#
# PCOD9047567 Si02
#       8
#     2   2   2   2   2   2   1   2
#     4  11  25  45  73 106 146 198 243 319 373 462
#     4  11  25  44  71 106 143 192 242 310 382 450
#     4  11  24  45  73 106 148 192 252 306 380 449
#     4  11  26  44  74 105 155 200 256 319 381 449
#     4  12  27  48  76 111 151 204 258 317 381 453
#     4  11  24  47  69 110 146 202 251 317 374 454
#     4  10  24  44  68 104 142 186 246 298 378 450
#     4  12  27  47  77 110 152 199 258 315 379 450
#
# _framework density 26.636817000000001
#
# number of rings (size 3 to 8) (size 9 to 14) (size 15 to 20)
#    0.000    0.800    2.667    3.200    7.467    4.800 
#    0.000    0.000    0.000    0.000    0.000    0.000 
#    0.000    0.000    0.000    0.000    0.000    0.000 
#
# Total GULP energy -83874.453951 kJ/mol
# GULP energy per Si atom -5591.630263 kJ/mol
# Density = 2.657619 g / cm^3
# Si number density = 26.636817 Si / 1000 Ang^3
#
#
#
# Elastic Constant Matrix: (Units=GPa)
#
#
# Indices 1 2 3 4 5 6 
#
# 1 136.3193 26.6339 52.9795 -3.1648 2.0098 -24.1481
# 2 26.6339 109.0579 31.1020 -3.4434 6.4172 -18.7391
# 3 52.9795 31.1020 112.8901 4.8119 17.0641 -18.0927
# 4 -3.1648 -3.4434 4.8119 50.7714 -16.5517 -6.3523
# 5 2.0098 6.4172 17.0641 -16.5517 46.7798 -1.0045
# 6 -24.1481 -18.7391 -18.0927 -6.3523 -1.0045 54.9439
#
#
#
# Elastic Compliance Matrix: (Units=1/GPa)
#
#
# Indices 1 2 3 4 5 6 
#
# 1 0.009653 -0.000705 -0.004263 0.001966 0.001994 0.002862
# 2 -0.000705 0.010460 -0.002147 0.001154 -0.000156 0.002681
# 3 -0.004263 -0.002147 0.012540 -0.003159 -0.005192 0.001064
# 4 0.001966 0.001154 -0.003159 0.023631 0.009338 0.003120
# 5 0.001994 -0.000156 -0.005192 0.009338 0.026525 0.000678
# 6 0.002862 0.002681 0.001064 0.003120 0.000678 0.021096
#
#
# Mechanical properties :
#
#
# Convention : Reuss Voigt Hill
#
# Bulk Modulus (GPa) = 54.27623 64.41090 59.34356
# Shear Modulus (GPa) = 40.23311 47.00248 43.61779
#
# Velocity S-wave (km/s) = 3.89064 4.20523 4.05099
# Velocity P-wave (km/s) = 6.37208 6.91464 6.64890
#
# Compressibility (1/GPa) = 0.01842427
#
# Stress axis : x y z
#
# Youngs Moduli (GPa) = 103.59041 95.60029 79.74561
#
# Poissons Ratio (x) = 0.06743 0.33992
# Poissons Ratio (y) = 0.07307 0.17119
# Poissons Ratio (z) = 0.44155 0.20523
#
# Static dielectric constant tensor:
#      x y z
#    x 2.524900 0.213560 0.287700 
#    y 0.213560 2.464840 0.379280 
#    z 0.287700 0.379280 2.241070 
# 
# From -- ./inp_files/600829.got.cif
#   From: 2010.05.17/outbox.cif.g08.bks.cpg/sg2_301_cif.got.tgz:600829.got - 2010.06.03 11:33:40.
