data_PCOD9047946
_publ_section_title
;
Structure prediction by ZEFSAII (Michael W. Deem and Ramdas Pophale) SiO2 
 PCOD9047946
Probable space group: P -1
;
_chemical_formula_sum "Si O2"
_cell_formula_units_Z 14
_cell_length_a 25.476768
_cell_length_b 9.993034
_cell_length_c 11.774773
_cell_angle_alpha 37.910258
_cell_angle_beta 153.209116
_cell_angle_gamma 153.913607
_cell_volume 592.921993
_symmetry_space_group_name_H-M "P -1"
_symmetry_group_IT_number 2
_symmetry_cell_setting 'triclinic'
loop_
_space_group_symop_operation_xyz
x,y,z
-x,-y,-z
loop_
_atom_site_type_symbol
_atom_site_label
_atom_site_fract_x
_atom_site_fract_y
_atom_site_fract_z
Si Si1 0.169825 0.128622 0.198138
Si Si2 0.412418 0.602527 0.719110
Si Si3 0.282144 0.256527 0.083757
Si Si4 0.597737 0.925712 0.296651
Si Si5 0.332382 0.674809 0.284773
Si Si6 0.805994 0.520452 0.427082
Si Si7 0.883386 0.283229 0.023703
O O1 0.243534 0.008439 0.481815
O O2 0.288665 0.487537 0.213565
O O3 0.171832 0.086886 0.095732
O O4 0.000000 0.000000 0.000000
O O5 0.370690 0.549531 0.541180
O O6 0.257783 0.443891 0.607078
O O7 0.530770 0.966371 0.713723
O O8 0.500000 0.500000 0.000000
O O9 0.218603 0.366355 0.807265
O O10 0.458699 0.557747 0.269451
O O11 0.266369 0.032748 0.117306
O O12 0.682715 0.154339 0.415511
O O13 0.500000 0.000000 0.000000
O O14 0.185061 0.619389 0.093665
O O15 0.994596 0.706770 0.675878
O O16 0.000000 0.500000 0.000000
#
# Coordination Sequence:
#
# PCOD9047946 Si02
#       7
#     2   2   2   2   2   2   2
#     4  12  26  46  70 103 147 183 236 299 365 420
#     4  11  25  43  72 104 143 177 238 297 352 419
#     4  11  25  43  72 103 135 190 236 291 350 432
#     4  10  24  44  72 100 139 185 238 289 353 433
#     4  11  26  44  71 104 141 186 229 293 365 416
#     4  11  23  45  71 103 136 183 239 289 348 431
#     4  12  23  44  70 100 140 182 237 285 352 425
#
# _framework density 23.611875999999999
#
# number of rings (size 3 to 8) (size 9 to 14) (size 15 to 20)
#    0.000    0.857    1.429    5.143    8.000    0.000 
#    0.000    3.571    0.000    0.000    0.000    0.000 
#    0.000    0.000    0.000    0.000    0.000    0.000 
#
# Total GULP energy -78182.487053 kJ/mol
# GULP energy per Si atom -5584.463361 kJ/mol
# Density = 2.355813 g / cm^3
# Si number density = 23.611876 Si / 1000 Ang^3
#
#
#
# Elastic Constant Matrix: (Units=GPa)
#
#
# Indices 1 2 3 4 5 6 
#
# 1 103.2124 15.8515 61.3805 0.7863 13.7629 -6.4476
# 2 15.8515 77.3092 17.3712 6.9762 -4.1591 -17.7382
# 3 61.3805 17.3712 169.1512 -11.3145 13.4154 15.1728
# 4 0.7863 6.9762 -11.3145 27.0023 0.6585 -0.4354
# 5 13.7629 -4.1591 13.4154 0.6585 44.2430 3.5735
# 6 -6.4476 -17.7382 15.1728 -0.4354 3.5735 42.9352
#
#
#
# Elastic Compliance Matrix: (Units=1/GPa)
#
#
# Indices 1 2 3 4 5 6 
#
# 1 0.013453 -0.000732 -0.005050 -0.002186 -0.002991 0.003729
# 2 -0.000732 0.015835 -0.002491 -0.005047 0.001974 0.007097
# 3 -0.005050 -0.002491 0.008805 0.004428 -0.001014 -0.004770
# 4 -0.002186 -0.005047 0.004428 0.040237 -0.001457 -0.003449
# 5 -0.002991 0.001974 -0.001014 -0.001457 0.024153 -0.001301
# 6 0.003729 0.007097 -0.004770 -0.003449 -0.001301 0.028542
#
#
# Mechanical properties :
#
#
# Convention : Reuss Voigt Hill
#
# Bulk Modulus (GPa) = 46.41182 59.87546 53.14364
# Shear Modulus (GPa) = 32.30972 39.84073 36.07522
#
# Velocity S-wave (km/s) = 3.70316 4.11215 3.91300
# Velocity P-wave (km/s) = 6.16306 6.92529 6.55526
#
# Compressibility (1/GPa) = 0.02154623
#
# Stress axis : x y z
#
# Youngs Moduli (GPa) = 74.33371 63.15135 113.57574
#
# Poissons Ratio (x) = 0.04620 0.57356
# Poissons Ratio (y) = 0.05438 0.28297
# Poissons Ratio (z) = 0.37539 0.15734
#
# Static dielectric constant tensor:
#      x y z
#    x 1.840720 0.004940 -0.003160 
#    y 0.004940 1.972820 -0.001680 
#    z -0.003160 -0.001680 1.955510 
# 
# From -- ./inp_files/473795.got.cif
#   From: 2010.05.17/outbox.cif.g08.bks.cpg/sg2_237_cif.got.tgz:473795.got - 2010.06.03 11:33:40.
