data_PCOD9047947
_publ_section_title
;
Structure prediction by ZEFSAII (Michael W. Deem and Ramdas Pophale) SiO2 
 PCOD9047947
Probable space group: P -1
;
_chemical_formula_sum "Si O2"
_cell_formula_units_Z 15
_cell_length_a 6.649006
_cell_length_b 8.404129
_cell_length_c 18.949239
_cell_angle_alpha 139.573972
_cell_angle_beta 81.008408
_cell_angle_gamma 76.979652
_cell_volume 571.899176
_symmetry_space_group_name_H-M "P -1"
_symmetry_group_IT_number 2
_symmetry_cell_setting 'triclinic'
loop_
_space_group_symop_operation_xyz
x,y,z
-x,-y,-z
loop_
_atom_site_type_symbol
_atom_site_label
_atom_site_fract_x
_atom_site_fract_y
_atom_site_fract_z
Si Si1 0.154079 0.841105 0.007432
Si Si2 0.887981 0.852836 0.529069
Si Si3 0.733031 0.188647 0.860105
Si Si4 0.041514 0.390942 0.828824
Si Si5 0.550408 0.528833 0.650111
Si Si6 0.463378 0.093838 0.331755
Si Si7 0.342770 0.462082 0.200776
Si Si8 0.500000 0.000000 0.500000
O O1 0.429815 0.680065 0.911523
O O2 0.079630 0.605708 0.946683
O O3 0.140680 0.979374 0.130674
O O4 0.000000 0.000000 0.000000
O O5 0.760217 0.734624 0.545802
O O6 0.170497 0.666289 0.454884
O O7 0.772266 0.190398 0.670573
O O8 0.782196 0.877800 0.466137
O O9 0.911385 0.253938 0.830088
O O10 0.631892 0.037607 0.765525
O O11 0.500000 0.500000 0.000000
O O12 0.867398 0.562906 0.830793
O O13 0.316671 0.140059 0.708991
O O14 0.435778 0.746609 0.664811
O O15 0.558376 0.666733 0.770822
O O16 0.450890 0.326935 0.602935
#
# Coordination Sequence:
#
# PCOD9047947 Si02
#       8
#     2   2   2   2   2   2   2   1
#     4  12  28  44  72 108 140 191 245 294 360 433
#     4  11  23  48  72 102 145 188 240 298 365 422
#     4  12  24  48  70 104 146 191 239 299 360 430
#     4  12  24  45  74  96 151 189 234 298 362 422
#     4  11  28  44  75 106 145 189 240 308 355 434
#     4  12  27  45  72 110 145 189 247 292 367 426
#     4  11  24  47  69 107 144 186 237 298 366 433
#     4  10  24  44  72 100 140 184 244 282 376 416
#
# _framework density 26.228401000000002
#
# number of rings (size 3 to 8) (size 9 to 14) (size 15 to 20)
#    0.000    0.533    5.333    2.400    7.467    2.133 
#    0.000    0.000    0.000    0.000    0.000    0.000 
#    0.000    0.000    0.000    0.000    0.000    0.000 
#
# Total GULP energy -83780.281366 kJ/mol
# GULP energy per Si atom -5585.352091 kJ/mol
# Density = 2.616870 g / cm^3
# Si number density = 26.228401 Si / 1000 Ang^3
#
#
#
# Elastic Constant Matrix: (Units=GPa)
#
#
# Indices 1 2 3 4 5 6 
#
# 1 132.0318 24.0836 30.1376 -0.1573 5.0692 -8.3920
# 2 24.0836 115.5920 0.6676 -18.1091 8.9219 -2.9302
# 3 30.1376 0.6676 35.6786 -18.0356 -7.6993 -2.0229
# 4 -0.1573 -18.1091 -18.0356 32.2158 -1.5404 -0.8022
# 5 5.0692 8.9219 -7.6993 -1.5404 41.9997 -1.6884
# 6 -8.3920 -2.9302 -2.0229 -0.8022 -1.6884 53.4216
#
#
#
# Elastic Compliance Matrix: (Units=1/GPa)
#
#
# Indices 1 2 3 4 5 6 
#
# 1 0.012533 -0.004082 -0.017596 -0.012270 -0.004291 0.000759
# 2 -0.004082 0.011231 0.009069 0.011393 0.000207 0.000496
# 3 -0.017596 0.009069 0.068053 0.043832 0.014337 0.001422
# 4 -0.012270 0.011393 0.043832 0.062415 0.009449 0.001593
# 5 -0.004291 0.000207 0.014337 0.009449 0.027294 0.000885
# 6 0.000759 0.000496 0.001422 0.001593 0.000885 0.018971
#
#
# Mechanical properties :
#
#
# Convention : Reuss Voigt Hill
#
# Bulk Modulus (GPa) = 15.01494 43.67555 29.34525
# Shear Modulus (GPa) = 20.16833 40.75501 30.46167
#
# Velocity S-wave (km/s) = 2.77600 3.94617 3.41163
# Velocity P-wave (km/s) = 4.00150 6.11973 5.17026
#
# Compressibility (1/GPa) = 0.06660035
#
# Stress axis : x y z
#
# Youngs Moduli (GPa) = 79.78753 89.04319 14.69440
#
# Poissons Ratio (x) = 0.36344 0.25856
# Poissons Ratio (y) = 0.32566 -0.13327
# Poissons Ratio (z) = 1.40395 -0.80756
#
# Static dielectric constant tensor:
#      x y z
#    x 2.099950 0.101590 0.034450 
#    y 0.101590 2.350030 -0.002850 
#    z 0.034450 -0.002850 2.091810 
# 
# From -- ./inp_files/89639.got.cif
#   From: 2010.05.17/outbox.cif.g08.bks.cpg/sg2_45_cif.got.tgz:89639.got - 2010.06.03 11:33:40.
