data_PCOD9047743
_publ_section_title
;
Structure prediction by ZEFSAII (Michael W. Deem and Ramdas Pophale) SiO2 
 PCOD9047743
Probable space group: P -1
;
_chemical_formula_sum "Si O2"
_cell_formula_units_Z 16
_cell_length_a 17.908197
_cell_length_b 13.174377
_cell_length_c 8.773441
_cell_angle_alpha 50.729692
_cell_angle_beta 100.435601
_cell_angle_gamma 141.631658
_cell_volume 750.889053
_symmetry_space_group_name_H-M "P -1"
_symmetry_group_IT_number 2
_symmetry_cell_setting 'triclinic'
loop_
_space_group_symop_operation_xyz
x,y,z
-x,-y,-z
loop_
_atom_site_type_symbol
_atom_site_label
_atom_site_fract_x
_atom_site_fract_y
_atom_site_fract_z
Si Si1 0.604697 0.035915 0.953806
Si Si2 0.527308 0.155933 0.238558
Si Si3 0.865040 0.284405 0.287159
Si Si4 0.060116 0.072422 0.782488
Si Si5 0.944760 0.642093 0.616236
Si Si6 0.866714 0.581787 0.970767
Si Si7 0.482726 0.342817 0.242491
Si Si8 0.415529 0.503855 0.526981
O O1 0.778356 0.321080 0.817180
O O2 0.592775 0.017145 0.783169
O O3 0.500000 0.000000 0.000000
O O4 0.523372 0.784593 0.233479
O O5 0.533579 0.300818 0.193250
O O6 0.500000 0.000000 0.500000
O O7 0.703028 0.387672 0.023402
O O8 0.927013 0.277619 0.445041
O O9 0.697085 0.967911 0.476571
O O10 0.839696 0.398427 0.212778
O O11 0.000000 0.500000 0.000000
O O12 0.058875 0.220534 0.586480
O O13 0.233076 0.265133 0.645585
O O14 0.939121 0.797234 0.905751
O O15 0.000000 0.000000 0.000000
O O16 0.973809 0.719010 0.732186
O O17 0.581089 0.497812 0.286861
O O18 0.500000 0.500000 0.000000
O O19 0.500000 0.500000 0.500000
#
# Coordination Sequence:
#
# PCOD9047743 Si02
#       8
#     2   2   2   2   2   2   2   2
#     4  12  23  46  73 102 133 186 239 283 348 427
#     4  12  24  43  73 102 139 181 230 295 353 416
#     4  10  24  44  70 101 135 186 227 283 348 427
#     4  12  28  44  67 105 145 182 225 294 354 410
#     4  11  25  44  73  99 137 181 234 283 341 431
#     4  11  23  45  70  99 137 184 230 279 354 423
#     4  12  27  46  72 105 144 180 236 300 358 408
#     4  12  27  47  73 102 141 186 241 290 348 428
#
# _framework density 21.308074000000001
#
# number of rings (size 3 to 8) (size 9 to 14) (size 15 to 20)
#    0.000    0.500    3.750    4.125   10.500    0.000 
#    0.000    1.250    0.000    0.000    0.000    0.000 
#    0.000    0.000    0.000    0.000    0.000    0.000 
#
# Total GULP energy -89342.471657 kJ/mol
# GULP energy per Si atom -5583.904479 kJ/mol
# Density = 2.125958 g / cm^3
# Si number density = 21.308074 Si / 1000 Ang^3
#
#
#
# Elastic Constant Matrix: (Units=GPa)
#
#
# Indices 1 2 3 4 5 6 
#
# 1 131.9180 18.6852 29.9469 1.7321 31.2526 -0.6420
# 2 18.6852 104.0040 19.1794 3.9519 12.3503 -7.8448
# 3 29.9469 19.1794 97.4416 5.9315 37.6364 -7.2224
# 4 1.7321 3.9519 5.9315 39.2257 3.7484 -5.2474
# 5 31.2526 12.3503 37.6364 3.7484 39.8777 -2.4766
# 6 -0.6420 -7.8448 -7.2224 -5.2474 -2.4766 38.5007
#
#
#
# Elastic Compliance Matrix: (Units=1/GPa)
#
#
# Indices 1 2 3 4 5 6 
#
# 1 0.009392 -0.000883 -0.000008 0.000298 -0.007135 -0.000443
# 2 -0.000883 0.010278 -0.001088 -0.000476 -0.001312 0.001726
# 3 -0.000008 -0.001088 0.016451 -0.000703 -0.015006 0.001803
# 4 0.000298 -0.000476 -0.000703 0.026230 -0.001687 0.003243
# 5 -0.007135 -0.001312 -0.015006 -0.001687 0.045364 -0.000513
# 6 -0.000443 0.001726 0.001803 0.003243 -0.000513 0.027065
#
#
# Mechanical properties :
#
#
# Convention : Reuss Voigt Hill
#
# Bulk Modulus (GPa) = 31.09060 52.10962 41.60011
# Shear Modulus (GPa) = 33.45396 41.22429 37.33913
#
# Velocity S-wave (km/s) = 3.96664 4.40327 4.19065
# Velocity P-wave (km/s) = 5.96671 7.09649 6.55598
#
# Compressibility (1/GPa) = 0.03216406
#
# Stress axis : x y z
#
# Youngs Moduli (GPa) = 106.47795 97.29090 60.78522
#
# Poissons Ratio (x) = 0.08594 0.00046
# Poissons Ratio (y) = 0.09406 0.06612
# Poissons Ratio (z) = 0.00080 0.10583
#
# Static dielectric constant tensor:
#      x y z
#    x 1.807290 0.006900 -0.038830 
#    y 0.006900 1.723190 -0.021620 
#    z -0.038830 -0.021620 1.761940 
# 
# From -- ./inp_files/332916.got.cif
#   From: 2010.05.17/outbox.cif.g08.bks.cpg/sg2_167_cif.got.tgz:332916.got - 2010.06.03 11:33:40.
