data_PCOD9047452
_publ_section_title
;
Structure prediction by ZEFSAII (Michael W. Deem and Ramdas Pophale) SiO2 
 PCOD9047452
Probable space group: P -1
;
_chemical_formula_sum "Si O2"
_cell_formula_units_Z 16
_cell_length_a 23.611264
_cell_length_b 5.735837
_cell_length_c 6.129288
_cell_angle_alpha 75.063957
_cell_angle_beta 55.544776
_cell_angle_gamma 89.688295
_cell_volume 650.995188
_symmetry_space_group_name_H-M "P -1"
_symmetry_group_IT_number 2
_symmetry_cell_setting 'triclinic'
loop_
_space_group_symop_operation_xyz
x,y,z
-x,-y,-z
loop_
_atom_site_type_symbol
_atom_site_label
_atom_site_fract_x
_atom_site_fract_y
_atom_site_fract_z
Si Si1 0.737393 0.546396 0.577572
Si Si2 0.222650 0.865983 0.090039
Si Si3 0.329928 0.757457 0.571066
Si Si4 0.039454 0.191796 0.536890
Si Si5 0.102983 0.652168 0.080416
Si Si6 0.557879 0.994062 0.060091
Si Si7 0.839558 0.955589 0.437592
Si Si8 0.593625 0.469964 0.160215
O O1 0.762399 0.361378 0.741772
O O2 0.726366 0.438443 0.385711
O O3 0.660803 0.564215 0.835376
O O4 0.795897 0.786659 0.395384
O O5 0.150145 0.788378 0.139543
O O6 0.211480 0.068437 0.238749
O O7 0.289116 0.917983 0.775846
O O8 0.370887 0.914093 0.250939
O O9 0.378835 0.620461 0.648423
O O10 0.093540 0.370748 0.224917
O O11 0.976722 0.304209 0.753353
O O12 0.087119 0.111964 0.639964
O O13 0.000000 0.000000 0.500000
O O14 0.140296 0.766214 0.755782
O O15 0.555420 0.214113 0.188354
O O16 0.557115 0.711595 0.205644
O O17 0.500000 0.000000 0.000000
#
# Coordination Sequence:
#
# PCOD9047452 Si02
#       8
#     2   2   2   2   2   2   2   2
#     4  10  24  44  67 102 141 182 236 291 358 425
#     4  11  23  45  66 104 136 176 242 292 359 431
#     4  10  25  47  70 107 149 193 235 302 359 424
#     4  11  24  47  64  96 133 179 234 290 358 438
#     4  11  25  42  68  95 134 177 231 292 361 430
#     4  11  25  49  76 113 153 196 246 297 358 434
#     4  12  25  43  72  99 133 183 233 297 361 429
#     4  10  25  44  74 109 150 192 246 297 359 435
#
# _framework density 24.577756000000001
#
# number of rings (size 3 to 8) (size 9 to 14) (size 15 to 20)
#    0.000    1.250    2.500    1.500    7.000    7.500 
#    2.250    0.000    0.000    0.000    0.000    0.000 
#    0.000    0.000    0.000    0.000    0.000    0.000 
#
# Total GULP energy -89488.022849 kJ/mol
# GULP energy per Si atom -5593.001428 kJ/mol
# Density = 2.452182 g / cm^3
# Si number density = 24.577756 Si / 1000 Ang^3
#
#
#
# Elastic Constant Matrix: (Units=GPa)
#
#
# Indices 1 2 3 4 5 6 
#
# 1 131.7406 61.4370 3.4384 -2.3874 12.9642 -1.9673
# 2 61.4370 115.7343 31.2214 -9.2704 6.4291 1.6938
# 3 3.4384 31.2214 76.7332 3.1897 0.7703 5.1492
# 4 -2.3874 -9.2704 3.1897 35.6905 -5.9940 -2.9094
# 5 12.9642 6.4291 0.7703 -5.9940 30.5180 -3.3293
# 6 -1.9673 1.6938 5.1492 -2.9094 -3.3293 46.9043
#
#
#
# Elastic Compliance Matrix: (Units=1/GPa)
#
#
# Indices 1 2 3 4 5 6 
#
# 1 0.010770 -0.006234 0.002156 -0.001697 -0.003641 0.000076
# 2 -0.006234 0.013684 -0.005459 0.003745 0.000652 0.000122
# 3 0.002156 -0.005459 0.015399 -0.002937 -0.000911 -0.001650
# 4 -0.001697 0.003745 -0.002937 0.030388 0.006241 0.002444
# 5 -0.003641 0.000652 -0.000911 0.006241 0.035737 0.002848
# 6 0.000076 0.000122 -0.001650 0.002444 0.002848 0.021854
#
#
# Mechanical properties :
#
#
# Convention : Reuss Voigt Hill
#
# Bulk Modulus (GPa) = 48.12472 57.37797 52.75135
# Shear Modulus (GPa) = 32.50323 37.82999 35.16661
#
# Velocity S-wave (km/s) = 3.64052 3.92752 3.78674
# Velocity P-wave (km/s) = 6.10690 6.63049 6.37407
#
# Compressibility (1/GPa) = 0.02077934
#
# Stress axis : x y z
#
# Youngs Moduli (GPa) = 92.84933 73.07739 64.94064
#
# Poissons Ratio (x) = 0.45553 -0.13999
# Poissons Ratio (y) = 0.57878 0.35451
# Poissons Ratio (z) = -0.20015 0.39892
#
# Static dielectric constant tensor:
#      x y z
#    x 1.729430 -0.088300 -0.086110 
#    y -0.088300 1.950000 -0.020440 
#    z -0.086110 -0.020440 1.940260 
# 
# From -- ./inp_files/11010.got.cif
#   From: 2010.05.17/outbox.cif.g08.bks.cpg/sg2_6_cif.got.tgz:11010.got - 2010.06.03 11:33:40.
