data_PCOD9047167
_publ_section_title
;
Structure prediction by ZEFSAII (Michael W. Deem and Ramdas Pophale) SiO2 
 PCOD9047167
Probable space group: P -1
;
_chemical_formula_sum "Si O2"
_cell_formula_units_Z 14
_cell_length_a 22.228752
_cell_length_b 5.438847
_cell_length_c 14.696151
_cell_angle_alpha 118.045566
_cell_angle_beta 20.117429
_cell_angle_gamma 113.550822
_cell_volume 534.175304
_symmetry_space_group_name_H-M "P -1"
_symmetry_group_IT_number 2
_symmetry_cell_setting 'triclinic'
loop_
_space_group_symop_operation_xyz
x,y,z
-x,-y,-z
loop_
_atom_site_type_symbol
_atom_site_label
_atom_site_fract_x
_atom_site_fract_y
_atom_site_fract_z
Si Si1 0.380472 0.469450 0.258213
Si Si2 0.853700 0.842176 0.724621
Si Si3 0.045464 0.320627 0.255783
Si Si4 0.731004 0.472460 0.384446
Si Si5 0.563085 0.660354 0.350476
Si Si6 0.581877 0.958915 0.992146
Si Si7 0.945389 0.950554 0.172369
O O1 0.270001 0.613429 0.523494
O O2 0.448458 0.725678 0.152407
O O3 0.524014 0.248294 0.072810
O O4 0.284555 0.241352 0.299656
O O5 0.866011 0.867536 0.819009
O O6 0.906461 0.531520 0.550838
O O7 0.668479 0.974748 0.969079
O O8 0.000000 0.000000 0.500000
O O9 0.950007 0.180928 0.284870
O O10 0.224543 0.414178 0.975093
O O11 0.546901 0.439397 0.594942
O O12 0.775594 0.788525 0.380496
O O13 0.888940 0.287812 0.074734
O O14 0.500000 0.500000 0.500000
O O15 0.500000 0.000000 0.500000
O O16 0.000000 0.000000 0.000000
#
# Coordination Sequence:
#
# PCOD9047167 Si02
#       7
#     2   2   2   2   2   2   2
#     4  10  24  43  73 102 141 190 240 309 363 453
#     4  11  28  44  76 104 152 202 250 320 377 460
#     4  11  27  49  74 112 152 201 261 312 387 460
#     4  11  26  43  72 107 144 197 245 309 381 444
#     4  12  27  49  77 109 152 204 253 319 378 457
#     4  10  24  45  69 105 142 185 249 298 374 429
#     4  11  26  46  72 109 150 194 255 312 383 453
#
# _framework density 26.208625999999999
#
# number of rings (size 3 to 8) (size 9 to 14) (size 15 to 20)
#    0.000    1.143    1.429    1.714   14.000    2.286 
#    0.000    0.000    0.000    0.000    0.000    0.000 
#    0.000    0.000    0.000    0.000    0.000    0.000 
#
# Total GULP energy -78210.205739 kJ/mol
# GULP energy per Si atom -5586.443267 kJ/mol
# Density = 2.614897 g / cm^3
# Si number density = 26.208626 Si / 1000 Ang^3
#
#
#
# Elastic Constant Matrix: (Units=GPa)
#
#
# Indices 1 2 3 4 5 6 
#
# 1 194.5364 52.0366 10.1497 -18.2172 17.3170 15.3811
# 2 52.0366 127.4403 45.3875 6.6270 5.7384 3.7792
# 3 10.1497 45.3875 62.7820 -1.3404 1.4994 1.0314
# 4 -18.2172 6.6270 -1.3404 64.6121 -6.3357 3.0658
# 5 17.3170 5.7384 1.4994 -6.3357 50.0770 -9.8981
# 6 15.3811 3.7792 1.0314 3.0658 -9.8981 57.1934
#
#
#
# Elastic Compliance Matrix: (Units=1/GPa)
#
#
# Indices 1 2 3 4 5 6 
#
# 1 0.006417 -0.003030 0.001278 0.002041 -0.002050 -0.002013
# 2 -0.003030 0.012195 -0.008372 -0.002324 -0.000349 0.000224
# 3 0.001278 -0.008372 0.021813 0.001687 0.000024 -0.000270
# 4 0.002041 -0.002324 0.001687 0.016513 0.001387 -0.001071
# 5 -0.002050 -0.000349 0.000024 0.001387 0.021735 0.004261
# 6 -0.002013 0.000224 -0.000270 -0.001071 0.004261 0.018811
#
#
# Mechanical properties :
#
#
# Convention : Reuss Voigt Hill
#
# Bulk Modulus (GPa) = 49.55394 66.65627 58.10510
# Shear Modulus (GPa) = 40.17479 52.85550 46.51514
#
# Velocity S-wave (km/s) = 3.91945 4.49566 4.21741
# Velocity P-wave (km/s) = 6.27944 7.24128 6.77745
#
# Compressibility (1/GPa) = 0.02018003
#
# Stress axis : x y z
#
# Youngs Moduli (GPa) = 155.84027 81.99905 45.84321
#
# Poissons Ratio (x) = 0.24842 -0.05861
# Poissons Ratio (y) = 0.47213 0.38378
# Poissons Ratio (z) = -0.19923 0.68646
#
# Static dielectric constant tensor:
#      x y z
#    x 2.184150 -0.085410 0.050580 
#    y -0.085410 2.186440 0.194080 
#    z 0.050580 0.194080 2.338360 
# 
# From -- ./inp_files/542230.got.cif
#   From: 2010.05.17/outbox.cif.g08.bks.cpg/sg2_272_cif.got.tgz:542230.got - 2010.06.03 11:33:40.
