data_PCOD9047933
_publ_section_title
;
Structure prediction by ZEFSAII (Michael W. Deem and Ramdas Pophale) SiO2 
 PCOD9047933
Probable space group: P -1
;
_chemical_formula_sum "Si O2"
_cell_formula_units_Z 12
_cell_length_a 21.328787
_cell_length_b 14.949604
_cell_length_c 6.472508
_cell_angle_alpha 67.430511
_cell_angle_beta 58.179322
_cell_angle_gamma 19.654156
_cell_volume 541.982532
_symmetry_space_group_name_H-M "P -1"
_symmetry_group_IT_number 2
_symmetry_cell_setting 'triclinic'
loop_
_space_group_symop_operation_xyz
x,y,z
-x,-y,-z
loop_
_atom_site_type_symbol
_atom_site_label
_atom_site_fract_x
_atom_site_fract_y
_atom_site_fract_z
Si Si1 0.150432 0.620745 0.858349
Si Si2 0.819062 0.008254 0.425225
Si Si3 0.182404 0.172219 0.115739
Si Si4 0.815995 0.144496 0.693824
Si Si5 0.472156 0.706609 0.686329
Si Si6 0.716198 0.749635 0.211698
O O1 0.344942 0.452337 0.602722
O O2 0.229514 0.414173 0.862963
O O3 0.939341 0.911227 0.824017
O O4 0.054749 0.742177 0.147616
O O5 0.775272 0.146977 0.540508
O O6 0.648440 0.203315 0.363859
O O7 0.810934 0.916847 0.641473
O O8 0.925684 0.504028 0.215929
O O9 0.290255 0.143010 0.002847
O O10 0.310281 0.973245 0.867570
O O11 0.595379 0.478688 0.828478
O O12 0.000000 0.000000 0.500000
O O13 0.500000 0.000000 0.500000
#
# Coordination Sequence:
#
# PCOD9047933 Si02
#       6
#     2   2   2   2   2   2
#     4  11  24  45  68 102 137 180 228 273 335 398
#     4  12  24  43  67 106 138 168 230 282 333 402
#     4  11  25  43  70 101 134 176 227 276 339 396
#     4  10  24  44  71  96 140 182 222 273 340 400
#     4  11  24  43  70 102 134 180 225 276 337 399
#     4  11  22  46  74  91 135 185 222 274 336 401
#
# _framework density 22.140934000000001
#
# number of rings (size 3 to 8) (size 9 to 14) (size 15 to 20)
#    0.000    1.000    5.000    0.500    0.000   11.333 
#    0.000    1.667    0.000    0.000    0.000    0.000 
#    0.000    0.000    0.000    0.000    0.000    0.000 
#
# Total GULP energy -67031.530932 kJ/mol
# GULP energy per Si atom -5585.960911 kJ/mol
# Density = 2.209054 g / cm^3
# Si number density = 22.140934 Si / 1000 Ang^3
#
#
#
# Elastic Constant Matrix: (Units=GPa)
#
#
# Indices 1 2 3 4 5 6 
#
# 1 109.7649 33.4482 38.1790 1.7767 -18.6392 17.5188
# 2 33.4482 92.1071 44.1474 19.1836 -1.3651 12.6204
# 3 38.1790 44.1474 142.8242 16.8575 -22.3157 7.0973
# 4 1.7767 19.1836 16.8575 25.4108 1.0688 -2.1312
# 5 -18.6392 -1.3651 -22.3157 1.0688 37.3058 1.0901
# 6 17.5188 12.6204 7.0973 -2.1312 1.0901 39.5836
#
#
#
# Elastic Compliance Matrix: (Units=1/GPa)
#
#
# Indices 1 2 3 4 5 6 
#
# 1 0.012173 -0.003587 -0.001402 0.002233 0.005165 -0.004014
# 2 -0.003587 0.016184 -0.003094 -0.010095 -0.002660 -0.003488
# 3 -0.001402 -0.003094 0.009652 -0.004225 0.005095 -0.000491
# 4 0.002233 -0.010095 -0.004225 0.050248 -0.003389 0.005786
# 5 0.005165 -0.002660 0.005095 -0.003389 0.032534 -0.003430
# 6 -0.004014 -0.003488 -0.000491 0.005786 -0.003430 0.028646
#
#
# Mechanical properties :
#
#
# Convention : Reuss Voigt Hill
#
# Bulk Modulus (GPa) = 45.78462 64.02728 54.90595
# Shear Modulus (GPa) = 28.92110 35.72148 32.32129
#
# Velocity S-wave (km/s) = 3.61810 4.02103 3.82488
# Velocity P-wave (km/s) = 6.17882 7.10909 6.66021
#
# Compressibility (1/GPa) = 0.02184139
#
# Stress axis : x y z
#
# Youngs Moduli (GPa) = 82.15036 61.79121 103.60445
#
# Poissons Ratio (x) = 0.22163 0.14529
# Poissons Ratio (y) = 0.29466 0.32059
# Poissons Ratio (z) = 0.11520 0.19120
#
# Static dielectric constant tensor:
#      x y z
#    x 1.797540 0.013440 -0.046990 
#    y 0.013440 1.857930 -0.019060 
#    z -0.046990 -0.019060 1.846810 
# 
# From -- ./inp_files/41496.got.cif
#   From: 2010.05.17/outbox.cif.g08.bks.cpg/sg2_21_cif.got.tgz:41496.got - 2010.06.03 11:33:40.
