data_PCOD9047293
_publ_section_title
;
Structure prediction by ZEFSAII (Michael W. Deem and Ramdas Pophale) SiO2 
 PCOD9047293
Probable space group: P -1
;
_chemical_formula_sum "Si O2"
_cell_formula_units_Z 12
_cell_length_a 12.114276
_cell_length_b 10.881139
_cell_length_c 10.896444
_cell_angle_alpha 119.947440
_cell_angle_beta 116.937672
_cell_angle_gamma 25.823207
_cell_volume 542.100929
_symmetry_space_group_name_H-M "P -1"
_symmetry_group_IT_number 2
_symmetry_cell_setting 'triclinic'
loop_
_space_group_symop_operation_xyz
x,y,z
-x,-y,-z
loop_
_atom_site_type_symbol
_atom_site_label
_atom_site_fract_x
_atom_site_fract_y
_atom_site_fract_z
Si Si1 0.019862 0.482456 0.827024
Si Si2 0.485642 0.263966 0.573483
Si Si3 0.500555 0.572254 0.822652
Si Si4 0.984470 0.687911 0.675299
Si Si5 0.482815 0.194853 0.251148
Si Si6 0.997999 0.826222 0.997013
O O1 0.016075 0.521998 0.698533
O O2 0.776070 0.633407 0.809269
O O3 0.279218 0.145833 0.821731
O O4 0.001617 0.658379 0.961628
O O5 0.505146 0.410572 0.689706
O O6 0.496897 0.230073 0.417166
O O7 0.223062 0.470036 0.599673
O O8 0.720394 0.953468 0.604174
O O9 0.507657 0.680491 0.771171
O O10 0.743645 0.360057 0.923701
O O11 0.246581 0.854021 0.912325
O O12 0.982747 0.818349 0.839155
#
# Coordination Sequence:
#
# PCOD9047293 Si02
#       6
#     2   2   2   2   2   2
#     4  10  24  44  64 100 122 164 214 264 322 362
#     4  12  25  42  66  94 131 170 208 258 312 382
#     4  12  25  42  66  94 131 170 208 258 312 382
#     4  10  24  44  64 100 122 164 214 264 322 362
#     4  12  25  42  66  94 131 170 208 258 312 382
#     4  10  24  44  64 100 122 164 214 264 322 362
#
# _framework density 22.136101
#
# number of rings (size 3 to 8) (size 9 to 14) (size 15 to 20)
#    1.000    0.000    0.000    6.500    0.000   12.000 
#    0.000    5.000    0.000    0.000    0.000    0.000 
#    0.000    0.000    0.000    0.000    0.000    0.000 
#
# Total GULP energy -67227.870848 kJ/mol
# GULP energy per Si atom -5602.322571 kJ/mol
# Density = 2.208572 g / cm^3
# Si number density = 22.136101 Si / 1000 Ang^3
#
#
#
# Elastic Constant Matrix: (Units=GPa)
#
#
# Indices 1 2 3 4 5 6 
#
# 1 87.7273 12.9679 4.2201 14.7705 -0.4404 6.4397
# 2 12.9679 100.7734 20.7501 12.1788 -7.7216 -28.1041
# 3 4.2201 20.7501 101.6420 8.3692 -0.5489 -0.6547
# 4 14.7705 12.1788 8.3692 17.3186 1.2697 -7.4274
# 5 -0.4404 -7.7216 -0.5489 1.2697 41.6149 -6.5271
# 6 6.4397 -28.1041 -0.6547 -7.4274 -6.5271 22.4141
#
#
#
# Elastic Compliance Matrix: (Units=1/GPa)
#
#
# Indices 1 2 3 4 5 6 
#
# 1 0.016876 -0.006000 0.001971 -0.019330 -0.003411 -0.019713
# 2 -0.006000 0.020214 -0.004099 0.005680 0.008364 0.031267
# 3 0.001971 -0.004099 0.011162 -0.007677 -0.001677 -0.008412
# 4 -0.019330 0.005680 -0.007677 0.092712 0.004915 0.044605
# 5 -0.003411 0.008364 -0.001677 0.004915 0.028732 0.021414
# 6 -0.019713 0.031267 -0.008412 0.044605 0.021414 0.110254
#
#
# Mechanical properties :
#
#
# Convention : Reuss Voigt Hill
#
# Bulk Modulus (GPa) = 31.25514 40.66876 35.96195
# Shear Modulus (GPa) = 16.29346 33.08315 24.68830
#
# Velocity S-wave (km/s) = 2.71598 3.87011 3.34323
# Velocity P-wave (km/s) = 4.89751 6.19535 5.58426
#
# Compressibility (1/GPa) = 0.03199474
#
# Stress axis : x y z
#
# Youngs Moduli (GPa) = 59.25726 49.47144 89.58762
#
# Poissons Ratio (x) = 0.29684 -0.17653
# Poissons Ratio (y) = 0.35556 0.36718
# Poissons Ratio (z) = -0.11677 0.20276
#
# Static dielectric constant tensor:
#      x y z
#    x 1.801720 0.027210 -0.002650 
#    y 0.027210 1.730670 0.001610 
#    z -0.002650 0.001610 1.809610 
# 
# From -- ./inp_files/424042.got.cif
#   From: 2010.05.17/outbox.cif.g08.bks.cpg/sg2_213_cif.got.tgz:424042.got - 2010.06.03 11:33:40.
