data_PCOD9047269
_publ_section_title
;
Structure prediction by ZEFSAII (Michael W. Deem and Ramdas Pophale) SiO2 
 PCOD9047269
Probable space group: P -1
;
_chemical_formula_sum "Si O2"
_cell_formula_units_Z 14
_cell_length_a 10.833426
_cell_length_b 19.948818
_cell_length_c 19.830033
_cell_angle_alpha 159.607472
_cell_angle_beta 159.966961
_cell_angle_gamma 29.129198
_cell_volume 510.644006
_symmetry_space_group_name_H-M "P -1"
_symmetry_group_IT_number 2
_symmetry_cell_setting 'triclinic'
loop_
_space_group_symop_operation_xyz
x,y,z
-x,-y,-z
loop_
_atom_site_type_symbol
_atom_site_label
_atom_site_fract_x
_atom_site_fract_y
_atom_site_fract_z
Si Si1 0.437801 0.485770 0.676287
Si Si2 0.951211 0.256982 0.101192
Si Si3 0.820792 0.519697 0.030665
Si Si4 0.065841 0.872972 0.553121
Si Si5 0.254125 0.895106 0.931361
Si Si6 0.036568 0.316196 0.546717
Si Si7 0.828111 0.199432 0.835460
O O1 0.173187 0.359462 0.373692
O O2 0.512128 0.425582 0.734949
O O3 0.336993 0.708544 0.841877
O O4 0.815222 0.476210 0.821848
O O5 0.838257 0.467428 0.208811
O O6 0.027172 0.180320 0.990423
O O7 0.927780 0.033878 0.908837
O O8 0.902047 0.400335 0.025193
O O9 0.763115 0.740248 0.231936
O O10 0.170690 0.731452 0.534612
O O11 0.921499 0.053118 0.687007
O O12 0.392746 0.955665 0.752695
O O13 0.199527 0.784221 0.727581
O O14 0.402113 0.203431 0.634873
#
# Coordination Sequence:
#
# PCOD9047269 Si02
#       7
#     2   2   2   2   2   2   2
#     4  10  24  44  62 100 131 175 216 270 321 390
#     4  11  23  40  69  92 135 169 216 271 327 380
#     4  11  24  42  68  94 136 171 220 264 329 388
#     4  12  23  38  67 101 129 167 215 273 325 383
#     4  11  23  39  65 100 130 166 216 271 324 383
#     4  11  25  40  64  99 139 168 213 269 332 387
#     4  12  25  42  67 101 132 172 216 271 328 389
#
# _framework density 27.416361999999999
#
# number of rings (size 3 to 8) (size 9 to 14) (size 15 to 20)
#    0.000    0.857    5.714    1.286    0.000    2.857 
#    0.000    2.857    0.000    5.143    0.000    0.000 
#    0.000    0.000    0.000    0.000    0.000    0.000 
#
# Total GULP energy -78033.583803 kJ/mol
# GULP energy per Si atom -5573.827415 kJ/mol
# Density = 2.735396 g / cm^3
# Si number density = 27.416362 Si / 1000 Ang^3
#
#
#
# Elastic Constant Matrix: (Units=GPa)
#
#
# Indices 1 2 3 4 5 6 
#
# 1 -98.1414 -250.3434 -111.2723 168.7182 -114.4621 80.2457
# 2 -250.3434 -291.8872 -193.2069 321.1495 -188.7680 101.0756
# 3 -111.2723 -193.2069 -0.6046 159.7802 -116.3528 66.7729
# 4 168.7182 321.1495 159.7802 -137.5103 113.9833 -90.4799
# 5 -114.4621 -188.7680 -116.3528 113.9833 -26.7448 34.0296
# 6 80.2457 101.0756 66.7729 -90.4799 34.0296 13.0797
#
#
#
# Elastic Compliance Matrix: (Units=1/GPa)
#
#
# Indices 1 2 3 4 5 6 
#
# 1 0.017912 -0.003897 -0.004653 0.006855 -0.002472 -0.002178
# 2 -0.003897 0.006043 -0.002902 0.001231 -0.001724 0.005018
# 3 -0.004653 -0.002902 0.010251 0.001479 0.003104 0.000790
# 4 0.006855 0.001231 0.001479 0.012060 0.008787 0.001450
# 5 -0.002472 -0.001724 0.003104 0.008787 0.023831 0.011421
# 6 -0.002178 0.005018 0.000790 0.001450 0.011421 0.027327
#
#
# Mechanical properties :
#
#
# Convention : Reuss Voigt Hill
#
# Bulk Modulus (GPa) = 88.46225 -166.69758 -39.11767
# Shear Modulus (GPa) = 40.29163 -19.28911 10.50126
#
# Velocity S-wave (km/s) = 3.83772 -2.65535 1.95924
# Velocity P-wave (km/s) = 7.20928 8.38662 3.02999
#
# Compressibility (1/GPa) = 0.01130426
#
# Stress axis : x y z
#
# Youngs Moduli (GPa) = 55.82718 165.46932 97.55356
#
# Poissons Ratio (x) = 0.64482 0.45387
# Poissons Ratio (y) = 0.21755 0.28307
# Poissons Ratio (z) = 0.25974 0.48014
#
# Static dielectric constant tensor:
#      x y z
#    x 2.259600 -0.163310 0.150050 
#    y -0.163310 2.292770 -0.028190 
#    z 0.150050 -0.028190 2.192560 
# 
# From -- ./inp_files/353849.got.cif
#   From: 2010.05.17/outbox.cif.g08.bks.cpg/sg2_177_cif.got.tgz:353849.got - 2010.06.03 11:33:40.
