data_PCOD9047008
_publ_section_title
;
Structure prediction by ZEFSAII (Michael W. Deem and Ramdas Pophale) SiO2 
 PCOD9047008
Probable space group: P -1
;
_chemical_formula_sum "Si O2"
_cell_formula_units_Z 16
_cell_length_a 4.857252
_cell_length_b 4.957347
_cell_length_c 29.161430
_cell_angle_alpha 64.777847
_cell_angle_beta 63.496401
_cell_angle_gamma 86.686237
_cell_volume 560.828288
_symmetry_space_group_name_H-M "P -1"
_symmetry_group_IT_number 2
_symmetry_cell_setting 'triclinic'
loop_
_space_group_symop_operation_xyz
x,y,z
-x,-y,-z
loop_
_atom_site_type_symbol
_atom_site_label
_atom_site_fract_x
_atom_site_fract_y
_atom_site_fract_z
Si Si1 0.735571 0.781411 0.614334
Si Si2 0.687557 0.335885 0.461514
Si Si3 0.136256 0.086743 0.633671
Si Si4 0.562404 0.541312 0.178762
Si Si5 0.205357 0.729607 0.277687
Si Si6 0.775834 0.742092 0.005587
Si Si7 0.599029 0.094625 0.907119
Si Si8 0.960671 0.910061 0.807479
O O1 0.754756 0.534842 0.670562
O O2 0.946402 0.705128 0.561489
O O3 0.397802 0.876077 0.630132
O O4 0.960060 0.064393 0.600243
O O5 0.500000 0.500000 0.500000
O O6 0.692150 0.566794 0.400992
O O7 0.500000 0.000000 0.500000
O O8 0.868576 0.025958 0.696394
O O9 0.454227 0.683063 0.223272
O O10 0.658647 0.827846 0.116820
O O11 0.800857 0.315959 0.185723
O O12 0.301571 0.315572 0.185520
O O13 0.940055 0.807294 0.255355
O O14 0.472942 0.656858 0.067358
O O15 0.000000 0.500000 0.000000
O O16 0.644737 0.843113 0.959840
O O17 0.000000 0.000000 0.000000
O O18 0.852873 0.048119 0.852743
#
# Coordination Sequence:
#
# PCOD9047008 Si02
#       8
#     2   2   2   2   2   2   2   2
#     4  11  25  45  71 103 144 189 241 299 359 430
#     4  11  24  47  72 107 146 195 244 301 362 429
#     4  11  25  45  71 103 144 189 241 299 359 430
#     4  11  25  43  69 100 142 184 235 294 357 428
#     4  10  24  43  70 105 136 191 232 300 354 436
#     4  11  26  45  72 102 143 188 239 295 356 424
#     4  10  26  40  68 101 136 188 232 298 346 436
#     4  11  25  43  69 100 142 184 235 294 357 428
#
# _framework density 28.529232
#
# number of rings (size 3 to 8) (size 9 to 14) (size 15 to 20)
#    0.000    1.250    1.250    2.250    7.000   11.000 
#    0.000    0.000    0.000    0.000    0.000    0.000 
#    0.000    0.000    0.000    0.000    0.000    0.000 
#
# Total GULP energy -89128.263783 kJ/mol
# GULP energy per Si atom -5570.516486 kJ/mol
# Density = 2.846430 g / cm^3
# Si number density = 28.529232 Si / 1000 Ang^3
#
#
#
# Elastic Constant Matrix: (Units=GPa)
#
#
# Indices 1 2 3 4 5 6 
#
# 1 136.6993 70.2542 8.5455 7.6999 -0.4293 -24.1460
# 2 70.2542 254.2895 67.0033 40.0170 -0.0745 -45.9529
# 3 8.5455 67.0033 153.7185 25.9098 -0.1046 -13.6054
# 4 7.6999 40.0170 25.9098 83.8069 -14.9130 1.5913
# 5 -0.4293 -0.0745 -0.1046 -14.9130 36.0362 -6.6344
# 6 -24.1460 -45.9529 -13.6054 1.5913 -6.6344 59.4314
#
#
#
# Elastic Compliance Matrix: (Units=1/GPa)
#
#
# Indices 1 2 3 4 5 6 
#
# 1 0.008785 -0.002250 0.000653 0.000121 0.000526 0.002034
# 2 -0.002250 0.005979 -0.001816 -0.002207 -0.000323 0.003316
# 3 0.000653 -0.001816 0.007589 -0.001648 -0.000549 0.000581
# 4 0.000121 -0.002207 -0.001648 0.014528 0.005675 -0.001790
# 5 0.000526 -0.000323 -0.000549 0.005675 0.030675 0.003111
# 6 0.002034 0.003316 0.000581 -0.001790 0.003111 0.020745
#
#
# Mechanical properties :
#
#
# Convention : Reuss Voigt Hill
#
# Bulk Modulus (GPa) = 64.40475 92.92371 78.66423
# Shear Modulus (GPa) = 49.84787 62.44853 56.14820
#
# Velocity S-wave (km/s) = 4.18455 4.68368 4.44113
# Velocity P-wave (km/s) = 6.78022 7.86710 7.34379
#
# Compressibility (1/GPa) = 0.01552681
#
# Stress axis : x y z
#
# Youngs Moduli (GPa) = 113.82757 167.24517 131.76172
#
# Poissons Ratio (x) = 0.37635 -0.08598
# Poissons Ratio (y) = 0.25615 0.23925
# Poissons Ratio (z) = -0.07428 0.30368
#
# Static dielectric constant tensor:
#      x y z
#    x 2.396230 0.162570 -0.156100 
#    y 0.162570 2.296960 -0.125680 
#    z -0.156100 -0.125680 2.383900 
# 
# From -- ./inp_files/125942.got.cif
#   From: 2010.05.17/outbox.cif.g08.bks.cpg/sg2_63_cif.got.tgz:125942.got - 2010.06.03 11:33:40.
