data_PCOD9047636
_publ_section_title
;
Structure prediction by ZEFSAII (Michael W. Deem and Ramdas Pophale) SiO2 
 PCOD9047636
Probable space group: P -1
;
_chemical_formula_sum "Si O2"
_cell_formula_units_Z 16
_cell_length_a 9.152938
_cell_length_b 9.012626
_cell_length_c 14.916271
_cell_angle_alpha 70.265006
_cell_angle_beta 77.089941
_cell_angle_gamma 129.750214
_cell_volume 707.595263
_symmetry_space_group_name_H-M "P -1"
_symmetry_group_IT_number 2
_symmetry_cell_setting 'triclinic'
loop_
_space_group_symop_operation_xyz
x,y,z
-x,-y,-z
loop_
_atom_site_type_symbol
_atom_site_label
_atom_site_fract_x
_atom_site_fract_y
_atom_site_fract_z
Si Si1 0.711244 0.693701 0.003988
Si Si2 0.550961 0.032915 0.807080
Si Si3 0.455049 0.687492 0.579507
Si Si4 0.943085 0.293136 0.999717
Si Si5 0.099817 0.139552 0.554290
Si Si6 0.578885 0.746810 0.751962
Si Si7 0.745954 0.373854 0.548908
Si Si8 0.970281 0.230654 0.815071
O O1 0.576240 0.536086 0.147660
O O2 0.500000 0.500000 0.000000
O O3 0.931000 0.749967 0.958967
O O4 0.823999 0.957298 0.922129
O O5 0.579127 0.166495 0.690194
O O6 0.799374 0.207933 0.788374
O O7 0.345172 0.939313 0.914919
O O8 0.500377 0.816173 0.819067
O O9 0.670571 0.781357 0.477268
O O10 0.550476 0.791474 0.646194
O O11 0.358964 0.738807 0.513178
O O12 0.210236 0.389652 0.694455
O O13 0.037652 0.371156 0.869652
O O14 0.000000 0.500000 0.000000
O O15 0.201858 0.399525 0.487476
O O16 0.000000 0.000000 0.500000
O O17 0.860543 0.940928 0.687881
O O18 0.000000 0.500000 0.500000
#
# Coordination Sequence:
#
# PCOD9047636 Si02
#       8
#     2   2   2   2   2   2   2   2
#     4  12  25  42  72  99 135 187 223 279 349 397
#     4  12  25  44  69  99 143 177 228 289 335 410
#     4  11  24  43  73  99 136 179 229 279 344 406
#     4  12  25  45  68 104 139 181 232 280 344 410
#     4  10  24  44  68  98 134 177 228 281 335 408
#     4  11  22  46  67  99 144 172 228 289 336 403
#     4  12  24  43  70  99 133 182 226 277 350 394
#     4  12  24  45  72 101 142 181 228 285 342 410
#
# _framework density 22.611796999999999
#
# number of rings (size 3 to 8) (size 9 to 14) (size 15 to 20)
#    0.000    0.500    6.250    1.125    1.750    2.500 
#    0.000    0.000    0.000    0.000    0.000    0.000 
#    0.000    0.000    0.000    0.000    0.000    0.000 
#
# Total GULP energy -89356.005831 kJ/mol
# GULP energy per Si atom -5584.750364 kJ/mol
# Density = 2.256033 g / cm^3
# Si number density = 22.611797 Si / 1000 Ang^3
#
#
#
# Elastic Constant Matrix: (Units=GPa)
#
#
# Indices 1 2 3 4 5 6 
#
# 1 132.3073 17.6231 40.3367 7.4431 -21.6219 31.0897
# 2 17.6231 70.0268 2.2881 9.5056 6.5068 14.6432
# 3 40.3367 2.2881 108.8486 -10.0999 -6.4760 0.7648
# 4 7.4431 9.5056 -10.0999 36.4233 13.1766 4.5701
# 5 -21.6219 6.5068 -6.4760 13.1766 50.0587 -0.5912
# 6 31.0897 14.6432 0.7648 4.5701 -0.5912 38.3249
#
#
#
# Elastic Compliance Matrix: (Units=1/GPa)
#
#
# Indices 1 2 3 4 5 6 
#
# 1 0.012449 -0.001043 -0.004597 -0.004600 0.006023 -0.008967
# 2 -0.001043 0.016155 -0.000288 -0.002758 -0.001921 -0.005022
# 3 -0.004597 -0.000288 0.011179 0.004307 -0.001599 0.003078
# 4 -0.004600 -0.002758 0.004307 0.033854 -0.009977 0.000509
# 5 0.006023 -0.001921 -0.001599 -0.009977 0.025217 -0.002541
# 6 -0.008967 -0.005022 0.003078 0.000509 -0.002541 0.035124
#
#
# Mechanical properties :
#
#
# Convention : Reuss Voigt Hill
#
# Bulk Modulus (GPa) = 35.80659 47.96427 41.88543
# Shear Modulus (GPa) = 32.22844 41.69037 36.95941
#
# Velocity S-wave (km/s) = 3.77940 4.29854 4.04730
# Velocity P-wave (km/s) = 5.90888 6.77456 6.35648
#
# Compressibility (1/GPa) = 0.02792782
#
# Stress axis : x y z
#
# Youngs Moduli (GPa) = 80.33090 61.90037 89.45014
#
# Poissons Ratio (x) = 0.06455 0.41118
# Poissons Ratio (y) = 0.08377 0.02577
# Poissons Ratio (z) = 0.36926 0.01783
#
# Static dielectric constant tensor:
#      x y z
#    x 1.854370 0.036910 -0.014200 
#    y 0.036910 1.914810 -0.007670 
#    z -0.014200 -0.007670 1.873770 
# 
# From -- ./inp_files/494659.got.cif
#   From: 2010.05.17/outbox.cif.g08.bks.cpg/sg2_248_cif.got.tgz:494659.got - 2010.06.03 11:33:40.
