data_PCOD9047354
_publ_section_title
;
Structure prediction by ZEFSAII (Michael W. Deem and Ramdas Pophale) SiO2 
 PCOD9047354
Probable space group: P -1
;
_chemical_formula_sum "Si O2"
_cell_formula_units_Z 16
_cell_length_a 20.622186
_cell_length_b 9.718163
_cell_length_c 20.037808
_cell_angle_alpha 132.977837
_cell_angle_beta 160.734782
_cell_angle_gamma 38.363326
_cell_volume 788.105885
_symmetry_space_group_name_H-M "P -1"
_symmetry_group_IT_number 2
_symmetry_cell_setting 'triclinic'
loop_
_space_group_symop_operation_xyz
x,y,z
-x,-y,-z
loop_
_atom_site_type_symbol
_atom_site_label
_atom_site_fract_x
_atom_site_fract_y
_atom_site_fract_z
Si Si1 0.057434 0.947618 0.141124
Si Si2 0.191968 0.613424 0.045354
Si Si3 0.344751 0.932174 0.122875
Si Si4 0.597966 0.904650 0.136795
Si Si5 0.127987 0.222353 0.875226
Si Si6 0.233197 0.020407 0.472409
Si Si7 0.705314 0.200783 0.407265
Si Si8 0.690375 0.426714 0.100223
O O1 0.206199 0.738186 0.165382
O O2 0.184447 0.930847 0.328277
O O3 0.975341 0.183500 0.102243
O O4 0.812042 0.973264 0.931227
O O5 0.460736 0.428676 0.216938
O O6 0.087873 0.467475 0.914974
O O7 0.595636 0.901790 0.354432
O O8 0.382308 0.691761 0.063023
O O9 0.178207 0.113626 0.961849
O O10 0.688548 0.641839 0.144809
O O11 0.768410 0.981267 0.352132
O O12 0.500000 0.000000 0.000000
O O13 0.373736 0.043759 0.015425
O O14 0.918562 0.227711 0.635189
O O15 0.974773 0.223394 0.320646
O O16 0.360043 0.833617 0.592684
O O17 0.500000 0.500000 0.000000
#
# Coordination Sequence:
#
# PCOD9047354 Si02
#       8
#     2   2   2   2   2   2   2   2
#     4  10  24  44  65  97 128 165 213 259 326 378
#     4  10  24  44  66  93 135 164 201 273 320 384
#     4  11  22  41  64  96 127 164 216 263 314 372
#     4  11  25  41  61  92 132 168 210 257 323 374
#     4  11  22  44  64  94 129 168 211 266 312 379
#     4  11  22  40  67  97 126 167 217 262 309 379
#     4  11  22  43  66  92 128 168 213 262 316 376
#     4  11  21  40  64  90 126 168 212 262 307 370
#
# _framework density 20.301839999999999
#
# number of rings (size 3 to 8) (size 9 to 14) (size 15 to 20)
#    0.000    1.250    6.250    0.000    7.000    6.500 
#    0.000    2.500    0.000    0.000    0.000    0.000 
#    0.000    0.000    0.000    0.000    0.000    0.000 
#
# Total GULP energy -89298.113277 kJ/mol
# GULP energy per Si atom -5581.132080 kJ/mol
# Density = 2.025563 g / cm^3
# Si number density = 20.301840 Si / 1000 Ang^3
#
#
#
# Elastic Constant Matrix: (Units=GPa)
#
#
# Indices 1 2 3 4 5 6 
#
# 1 42.0131 -4.5324 -6.0791 0.7473 -13.8083 15.7924
# 2 -4.5324 83.0073 24.1869 14.8904 -3.4340 33.3927
# 3 -6.0791 24.1869 85.1811 33.0249 2.7609 4.7700
# 4 0.7473 14.8904 33.0249 24.8701 -1.5435 -0.6301
# 5 -13.8083 -3.4340 2.7609 -1.5435 35.3809 -2.5029
# 6 15.7924 33.3927 4.7700 -0.6301 -2.5029 13.7043
#
#
#
# Elastic Compliance Matrix: (Units=1/GPa)
#
#
# Indices 1 2 3 4 5 6 
#
# 1 0.005308 -0.019843 -0.003606 0.017925 0.004401 0.045117
# 2 -0.019843 -0.007237 -0.008028 0.016437 -0.004039 0.043313
# 3 -0.003606 -0.008028 0.023051 -0.025602 -0.004128 0.013763
# 4 0.017925 0.016437 -0.025602 0.063255 0.010020 -0.047057
# 5 0.004401 -0.004039 -0.004128 0.010020 0.031224 0.012371
# 6 0.045117 0.043313 0.013763 -0.047057 0.012371 -0.089256
#
#
# Mechanical properties :
#
#
# Convention : Reuss Voigt Hill
#
# Bulk Modulus (GPa) = -23.90502 26.37249 1.23374
# Shear Modulus (GPa) = 66.35200 27.89945 47.12573
#
# Velocity S-wave (km/s) = 5.72309 3.71109 4.82317
# Velocity P-wave (km/s) = 5.64546 5.60190 5.62372
#
# Compressibility (1/GPa) = -0.04183222
#
# Stress axis : x y z
#
# Youngs Moduli (GPa) = 188.39734 -138.18155 43.38212
#
# Poissons Ratio (x) = -2.74197 0.15642
# Poissons Ratio (y) = 3.73841 0.34829
# Poissons Ratio (z) = 0.67928 -1.10936
#
# Static dielectric constant tensor:
#      x y z
#    x 1.722620 0.016530 0.007580 
#    y 0.016530 1.746630 0.016050 
#    z 0.007580 0.016050 1.733980 
# 
# From -- ./inp_files/201786.got.cif
#   From: 2010.05.17/outbox.cif.g08.bks.cpg/sg2_101_cif.got.tgz:201786.got - 2010.06.03 11:33:40.
