data_PCOD9047734
_publ_section_title
;
Structure prediction by ZEFSAII (Michael W. Deem and Ramdas Pophale) SiO2 
 PCOD9047734
Probable space group: P -1
;
_chemical_formula_sum "Si O2"
_cell_formula_units_Z 15
_cell_length_a 5.003892
_cell_length_b 17.382296
_cell_length_c 14.605770
_cell_angle_alpha 27.149115
_cell_angle_beta 95.158627
_cell_angle_gamma 96.980534
_cell_volume 574.929051
_symmetry_space_group_name_H-M "P -1"
_symmetry_group_IT_number 2
_symmetry_cell_setting 'triclinic'
loop_
_space_group_symop_operation_xyz
x,y,z
-x,-y,-z
loop_
_atom_site_type_symbol
_atom_site_label
_atom_site_fract_x
_atom_site_fract_y
_atom_site_fract_z
Si Si1 0.910873 0.942958 0.321268
Si Si2 0.545871 0.555566 0.050116
Si Si3 0.138806 0.193134 0.931549
Si Si4 0.948840 0.559062 0.706863
Si Si5 0.455973 0.496558 0.393715
Si Si6 0.243274 0.054443 0.382785
Si Si7 0.000000 0.000000 0.000000
Si Si8 0.514124 0.121101 0.743922
O O1 0.960965 0.759827 0.477936
O O2 0.587248 0.924351 0.315142
O O3 0.980476 0.126717 0.084176
O O4 0.112908 0.955948 0.397122
O O5 0.773793 0.472324 0.203074
O O6 0.275534 0.509091 0.151085
O O7 0.500000 0.500000 0.000000
O O8 0.665867 0.751130 0.843316
O O9 0.248502 0.005378 0.096943
O O10 0.366376 0.334650 0.810543
O O11 0.983125 0.204577 0.820689
O O12 0.833874 0.488515 0.679688
O O13 0.500000 0.500000 0.500000
O O14 0.559865 0.321543 0.545676
O O15 0.500000 0.000000 0.500000
O O16 0.000000 0.000000 0.500000
O O17 0.266133 0.061660 0.866613
#
# Coordination Sequence:
#
# PCOD9047734 Si02
#       8
#     2   2   2   2   2   2   1   2
#     4  11  25  44  74  98 147 189 247 309 383 443
#     4  12  25  48  77 110 151 189 249 308 385 451
#     4  10  24  44  70 100 143 190 249 306 378 436
#     4  11  27  46  74 111 148 197 248 314 374 450
#     4  11  26  47  73 107 149 201 258 310 381 452
#     4  12  27  45  77 110 149 194 245 306 380 459
#     4   8  22  40  68  94 134 182 240 296 370 418
#     4   9  24  45  67  99 142 185 248 305 372 436
#
# _framework density 26.090176
#
# number of rings (size 3 to 8) (size 9 to 14) (size 15 to 20)
#    0.800    0.533    0.000    3.600   11.200    2.667 
#    2.400    0.000    0.000    0.000    0.000    0.000 
#    0.000    0.000    0.000    0.000    0.000    0.000 
#
# Total GULP energy -83559.066017 kJ/mol
# GULP energy per Si atom -5570.604401 kJ/mol
# Density = 2.603079 g / cm^3
# Si number density = 26.090176 Si / 1000 Ang^3
#
#
#
# Elastic Constant Matrix: (Units=GPa)
#
#
# Indices 1 2 3 4 5 6 
#
# 1 145.6758 41.7082 43.3285 13.9287 1.3319 28.0695
# 2 41.7082 179.5838 27.6209 -3.4716 -5.0277 56.4601
# 3 43.3285 27.6209 133.5965 -18.1627 -0.8140 17.9692
# 4 13.9287 -3.4716 -18.1627 53.0359 15.5092 -4.4460
# 5 1.3319 -5.0277 -0.8140 15.5092 52.6914 13.0861
# 6 28.0695 56.4601 17.9692 -4.4460 13.0861 48.8501
#
#
#
# Elastic Compliance Matrix: (Units=1/GPa)
#
#
# Indices 1 2 3 4 5 6 
#
# 1 0.009133 -0.000098 -0.002850 -0.004483 0.002305 -0.005112
# 2 -0.000098 0.009607 -0.000537 -0.001869 0.004497 -0.012225
# 3 -0.002850 -0.000537 0.009133 0.004068 -0.000915 -0.000486
# 4 -0.004483 -0.001869 0.004068 0.024673 -0.009242 0.007962
# 5 0.002305 0.004497 -0.000915 -0.009242 0.025497 -0.013857
# 6 -0.005112 -0.012225 -0.000486 0.007962 -0.013857 0.042153
#
#
# Mechanical properties :
#
#
# Convention : Reuss Voigt Hill
#
# Bulk Modulus (GPa) = 47.83739 76.01903 61.92821
# Shear Modulus (GPa) = 37.27656 53.99536 45.63596
#
# Velocity S-wave (km/s) = 3.78399 4.55418 4.18684
# Velocity P-wave (km/s) = 6.12100 7.54019 6.86735
#
# Compressibility (1/GPa) = 0.02090415
#
# Stress axis : x y z
#
# Youngs Moduli (GPa) = 109.49608 104.09304 109.48921
#
# Poissons Ratio (x) = 0.01017 0.31201
# Poissons Ratio (y) = 0.01070 0.05880
# Poissons Ratio (z) = 0.31203 0.05590
#
# Static dielectric constant tensor:
#      x y z
#    x 2.275430 -0.005870 0.084250 
#    y -0.005870 2.141920 0.028360 
#    z 0.084250 0.028360 2.061790 
# 
# From -- ./inp_files/485163.got.cif
#   From: 2010.05.17/outbox.cif.g08.bks.cpg/sg2_243_cif.got.tgz:485163.got - 2010.06.03 11:33:40.
