data_PCOD9047093
_publ_section_title
;
Structure prediction by ZEFSAII (Michael W. Deem and Ramdas Pophale) SiO2 
 PCOD9047093
Probable space group: P -1
;
_chemical_formula_sum "Si O2"
_cell_formula_units_Z 16
_cell_length_a 10.420074
_cell_length_b 8.493716
_cell_length_c 12.275733
_cell_angle_alpha 121.898579
_cell_angle_beta 95.943410
_cell_angle_gamma 119.343177
_cell_volume 700.992693
_symmetry_space_group_name_H-M "P -1"
_symmetry_group_IT_number 2
_symmetry_cell_setting 'triclinic'
loop_
_space_group_symop_operation_xyz
x,y,z
-x,-y,-z
loop_
_atom_site_type_symbol
_atom_site_label
_atom_site_fract_x
_atom_site_fract_y
_atom_site_fract_z
Si Si1 0.961113 0.131275 0.965217
Si Si2 0.320040 0.614447 0.131802
Si Si3 0.412514 0.107612 0.571831
Si Si4 0.864751 0.209124 0.379419
Si Si5 0.078418 0.128175 0.668438
Si Si6 0.415972 0.637530 0.907527
Si Si7 0.262564 0.882280 0.905840
Si Si8 0.785753 0.057068 0.713690
O O1 0.819772 0.984587 0.804657
O O2 0.900854 0.237132 0.079583
O O3 0.140803 0.349680 0.010697
O O4 0.000000 0.000000 0.000000
O O5 0.438347 0.662522 0.259983
O O6 0.275473 0.792383 0.206181
O O7 0.416295 0.654987 0.044424
O O8 0.338582 0.128707 0.461817
O O9 0.500000 0.000000 0.500000
O O10 0.260780 0.914204 0.572117
O O11 0.769184 0.148596 0.236046
O O12 0.000000 0.500000 0.500000
O O13 0.944845 0.077076 0.335427
O O14 0.277064 0.356847 0.761298
O O15 0.000000 0.000000 0.500000
O O16 0.970354 0.202848 0.727849
O O17 0.339903 0.759387 0.901411
O O18 0.608100 0.827284 0.954051
#
# Coordination Sequence:
#
# PCOD9047093 Si02
#       8
#     2   2   2   2   2   2   2   2
#     4  12  25  41  67 101 136 175 229 284 341 405
#     4  11  22  45  75  97 133 188 234 281 343 419
#     4  10  24  43  71  98 131 182 236 277 343 416
#     4  12  26  43  67  98 141 179 230 290 347 411
#     4  12  24  42  68 101 133 184 234 278 349 415
#     4  11  23  43  71 101 137 181 232 289 341 418
#     4  11  25  42  67 104 138 174 226 294 351 395
#     4  11  22  45  70  97 132 179 236 274 338 421
#
# _framework density 22.824774999999999
#
# number of rings (size 3 to 8) (size 9 to 14) (size 15 to 20)
#    0.000    0.750    5.000    2.625    3.500    1.500 
#    0.000    0.625    0.000    0.000    0.000    0.000 
#    0.000    0.000    0.000    0.000    0.000    0.000 
#
# Total GULP energy -89347.815050 kJ/mol
# GULP energy per Si atom -5584.238441 kJ/mol
# Density = 2.277282 g / cm^3
# Si number density = 22.824775 Si / 1000 Ang^3
#
#
#
# Elastic Constant Matrix: (Units=GPa)
#
#
# Indices 1 2 3 4 5 6 
#
# 1 69.5706 9.3251 15.2115 2.7058 6.9677 3.2215
# 2 9.3251 67.9328 46.3688 -5.0823 10.8416 -4.5942
# 3 15.2115 46.3688 148.0254 -12.8707 37.9409 -19.0631
# 4 2.7058 -5.0823 -12.8707 50.9965 -4.7294 2.5182
# 5 6.9677 10.8416 37.9409 -4.7294 39.8386 -10.3487
# 6 3.2215 -4.5942 -19.0631 2.5182 -10.3487 39.7487
#
#
#
# Elastic Compliance Matrix: (Units=1/GPa)
#
#
# Indices 1 2 3 4 5 6 
#
# 1 0.015137 -0.001298 -0.001029 -0.001269 -0.002070 -0.002329
# 2 -0.001298 0.018870 -0.005974 0.000531 0.000735 -0.000421
# 3 -0.001029 -0.005974 0.011261 0.001424 -0.008074 0.002601
# 4 -0.001269 0.000531 0.001424 0.020196 0.001080 -0.000151
# 5 -0.002070 0.000735 -0.008074 0.001080 0.034453 0.005282
# 6 -0.002329 -0.000421 0.002601 -0.000151 0.005282 0.027930
#
#
# Mechanical properties :
#
#
# Convention : Reuss Voigt Hill
#
# Bulk Modulus (GPa) = 34.88289 47.48219 41.18254
# Shear Modulus (GPa) = 32.46632 40.42497 36.44565
#
# Velocity S-wave (km/s) = 3.77558 4.21301 4.00028
# Velocity P-wave (km/s) = 5.85857 6.67188 6.27841
#
# Compressibility (1/GPa) = 0.02866735
#
# Stress axis : x y z
#
# Youngs Moduli (GPa) = 66.06207 52.99332 88.80168
#
# Poissons Ratio (x) = 0.06878 0.09134
# Poissons Ratio (y) = 0.08574 0.53052
# Poissons Ratio (z) = 0.06795 0.31659
#
# Static dielectric constant tensor:
#      x y z
#    x 1.880350 -0.044280 0.019160 
#    y -0.044280 1.886510 -0.030710 
#    z 0.019160 -0.030710 1.882180 
# 
# From -- ./inp_files/419753.got.cif
#   From: 2010.05.17/outbox.cif.g08.bks.cpg/sg2_210_cif.got.tgz:419753.got - 2010.06.03 11:33:40.
