data_PCOD9047109
_publ_section_title
;
Structure prediction by ZEFSAII (Michael W. Deem and Ramdas Pophale) SiO2 
 PCOD9047109
Probable space group: P -1
;
_chemical_formula_sum "Si O2"
_cell_formula_units_Z 16
_cell_length_a 11.848814
_cell_length_b 11.780253
_cell_length_c 5.445837
_cell_angle_alpha 107.835142
_cell_angle_beta 112.046238
_cell_angle_gamma 72.391898
_cell_volume 655.374963
_symmetry_space_group_name_H-M "P -1"
_symmetry_group_IT_number 2
_symmetry_cell_setting 'triclinic'
loop_
_space_group_symop_operation_xyz
x,y,z
-x,-y,-z
loop_
_atom_site_type_symbol
_atom_site_label
_atom_site_fract_x
_atom_site_fract_y
_atom_site_fract_z
Si Si1 0.574010 0.465771 0.289420
Si Si2 0.286158 0.863830 0.420144
Si Si3 0.084887 0.300780 0.116592
Si Si4 0.100016 0.114220 0.377694
Si Si5 0.890331 0.276659 0.572663
Si Si6 0.574058 0.193045 0.020694
Si Si7 0.179954 0.489745 0.616163
Si Si8 0.722671 0.725651 0.121736
O O1 0.500000 0.500000 0.500000
O O2 0.610003 0.321386 0.193438
O O3 0.689359 0.530714 0.437856
O O4 0.500000 0.500000 0.000000
O O5 0.218198 0.753234 0.363635
O O6 0.362539 0.886659 0.745700
O O7 0.174680 0.978012 0.349558
O O8 0.372187 0.844151 0.232579
O O9 0.059909 0.176174 0.126067
O O10 0.087384 0.414039 0.369340
O O11 0.223870 0.263693 0.096430
O O12 0.980917 0.339603 0.851725
O O13 0.198325 0.195248 0.603220
O O14 0.976506 0.150226 0.464725
O O15 0.861001 0.365535 0.369577
O O16 0.423581 0.222829 0.928640
O O17 0.227863 0.417030 0.856228
#
# Coordination Sequence:
#
# PCOD9047109 Si02
#       8
#     2   2   2   2   2   2   2   2
#     4  12  24  42  72 104 150 190 227 289 360 433
#     4  12  29  47  76 104 146 189 247 295 356 419
#     4  10  24  43  71  99 144 187 241 291 364 414
#     4  10  26  48  69 101 137 194 245 302 349 415
#     4  11  25  45  71 103 143 186 244 297 361 425
#     4  12  27  46  73 112 144 190 237 292 361 430
#     4  11  23  40  69 104 143 180 234 291 364 430
#     4  10  24  44  71 102 146 181 237 291 365 429
#
# _framework density 24.413506999999999
#
# number of rings (size 3 to 8) (size 9 to 14) (size 15 to 20)
#    0.000    1.000    2.500    2.250    8.750    7.000 
#    0.000    0.000    0.000    0.000    0.000    0.000 
#    0.000    0.000    0.000    0.000    0.000    0.000 
#
# Total GULP energy -89348.776857 kJ/mol
# GULP energy per Si atom -5584.298554 kJ/mol
# Density = 2.435794 g / cm^3
# Si number density = 24.413507 Si / 1000 Ang^3
#
#
#
# Elastic Constant Matrix: (Units=GPa)
#
#
# Indices 1 2 3 4 5 6 
#
# 1 130.1229 10.2966 49.5778 -7.9092 -19.0451 -8.6674
# 2 10.2966 94.9109 21.8228 -21.4649 -15.3622 -13.0274
# 3 49.5778 21.8228 80.3592 -15.0053 -24.6161 -11.9738
# 4 -7.9092 -21.4649 -15.0053 26.4977 4.6973 3.7734
# 5 -19.0451 -15.3622 -24.6161 4.6973 43.4846 4.0746
# 6 -8.6674 -13.0274 -11.9738 3.7734 4.0746 31.7747
#
#
#
# Elastic Compliance Matrix: (Units=1/GPa)
#
#
# Indices 1 2 3 4 5 6 
#
# 1 0.010120 0.000491 -0.005970 -0.000259 0.001199 0.000589
# 2 0.000491 0.013968 -0.000613 0.009948 0.003351 0.004018
# 3 -0.005970 -0.000613 0.020638 0.007476 0.007667 0.004026
# 4 -0.000259 0.009948 0.007476 0.049464 0.002227 0.000665
# 5 0.001199 0.003351 0.007667 0.002227 0.028745 0.000640
# 6 0.000589 0.004018 0.004026 0.000665 0.000640 0.034636
#
#
# Mechanical properties :
#
#
# Convention : Reuss Voigt Hill
#
# Bulk Modulus (GPa) = 30.72998 52.08749 41.40873
# Shear Modulus (GPa) = 27.68501 35.26444 31.47473
#
# Velocity S-wave (km/s) = 3.37115 3.80473 3.59449
# Velocity P-wave (km/s) = 5.26949 6.37834 5.85024
#
# Compressibility (1/GPa) = 0.03254151
#
# Stress axis : x y z
#
# Youngs Moduli (GPa) = 98.81589 71.59376 48.45325
#
# Poissons Ratio (x) = -0.03517 0.28927
# Poissons Ratio (y) = -0.04854 0.02972
# Poissons Ratio (z) = 0.58994 0.04391
#
# Static dielectric constant tensor:
#      x y z
#    x 1.968520 -0.031280 0.000300 
#    y -0.031280 1.963170 -0.061740 
#    z 0.000300 -0.061740 2.005930 
# 
# From -- ./inp_files/71410.got.cif
#   From: 2010.05.17/outbox.cif.g08.bks.cpg/sg2_36_cif.got.tgz:71410.got - 2010.06.03 11:33:40.
