data_PCOD9047018
_publ_section_title
;
Structure prediction by ZEFSAII (Michael W. Deem and Ramdas Pophale) SiO2 
 PCOD9047018
Probable space group: P -1
;
_chemical_formula_sum "Si O2"
_cell_formula_units_Z 14
_cell_length_a 6.091474
_cell_length_b 11.670147
_cell_length_c 21.344679
_cell_angle_alpha 142.001706
_cell_angle_beta 41.917161
_cell_angle_gamma 128.592973
_cell_volume 621.473994
_symmetry_space_group_name_H-M "P -1"
_symmetry_group_IT_number 2
_symmetry_cell_setting 'triclinic'
loop_
_space_group_symop_operation_xyz
x,y,z
-x,-y,-z
loop_
_atom_site_type_symbol
_atom_site_label
_atom_site_fract_x
_atom_site_fract_y
_atom_site_fract_z
Si Si1 0.634589 0.550540 0.925035
Si Si2 0.647049 0.238873 0.143125
Si Si3 0.313363 0.236867 0.441293
Si Si4 0.439325 0.147566 0.761102
Si Si5 0.618112 0.518402 0.587363
Si Si6 0.704272 0.082653 0.552157
Si Si7 0.312333 0.835753 0.039835
O O1 0.657414 0.344772 0.804204
O O2 0.967309 0.687027 0.907314
O O3 0.500000 0.500000 0.000000
O O4 0.362561 0.661523 0.997473
O O5 0.492559 0.387142 0.284948
O O6 0.520581 0.027700 0.100529
O O7 0.559491 0.222222 0.080765
O O8 0.471938 0.316555 0.506879
O O9 0.451423 0.349170 0.399877
O O10 0.928565 0.249717 0.542322
O O11 0.383070 0.023826 0.322374
O O12 0.425517 0.117295 0.676519
O O13 0.077986 0.141073 0.865733
O O14 0.000000 0.500000 0.500000
O O15 0.500000 0.000000 0.500000
O O16 0.000000 0.000000 0.500000
#
# Coordination Sequence:
#
# PCOD9047018 Si02
#       7
#     2   2   2   2   2   2   2
#     4  12  26  46  71 109 146 193 250 308 376 444
#     4  11  26  46  74 101 150 191 243 305 375 447
#     4  10  25  46  67 110 143 189 254 310 377 460
#     4  11  24  46  74 105 147 191 246 314 383 445
#     4  11  25  45  75 104 143 195 249 307 382 455
#     4  10  24  43  70 108 145 194 246 307 385 451
#     4  11  26  47  70 111 141 196 249 299 376 454
#
# _framework density 22.527087999999999
#
# number of rings (size 3 to 8) (size 9 to 14) (size 15 to 20)
#    0.000    1.143    1.429    2.571    8.000    6.857 
#    0.000    0.000    0.000    0.000    0.000    0.000 
#    0.000    0.000    0.000    0.000    0.000    0.000 
#
# Total GULP energy -77992.397839 kJ/mol
# GULP energy per Si atom -5570.885560 kJ/mol
# Density = 2.247582 g / cm^3
# Si number density = 22.527088 Si / 1000 Ang^3
#
#
#
# Elastic Constant Matrix: (Units=GPa)
#
#
# Indices 1 2 3 4 5 6 
#
# 1 69.2505 17.7785 35.5389 8.9450 18.4669 13.0210
# 2 17.7785 93.8175 16.3816 10.2146 -6.4866 19.3223
# 3 35.5389 16.3816 110.7969 -13.6110 16.3096 -4.5523
# 4 8.9450 10.2146 -13.6110 42.4464 -4.0688 0.4586
# 5 18.4669 -6.4866 16.3096 -4.0688 32.2229 0.6968
# 6 13.0210 19.3223 -4.5523 0.4586 0.6968 52.9935
#
#
#
# Elastic Compliance Matrix: (Units=1/GPa)
#
#
# Indices 1 2 3 4 5 6 
#
# 1 0.023416 -0.002126 -0.006684 -0.007593 -0.011308 -0.005338
# 2 -0.002126 0.013091 -0.002521 -0.002997 0.004849 -0.004505
# 3 -0.006684 -0.002521 0.012774 0.005834 -0.002484 0.003641
# 4 -0.007593 -0.002997 0.005834 0.028127 0.004279 0.003160
# 5 -0.011308 0.004849 -0.002484 0.004279 0.040283 0.000230
# 6 -0.005338 -0.004505 0.003641 0.003160 0.000230 0.022107
#
#
# Mechanical properties :
#
#
# Convention : Reuss Voigt Hill
#
# Bulk Modulus (GPa) = 37.56530 45.91809 41.74170
# Shear Modulus (GPa) = 29.18268 39.14361 34.16315
#
# Velocity S-wave (km/s) = 3.60314 4.17300 3.89850
# Velocity P-wave (km/s) = 5.83283 6.60654 6.23171
#
# Compressibility (1/GPa) = 0.02662031
#
# Stress axis : x y z
#
# Youngs Moduli (GPa) = 42.70527 76.38553 78.28285
#
# Poissons Ratio (x) = 0.16240 0.52325
# Poissons Ratio (y) = 0.09079 0.19733
# Poissons Ratio (z) = 0.28545 0.19255
#
# Static dielectric constant tensor:
#      x y z
#    x 1.856950 -0.008710 -0.003950 
#    y -0.008710 1.872480 -0.134300 
#    z -0.003950 -0.134300 1.430530 
# 
# From -- ./inp_files/133978.got.cif
#   From: 2010.05.17/outbox.cif.g08.bks.cpg/sg2_67_cif.got.tgz:133978.got - 2010.06.03 11:33:40.
