data_PCOD9047759
_publ_section_title
;
Structure prediction by ZEFSAII (Michael W. Deem and Ramdas Pophale) SiO2 
 PCOD9047759
Probable space group: P -1
;
_chemical_formula_sum "Si O2"
_cell_formula_units_Z 14
_cell_length_a 14.740032
_cell_length_b 4.782627
_cell_length_c 16.237794
_cell_angle_alpha 105.125456
_cell_angle_beta 30.833777
_cell_angle_gamma 96.669427
_cell_volume 552.755314
_symmetry_space_group_name_H-M "P -1"
_symmetry_group_IT_number 2
_symmetry_cell_setting 'triclinic'
loop_
_space_group_symop_operation_xyz
x,y,z
-x,-y,-z
loop_
_atom_site_type_symbol
_atom_site_label
_atom_site_fract_x
_atom_site_fract_y
_atom_site_fract_z
Si Si1 0.819434 0.798420 0.812404
Si Si2 0.072316 0.552517 0.856871
Si Si3 0.446887 0.462259 0.326375
Si Si4 0.695284 0.864109 0.093059
Si Si5 0.146120 0.616741 0.453171
Si Si6 0.688369 0.082197 0.386879
Si Si7 0.688065 0.267123 0.828269
O O1 0.819456 0.449808 0.786210
O O2 0.020998 0.822018 0.633312
O O3 0.701996 0.963020 0.841034
O O4 0.730317 0.926531 0.975441
O O5 0.218616 0.756259 0.744875
O O6 0.170406 0.224263 0.724216
O O7 0.000000 0.500000 0.000000
O O8 0.893435 0.728436 0.963516
O O9 0.577361 0.623231 0.184001
O O10 0.295167 0.403586 0.376116
O O11 0.356039 0.686505 0.485750
O O12 0.572287 0.170005 0.244962
O O13 0.249067 0.772509 0.317657
O O14 0.000000 0.500000 0.500000
O O15 0.500000 0.000000 0.500000
O O16 0.500000 0.500000 0.000000
#
# Coordination Sequence:
#
# PCOD9047759 Si02
#       7
#     2   2   2   2   2   2   2
#     4  11  23  40  64  94 135 180 233 294 360 432
#     4  12  27  50  80 114 153 200 250 314 386 461
#     4  12  27  48  74 108 150 197 253 313 375 452
#     4  12  26  47  73 109 148 196 251 311 376 453
#     4  10  24  44  70 102 143 193 248 310 377 446
#     4  12  27  50  80 115 154 199 251 314 384 460
#     4  11  22  39  63  94 130 179 234 296 359 430
#
# _framework density 25.327662
#
# number of rings (size 3 to 8) (size 9 to 14) (size 15 to 20)
#    0.000    0.571    0.000    7.714    0.000    9.143 
#    0.000    0.000    0.000    0.000    0.000    0.000 
#    0.000    0.000    0.000    0.000    0.000    0.000 
#
# Total GULP energy -78377.316354 kJ/mol
# GULP energy per Si atom -5598.379740 kJ/mol
# Density = 2.527001 g / cm^3
# Si number density = 25.327662 Si / 1000 Ang^3
#
#
#
# Elastic Constant Matrix: (Units=GPa)
#
#
# Indices 1 2 3 4 5 6 
#
# 1 111.5486 40.8576 45.0458 4.2003 -17.9154 1.1920
# 2 40.8576 159.5897 60.2113 16.4682 -16.7875 -1.1405
# 3 45.0458 60.2113 151.7910 -1.1795 -19.9830 1.2684
# 4 4.2003 16.4682 -1.1795 60.6070 -6.1155 2.1456
# 5 -17.9154 -16.7875 -19.9830 -6.1155 33.9961 6.9464
# 6 1.1920 -1.1405 1.2684 2.1456 6.9464 25.2212
#
#
#
# Elastic Compliance Matrix: (Units=1/GPa)
#
#
# Indices 1 2 3 4 5 6 
#
# 1 0.011087 -0.001640 -0.002076 0.000116 0.004171 -0.001652
# 2 -0.001640 0.007976 -0.002547 -0.002004 0.001129 0.000426
# 3 -0.002076 -0.002547 0.008672 0.001390 0.003298 -0.001480
# 4 0.000116 -0.002004 0.001390 0.017518 0.003580 -0.002642
# 5 0.004171 0.001129 0.003298 0.003580 0.036959 -0.010796
# 6 -0.001652 0.000426 -0.001480 -0.002642 -0.010796 0.043019
#
#
# Mechanical properties :
#
#
# Convention : Reuss Voigt Hill
#
# Bulk Modulus (GPa) = 65.75682 79.46208 72.60945
# Shear Modulus (GPa) = 35.00736 42.41917 38.71326
#
# Velocity S-wave (km/s) = 3.72180 4.09689 3.91384
# Velocity P-wave (km/s) = 6.66992 7.33629 7.01103
#
# Compressibility (1/GPa) = 0.01520755
#
# Stress axis : x y z
#
# Youngs Moduli (GPa) = 90.19649 125.37938 115.31597
#
# Poissons Ratio (x) = 0.20567 0.23936
# Poissons Ratio (y) = 0.14795 0.29376
# Poissons Ratio (z) = 0.18722 0.31940
#
# Static dielectric constant tensor:
#      x y z
#    x 2.048610 0.023300 -0.026140 
#    y 0.023300 1.979110 -0.009980 
#    z -0.026140 -0.009980 2.040250 
# 
# From -- ./inp_files/525732.got.cif
#   From: 2010.05.17/outbox.cif.g08.bks.cpg/sg2_263_cif.got.tgz:525732.got - 2010.06.03 11:33:40.
