data_PCOD9047175
_publ_section_title
;
Structure prediction by ZEFSAII (Michael W. Deem and Ramdas Pophale) SiO2 
 PCOD9047175
Probable space group: P -1
;
_chemical_formula_sum "Si O2"
_cell_formula_units_Z 16
_cell_length_a 5.526537
_cell_length_b 20.739601
_cell_length_c 12.515926
_cell_angle_alpha 36.833825
_cell_angle_beta 55.465785
_cell_angle_gamma 49.728820
_cell_volume 652.323023
_symmetry_space_group_name_H-M "P -1"
_symmetry_group_IT_number 2
_symmetry_cell_setting 'triclinic'
loop_
_space_group_symop_operation_xyz
x,y,z
-x,-y,-z
loop_
_atom_site_type_symbol
_atom_site_label
_atom_site_fract_x
_atom_site_fract_y
_atom_site_fract_z
Si Si1 0.248605 0.905129 0.780172
Si Si2 0.559253 0.077667 0.708013
Si Si3 0.323228 0.190438 0.391709
Si Si4 0.374605 0.434500 0.031744
Si Si5 0.599851 0.144704 0.942257
Si Si6 0.345174 0.504274 0.420501
Si Si7 0.680423 0.252005 0.575649
Si Si8 0.905013 0.307811 0.908605
O O1 0.551685 0.874255 0.667073
O O2 0.303787 0.878820 0.926907
O O3 0.118870 0.810734 0.893812
O O4 0.946090 0.024221 0.686478
O O5 0.467870 0.106364 0.568715
O O6 0.453123 0.194548 0.652578
O O7 0.459570 0.973500 0.914664
O O8 0.401313 0.305981 0.229943
O O9 0.947909 0.238701 0.439211
O O10 0.500000 0.500000 0.000000
O O11 0.664271 0.408233 0.909376
O O12 0.000000 0.500000 0.000000
O O13 0.798442 0.172554 0.759892
O O14 0.281677 0.265125 0.861522
O O15 0.500000 0.500000 0.500000
O O16 0.556768 0.387088 0.459677
O O17 0.268657 0.638112 0.228512
O O18 0.000000 0.500000 0.500000
#
# Coordination Sequence:
#
# PCOD9047175 Si02
#       8
#     2   2   2   2   2   2   2   2
#     4  10  24  48  73 104 148 203 251 321 384 470
#     4  11  26  44  73 109 149 199 262 317 391 453
#     4  11  27  45  75 112 151 198 259 318 391 458
#     4  11  27  47  75 109 153 199 250 314 384 454
#     4  11  24  48  73 105 152 203 260 310 394 456
#     4  12  27  47  75 109 152 200 253 312 386 458
#     4  12  27  45  75 111 153 198 256 326 382 463
#     4  10  24  43  73 103 145 200 249 312 380 463
#
# _framework density 24.527723999999999
#
# number of rings (size 3 to 8) (size 9 to 14) (size 15 to 20)
#    0.000    1.000    1.250    3.000    8.750    8.000 
#    0.000    0.000    0.000    0.000    0.000    0.000 
#    0.000    0.000    0.000    0.000    0.000    0.000 
#
# Total GULP energy -89199.343493 kJ/mol
# GULP energy per Si atom -5574.958968 kJ/mol
# Density = 2.447190 g / cm^3
# Si number density = 24.527724 Si / 1000 Ang^3
#
#
#
# Elastic Constant Matrix: (Units=GPa)
#
#
# Indices 1 2 3 4 5 6 
#
# 1 54.9431 21.4269 -10.8325 -6.0663 1.1347 15.7615
# 2 21.4269 93.5264 0.7964 -12.0385 -9.1302 2.1326
# 3 -10.8325 0.7964 84.2327 -14.0731 -7.7350 0.7855
# 4 -6.0663 -12.0385 -14.0731 46.2084 3.4479 -2.0574
# 5 1.1347 -9.1302 -7.7350 3.4479 46.2382 -7.4812
# 6 15.7615 2.1326 0.7855 -2.0574 -7.4812 31.1496
#
#
#
# Elastic Compliance Matrix: (Units=1/GPa)
#
#
# Indices 1 2 3 4 5 6 
#
# 1 0.025154 -0.005491 0.003532 0.002620 -0.003424 -0.013090
# 2 -0.005491 0.012472 -0.000192 0.002382 0.002836 0.002768
# 3 0.003532 -0.000192 0.013192 0.004253 0.001529 -0.001459
# 4 0.002620 0.002382 0.004253 0.023945 -0.000698 -0.000182
# 5 -0.003424 0.002836 0.001529 -0.000698 0.023737 0.007155
# 6 -0.013090 0.002768 -0.001459 -0.000182 0.007155 0.040280
#
#
# Mechanical properties :
#
#
# Convention : Reuss Voigt Hill
#
# Bulk Modulus (GPa) = 21.49772 28.38709 24.94241
# Shear Modulus (GPa) = 31.52848 39.47331 35.50090
#
# Velocity S-wave (km/s) = 3.58917 4.01600 3.80857
# Velocity P-wave (km/s) = 5.09508 5.75352 5.43428
#
# Compressibility (1/GPa) = 0.04651656
#
# Stress axis : x y z
#
# Youngs Moduli (GPa) = 39.75569 80.17867 75.80092
#
# Poissons Ratio (x) = 0.44029 -0.26774
# Poissons Ratio (y) = 0.21831 0.01452
# Poissons Ratio (z) = -0.14042 0.01536
#
# Static dielectric constant tensor:
#      x y z
#    x 2.044560 0.156750 -0.004620 
#    y 0.156750 2.390050 -0.020960 
#    z -0.004620 -0.020960 1.276180 
# 
# From -- ./inp_files/370331.got.cif
#   From: 2010.05.17/outbox.cif.g08.bks.cpg/sg2_186_cif.got.tgz:370331.got - 2010.06.03 11:33:40.
