data_PCOD9047831
_publ_section_title
;
Structure prediction by ZEFSAII (Michael W. Deem and Ramdas Pophale) SiO2 
 PCOD9047831
Probable space group: P -1
;
_chemical_formula_sum "Si O2"
_cell_formula_units_Z 14
_cell_length_a 7.691752
_cell_length_b 11.191457
_cell_length_c 16.172858
_cell_angle_alpha 35.271957
_cell_angle_beta 127.712879
_cell_angle_gamma 115.126641
_cell_volume 627.398389
_symmetry_space_group_name_H-M "P -1"
_symmetry_group_IT_number 2
_symmetry_cell_setting 'triclinic'
loop_
_space_group_symop_operation_xyz
x,y,z
-x,-y,-z
loop_
_atom_site_type_symbol
_atom_site_label
_atom_site_fract_x
_atom_site_fract_y
_atom_site_fract_z
Si Si1 0.953999 0.715581 0.478998
Si Si2 0.223454 0.587582 0.039997
Si Si3 0.962878 0.251398 0.706773
Si Si4 0.692492 0.121636 0.949731
Si Si5 0.601443 0.175903 0.379738
Si Si6 0.550151 0.144353 0.715419
Si Si7 0.430177 0.747831 0.859250
O O1 0.008102 0.464104 0.640589
O O2 0.714302 0.790699 0.406887
O O3 0.948190 0.763952 0.352118
O O4 0.157550 0.807072 0.524734
O O5 0.236355 0.714921 0.056348
O O6 0.426541 0.392790 0.214286
O O7 0.258245 0.742742 0.886787
O O8 0.000000 0.500000 0.000000
O O9 0.700654 0.244524 0.638116
O O10 0.093355 0.053581 0.903288
O O11 0.609169 0.213634 0.785216
O O12 0.500000 0.000000 0.000000
O O13 0.631167 0.145106 0.307266
O O14 0.500000 0.000000 0.500000
O O15 0.601487 0.890691 0.864676
O O16 0.500000 0.500000 0.000000
#
# Coordination Sequence:
#
# PCOD9047831 Si02
#       7
#     2   2   2   2   2   2   2
#     4  11  25  45  69 100 152 180 227 302 357 421
#     4  11  26  46  74 104 141 190 243 291 359 429
#     4  11  25  43  70 103 142 182 234 294 356 422
#     4  12  23  45  75  99 139 185 238 291 352 417
#     4  11  26  46  72 102 144 192 237 291 368 426
#     4  12  25  45  73 106 137 188 242 289 358 430
#     4  10  24  44  70  97 145 180 241 293 348 419
#
# _framework density 22.314371000000001
#
# number of rings (size 3 to 8) (size 9 to 14) (size 15 to 20)
#    0.000    0.857    2.857    2.571   12.000    1.714 
#    5.143    0.000    0.000    0.000    0.000    0.000 
#    0.000    0.000    0.000    0.000    0.000    0.000 
#
# Total GULP energy -78258.823734 kJ/mol
# GULP energy per Si atom -5589.915981 kJ/mol
# Density = 2.226358 g / cm^3
# Si number density = 22.314371 Si / 1000 Ang^3
#
#
#
# Elastic Constant Matrix: (Units=GPa)
#
#
# Indices 1 2 3 4 5 6 
#
# 1 72.7457 37.4238 28.4074 -7.7653 7.5354 11.1303
# 2 37.4238 157.2280 31.5375 3.3422 1.4402 0.1669
# 3 28.4074 31.5375 80.6249 4.4648 6.8483 -3.0723
# 4 -7.7653 3.3422 4.4648 19.0649 14.5507 2.1951
# 5 7.5354 1.4402 6.8483 14.5507 36.3305 2.6315
# 6 11.1303 0.1669 -3.0723 2.1951 2.6315 44.0130
#
#
#
# Elastic Compliance Matrix: (Units=1/GPa)
#
#
# Indices 1 2 3 4 5 6 
#
# 1 0.023240 -0.004489 -0.006902 0.021348 -0.011404 -0.006725
# 2 -0.004489 0.007789 -0.001380 -0.005199 0.002886 0.001096
# 3 -0.006902 -0.001380 0.015805 -0.007662 0.001347 0.003156
# 4 0.021348 -0.005199 -0.007662 0.095731 -0.040520 -0.008266
# 5 -0.011404 0.002886 0.001347 -0.040520 0.045587 0.002262
# 6 -0.006725 0.001096 0.003156 -0.008266 0.002262 0.024914
#
#
# Mechanical properties :
#
#
# Convention : Reuss Voigt Hill
#
# Bulk Modulus (GPa) = 46.96960 56.14844 51.55902
# Shear Modulus (GPa) = 20.34950 34.09700 27.22325
#
# Velocity S-wave (km/s) = 3.02312 3.91324 3.49662
# Velocity P-wave (km/s) = 5.76892 6.75537 6.28154
#
# Compressibility (1/GPa) = 0.02129037
#
# Stress axis : x y z
#
# Youngs Moduli (GPa) = 43.02846 128.39363 63.27091
#
# Poissons Ratio (x) = 0.57642 0.43671
# Poissons Ratio (y) = 0.19317 0.08733
# Poissons Ratio (z) = 0.29699 0.17721
#
# Static dielectric constant tensor:
#      x y z
#    x 1.835980 -0.016250 0.012000 
#    y -0.016250 1.856710 -0.028030 
#    z 0.012000 -0.028030 1.850950 
# 
# From -- ./inp_files/559612.got.cif
#   From: 2010.05.17/outbox.cif.g08.bks.cpg/sg2_280_cif.got.tgz:559612.got - 2010.06.03 11:33:40.
