data_PCOD9047469
_publ_section_title
;
Structure prediction by ZEFSAII (Michael W. Deem and Ramdas Pophale) SiO2 
 PCOD9047469
Probable space group: P -1
;
_chemical_formula_sum "Si O2"
_cell_formula_units_Z 14
_cell_length_a 9.776428
_cell_length_b 14.872515
_cell_length_c 9.715007
_cell_angle_alpha 112.773010
_cell_angle_beta 103.649564
_cell_angle_gamma 26.275007
_cell_volume 554.796329
_symmetry_space_group_name_H-M "P -1"
_symmetry_group_IT_number 2
_symmetry_cell_setting 'triclinic'
loop_
_space_group_symop_operation_xyz
x,y,z
-x,-y,-z
loop_
_atom_site_type_symbol
_atom_site_label
_atom_site_fract_x
_atom_site_fract_y
_atom_site_fract_z
Si Si1 0.909465 0.282036 0.693247
Si Si2 0.717736 0.708780 0.458199
Si Si3 0.848242 0.544732 0.857805
Si Si4 0.324692 0.845498 0.258498
Si Si5 0.157141 0.018028 0.844490
Si Si6 0.721578 0.427065 0.171264
Si Si7 0.156506 0.160341 0.370869
O O1 0.839681 0.434981 0.812478
O O2 0.590534 0.419963 0.734962
O O3 0.163416 0.076285 0.739452
O O4 0.973287 0.249694 0.524332
O O5 0.425039 0.817134 0.420894
O O6 0.000000 0.500000 0.500000
O O7 0.904653 0.594358 0.290212
O O8 0.635006 0.872803 0.570197
O O9 0.498883 0.796729 0.869725
O O10 0.000000 0.500000 0.000000
O O11 0.594418 0.595575 0.148116
O O12 0.995094 0.992826 0.237016
O O13 0.304761 0.962756 0.249621
O O14 0.907294 0.231415 0.009601
O O15 0.947496 0.320136 0.285158
#
# Coordination Sequence:
#
# PCOD9047469 Si02
#       7
#     2   2   2   2   2   2   2
#     4  10  24  44  67 108 141 178 241 287 352 415
#     4  11  25  48  72 103 145 185 234 290 354 416
#     4  11  28  47  72 102 144 185 234 298 349 418
#     4  11  24  45  74 102 145 183 238 284 352 415
#     4  11  27  46  73 104 141 192 234 286 353 422
#     4  11  24  43  73 103 146 184 237 290 343 424
#     4  11  24  41  72 105 142 185 235 289 352 409
#
# _framework density 25.234484999999999
#
# number of rings (size 3 to 8) (size 9 to 14) (size 15 to 20)
#    0.000    1.143    1.429    3.429    8.000    5.143 
#    0.000    0.000    0.000    0.000    0.000    0.000 
#    0.000    0.000    0.000    0.000    0.000    0.000 
#
# Total GULP energy -78264.055638 kJ/mol
# GULP energy per Si atom -5590.289688 kJ/mol
# Density = 2.517705 g / cm^3
# Si number density = 25.234485 Si / 1000 Ang^3
#
#
#
# Elastic Constant Matrix: (Units=GPa)
#
#
# Indices 1 2 3 4 5 6 
#
# 1 121.5627 37.0330 54.0795 14.9915 19.4242 -2.2944
# 2 37.0330 132.8004 33.0833 -17.6449 13.9530 7.1671
# 3 54.0795 33.0833 142.5241 -14.7496 -1.8175 -14.5061
# 4 14.9915 -17.6449 -14.7496 37.1970 0.3901 7.5351
# 5 19.4242 13.9530 -1.8175 0.3901 37.0308 -0.9762
# 6 -2.2944 7.1671 -14.5061 7.5351 -0.9762 40.8493
#
#
#
# Elastic Compliance Matrix: (Units=1/GPa)
#
#
# Indices 1 2 3 4 5 6 
#
# 1 0.013748 -0.003118 -0.005437 -0.009305 -0.006180 0.000957
# 2 -0.003118 0.009872 -0.000831 0.006327 -0.002282 -0.003424
# 3 -0.005437 -0.000831 0.010123 0.005255 0.003674 0.002554
# 4 -0.009305 0.006327 0.005255 0.037022 0.002192 -0.006543
# 5 -0.006180 -0.002282 0.003674 0.002192 0.031308 0.001702
# 6 0.000957 -0.003424 0.002554 -0.006543 0.001702 0.027289
#
#
# Mechanical properties :
#
#
# Convention : Reuss Voigt Hill
#
# Bulk Modulus (GPa) = 66.79897 71.69764 69.24830
# Shear Modulus (GPa) = 32.65309 41.19485 36.92397
#
# Velocity S-wave (km/s) = 3.60111 4.04478 3.82937
# Velocity P-wave (km/s) = 6.61962 7.09140 6.85957
#
# Compressibility (1/GPa) = 0.01497029
#
# Stress axis : x y z
#
# Youngs Moduli (GPa) = 72.73810 101.29763 98.78502
#
# Poissons Ratio (x) = 0.31584 0.53711
# Poissons Ratio (y) = 0.22679 0.08211
# Poissons Ratio (z) = 0.39549 0.08420
#
# Static dielectric constant tensor:
#      x y z
#    x 2.098710 0.109640 -0.006690 
#    y 0.109640 2.259710 -0.020060 
#    z -0.006690 -0.020060 2.036650 
# 
# From -- ./inp_files/279648.got.cif
#   From: 2010.05.17/outbox.cif.g08.bks.cpg/sg2_140_cif.got.tgz:279648.got - 2010.06.03 11:33:40.
