data_PCOD9047961
_publ_section_title
;
Structure prediction by ZEFSAII (Michael W. Deem and Ramdas Pophale) SiO2 
 PCOD9047961
Probable space group: P -1
;
_chemical_formula_sum "Si O2"
_cell_formula_units_Z 15
_cell_length_a 27.762581
_cell_length_b 16.527384
_cell_length_c 5.076115
_cell_angle_alpha 70.401979
_cell_angle_beta 102.380904
_cell_angle_gamma 161.011539
_cell_volume 672.635684
_symmetry_space_group_name_H-M "P -1"
_symmetry_group_IT_number 2
_symmetry_cell_setting 'triclinic'
loop_
_space_group_symop_operation_xyz
x,y,z
-x,-y,-z
loop_
_atom_site_type_symbol
_atom_site_label
_atom_site_fract_x
_atom_site_fract_y
_atom_site_fract_z
Si Si1 0.551250 0.139316 0.162874
Si Si2 0.500000 0.500000 0.500000
Si Si3 0.375165 0.028850 0.057408
Si Si4 0.022631 0.440319 0.497758
Si Si5 0.857897 0.091925 0.188103
Si Si6 0.121757 0.234407 0.104865
Si Si7 0.166459 0.147662 0.555506
Si Si8 0.499319 0.673584 0.622632
O O1 0.462152 0.082153 0.112121
O O2 0.500000 0.000000 0.500000
O O3 0.733653 0.461992 0.079821
O O4 0.500000 0.000000 0.000000
O O5 0.520467 0.611060 0.624905
O O6 0.675686 0.811533 0.244187
O O7 0.456516 0.231142 0.131914
O O8 0.394897 0.096201 0.709584
O O9 0.201047 0.726185 0.295821
O O10 0.921680 0.253596 0.325114
O O11 0.000000 0.500000 0.500000
O O12 0.961124 0.278955 0.842958
O O13 0.859041 0.993718 0.389372
O O14 0.206455 0.286123 0.237762
O O15 0.999880 0.087398 0.298506
O O16 0.000000 0.000000 0.000000
O O17 0.315621 0.393573 0.658262
#
# Coordination Sequence:
#
# PCOD9047961 Si02
#       8
#     2   1   2   2   2   2   2   2
#     4  12  29  46  71 105 144 188 243 297 365 429
#     4  10  24  44  72 102 140 174 226 300 340 412
#     4  12  25  44  71  94 143 184 232 278 358 424
#     4  12  26  45  68 102 141 186 229 285 349 429
#     4  11  26  43  71 103 136 179 238 282 352 412
#     4  11  25  45  74  98 144 186 240 300 362 425
#     4  10  25  41  69 100 135 176 239 292 349 422
#     4  11  23  44  69 103 132 184 229 287 353 420
#
# _framework density 22.300335
#
# number of rings (size 3 to 8) (size 9 to 14) (size 15 to 20)
#    0.000    0.800    1.333    4.400    9.333    4.267 
#    0.000    0.000    0.000    0.000    0.000    0.000 
#    0.000    0.000    0.000    0.000    0.000    0.000 
#
# Total GULP energy -83523.012976 kJ/mol
# GULP energy per Si atom -5568.200865 kJ/mol
# Density = 2.224958 g / cm^3
# Si number density = 22.300335 Si / 1000 Ang^3
#
#
#
# Elastic Constant Matrix: (Units=GPa)
#
#
# Indices 1 2 3 4 5 6 
#
# 1 96.7820 21.3321 22.9371 -10.4373 -8.7683 -9.3997
# 2 21.3321 124.4388 48.6064 -28.6742 -6.5111 -12.9645
# 3 22.9371 48.6064 96.5804 -18.8428 -12.4375 -7.1090
# 4 -10.4373 -28.6742 -18.8428 46.7789 4.2480 -7.5104
# 5 -8.7683 -6.5111 -12.4375 4.2480 29.7337 -5.5771
# 6 -9.3997 -12.9645 -7.1090 -7.5104 -5.5771 32.9318
#
#
#
# Elastic Compliance Matrix: (Units=1/GPa)
#
#
# Indices 1 2 3 4 5 6 
#
# 1 0.011655 -0.000362 -0.001479 0.002119 0.003165 0.003884
# 2 -0.000362 0.011716 -0.004114 0.006200 0.000823 0.005174
# 3 -0.001479 -0.004114 0.014093 0.002795 0.004612 0.002419
# 4 0.002119 0.006200 0.002795 0.028333 0.001033 0.010285
# 5 0.003165 0.000823 0.004612 0.001033 0.038202 0.008928
# 6 0.003884 0.005174 0.002419 0.010285 0.008928 0.037891
#
#
# Mechanical properties :
#
#
# Convention : Reuss Voigt Hill
#
# Bulk Modulus (GPa) = 39.13178 55.95026 47.54102
# Shear Modulus (GPa) = 30.80372 36.88393 33.84383
#
# Velocity S-wave (km/s) = 3.72063 4.07131 3.89991
# Velocity P-wave (km/s) = 6.00360 6.87347 6.45321
#
# Compressibility (1/GPa) = 0.02555467
#
# Stress axis : x y z
#
# Youngs Moduli (GPa) = 85.79782 85.35576 70.95708
#
# Poissons Ratio (x) = 0.03087 0.10495
# Poissons Ratio (y) = 0.03103 0.29191
# Poissons Ratio (z) = 0.12690 0.35115
#
# Static dielectric constant tensor:
#      x y z
#    x 1.751190 0.020860 -0.007040 
#    y 0.020860 1.777020 -0.052730 
#    z -0.007040 -0.052730 1.953970 
# 
# From -- ./inp_files/127135.got.cif
#   From: 2010.05.17/outbox.cif.g08.bks.cpg/sg2_64_cif.got.tgz:127135.got - 2010.06.03 11:33:40.
