data_PCOD9047364
_publ_section_title
;
Structure prediction by ZEFSAII (Michael W. Deem and Ramdas Pophale) SiO2 
 PCOD9047364
Probable space group: P -1
;
_chemical_formula_sum "Si O2"
_cell_formula_units_Z 14
_cell_length_a 16.075579
_cell_length_b 9.133586
_cell_length_c 6.657162
_cell_angle_alpha 133.416475
_cell_angle_beta 73.057827
_cell_angle_gamma 121.227347
_cell_volume 603.809717
_symmetry_space_group_name_H-M "P -1"
_symmetry_group_IT_number 2
_symmetry_cell_setting 'triclinic'
loop_
_space_group_symop_operation_xyz
x,y,z
-x,-y,-z
loop_
_atom_site_type_symbol
_atom_site_label
_atom_site_fract_x
_atom_site_fract_y
_atom_site_fract_z
Si Si1 0.225220 0.046810 0.279598
Si Si2 0.997362 0.782796 0.577808
Si Si3 0.848993 0.305588 0.354496
Si Si4 0.547809 0.257111 0.769349
Si Si5 0.262107 0.725116 0.245172
Si Si6 0.094080 0.245169 0.784783
Si Si7 0.575898 0.593281 0.718751
O O1 0.161442 0.153153 0.531586
O O2 0.317446 0.240593 0.283172
O O3 0.263765 0.928771 0.306189
O O4 0.165285 0.846924 0.974157
O O5 0.897390 0.574451 0.529306
O O6 0.981508 0.743077 0.311223
O O7 0.080607 0.739651 0.583828
O O8 0.033618 0.054214 0.814006
O O9 0.748037 0.227745 0.469500
O O10 0.644094 0.314357 0.886672
O O11 0.577481 0.400686 0.679081
O O12 0.500000 0.000000 0.500000
O O13 0.469174 0.292243 0.988714
O O14 0.165801 0.492384 0.044813
O O15 0.500000 0.500000 0.500000
#
# Coordination Sequence:
#
# PCOD9047364 Si02
#       7
#     2   2   2   2   2   2   2
#     4  12  26  45  68 102 138 173 225 278 332 398
#     4  10  24  44  66 100 134 182 230 276 332 394
#     4  11  25  43  70  98 137 182 225 278 333 390
#     4  11  26  46  72 102 135 174 220 273 335 405
#     4  12  26  45  68 102 138 173 225 278 332 398
#     4  11  25  43  70  98 137 182 225 278 333 390
#     4  11  26  46  72 102 135 174 220 273 335 405
#
# _framework density 23.186111
#
# number of rings (size 3 to 8) (size 9 to 14) (size 15 to 20)
#    0.000    0.857    2.857    2.571    4.000   13.714 
#    0.000    0.000    0.000    0.000    0.000    0.000 
#    0.000    0.000    0.000    0.000    0.000    0.000 
#
# Total GULP energy -78336.224706 kJ/mol
# GULP energy per Si atom -5595.444622 kJ/mol
# Density = 2.313334 g / cm^3
# Si number density = 23.186111 Si / 1000 Ang^3
#
#
#
# Elastic Constant Matrix: (Units=GPa)
#
#
# Indices 1 2 3 4 5 6 
#
# 1 71.4794 34.8723 10.0138 -13.9835 -1.6763 -3.5848
# 2 34.8723 191.2155 44.9508 -7.6132 -12.9547 1.9724
# 3 10.0138 44.9508 74.7893 3.7629 -3.7271 -2.8107
# 4 -13.9835 -7.6132 3.7629 32.6992 5.5175 1.8930
# 5 -1.6763 -12.9547 -3.7271 5.5175 30.4610 0.3055
# 6 -3.5848 1.9724 -2.8107 1.8930 0.3055 39.8480
#
#
#
# Elastic Compliance Matrix: (Units=1/GPa)
#
#
# Indices 1 2 3 4 5 6 
#
# 1 0.016809 -0.002672 -0.001023 0.006880 -0.001595 0.001258
# 2 -0.002672 0.006754 -0.003652 0.000531 0.002191 -0.000874
# 3 -0.001023 -0.003652 0.015970 -0.003363 0.000940 0.001368
# 4 0.006880 0.000531 -0.003363 0.035148 -0.006161 -0.001267
# 5 -0.001595 0.002191 0.000940 -0.006161 0.034906 -0.000161
# 6 0.001258 -0.000874 0.001368 -0.001267 -0.000161 0.025410
#
#
# Mechanical properties :
#
#
# Convention : Reuss Voigt Hill
#
# Bulk Modulus (GPa) = 40.25949 57.46202 48.86075
# Shear Modulus (GPa) = 31.65164 37.11143 34.38154
#
# Velocity S-wave (km/s) = 3.69875 4.00508 3.85496
# Velocity P-wave (km/s) = 5.97012 6.79884 6.39791
#
# Compressibility (1/GPa) = 0.02483886
#
# Stress axis : x y z
#
# Youngs Moduli (GPa) = 59.49349 148.05719 62.61597
#
# Poissons Ratio (x) = 0.39562 0.06405
# Poissons Ratio (y) = 0.15897 0.22868
# Poissons Ratio (z) = 0.06086 0.54072
#
# Static dielectric constant tensor:
#      x y z
#    x 1.822960 -0.005240 0.003640 
#    y -0.005240 1.846140 -0.011350 
#    z 0.003640 -0.011350 1.871210 
# 
# From -- ./inp_files/91246.got.cif
#   From: 2010.05.17/outbox.cif.g08.bks.cpg/sg2_46_cif.got.tgz:91246.got - 2010.06.03 11:33:40.
