data_PCOD9047891
_publ_section_title
;
Structure prediction by ZEFSAII (Michael W. Deem and Ramdas Pophale) SiO2 
 PCOD9047891
Probable space group: P -1
;
_chemical_formula_sum "Si O2"
_cell_formula_units_Z 16
_cell_length_a 9.343587
_cell_length_b 13.848801
_cell_length_c 15.362110
_cell_angle_alpha 26.530952
_cell_angle_beta 47.391795
_cell_angle_gamma 50.670735
_cell_volume 651.120970
_symmetry_space_group_name_H-M "P -1"
_symmetry_group_IT_number 2
_symmetry_cell_setting 'triclinic'
loop_
_space_group_symop_operation_xyz
x,y,z
-x,-y,-z
loop_
_atom_site_type_symbol
_atom_site_label
_atom_site_fract_x
_atom_site_fract_y
_atom_site_fract_z
Si Si1 0.699462 0.404343 0.143909
Si Si2 0.838126 0.563211 0.782322
Si Si3 0.295730 0.374720 0.400175
Si Si4 0.241736 0.459093 0.651810
Si Si5 0.201158 0.096372 0.812877
Si Si6 0.393586 0.679234 0.272164
Si Si7 0.410949 0.127905 0.105981
Si Si8 0.993365 0.013246 0.388769
O O1 0.510657 0.287994 0.347822
O O2 0.886552 0.241951 0.218454
O O3 0.705876 0.474291 0.983604
O O4 0.676539 0.631544 0.022789
O O5 0.792949 0.517167 0.737711
O O6 0.056076 0.455012 0.792766
O O7 0.864381 0.819696 0.569276
O O8 0.181656 0.201874 0.639514
O O9 0.319163 0.552196 0.322114
O O10 0.241271 0.267654 0.735072
O O11 0.233644 0.668232 0.421798
O O12 0.423925 0.447342 0.651180
O O13 0.408070 0.949858 0.843498
O O14 0.000000 0.000000 0.000000
O O15 0.485251 0.874707 0.028862
O O16 0.223370 0.994484 0.287716
O O17 0.000000 0.000000 0.500000
#
# Coordination Sequence:
#
# PCOD9047891 Si02
#       8
#     2   2   2   2   2   2   2   2
#     4  11  25  49  74 108 149 195 247 302 370 438
#     4  12  27  44  75 109 154 195 243 302 372 440
#     4  10  25  46  73 102 149 194 246 300 369 433
#     4  10  24  44  71 104 144 188 246 303 367 436
#     4  11  27  46  76 109 148 194 251 305 373 442
#     4   9  22  43  70  96 139 192 241 298 364 423
#     4  11  24  44  75 104 146 193 243 305 370 428
#     4  12  26  44  75 111 150 189 250 301 372 441
#
# _framework density 24.573005999999999
#
# number of rings (size 3 to 8) (size 9 to 14) (size 15 to 20)
#    0.000    1.250    1.250    2.250   14.000    4.000 
#    0.000    0.000    0.000    0.000    0.000    0.000 
#    0.000    0.000    0.000    0.000    0.000    0.000 
#
# Total GULP energy -89338.665329 kJ/mol
# GULP energy per Si atom -5583.666583 kJ/mol
# Density = 2.451708 g / cm^3
# Si number density = 24.573006 Si / 1000 Ang^3
#
#
#
# Elastic Constant Matrix: (Units=GPa)
#
#
# Indices 1 2 3 4 5 6 
#
# 1 114.0888 40.0517 44.5832 -3.6718 5.5454 7.0868
# 2 40.0517 71.7513 46.4771 2.6618 1.6753 3.1760
# 3 44.5832 46.4771 155.1057 44.4419 6.3031 4.3048
# 4 -3.6718 2.6618 44.4419 41.4504 -6.8349 -0.2515
# 5 5.5454 1.6753 6.3031 -6.8349 37.3043 9.9718
# 6 7.0868 3.1760 4.3048 -0.2515 9.9718 43.8207
#
#
#
# Elastic Compliance Matrix: (Units=1/GPa)
#
#
# Indices 1 2 3 4 5 6 
#
# 1 0.011976 -0.004524 -0.003557 0.005211 0.000327 -0.001304
# 2 -0.004524 0.020433 -0.006485 0.005569 0.002015 -0.000539
# 3 -0.003557 -0.006485 0.014104 -0.015779 -0.004620 0.000620
# 4 0.005211 0.005569 -0.015779 0.042775 0.009936 -0.001712
# 5 0.000327 0.002015 -0.004620 0.009936 0.031076 -0.006760
# 6 -0.001304 -0.000539 0.000620 -0.001712 -0.006760 0.024538
#
#
# Mechanical properties :
#
#
# Convention : Reuss Voigt Hill
#
# Bulk Modulus (GPa) = 57.53219 67.01888 62.27554
# Shear Modulus (GPa) = 27.80423 38.50399 33.15411
#
# Velocity S-wave (km/s) = 3.36742 3.96273 3.67714
# Velocity P-wave (km/s) = 6.21152 6.94768 6.58989
#
# Compressibility (1/GPa) = 0.01738157
#
# Stress axis : x y z
#
# Youngs Moduli (GPa) = 83.49903 48.93946 70.89941
#
# Poissons Ratio (x) = 0.22142 0.25218
# Poissons Ratio (y) = 0.37778 0.45978
# Poissons Ratio (z) = 0.29700 0.31737
#
# Static dielectric constant tensor:
#      x y z
#    x 1.979430 -0.018350 -0.061280 
#    y -0.018350 1.984520 -0.035770 
#    z -0.061280 -0.035770 2.057130 
# 
# From -- ./inp_files/504881.got.cif
#   From: 2010.05.17/outbox.cif.g08.bks.cpg/sg2_253_cif.got.tgz:504881.got - 2010.06.03 11:33:40.
