data_PCOD9047649
_publ_section_title
;
Structure prediction by ZEFSAII (Michael W. Deem and Ramdas Pophale) SiO2 
 PCOD9047649
Probable space group: P -1
;
_chemical_formula_sum "Si O2"
_cell_formula_units_Z 14
_cell_length_a 18.652935
_cell_length_b 11.797273
_cell_length_c 7.815480
_cell_angle_alpha 46.502389
_cell_angle_beta 125.871214
_cell_angle_gamma 150.981812
_cell_volume 604.556719
_symmetry_space_group_name_H-M "P -1"
_symmetry_group_IT_number 2
_symmetry_cell_setting 'triclinic'
loop_
_space_group_symop_operation_xyz
x,y,z
-x,-y,-z
loop_
_atom_site_type_symbol
_atom_site_label
_atom_site_fract_x
_atom_site_fract_y
_atom_site_fract_z
Si Si1 0.429203 0.008876 0.037184
Si Si2 0.360436 0.695938 0.679798
Si Si3 0.346552 0.144842 0.528791
Si Si4 0.390830 0.430583 0.786123
Si Si5 0.836758 0.916931 0.436558
Si Si6 0.857714 0.394891 0.349004
Si Si7 0.858053 0.572496 0.796872
O O1 0.285265 0.705717 0.207961
O O2 0.564296 0.250314 0.093032
O O3 0.500000 0.000000 0.000000
O O4 0.364387 0.072211 0.801044
O O5 0.344037 0.524827 0.713501
O O6 0.213163 0.581979 0.641324
O O7 0.500000 0.000000 0.500000
O O8 0.505876 0.401624 0.409077
O O9 0.246140 0.145588 0.443361
O O10 0.267204 0.915017 0.526796
O O11 0.244632 0.152989 0.784393
O O12 0.500000 0.500000 0.000000
O O13 0.840694 0.733861 0.636195
O O14 0.995427 0.224859 0.324329
O O15 0.000000 0.500000 0.500000
O O16 0.875623 0.506472 0.072637
#
# Coordination Sequence:
#
# PCOD9047649 Si02
#       7
#     2   2   2   2   2   2   2
#     4  11  20  42  74  96 130 175 238 280 326 407
#     4  12  23  43  72 103 136 177 228 288 339 398
#     4  11  24  44  67 102 130 184 233 283 334 408
#     4  12  27  42  68 107 140 178 226 283 349 407
#     4  11  25  45  68  97 145 179 228 275 349 426
#     4  11  26  43  70 102 141 176 233 290 346 398
#     4  10  24  44  69 100 129 189 228 277 348 408
#
# _framework density 23.157464999999998
#
# number of rings (size 3 to 8) (size 9 to 14) (size 15 to 20)
#    0.000    0.857    4.286    3.000    4.000    6.857 
#    0.000    1.429    0.000    0.000    0.000    0.000 
#    0.000    0.000    0.000    0.000    0.000    0.000 
#
# Total GULP energy -78236.965711 kJ/mol
# GULP energy per Si atom -5588.354694 kJ/mol
# Density = 2.310476 g / cm^3
# Si number density = 23.157465 Si / 1000 Ang^3
#
#
#
# Elastic Constant Matrix: (Units=GPa)
#
#
# Indices 1 2 3 4 5 6 
#
# 1 155.6735 38.9526 5.6985 -3.6302 6.8412 6.0337
# 2 38.9526 99.8410 15.7309 -8.7425 3.9148 22.1804
# 3 5.6985 15.7309 60.8948 8.8610 10.1006 9.5103
# 4 -3.6302 -8.7425 8.8610 34.6007 9.5654 2.5570
# 5 6.8412 3.9148 10.1006 9.5654 24.0234 1.8252
# 6 6.0337 22.1804 9.5103 2.5570 1.8252 32.2843
#
#
#
# Elastic Compliance Matrix: (Units=1/GPa)
#
#
# Indices 1 2 3 4 5 6 
#
# 1 0.007204 -0.002871 0.000218 0.000454 -0.001904 0.000634
# 2 -0.002871 0.013935 -0.002415 0.004961 -0.001758 -0.008619
# 3 0.000218 -0.002415 0.019068 -0.003559 -0.006012 -0.003377
# 4 0.000454 0.004961 -0.003559 0.035055 -0.013059 -0.004483
# 5 -0.001904 -0.001758 -0.006012 -0.013059 0.050065 0.001539
# 6 0.000634 -0.008619 -0.003377 -0.004483 0.001539 0.038041
#
#
# Mechanical properties :
#
#
# Convention : Reuss Voigt Hill
#
# Bulk Modulus (GPa) = 33.25562 48.57482 40.91522
# Shear Modulus (GPa) = 27.24390 35.25017 31.24703
#
# Velocity S-wave (km/s) = 3.43368 3.90576 3.67731
# Velocity P-wave (km/s) = 5.48744 6.43128 5.97802
#
# Compressibility (1/GPa) = 0.03007011
#
# Stress axis : x y z
#
# Youngs Moduli (GPa) = 138.81395 71.76237 52.44485
#
# Poissons Ratio (x) = 0.20605 -0.01146
# Poissons Ratio (y) = 0.39858 0.12667
# Poissons Ratio (z) = -0.03032 0.17332
#
# Static dielectric constant tensor:
#      x y z
#    x 1.962810 0.020680 0.012970 
#    y 0.020680 1.941590 0.106300 
#    z 0.012970 0.106300 2.102620 
# 
# From -- ./inp_files/158544.got.cif
#   From: 2010.05.17/outbox.cif.g08.bks.cpg/sg2_80_cif.got.tgz:158544.got - 2010.06.03 11:33:40.
