data_PCOD9047040
_publ_section_title
;
Structure prediction by ZEFSAII (Michael W. Deem and Ramdas Pophale) SiO2 
 PCOD9047040
Probable space group: P -1
;
_chemical_formula_sum "Si O2"
_cell_formula_units_Z 16
_cell_length_a 19.746488
_cell_length_b 10.722295
_cell_length_c 11.183859
_cell_angle_alpha 155.474837
_cell_angle_beta 138.080109
_cell_angle_gamma 39.068437
_cell_volume 613.001001
_symmetry_space_group_name_H-M "P -1"
_symmetry_group_IT_number 2
_symmetry_cell_setting 'triclinic'
loop_
_space_group_symop_operation_xyz
x,y,z
-x,-y,-z
loop_
_atom_site_type_symbol
_atom_site_label
_atom_site_fract_x
_atom_site_fract_y
_atom_site_fract_z
Si Si1 0.153903 0.141601 0.167732
Si Si2 0.213390 0.666065 0.614656
Si Si3 0.487372 0.165287 0.344602
Si Si4 0.800928 0.482652 0.961226
Si Si5 0.926119 0.290339 0.733611
Si Si6 0.455290 0.531288 0.835057
Si Si7 0.881911 0.475975 0.327653
Si Si8 0.343685 0.835006 0.617192
O O1 0.125512 0.506992 0.402862
O O2 0.193030 0.242577 0.436274
O O3 0.199946 0.966229 0.946880
O O4 0.105026 0.881728 0.923311
O O5 0.189289 0.664759 0.440948
O O6 0.340919 0.472363 0.631847
O O7 0.531394 0.261765 0.610294
O O8 0.407773 0.516373 0.499491
O O9 0.443206 0.882461 0.073240
O O10 0.572881 0.049758 0.248717
O O11 0.903184 0.297210 0.850053
O O12 0.722491 0.286040 0.672109
O O13 0.834684 0.513701 0.166402
O O14 0.737204 0.845395 0.146092
O O15 0.000000 0.000000 0.500000
O O16 0.000000 0.500000 0.000000
O O17 0.500000 0.500000 0.000000
O O18 0.000000 0.500000 0.500000
#
# Coordination Sequence:
#
# PCOD9047040 Si02
#       8
#     2   2   2   2   2   2   2   2
#     4  10  24  43  70  98 137 197 237 293 376 432
#     4  11  25  47  72 103 149 194 248 307 368 440
#     4  11  25  46  75 106 154 190 252 304 380 450
#     4  12  26  45  74 108 148 189 258 306 381 450
#     4  12  28  47  75 105 145 197 252 312 372 443
#     4  12  26  44  73 111 152 199 247 304 378 463
#     4  11  25  43  71 100 144 188 244 315 368 436
#     4  11  25  47  75 109 144 199 243 322 378 441
#
# _framework density 26.101101
#
# number of rings (size 3 to 8) (size 9 to 14) (size 15 to 20)
#    0.000    0.750    0.000    6.000    5.250   10.000 
#    0.000    0.000    0.000    0.000    0.000    0.000 
#    0.000    0.000    0.000    0.000    0.000    0.000 
#
# Total GULP energy -89188.065370 kJ/mol
# GULP energy per Si atom -5574.254086 kJ/mol
# Density = 2.604169 g / cm^3
# Si number density = 26.101101 Si / 1000 Ang^3
#
#
#
# Elastic Constant Matrix: (Units=GPa)
#
#
# Indices 1 2 3 4 5 6 
#
# 1 93.4857 35.9345 51.8228 -4.2511 -0.4888 16.0108
# 2 35.9345 86.8479 42.2012 -12.5475 11.7149 9.1945
# 3 51.8228 42.2012 200.2655 -5.6786 -16.8728 14.9990
# 4 -4.2511 -12.5475 -5.6786 55.5666 11.2369 -6.5672
# 5 -0.4888 11.7149 -16.8728 11.2369 57.8939 -0.8827
# 6 16.0108 9.1945 14.9990 -6.5672 -0.8827 33.3767
#
#
#
# Elastic Compliance Matrix: (Units=1/GPa)
#
#
# Indices 1 2 3 4 5 6 
#
# 1 0.014573 -0.004500 -0.002453 -0.000800 0.000401 -0.004796
# 2 -0.004500 0.015791 -0.002414 0.003869 -0.004695 -0.000470
# 3 -0.002453 -0.002414 0.006407 -0.000706 0.002455 -0.001112
# 4 -0.000800 0.003869 -0.000706 0.020127 -0.004849 0.003467
# 5 0.000401 -0.004695 0.002455 -0.004849 0.019877 -0.000431
# 6 -0.004796 -0.000470 -0.001112 0.003467 -0.000431 0.033561
#
#
# Mechanical properties :
#
#
# Convention : Reuss Voigt Hill
#
# Bulk Modulus (GPa) = 55.43745 71.16846 63.30295
# Shear Modulus (GPa) = 37.01467 46.07678 41.54573
#
# Velocity S-wave (km/s) = 3.76989 4.20613 3.99397
# Velocity P-wave (km/s) = 6.34311 7.13543 6.75090
#
# Compressibility (1/GPa) = 0.01803835
#
# Stress axis : x y z
#
# Youngs Moduli (GPa) = 68.61920 63.32632 156.08510
#
# Poissons Ratio (x) = 0.28497 0.38281
# Poissons Ratio (y) = 0.30879 0.37676
# Poissons Ratio (z) = 0.16829 0.15286
#
# Static dielectric constant tensor:
#      x y z
#    x 2.096240 0.100370 -0.151310 
#    y 0.100370 2.102940 0.143800 
#    z -0.151310 0.143800 1.971070 
# 
# From -- ./inp_files/474903.got.cif
#   From: 2010.05.17/outbox.cif.g08.bks.cpg/sg2_238_cif.got.tgz:474903.got - 2010.06.03 11:33:40.
