data_PCOD9047595
_publ_section_title
;
Structure prediction by ZEFSAII (Michael W. Deem and Ramdas Pophale) SiO2 
 PCOD9047595
Probable space group: P -1
;
_chemical_formula_sum "Si O2"
_cell_formula_units_Z 14
_cell_length_a 17.931509
_cell_length_b 12.195821
_cell_length_c 8.887979
_cell_angle_alpha 116.660994
_cell_angle_beta 117.392857
_cell_angle_gamma 21.477078
_cell_volume 630.586478
_symmetry_space_group_name_H-M "P -1"
_symmetry_group_IT_number 2
_symmetry_cell_setting 'triclinic'
loop_
_space_group_symop_operation_xyz
x,y,z
-x,-y,-z
loop_
_atom_site_type_symbol
_atom_site_label
_atom_site_fract_x
_atom_site_fract_y
_atom_site_fract_z
Si Si1 0.484235 0.643261 0.668566
Si Si2 0.893709 0.223106 0.862403
Si Si3 0.764169 0.435732 0.182511
Si Si4 0.385359 0.783265 0.096274
Si Si5 0.932193 0.812315 0.192374
Si Si6 0.865690 0.527619 0.532643
Si Si7 0.701767 0.985875 0.537273
O O1 0.500000 0.500000 0.500000
O O2 0.701655 0.386569 0.782834
O O3 0.286343 0.885591 0.738274
O O4 0.440062 0.813249 0.616321
O O5 0.936180 0.243927 0.765049
O O6 0.843736 0.373742 0.054682
O O7 0.095078 0.871658 0.850019
O O8 0.533449 0.694110 0.121396
O O9 0.793121 0.494035 0.378836
O O10 0.362206 0.832604 0.282979
O O11 0.500000 0.500000 0.000000
O O12 0.164336 0.095475 0.002754
O O13 0.073679 0.552053 0.283561
O O14 0.711657 0.840144 0.533624
O O15 0.075241 0.275911 0.480831
#
# Coordination Sequence:
#
# PCOD9047595 Si02
#       7
#     2   2   2   2   2   2   2
#     4  11  23  40  66 100 131 167 216 279 331 384
#     4  11  23  40  65  99 132 171 218 277 325 388
#     4  11  24  40  66  97 136 169 222 269 333 390
#     4  12  23  41  67 100 132 172 217 281 332 383
#     4  11  23  41  66  95 131 169 224 268 330 385
#     4  10  24  45  66  94 128 184 218 265 326 401
#     4  10  24  44  68  91 138 171 221 266 332 395
#
# _framework density 22.201554000000002
#
# number of rings (size 3 to 8) (size 9 to 14) (size 15 to 20)
#    0.000    1.143    2.857    3.429    4.000    2.286 
#    0.000    2.143    0.000    0.000    0.000    0.000 
#    0.000    0.000    0.000    0.000    0.000    0.000 
#
# Total GULP energy -78127.056546 kJ/mol
# GULP energy per Si atom -5580.504039 kJ/mol
# Density = 2.215102 g / cm^3
# Si number density = 22.201554 Si / 1000 Ang^3
#
#
#
# Elastic Constant Matrix: (Units=GPa)
#
#
# Indices 1 2 3 4 5 6 
#
# 1 91.7542 25.3091 16.4740 -9.9331 -21.1548 -6.6242
# 2 25.3091 45.4336 8.4114 -4.4481 1.9900 -2.6578
# 3 16.4740 8.4114 60.7519 -4.9063 -8.9266 -0.2831
# 4 -9.9331 -4.4481 -4.9063 24.3339 -7.8898 1.4720
# 5 -21.1548 1.9900 -8.9266 -7.8898 38.9488 -5.9664
# 6 -6.6242 -2.6578 -0.2831 1.4720 -5.9664 30.1191
#
#
#
# Elastic Compliance Matrix: (Units=1/GPa)
#
#
# Indices 1 2 3 4 5 6 
#
# 1 0.017862 -0.009121 -0.000962 0.009204 0.012602 0.005161
# 2 -0.009121 0.027686 -0.002578 -0.001528 -0.007419 -0.000982
# 3 -0.000962 -0.002578 0.018117 0.004285 0.004699 0.000453
# 4 0.009204 -0.001528 0.004285 0.050701 0.016754 0.002771
# 5 0.012602 -0.007419 0.004699 0.016754 0.038751 0.009018
# 6 0.005161 -0.000982 0.000453 0.002771 0.009018 0.035905
#
#
# Mechanical properties :
#
#
# Convention : Reuss Voigt Hill
#
# Bulk Modulus (GPa) = 26.08028 33.14764 29.61396
# Shear Modulus (GPa) = 22.01436 28.53002 25.27219
#
# Velocity S-wave (km/s) = 3.15233 3.58864 3.37754
# Velocity P-wave (km/s) = 5.00222 5.66868 5.34584
#
# Compressibility (1/GPa) = 0.03834314
#
# Stress axis : x y z
#
# Youngs Moduli (GPa) = 55.98565 36.11910 55.19764
#
# Poissons Ratio (x) = 0.32944 0.05308
# Poissons Ratio (y) = 0.51064 0.14231
# Poissons Ratio (z) = 0.05384 0.09312
#
# Static dielectric constant tensor:
#      x y z
#    x 1.849860 0.037430 -0.039900 
#    y 0.037430 1.830350 -0.038480 
#    z -0.039900 -0.038480 1.883000 
# 
# From -- ./inp_files/189781.got.cif
#   From: 2010.05.17/outbox.cif.g08.bks.cpg/sg2_95_cif.got.tgz:189781.got - 2010.06.03 11:33:40.
