data_PCOD9047617
_publ_section_title
;
Structure prediction by ZEFSAII (Michael W. Deem and Ramdas Pophale) SiO2 
 PCOD9047617
Probable space group: P -1
;
_chemical_formula_sum "Si O2"
_cell_formula_units_Z 14
_cell_length_a 14.942088
_cell_length_b 8.825723
_cell_length_c 11.458948
_cell_angle_alpha 31.770406
_cell_angle_beta 126.182268
_cell_angle_gamma 112.201643
_cell_volume 614.237753
_symmetry_space_group_name_H-M "P -1"
_symmetry_group_IT_number 2
_symmetry_cell_setting 'triclinic'
loop_
_space_group_symop_operation_xyz
x,y,z
-x,-y,-z
loop_
_atom_site_type_symbol
_atom_site_label
_atom_site_fract_x
_atom_site_fract_y
_atom_site_fract_z
Si Si1 0.054316 0.236724 0.944475
Si Si2 0.405272 0.921702 0.062715
Si Si3 0.176100 0.579231 0.682133
Si Si4 0.484638 0.254563 0.486963
Si Si5 0.859457 0.743729 0.364019
Si Si6 0.020626 0.149559 0.223959
Si Si7 0.407677 0.716293 0.700260
O O1 0.944757 0.540656 0.659115
O O2 0.167089 0.294253 0.937738
O O3 0.086864 0.111919 0.177535
O O4 0.000000 0.000000 0.000000
O O5 0.410040 0.581116 0.258274
O O6 0.440332 0.906888 0.236899
O O7 0.500000 0.000000 0.000000
O O8 0.277476 0.142682 0.795871
O O9 0.120043 0.476564 0.588827
O O10 0.294129 0.623287 0.702246
O O11 0.112332 0.855396 0.542475
O O12 0.556645 0.304807 0.395194
O O13 0.405680 0.050571 0.518029
O O14 0.907031 0.035197 0.195648
O O15 0.000000 0.500000 0.000000
O O16 0.500000 0.500000 0.000000
#
# Coordination Sequence:
#
# PCOD9047617 Si02
#       7
#     2   2   2   2   2   2   2
#     4  11  21  45  71  94 131 175 227 275 337 403
#     4  11  24  45  68 102 140 172 234 277 336 408
#     4  11  23  41  71  99 128 179 226 274 331 407
#     4  10  24  44  68  96 140 186 216 280 348 398
#     4  11  23  41  71  99 128 179 226 274 331 407
#     4  11  25  43  63  99 135 167 223 280 337 397
#     4  11  24  45  68 102 140 172 234 277 336 408
#
# _framework density 22.792477000000002
#
# number of rings (size 3 to 8) (size 9 to 14) (size 15 to 20)
#    0.000    1.143    2.857    3.429    2.000    9.143 
#    7.714    0.000    0.000    0.000    0.000    0.000 
#    0.000    0.000    0.000    0.000    0.000    0.000 
#
# Total GULP energy -77969.266206 kJ/mol
# GULP energy per Si atom -5569.233300 kJ/mol
# Density = 2.274060 g / cm^3
# Si number density = 22.792477 Si / 1000 Ang^3
#
#
#
# Elastic Constant Matrix: (Units=GPa)
#
#
# Indices 1 2 3 4 5 6 
#
# 1 146.1744 50.6001 37.0780 1.0225 -4.2366 43.1362
# 2 50.6001 119.8028 27.9054 -39.5708 7.6991 17.4990
# 3 37.0780 27.9054 82.4740 -9.5091 9.0825 12.6661
# 4 1.0225 -39.5708 -9.5091 53.3582 -2.2302 -3.2431
# 5 -4.2366 7.6991 9.0825 -2.2302 35.1605 -2.9450
# 6 43.1362 17.4990 12.6661 -3.2431 -2.9450 43.7234
#
#
#
# Elastic Compliance Matrix: (Units=1/GPa)
#
#
# Indices 1 2 3 4 5 6 
#
# 1 0.012170 -0.004752 -0.003226 -0.004808 0.002250 -0.009375
# 2 -0.004752 0.014220 -0.001172 0.010308 -0.002737 -0.000083
# 3 -0.003226 -0.001172 0.014700 0.001604 -0.003890 -0.000750
# 4 -0.004808 0.010308 0.001604 0.026831 -0.001377 0.002050
# 5 0.002250 -0.002737 -0.003890 -0.001377 0.030392 0.001947
# 6 -0.009375 -0.000083 -0.000750 0.002050 0.001947 0.032654
#
#
# Mechanical properties :
#
#
# Convention : Reuss Voigt Hill
#
# Bulk Modulus (GPa) = 43.87849 64.40204 54.14026
# Shear Modulus (GPa) = 31.87472 41.97292 36.92382
#
# Velocity S-wave (km/s) = 3.74368 4.29596 4.02929
# Velocity P-wave (km/s) = 6.16278 7.27490 6.74181
#
# Compressibility (1/GPa) = 0.02279021
#
# Stress axis : x y z
#
# Youngs Moduli (GPa) = 82.17095 70.32333 68.02523
#
# Poissons Ratio (x) = 0.33417 0.21943
# Poissons Ratio (y) = 0.39047 0.07975
# Poissons Ratio (z) = 0.26505 0.08245
#
# Static dielectric constant tensor:
#      x y z
#    x 1.797330 -0.110510 0.236970 
#    y -0.110510 1.798130 0.245720 
#    z 0.236970 0.245720 1.017940 
# 
# From -- ./inp_files/47543.got.cif
#   From: 2010.05.17/outbox.cif.g08.bks.cpg/sg2_24_cif.got.tgz:47543.got - 2010.06.03 11:33:40.
