data_PCOD9047140
_publ_section_title
;
Structure prediction by ZEFSAII (Michael W. Deem and Ramdas Pophale) SiO2 
 PCOD9047140
Probable space group: P -1
;
_chemical_formula_sum "Si O2"
_cell_formula_units_Z 16
_cell_length_a 8.794860
_cell_length_b 11.599585
_cell_length_c 20.234123
_cell_angle_alpha 136.316966
_cell_angle_beta 153.110118
_cell_angle_gamma 51.172814
_cell_volume 643.735141
_symmetry_space_group_name_H-M "P -1"
_symmetry_group_IT_number 2
_symmetry_cell_setting 'triclinic'
loop_
_space_group_symop_operation_xyz
x,y,z
-x,-y,-z
loop_
_atom_site_type_symbol
_atom_site_label
_atom_site_fract_x
_atom_site_fract_y
_atom_site_fract_z
Si Si1 0.711876 0.802841 0.629572
Si Si2 0.234765 0.850122 0.356035
Si Si3 0.265925 0.481573 0.180919
Si Si4 0.463237 0.627565 0.099993
Si Si5 0.288975 0.954099 0.834306
Si Si6 0.702228 0.001135 0.831160
Si Si7 0.398473 0.712322 0.670004
Si Si8 0.155562 0.504549 0.687864
O O1 0.340812 0.811741 0.457296
O O2 0.797340 0.959651 0.775860
O O3 0.871087 0.635325 0.649294
O O4 0.967753 0.836816 0.682255
O O5 0.274487 0.680719 0.261213
O O6 0.866411 0.905438 0.214133
O O7 0.500000 0.000000 0.500000
O O8 0.398280 0.441072 0.289482
O O9 0.515809 0.423255 0.195783
O O10 0.884550 0.408543 0.008234
O O11 0.743503 0.584421 0.243233
O O12 0.459138 0.820169 0.155325
O O13 0.500000 0.500000 0.000000
O O14 0.491473 0.841940 0.817962
O O15 0.500000 0.000000 0.000000
O O16 0.476497 0.828764 0.685995
O O17 0.000000 0.000000 0.000000
O O18 0.023749 0.634408 0.486763
#
# Coordination Sequence:
#
# PCOD9047140 Si02
#       8
#     2   2   2   2   2   2   2   2
#     4  11  24  45  73 104 151 195 248 312 372 451
#     4  10  24  43  72 109 150 189 247 309 380 444
#     4  12  25  49  78 110 150 199 251 318 382 452
#     4  12  31  51  74 109 154 202 254 317 384 463
#     4  11  25  42  72 107 146 195 252 312 372 438
#     4  12  27  49  73 106 154 206 255 304 387 460
#     4  12  26  48  78 109 155 201 254 313 378 457
#     4  12  26  47  77 114 148 197 259 316 383 447
#
# _framework density 24.854942999999999
#
# number of rings (size 3 to 8) (size 9 to 14) (size 15 to 20)
#    0.000    0.500    3.750    3.750    8.750    2.000 
#    0.000    0.000    0.000    0.000    0.000    0.000 
#    0.000    0.000    0.000    0.000    0.000    0.000 
#
# Total GULP energy -89299.963142 kJ/mol
# GULP energy per Si atom -5581.247696 kJ/mol
# Density = 2.479837 g / cm^3
# Si number density = 24.854943 Si / 1000 Ang^3
#
#
#
# Elastic Constant Matrix: (Units=GPa)
#
#
# Indices 1 2 3 4 5 6 
#
# 1 56.7536 35.4211 23.4482 6.6144 -7.5476 -2.9535
# 2 35.4211 199.6461 52.5739 -13.7745 -17.4509 22.7680
# 3 23.4482 52.5739 96.8811 -29.5266 -23.0376 1.1866
# 4 6.6144 -13.7745 -29.5266 44.3419 11.8219 -14.6116
# 5 -7.5476 -17.4509 -23.0376 11.8219 47.4037 7.3587
# 6 -2.9535 22.7680 1.1866 -14.6116 7.3587 28.7462
#
#
#
# Elastic Compliance Matrix: (Units=1/GPa)
#
#
# Indices 1 2 3 4 5 6 
#
# 1 0.023425 -0.002903 -0.006476 -0.009276 0.001861 -0.000218
# 2 -0.002903 0.007403 -0.003515 -0.002996 0.002575 -0.008198
# 3 -0.006476 -0.003515 0.018526 0.014445 0.001797 0.008236
# 4 -0.009276 -0.002996 0.014445 0.043955 -0.010537 0.025863
# 5 0.001861 0.002575 0.001797 -0.010537 0.028086 -0.014468
# 6 -0.000218 -0.008198 0.008236 0.025863 -0.014468 0.057768
#
#
# Mechanical properties :
#
#
# Convention : Reuss Voigt Hill
#
# Bulk Modulus (GPa) = 42.43603 64.01857 53.22730
# Shear Modulus (GPa) = 23.49547 40.22085 31.85816
#
# Velocity S-wave (km/s) = 3.07791 4.02708 3.58406
# Velocity P-wave (km/s) = 5.45362 6.88738 6.21200
#
# Compressibility (1/GPa) = 0.02356488
#
# Stress axis : x y z
#
# Youngs Moduli (GPa) = 42.68968 135.08269 53.97894
#
# Poissons Ratio (x) = 0.39216 0.34957
# Poissons Ratio (y) = 0.12393 0.18974
# Poissons Ratio (z) = 0.27646 0.47482
#
# Static dielectric constant tensor:
#      x y z
#    x 2.122530 0.128880 0.054660 
#    y 0.128880 2.135740 -0.004280 
#    z 0.054660 -0.004280 2.004660 
# 
# From -- ./inp_files/589668.got.cif
#   From: 2010.05.17/outbox.cif.g08.bks.cpg/sg2_295_cif.got.tgz:589668.got - 2010.06.03 11:33:40.
