data_PCOD9047400
_publ_section_title
;
Structure prediction by ZEFSAII (Michael W. Deem and Ramdas Pophale) SiO2 
 PCOD9047400
Probable space group: P -1
;
_chemical_formula_sum "Si O2"
_cell_formula_units_Z 14
_cell_length_a 16.817383
_cell_length_b 15.580159
_cell_length_c 8.450370
_cell_angle_alpha 137.400226
_cell_angle_beta 40.475403
_cell_angle_gamma 155.624034
_cell_volume 585.413227
_symmetry_space_group_name_H-M "P -1"
_symmetry_group_IT_number 2
_symmetry_cell_setting 'triclinic'
loop_
_space_group_symop_operation_xyz
x,y,z
-x,-y,-z
loop_
_atom_site_type_symbol
_atom_site_label
_atom_site_fract_x
_atom_site_fract_y
_atom_site_fract_z
Si Si1 0.256368 0.994858 0.109928
Si Si2 0.342426 0.971506 0.634875
Si Si3 0.741569 0.709937 0.433265
Si Si4 0.887282 0.583851 0.233921
Si Si5 0.791106 0.780203 0.096312
Si Si6 0.418991 0.616384 0.320109
Si Si7 0.354951 0.821214 0.113389
O O1 0.123599 0.812939 0.197030
O O2 0.217346 0.112808 0.328129
O O3 0.193824 0.880454 0.880930
O O4 0.490755 0.153504 0.003339
O O5 0.467097 0.202628 0.731460
O O6 0.500000 0.000000 0.500000
O O7 0.281294 0.864020 0.411697
O O8 0.500000 0.500000 0.500000
O O9 0.808892 0.650329 0.361723
O O10 0.828055 0.771458 0.208425
O O11 0.754603 0.456595 0.418622
O O12 0.833034 0.415851 0.987024
O O13 0.604152 0.726158 0.303375
O O14 0.304362 0.408503 0.123454
O O15 0.000000 0.000000 0.000000
O O16 0.500000 0.000000 0.000000
#
# Coordination Sequence:
#
# PCOD9047400 Si02
#       7
#     2   2   2   2   2   2   2
#     4  11  25  43  67  97 129 168 218 266 325 386
#     4  10  24  44  66  90 130 174 213 265 316 376
#     4  12  22  43  68  96 133 169 209 266 333 382
#     4  12  25  42  69  98 128 172 214 269 326 384
#     4  11  25  40  65  98 131 169 213 262 322 390
#     4  11  23  43  64  93 134 168 209 269 326 373
#     4  11  23  46  67  92 131 172 220 265 318 379
#
# _framework density 23.914732999999998
#
# number of rings (size 3 to 8) (size 9 to 14) (size 15 to 20)
#    0.000    0.857    4.286    2.143    6.000    1.143 
#    0.000    0.000    0.000    0.000    0.000    0.000 
#    0.000    0.000    0.000    0.000    0.000    0.000 
#
# Total GULP energy -78315.281423 kJ/mol
# GULP energy per Si atom -5593.948673 kJ/mol
# Density = 2.386030 g / cm^3
# Si number density = 23.914733 Si / 1000 Ang^3
#
#
#
# Elastic Constant Matrix: (Units=GPa)
#
#
# Indices 1 2 3 4 5 6 
#
# 1 60.1310 -15.1523 -8.7364 -0.9623 -7.2225 -1.4001
# 2 -15.1523 82.0003 10.6222 7.8670 -11.6752 1.7662
# 3 -8.7364 10.6222 83.7147 4.4392 12.1051 12.4354
# 4 -0.9623 7.8670 4.4392 45.1544 -9.2463 0.9756
# 5 -7.2225 -11.6752 12.1051 -9.2463 28.0029 -5.6600
# 6 -1.4001 1.7662 12.4354 0.9756 -5.6600 32.5418
#
#
#
# Elastic Compliance Matrix: (Units=1/GPa)
#
#
# Indices 1 2 3 4 5 6 
#
# 1 0.018672 0.004352 0.000004 0.001107 0.007361 0.001813
# 2 0.004352 0.014627 -0.002956 -0.000412 0.008780 0.002062
# 3 0.000004 -0.002956 0.015018 -0.002881 -0.010141 -0.007256
# 4 0.001107 -0.000412 -0.002881 0.024503 0.009886 0.002156
# 5 0.007361 0.008780 -0.010141 0.009886 0.051416 0.012362
# 6 0.001813 0.002062 -0.007256 0.002156 0.012362 0.035554
#
#
# Mechanical properties :
#
#
# Convention : Reuss Voigt Hill
#
# Bulk Modulus (GPa) = 19.56254 22.14588 20.85421
# Shear Modulus (GPa) = 28.73104 37.08066 32.90585
#
# Velocity S-wave (km/s) = 3.46987 3.94196 3.71343
# Velocity P-wave (km/s) = 4.92456 5.47715 5.20819
#
# Compressibility (1/GPa) = 0.05111810
#
# Stress axis : x y z
#
# Youngs Moduli (GPa) = 53.55682 68.36486 66.58770
#
# Poissons Ratio (x) = -0.29756 -0.00026
# Poissons Ratio (y) = -0.23310 0.19682
# Poissons Ratio (z) = -0.00021 0.20208
#
# Static dielectric constant tensor:
#      x y z
#    x 1.919870 0.046000 -0.038710 
#    y 0.046000 1.845400 0.011120 
#    z -0.038710 0.011120 1.907500 
# 
# From -- ./inp_files/348917.got.cif
#   From: 2010.05.17/outbox.cif.g08.bks.cpg/sg2_175_cif.got.tgz:348917.got - 2010.06.03 11:33:40.
