data_PCOD9047924
_publ_section_title
;
Structure prediction by ZEFSAII (Michael W. Deem and Ramdas Pophale) SiO2 
 PCOD9047924
Probable space group: P -1
;
_chemical_formula_sum "Si O2"
_cell_formula_units_Z 16
_cell_length_a 9.251146
_cell_length_b 14.416327
_cell_length_c 11.189868
_cell_angle_alpha 30.299658
_cell_angle_beta 97.651455
_cell_angle_gamma 109.950462
_cell_volume 665.470664
_symmetry_space_group_name_H-M "P -1"
_symmetry_group_IT_number 2
_symmetry_cell_setting 'triclinic'
loop_
_space_group_symop_operation_xyz
x,y,z
-x,-y,-z
loop_
_atom_site_type_symbol
_atom_site_label
_atom_site_fract_x
_atom_site_fract_y
_atom_site_fract_z
Si Si1 0.206607 0.799962 0.416781
Si Si2 0.599624 0.536599 0.847702
Si Si3 0.779123 0.118307 0.038132
Si Si4 0.716228 0.835034 0.129164
Si Si5 0.863485 0.998893 0.400428
Si Si6 0.472499 0.708156 0.445641
Si Si7 0.108237 0.439396 0.488919
Si Si8 0.809742 0.321057 0.179849
O O1 0.300040 0.706969 0.444716
O O2 0.232327 0.740004 0.618805
O O3 0.014499 0.693647 0.481733
O O4 0.277926 0.043426 0.125678
O O5 0.496254 0.541296 0.715206
O O6 0.746700 0.765861 0.615203
O O7 0.500000 0.500000 0.000000
O O8 0.688778 0.393822 0.022151
O O9 0.911339 0.121259 0.144517
O O10 0.601390 0.935755 0.255316
O O11 0.774262 0.333541 0.798913
O O12 0.810419 0.029927 0.014934
O O13 0.542820 0.719846 0.307265
O O14 0.802091 0.686421 0.306494
O O15 0.785586 0.117794 0.334453
O O16 0.000000 0.000000 0.500000
O O17 0.000000 0.500000 0.500000
O O18 0.000000 0.500000 0.000000
#
# Coordination Sequence:
#
# PCOD9047924 Si02
#       8
#     2   2   2   2   2   2   2   2
#     4  12  24  44  70 100 137 172 228 283 332 400
#     4  11  23  46  65  99 138 177 227 275 340 393
#     4   9  23  42  66  91 137 175 222 267 342 391
#     4  10  24  44  71  92 139 177 214 280 349 380
#     4  11  24  40  68  98 133 178 232 276 330 407
#     4   9  22  46  70  93 138 178 215 281 340 397
#     4  12  24  41  68 101 130 176 230 269 329 409
#     4  12  26  42  70 102 138 181 225 281 339 402
#
# _framework density 24.043134999999999
#
# number of rings (size 3 to 8) (size 9 to 14) (size 15 to 20)
#    0.750    0.500    3.750    1.500    5.250    0.500 
#    0.000    2.500    0.000    0.000    0.000    0.000 
#    0.000    0.000    0.000    0.000    0.000    0.000 
#
# Total GULP energy -89422.180758 kJ/mol
# GULP energy per Si atom -5588.886297 kJ/mol
# Density = 2.398841 g / cm^3
# Si number density = 24.043135 Si / 1000 Ang^3
#
#
#
# Elastic Constant Matrix: (Units=GPa)
#
#
# Indices 1 2 3 4 5 6 
#
# 1 113.4122 12.1777 65.8621 0.9339 42.6439 -5.4509
# 2 12.1777 42.5170 32.4042 -1.2227 9.8765 -3.5674
# 3 65.8621 32.4042 157.8368 15.3257 45.3229 -5.2634
# 4 0.9339 -1.2227 15.3257 31.0599 -12.6109 9.2891
# 5 42.6439 9.8765 45.3229 -12.6109 45.2623 -0.3262
# 6 -5.4509 -3.5674 -5.2634 9.2891 -0.3262 35.2766
#
#
#
# Elastic Compliance Matrix: (Units=1/GPa)
#
#
# Indices 1 2 3 4 5 6 
#
# 1 0.015613 0.000217 -0.001254 -0.007352 -0.015520 0.004040
# 2 0.000217 0.028538 -0.007058 0.005315 0.002120 0.000486
# 3 -0.001254 -0.007058 0.014698 -0.015699 -0.016332 0.005268
# 4 -0.007352 0.005315 -0.015699 0.061642 0.038525 -0.018816
# 5 -0.015520 0.002120 -0.016332 0.038525 0.063238 -0.014180
# 6 0.004040 0.000486 0.005268 -0.018816 -0.014180 0.034630
#
#
# Mechanical properties :
#
#
# Convention : Reuss Voigt Hill
#
# Bulk Modulus (GPa) = 23.44233 59.40601 41.42417
# Shear Modulus (GPa) = 20.09889 35.87455 27.98672
#
# Velocity S-wave (km/s) = 2.89442 3.86695 3.41548
# Velocity P-wave (km/s) = 4.57619 6.68577 5.72892
#
# Compressibility (1/GPa) = 0.04265788
#
# Stress axis : x y z
#
# Youngs Moduli (GPa) = 64.04927 35.04057 68.03771
#
# Poissons Ratio (x) = -0.00760 0.08534
# Poissons Ratio (y) = -0.01390 0.48023
# Poissons Ratio (z) = 0.08034 0.24732
#
# Static dielectric constant tensor:
#      x y z
#    x 1.958190 0.065310 -0.046990 
#    y 0.065310 2.023960 0.064010 
#    z -0.046990 0.064010 1.992130 
# 
# From -- ./inp_files/398170.got.cif
#   From: 2010.05.17/outbox.cif.g08.bks.cpg/sg2_200_cif.got.tgz:398170.got - 2010.06.03 11:33:40.
