data_PCOD9047971
_publ_section_title
;
Structure prediction by ZEFSAII (Michael W. Deem and Ramdas Pophale) SiO2 
 PCOD9047971
Probable space group: P -1
;
_chemical_formula_sum "Si O2"
_cell_formula_units_Z 16
_cell_length_a 11.504974
_cell_length_b 12.092584
_cell_length_c 12.971965
_cell_angle_alpha 115.461209
_cell_angle_beta 37.861855
_cell_angle_gamma 89.205060
_cell_volume 770.506576
_symmetry_space_group_name_H-M "P -1"
_symmetry_group_IT_number 2
_symmetry_cell_setting 'triclinic'
loop_
_space_group_symop_operation_xyz
x,y,z
-x,-y,-z
loop_
_atom_site_type_symbol
_atom_site_label
_atom_site_fract_x
_atom_site_fract_y
_atom_site_fract_z
Si Si1 0.775413 0.832655 0.236655
Si Si2 0.894655 0.155193 0.427933
Si Si3 0.250187 0.208251 0.979672
Si Si4 0.840529 0.291203 0.907379
Si Si5 0.765757 0.982920 0.598270
Si Si6 0.607300 0.134214 0.996331
Si Si7 0.618153 0.649929 0.213345
Si Si8 0.926137 0.671695 0.619903
O O1 0.735336 0.702491 0.228499
O O2 0.963982 0.808487 0.176480
O O3 0.500000 0.000000 0.500000
O O4 0.870081 0.805778 0.041297
O O5 0.838447 0.075624 0.521335
O O6 0.678079 0.229225 0.526521
O O7 0.888404 0.297232 0.530007
O O8 0.179179 0.011378 0.139832
O O9 0.119202 0.278202 0.207359
O O10 0.514594 0.037448 0.746137
O O11 0.312307 0.317733 0.933178
O O12 0.639449 0.266621 0.036998
O O13 0.723975 0.471543 0.073940
O O14 0.009990 0.201181 0.651644
O O15 0.693440 0.053490 0.790750
O O16 0.323057 0.214225 0.228316
O O17 0.000000 0.500000 0.500000
#
# Coordination Sequence:
#
# PCOD9047971 Si02
#       8
#     2   2   2   2   2   2   2   2
#     4  10  17  34  58  80 108 138 175 223 267 315
#     4  10  18  35  53  73 107 145 174 217 264 320
#     4   8  19  35  50  80 106 137 181 213 262 319
#     4  11  17  30  56  84 107 134 171 228 276 297
#     4   9  18  34  54  80 105 139 180 224 260 320
#     4  10  21  35  53  81 106 141 185 216 263 327
#     4   9  20  32  53  85 106 131 182 226 263 313
#     4  11  22  35  54  76 111 146 175 222 268 315
#
# _framework density 20.765560000000001
#
# number of rings (size 3 to 8) (size 9 to 14) (size 15 to 20)
#    0.750    1.500    1.250    3.750    0.000    2.000 
#    0.000    5.625    0.000    9.750    0.000    0.000 
#    0.000    0.000    0.000    0.000    0.000    0.000 
#
# Total GULP energy -89086.487972 kJ/mol
# GULP energy per Si atom -5567.905498 kJ/mol
# Density = 2.071830 g / cm^3
# Si number density = 20.765560 Si / 1000 Ang^3
#
#
#
# Elastic Constant Matrix: (Units=GPa)
#
#
# Indices 1 2 3 4 5 6 
#
# 1 90.4244 6.4832 11.9844 -10.2027 -7.1065 8.9945
# 2 6.4832 63.4641 14.2325 14.2376 9.7368 18.1766
# 3 11.9844 14.2325 36.5955 6.0138 1.0100 -2.1944
# 4 -10.2027 14.2376 6.0138 25.9921 5.7957 -0.1152
# 5 -7.1065 9.7368 1.0100 5.7957 29.5530 3.7442
# 6 8.9945 18.1766 -2.1944 -0.1152 3.7442 30.2042
#
#
#
# Elastic Compliance Matrix: (Units=1/GPa)
#
#
# Indices 1 2 3 4 5 6 
#
# 1 0.013165 -0.000779 -0.005352 0.006162 0.002926 -0.004180
# 2 -0.000779 0.025233 -0.008492 -0.011321 -0.004076 -0.015108
# 3 -0.005352 -0.008492 0.033788 -0.005280 0.000237 0.009109
# 4 0.006162 -0.011321 -0.005280 0.049451 -0.004990 0.005402
# 5 0.002926 -0.004076 0.000237 -0.004990 0.037240 -0.003036
# 6 -0.004180 -0.015108 0.009109 0.005402 -0.003036 0.044503
#
#
# Mechanical properties :
#
#
# Convention : Reuss Voigt Hill
#
# Bulk Modulus (GPa) = 23.28766 28.43158 25.85962
# Shear Modulus (GPa) = 20.24786 27.66877 23.95832
#
# Velocity S-wave (km/s) = 3.12600 3.65421 3.40038
# Velocity P-wave (km/s) = 4.92626 5.61478 5.28175
#
# Compressibility (1/GPa) = 0.04294120
#
# Stress axis : x y z
#
# Youngs Moduli (GPa) = 75.95804 39.63079 29.59597
#
# Poissons Ratio (x) = 0.03086 0.15841
# Poissons Ratio (y) = 0.05914 0.25131
# Poissons Ratio (z) = 0.40657 0.33653
#
# Static dielectric constant tensor:
#      x y z
#    x 1.778610 -0.009240 -0.022030 
#    y -0.009240 1.806360 -0.004160 
#    z -0.022030 -0.004160 1.781070 
# 
# From -- ./inp_files/520950.got.cif
#   From: 2010.05.17/outbox.cif.g08.bks.cpg/sg2_261_cif.got.tgz:520950.got - 2010.06.03 11:33:40.
