data_PCOD9047177
_publ_section_title
;
Structure prediction by ZEFSAII (Michael W. Deem and Ramdas Pophale) SiO2 
 PCOD9047177
Probable space group: P -1
;
_chemical_formula_sum "Si O2"
_cell_formula_units_Z 14
_cell_length_a 22.694611
_cell_length_b 5.613125
_cell_length_c 16.025949
_cell_angle_alpha 91.687558
_cell_angle_beta 163.014601
_cell_angle_gamma 90.985774
_cell_volume 588.883876
_symmetry_space_group_name_H-M "P -1"
_symmetry_group_IT_number 2
_symmetry_cell_setting 'triclinic'
loop_
_space_group_symop_operation_xyz
x,y,z
-x,-y,-z
loop_
_atom_site_type_symbol
_atom_site_label
_atom_site_fract_x
_atom_site_fract_y
_atom_site_fract_z
Si Si1 0.776789 0.472453 0.482923
Si Si2 0.415436 0.060216 0.798045
Si Si3 0.170518 0.828105 0.725368
Si Si4 0.236190 0.006188 0.222157
Si Si5 0.909610 0.508514 0.230885
Si Si6 0.855999 0.666177 0.764843
Si Si7 0.584952 0.706626 0.684745
O O1 0.641443 0.671149 0.268724
O O2 0.748647 0.518074 0.542796
O O3 0.985127 0.554427 0.713789
O O4 0.748423 0.180908 0.438401
O O5 0.598698 0.058328 0.980758
O O6 0.500000 0.000000 0.000000
O O7 0.169175 0.698849 0.811735
O O8 0.088384 0.660666 0.532173
O O9 0.000000 0.000000 0.500000
O O10 0.390080 0.822356 0.450318
O O11 0.274509 0.227122 0.341138
O O12 0.277311 0.095335 0.184887
O O13 0.004557 0.884514 0.922891
O O14 0.721960 0.633213 0.944745
O O15 0.000000 0.500000 0.000000
O O16 0.500000 0.500000 0.500000
#
# Coordination Sequence:
#
# PCOD9047177 Si02
#       7
#     2   2   2   2   2   2   2
#     4  12  28  47  80 109 148 203 251 310 385 447
#     4  12  27  49  77 109 149 192 257 315 375 453
#     4  11  27  48  73 107 149 192 252 311 381 449
#     4  10  24  43  73 103 151 192 244 311 367 452
#     4  11  26  46  75 105 148 200 245 314 376 452
#     4  11  25  46  71 107 150 191 250 305 373 448
#     4  11  24  46  72 108 148 191 249 303 380 449
#
# _framework density 23.773786000000001
#
# number of rings (size 3 to 8) (size 9 to 14) (size 15 to 20)
#    0.000    0.857    1.429    3.857   10.000    5.714 
#    0.000    0.000    0.000    0.000    0.000    0.000 
#    0.000    0.000    0.000    0.000    0.000    0.000 
#
# Total GULP energy -78187.446962 kJ/mol
# GULP energy per Si atom -5584.817640 kJ/mol
# Density = 2.371968 g / cm^3
# Si number density = 23.773786 Si / 1000 Ang^3
#
#
#
# Elastic Constant Matrix: (Units=GPa)
#
#
# Indices 1 2 3 4 5 6 
#
# 1 93.6941 29.5544 19.1119 -16.9568 13.3006 14.6519
# 2 29.5544 83.9977 33.4477 -25.0964 -1.4319 7.9995
# 3 19.1119 33.4477 57.4734 -34.9374 -1.8731 19.3773
# 4 -16.9568 -25.0964 -34.9374 50.8454 6.5559 0.7072
# 5 13.3006 -1.4319 -1.8731 6.5559 47.3018 -4.2397
# 6 14.6519 7.9995 19.3773 0.7072 -4.2397 56.4934
#
#
#
# Elastic Compliance Matrix: (Units=1/GPa)
#
#
# Indices 1 2 3 4 5 6 
#
# 1 0.013668 -0.003805 0.001521 0.004407 -0.004863 -0.003948
# 2 -0.003805 0.016751 -0.008265 0.001140 0.001229 0.001528
# 3 0.001521 -0.008265 0.042392 0.026263 -0.003929 -0.014388
# 4 0.004407 0.001140 0.026263 0.040785 -0.006834 -0.011336
# 5 -0.004863 0.001229 -0.003929 -0.006834 0.023722 0.004301
# 6 -0.003948 0.001528 -0.014388 -0.011336 0.004301 0.023909
#
#
# Mechanical properties :
#
#
# Convention : Reuss Voigt Hill
#
# Bulk Modulus (GPa) = 19.33780 44.37705 31.85742
# Shear Modulus (GPa) = 25.05468 41.13154 33.09311
#
# Velocity S-wave (km/s) = 3.24987 4.16399 3.73500
# Velocity P-wave (km/s) = 4.71529 6.46725 5.65947
#
# Compressibility (1/GPa) = 0.05171220
#
# Stress axis : x y z
#
# Youngs Moduli (GPa) = 73.16161 59.69731 23.58954
#
# Poissons Ratio (x) = 0.22714 -0.03588
# Poissons Ratio (y) = 0.27837 0.19498
# Poissons Ratio (z) = -0.11127 0.49343
#
# Static dielectric constant tensor:
#      x y z
#    x 1.849320 -0.131290 -0.024900 
#    y -0.131290 1.960730 0.074670 
#    z -0.024900 0.074670 1.920310 
# 
# From -- ./inp_files/119444.got.cif
#   From: 2010.05.17/outbox.cif.g08.bks.cpg/sg2_60_cif.got.tgz:119444.got - 2010.06.03 11:33:40.
