data_PCOD9047164
_publ_section_title
;
Structure prediction by ZEFSAII (Michael W. Deem and Ramdas Pophale) SiO2 
 PCOD9047164
Probable space group: P -1
;
_chemical_formula_sum "Si O2"
_cell_formula_units_Z 12
_cell_length_a 11.155664
_cell_length_b 14.742592
_cell_length_c 5.113257
_cell_angle_alpha 87.166951
_cell_angle_beta 84.025309
_cell_angle_gamma 40.487721
_cell_volume 542.470047
_symmetry_space_group_name_H-M "P -1"
_symmetry_group_IT_number 2
_symmetry_cell_setting 'triclinic'
loop_
_space_group_symop_operation_xyz
x,y,z
-x,-y,-z
loop_
_atom_site_type_symbol
_atom_site_label
_atom_site_fract_x
_atom_site_fract_y
_atom_site_fract_z
Si Si1 0.760692 0.512414 0.893982
Si Si2 0.504269 0.184967 0.857395
Si Si3 0.311610 0.619806 0.356035
Si Si4 0.867963 0.083842 0.766694
Si Si5 0.961691 0.363522 0.376219
Si Si6 0.608446 0.853453 0.611386
O O1 0.678757 0.458718 0.871330
O O2 0.533736 0.870398 0.911735
O O3 0.607431 0.666393 0.017548
O O4 0.921957 0.416461 0.084774
O O5 0.718291 0.089120 0.805819
O O6 0.137223 0.677616 0.551955
O O7 0.430343 0.202485 0.585544
O O8 0.500000 0.500000 0.500000
O O9 0.250810 0.754300 0.258019
O O10 0.150881 0.512571 0.401381
O O11 0.000000 0.000000 0.500000
O O12 0.000000 0.000000 0.000000
O O13 0.176004 0.245664 0.405650
O O14 0.500000 0.000000 0.500000
#
# Coordination Sequence:
#
# PCOD9047164 Si02
#       6
#     2   2   2   2   2   2
#     4  10  24  44  73 109 139 184 245 299 374 423
#     4  12  27  46  75 105 145 188 251 302 365 435
#     4  10  26  47  78 106 152 192 247 304 376 435
#     4  12  30  47  75 110 152 193 245 311 368 451
#     4  10  24  43  73 101 143 187 241 296 365 432
#     4  12  28  47  71 102 149 197 241 299 365 446
#
# _framework density 22.121037000000001
#
# number of rings (size 3 to 8) (size 9 to 14) (size 15 to 20)
#    1.000    0.000    0.000    4.500   11.667    5.333 
#    0.000    0.000    0.000    0.000    0.000    0.000 
#    0.000    0.000    0.000    0.000    0.000    0.000 
#
# Total GULP energy -67100.416787 kJ/mol
# GULP energy per Si atom -5591.701399 kJ/mol
# Density = 2.207069 g / cm^3
# Si number density = 22.121037 Si / 1000 Ang^3
#
#
#
# Elastic Constant Matrix: (Units=GPa)
#
#
# Indices 1 2 3 4 5 6 
#
# 1 136.3803 50.2886 42.8843 -15.2800 9.2350 -47.2175
# 2 50.2886 114.5478 41.0127 -15.2089 14.5135 -11.2058
# 3 42.8843 41.0127 136.3916 -17.4226 25.3192 -16.0551
# 4 -15.2800 -15.2089 -17.4226 36.6111 -4.5745 7.5366
# 5 9.2350 14.5135 25.3192 -4.5745 39.6306 -8.2108
# 6 -47.2175 -11.2058 -16.0551 7.5366 -8.2108 41.2492
#
#
#
# Elastic Compliance Matrix: (Units=1/GPa)
#
#
# Indices 1 2 3 4 5 6 
#
# 1 0.014854 -0.004599 -0.001901 0.000541 0.002701 0.015453
# 2 -0.004599 0.011658 -0.001690 0.002565 -0.002597 -0.003741
# 3 -0.001901 -0.001690 0.009628 0.002545 -0.004862 -0.000320
# 4 0.000541 0.002565 0.002545 0.030502 0.000160 -0.003235
# 5 0.002701 -0.002597 -0.004862 0.000160 0.030013 0.006440
# 6 0.015453 -0.003741 -0.000320 -0.003235 0.006440 0.042663
#
#
# Mechanical properties :
#
#
# Convention : Reuss Voigt Hill
#
# Bulk Modulus (GPa) = 50.61027 72.85453 61.73240
# Shear Modulus (GPa) = 30.81022 40.37379 35.59201
#
# Velocity S-wave (km/s) = 3.73607 4.27679 4.01554
# Velocity P-wave (km/s) = 6.44511 7.57588 7.03326
#
# Compressibility (1/GPa) = 0.01975884
#
# Stress axis : x y z
#
# Youngs Moduli (GPa) = 67.32342 85.77913 103.86912
#
# Poissons Ratio (x) = 0.39452 0.19743
# Poissons Ratio (y) = 0.30964 0.17555
# Poissons Ratio (z) = 0.12796 0.14497
#
# Static dielectric constant tensor:
#      x y z
#    x 1.861280 0.050230 -0.039290 
#    y 0.050230 1.809150 0.012930 
#    z -0.039290 0.012930 1.803360 
# 
# From -- ./inp_files/74562.got.cif
#   From: 2010.05.17/outbox.cif.g08.bks.cpg/sg2_38_cif.got.tgz:74562.got - 2010.06.03 11:33:40.
