data_PCOD9047675
_publ_section_title
;
Structure prediction by ZEFSAII (Michael W. Deem and Ramdas Pophale) SiO2 
 PCOD9047675
Probable space group: P -1
;
_chemical_formula_sum "Si O2"
_cell_formula_units_Z 16
_cell_length_a 16.678329
_cell_length_b 9.242730
_cell_length_c 11.634314
_cell_angle_alpha 40.300670
_cell_angle_beta 46.482616
_cell_angle_gamma 46.375317
_cell_volume 787.578571
_symmetry_space_group_name_H-M "P -1"
_symmetry_group_IT_number 2
_symmetry_cell_setting 'triclinic'
loop_
_space_group_symop_operation_xyz
x,y,z
-x,-y,-z
loop_
_atom_site_type_symbol
_atom_site_label
_atom_site_fract_x
_atom_site_fract_y
_atom_site_fract_z
Si Si1 0.498064 0.189535 0.484512
Si Si2 0.487512 0.402312 0.943210
Si Si3 0.734936 0.070237 0.806659
Si Si4 0.759505 0.569296 0.428076
Si Si5 0.258633 0.129426 0.509157
Si Si6 0.902955 0.158799 0.086828
Si Si7 0.077489 0.265964 0.999721
Si Si8 0.247101 0.316893 0.172884
O O1 0.521417 0.398374 0.264854
O O2 0.364996 0.298352 0.595609
O O3 0.500000 0.000000 0.500000
O O4 0.607068 0.046400 0.543491
O O5 0.607142 0.187714 0.921985
O O6 0.500000 0.500000 0.000000
O O7 0.369434 0.343813 0.077553
O O8 0.773540 0.291416 0.591055
O O9 0.732085 0.892854 0.813567
O O10 0.825566 0.915417 0.905586
O O11 0.742977 0.677303 0.508635
O O12 0.858826 0.645232 0.221204
O O13 0.196611 0.251442 0.380357
O O14 0.193819 0.961433 0.726441
O O15 0.838305 0.431370 0.945389
O O16 0.982111 0.153268 0.122215
O O17 0.000000 0.000000 0.000000
O O18 0.000000 0.500000 0.000000
#
# Coordination Sequence:
#
# PCOD9047675 Si02
#       8
#     2   2   2   2   2   2   2   2
#     4   9  19  39  65 103 134 167 224 284 345 402
#     4  11  23  42  73 103 141 180 233 289 347 413
#     4  11  27  45  68 104 144 182 230 287 354 421
#     4  10  24  44  69 104 133 184 236 285 349 411
#     4  11  24  43  72 102 139 179 234 296 343 410
#     4  12  27  47  69 102 140 186 242 289 336 419
#     4  12  27  47  71  97 142 193 232 282 351 421
#     4  12  26  45  69 106 142 183 228 291 355 410
#
# _framework density 20.315435000000001
#
# number of rings (size 3 to 8) (size 9 to 14) (size 15 to 20)
#    0.000    1.000    3.750    2.625   10.500    2.000 
#    0.000    1.250    0.000    0.000    0.000    0.000 
#    0.000    0.000    0.000    0.000    0.000    0.000 
#
# Total GULP energy -89364.298541 kJ/mol
# GULP energy per Si atom -5585.268659 kJ/mol
# Density = 2.026920 g / cm^3
# Si number density = 20.315435 Si / 1000 Ang^3
#
#
#
# Elastic Constant Matrix: (Units=GPa)
#
#
# Indices 1 2 3 4 5 6 
#
# 1 108.5890 48.5955 16.3670 -14.9185 1.9856 3.2043
# 2 48.5955 122.2041 37.7857 -19.1585 -1.1348 0.6393
# 3 16.3670 37.7857 57.9297 -18.9637 8.2780 -9.6731
# 4 -14.9185 -19.1585 -18.9637 28.4553 2.6008 -2.7689
# 5 1.9856 -1.1348 8.2780 2.6008 24.3117 -4.2718
# 6 3.2043 0.6393 -9.6731 -2.7689 -4.2718 37.3523
#
#
#
# Elastic Compliance Matrix: (Units=1/GPa)
#
#
# Indices 1 2 3 4 5 6 
#
# 1 0.011588 -0.004321 0.001043 0.003990 -0.002033 -0.000587
# 2 -0.004321 0.012283 -0.007175 0.000819 0.003055 -0.001287
# 3 0.001043 -0.007175 0.030406 0.017783 -0.011281 0.007936
# 4 0.003990 0.000819 0.017783 0.051274 -0.010627 0.006835
# 5 -0.002033 0.003055 -0.011281 -0.010627 0.046728 0.001757
# 6 -0.000587 -0.001287 0.007936 0.006835 0.001757 0.029607
#
#
# Mechanical properties :
#
#
# Convention : Reuss Voigt Hill
#
# Bulk Modulus (GPa) = 29.96479 54.91324 42.43901
# Shear Modulus (GPa) = 23.37369 30.42217 26.89793
#
# Velocity S-wave (km/s) = 3.39564 3.87394 3.64265
# Velocity P-wave (km/s) = 5.49141 6.86286 6.21508
#
# Compressibility (1/GPa) = 0.03337250
#
# Stress axis : x y z
#
# Youngs Moduli (GPa) = 86.29481 81.41220 32.88810
#
# Poissons Ratio (x) = 0.35178 -0.03431
# Poissons Ratio (y) = 0.37287 0.23596
# Poissons Ratio (z) = -0.09002 0.58411
#
# Static dielectric constant tensor:
#      x y z
#    x 1.693810 -0.035670 0.016080 
#    y -0.035670 1.698290 0.026490 
#    z 0.016080 0.026490 1.689700 
# 
# From -- ./inp_files/399008.got.cif
#   From: 2010.05.17/outbox.cif.g08.bks.cpg/sg2_200_cif.got.tgz:399008.got - 2010.06.03 11:33:40.
