data_PCOD9047929
_publ_section_title
;
Structure prediction by ZEFSAII (Michael W. Deem and Ramdas Pophale) SiO2 
 PCOD9047929
Probable space group: P -1
;
_chemical_formula_sum "Si O2"
_cell_formula_units_Z 14
_cell_length_a 13.058009
_cell_length_b 5.479060
_cell_length_c 10.414492
_cell_angle_alpha 74.664087
_cell_angle_beta 130.841588
_cell_angle_gamma 98.102134
_cell_volume 543.096060
_symmetry_space_group_name_H-M "P -1"
_symmetry_group_IT_number 2
_symmetry_cell_setting 'triclinic'
loop_
_space_group_symop_operation_xyz
x,y,z
-x,-y,-z
loop_
_atom_site_type_symbol
_atom_site_label
_atom_site_fract_x
_atom_site_fract_y
_atom_site_fract_z
Si Si1 0.405111 0.700119 0.820753
Si Si2 0.213103 0.824417 0.867274
Si Si3 0.217742 0.937371 0.222002
Si Si4 0.554249 0.127222 0.760131
Si Si5 0.700407 0.544380 0.485862
Si Si6 0.088223 0.246414 0.568139
Si Si7 0.001027 0.752424 0.884570
O O1 0.271842 0.740602 0.790645
O O2 0.368009 0.615787 0.660518
O O3 0.487447 0.949413 0.834433
O O4 0.500000 0.500000 0.000000
O O5 0.075748 0.702917 0.818723
O O6 0.179599 0.126681 0.778329
O O7 0.328784 0.746005 0.077606
O O8 0.359533 0.004999 0.265675
O O9 0.236324 0.656666 0.334292
O O10 0.106610 0.934518 0.017015
O O11 0.147375 0.114087 0.248032
O O12 0.426344 0.293880 0.582025
O O13 0.810519 0.693870 0.474004
O O14 0.000000 0.500000 0.500000
O O15 0.000000 0.000000 0.500000
O O16 0.000000 0.500000 0.000000
#
# Coordination Sequence:
#
# PCOD9047929 Si02
#       7
#     2   2   2   2   2   2   2
#     4  12  24  41  71 104 142 188 236 302 370 439
#     4  11  23  46  70 105 139 184 247 296 370 434
#     4  10  25  45  67 102 140 184 241 294 358 436
#     4  11  24  44  71 103 136 187 239 300 367 432
#     4  12  25  45  69 105 145 181 242 298 369 439
#     4  12  27  45  71 107 148 195 241 307 371 440
#     4  10  24  44  71  96 135 190 235 292 354 433
#
# _framework density 25.778127999999999
#
# number of rings (size 3 to 8) (size 9 to 14) (size 15 to 20)
#    0.000    0.857    2.857    3.429    4.000    1.714 
#    2.571    0.000    0.000    0.000    0.000    0.000 
#    0.000    0.000    0.000    0.000    0.000    0.000 
#
# Total GULP energy -78378.554553 kJ/mol
# GULP energy per Si atom -5598.468182 kJ/mol
# Density = 2.571946 g / cm^3
# Si number density = 25.778128 Si / 1000 Ang^3
#
#
#
# Elastic Constant Matrix: (Units=GPa)
#
#
# Indices 1 2 3 4 5 6 
#
# 1 243.4901 40.8022 36.7506 -26.3020 33.1070 -5.0910
# 2 40.8022 57.4768 17.0265 -24.8328 19.0905 -4.8062
# 3 36.7506 17.0265 119.0511 -23.1476 22.1097 -6.9682
# 4 -26.3020 -24.8328 -23.1476 55.5653 -4.3830 0.6165
# 5 33.1070 19.0905 22.1097 -4.3830 50.8017 -11.0909
# 6 -5.0910 -4.8062 -6.9682 0.6165 -11.0909 38.6343
#
#
#
# Elastic Compliance Matrix: (Units=1/GPa)
#
#
# Indices 1 2 3 4 5 6 
#
# 1 0.004962 -0.002275 -0.000665 0.000894 -0.002091 -0.000364
# 2 -0.002275 0.025707 0.000367 0.009980 -0.007323 0.000703
# 3 -0.000665 0.000367 0.009979 0.003717 -0.003580 0.000671
# 4 0.000894 0.009980 0.003717 0.024127 -0.003744 0.000570
# 5 -0.002091 -0.007323 -0.003580 -0.003744 0.026296 0.005776
# 6 -0.000364 0.000703 0.000671 0.000570 0.005776 0.027693
#
#
# Mechanical properties :
#
#
# Convention : Reuss Voigt Hill
#
# Bulk Modulus (GPa) = 28.16707 67.68627 47.92667
# Shear Modulus (GPa) = 36.83395 50.69617 43.76506
#
# Velocity S-wave (km/s) = 3.78416 4.43949 4.12486
# Velocity P-wave (km/s) = 5.48120 7.25210 6.42793
#
# Compressibility (1/GPa) = 0.03550245
#
# Stress axis : x y z
#
# Youngs Moduli (GPa) = 201.53539 38.89963 100.20552
#
# Poissons Ratio (x) = 0.08849 0.06668
# Poissons Ratio (y) = 0.45845 -0.03679
# Poissons Ratio (z) = 0.13411 -0.01428
#
# Static dielectric constant tensor:
#      x y z
#    x 2.007190 -0.054470 0.015040 
#    y -0.054470 2.009810 0.061300 
#    z 0.015040 0.061300 2.125850 
# 
# From -- ./inp_files/101285.got.cif
#   From: 2010.05.17/outbox.cif.g08.bks.cpg/sg2_51_cif.got.tgz:101285.got - 2010.06.03 11:33:40.
