data_PCOD9047394
_publ_section_title
;
Structure prediction by ZEFSAII (Michael W. Deem and Ramdas Pophale) SiO2 
 PCOD9047394
Probable space group: P -1
;
_chemical_formula_sum "Si O2"
_cell_formula_units_Z 12
_cell_length_a 5.047737
_cell_length_b 7.698558
_cell_length_c 14.240702
_cell_angle_alpha 55.336354
_cell_angle_beta 110.445005
_cell_angle_gamma 107.749029
_cell_volume 422.433462
_symmetry_space_group_name_H-M "P -1"
_symmetry_group_IT_number 2
_symmetry_cell_setting 'triclinic'
loop_
_space_group_symop_operation_xyz
x,y,z
-x,-y,-z
loop_
_atom_site_type_symbol
_atom_site_label
_atom_site_fract_x
_atom_site_fract_y
_atom_site_fract_z
Si Si1 0.508973 0.304133 0.370314
Si Si2 0.726708 0.347686 0.049088
Si Si3 0.000000 0.500000 0.500000
Si Si4 0.000000 0.000000 0.500000
Si Si5 0.457483 0.741321 0.143197
Si Si6 0.322536 0.953545 0.693333
Si Si7 0.091558 0.806628 0.249465
O O1 0.460417 0.486633 0.234507
O O2 0.707596 0.150969 0.385268
O O3 0.682303 0.405167 0.447934
O O4 0.225344 0.161513 0.411701
O O5 0.783064 0.212625 0.188840
O O6 0.500000 0.500000 0.000000
O O7 0.591267 0.213245 0.984791
O O8 0.000000 0.500000 0.000000
O O9 0.237988 0.158948 0.806811
O O10 0.088755 0.595706 0.373965
O O11 0.864631 0.863858 0.414588
O O12 0.198334 0.787149 0.162201
O O13 0.656436 0.021950 0.730624
#
# Coordination Sequence:
#
# PCOD9047394 Si02
#       7
#     2   2   1   1   2   2   2
#     4  11  25  44  75 102 151 196 256 309 379 463
#     4  12  26  49  80 110 147 203 258 321 377 458
#     4  10  24  44  66 106 150 196 240 302 382 444
#     4  12  26  42  74 114 152 192 258 322 382 452
#     4  11  26  48  74 111 149 202 256 310 384 452
#     4  12  28  46  75 113 150 201 257 318 384 453
#     4  11  27  45  74 111 156 199 249 320 380 458
#
# _framework density 28.406842000000001
#
# number of rings (size 3 to 8) (size 9 to 14) (size 15 to 20)
#    0.000    0.667    3.333    2.500    9.333    5.333 
#    0.000    0.000    0.000    0.000    0.000    0.000 
#    0.000    0.000    0.000    0.000    0.000    0.000 
#
# Total GULP energy -67073.239763 kJ/mol
# GULP energy per Si atom -5589.436647 kJ/mol
# Density = 2.834219 g / cm^3
# Si number density = 28.406842 Si / 1000 Ang^3
#
#
#
# Elastic Constant Matrix: (Units=GPa)
#
#
# Indices 1 2 3 4 5 6 
#
# 1 191.8181 35.5326 38.6327 -23.3185 -24.4864 38.3895
# 2 35.5326 90.9779 41.8837 10.6638 2.9840 24.7582
# 3 38.6327 41.8837 273.9300 -11.6492 -8.7860 17.8525
# 4 -23.3185 10.6638 -11.6492 53.3796 -0.0575 4.0641
# 5 -24.4864 2.9840 -8.7860 -0.0575 43.2251 5.8704
# 6 38.3895 24.7582 17.8525 4.0641 5.8704 64.6470
#
#
#
# Elastic Compliance Matrix: (Units=1/GPa)
#
#
# Indices 1 2 3 4 5 6 
#
# 1 0.007715 -0.002447 -0.000089 0.004176 0.005117 -0.004347
# 2 -0.002447 0.014181 -0.001877 -0.004086 -0.002346 -0.002990
# 3 -0.000089 -0.001877 0.004069 0.001265 0.000979 -0.000520
# 4 0.004176 -0.004086 0.001265 0.021878 0.003334 -0.002942
# 5 0.005117 -0.002346 0.000979 0.003334 0.027089 -0.005080
# 6 -0.004347 -0.002990 -0.000520 -0.002942 -0.005080 0.019985
#
#
# Mechanical properties :
#
#
# Convention : Reuss Voigt Hill
#
# Bulk Modulus (GPa) = 58.34425 87.64711 72.99568
# Shear Modulus (GPa) = 45.67987 61.62880 53.65433
#
# Velocity S-wave (km/s) = 4.01441 4.66285 4.35073
# Velocity P-wave (km/s) = 6.48619 7.74020 7.14078
#
# Compressibility (1/GPa) = 0.01713965
#
# Stress axis : x y z
#
# Youngs Moduli (GPa) = 129.61045 70.51637 245.74510
#
# Poissons Ratio (x) = 0.17253 0.02186
# Poissons Ratio (y) = 0.31712 0.46136
# Poissons Ratio (z) = 0.01153 0.13239
#
# Static dielectric constant tensor:
#      x y z
#    x 2.154010 0.015240 0.044560 
#    y 0.015240 1.621740 0.001250 
#    z 0.044560 0.001250 2.166140 
# 
# From -- ./inp_files/62545.got.cif
#   From: 2010.05.17/outbox.cif.g08.bks.cpg/sg2_32_cif.got.tgz:62545.got - 2010.06.03 11:33:40.
