data_PCOD9047389
_publ_section_title
;
Structure prediction by ZEFSAII (Michael W. Deem and Ramdas Pophale) SiO2 
 PCOD9047389
Probable space group: P -1
;
_chemical_formula_sum "Si O2"
_cell_formula_units_Z 14
_cell_length_a 10.311376
_cell_length_b 10.340196
_cell_length_c 13.181848
_cell_angle_alpha 51.327311
_cell_angle_beta 143.282256
_cell_angle_gamma 134.331024
_cell_volume 594.152037
_symmetry_space_group_name_H-M "P -1"
_symmetry_group_IT_number 2
_symmetry_cell_setting 'triclinic'
loop_
_space_group_symop_operation_xyz
x,y,z
-x,-y,-z
loop_
_atom_site_type_symbol
_atom_site_label
_atom_site_fract_x
_atom_site_fract_y
_atom_site_fract_z
Si Si1 0.190245 0.322924 0.336982
Si Si2 0.660594 0.286390 0.666582
Si Si3 0.823450 0.003094 0.980307
Si Si4 0.381444 0.632459 0.898983
Si Si5 0.109936 0.530756 0.445174
Si Si6 0.744705 0.978653 0.174397
Si Si7 0.540069 0.422463 0.793243
O O1 0.379977 0.233375 0.512121
O O2 0.247249 0.494305 0.363815
O O3 0.246439 0.439139 0.209974
O O4 0.934259 0.154808 0.263842
O O5 0.770640 0.183485 0.857831
O O6 0.775922 0.275095 0.636223
O O7 0.568170 0.833583 0.885812
O O8 0.865093 0.975210 0.140723
O O9 0.000000 0.000000 0.000000
O O10 0.127043 0.584642 0.713373
O O11 0.500000 0.500000 0.000000
O O12 0.370144 0.605705 0.026815
O O13 0.350192 0.507004 0.631911
O O14 0.000000 0.500000 0.500000
O O15 0.637853 0.781077 0.257830
O O16 0.500000 0.000000 0.000000
#
# Coordination Sequence:
#
# PCOD9047389 Si02
#       7
#     2   2   2   2   2   2   2
#     4  10  24  47  73  99 143 187 233 296 351 424
#     4  10  24  45  68 103 136 184 237 288 359 419
#     4  11  26  42  67 106 140 179 235 294 356 424
#     4  11  23  41  67  97 142 184 224 288 353 421
#     4  11  23  41  67  96 135 184 228 284 352 419
#     4  11  26  44  71 106 138 187 237 291 356 425
#     4  10  24  44  66 105 137 179 238 281 353 421
#
# _framework density 23.562991
#
# number of rings (size 3 to 8) (size 9 to 14) (size 15 to 20)
#    0.000    1.429    1.429    1.714   12.000    1.143 
#    0.000    4.286    0.000    0.000    0.000    0.000 
#    0.000    0.000    0.000    0.000    0.000    0.000 
#
# Total GULP energy -77999.465237 kJ/mol
# GULP energy per Si atom -5571.390374 kJ/mol
# Density = 2.350936 g / cm^3
# Si number density = 23.562991 Si / 1000 Ang^3
#
#
#
# Elastic Constant Matrix: (Units=GPa)
#
#
# Indices 1 2 3 4 5 6 
#
# 1 84.5237 -20.6730 16.8844 2.5219 -10.5471 11.4546
# 2 -20.6730 43.9884 3.5296 7.4194 3.1208 4.2111
# 3 16.8844 3.5296 90.8702 27.0708 -8.4389 10.3950
# 4 2.5219 7.4194 27.0708 40.7454 7.2969 1.5994
# 5 -10.5471 3.1208 -8.4389 7.2969 31.7237 -4.1220
# 6 11.4546 4.2111 10.3950 1.5994 -4.1220 28.7327
#
#
#
# Elastic Compliance Matrix: (Units=1/GPa)
#
#
# Indices 1 2 3 4 5 6 
#
# 1 0.015440 0.008015 -0.001643 -0.001710 0.003503 -0.006138
# 2 0.008015 0.028048 -0.000222 -0.005211 0.000147 -0.006915
# 3 -0.001643 -0.000222 0.015547 -0.011071 0.005703 -0.003503
# 4 -0.001710 -0.005211 -0.011071 0.034800 -0.010749 0.001971
# 5 0.003503 0.000147 0.005703 -0.010749 0.036977 0.002422
# 6 -0.006138 -0.006915 -0.003503 0.001971 0.002422 0.039769
#
#
# Mechanical properties :
#
#
# Convention : Reuss Voigt Hill
#
# Bulk Modulus (GPa) = 14.01824 24.31827 19.16826
# Shear Modulus (GPa) = 27.46367 34.88312 31.17339
#
# Velocity S-wave (km/s) = 3.41771 3.85180 3.64123
# Velocity P-wave (km/s) = 4.64074 5.48860 5.08238
#
# Compressibility (1/GPa) = 0.07133561
#
# Stress axis : x y z
#
# Youngs Moduli (GPa) = 64.76847 35.65256 64.32101
#
# Poissons Ratio (x) = -0.28577 0.10570
# Poissons Ratio (y) = -0.51914 0.01426
# Poissons Ratio (z) = 0.10644 0.00791
#
# Static dielectric constant tensor:
#      x y z
#    x 2.147560 -0.021680 -0.073730 
#    y -0.021680 1.988750 -0.069810 
#    z -0.073730 -0.069810 1.926930 
# 
# From -- ./inp_files/518810.got.cif
#   From: 2010.05.17/outbox.cif.g08.bks.cpg/sg2_260_cif.got.tgz:518810.got - 2010.06.03 11:33:40.
