data_PCOD9047679
_publ_section_title
;
Structure prediction by ZEFSAII (Michael W. Deem and Ramdas Pophale) SiO2 
 PCOD9047679
Probable space group: P -1
;
_chemical_formula_sum "Si O2"
_cell_formula_units_Z 13
_cell_length_a 15.832926
_cell_length_b 9.443819
_cell_length_c 6.653297
_cell_angle_alpha 121.469927
_cell_angle_beta 128.690192
_cell_angle_gamma 45.512422
_cell_volume 547.614736
_symmetry_space_group_name_H-M "P -1"
_symmetry_group_IT_number 2
_symmetry_cell_setting 'triclinic'
loop_
_space_group_symop_operation_xyz
x,y,z
-x,-y,-z
loop_
_atom_site_type_symbol
_atom_site_label
_atom_site_fract_x
_atom_site_fract_y
_atom_site_fract_z
Si Si1 0.074617 0.196927 0.940170
Si Si2 0.721445 0.061425 0.272886
Si Si3 0.395717 0.498805 0.486405
Si Si4 0.522201 0.808871 0.275354
Si Si5 0.840326 0.460001 0.006446
Si Si6 0.229781 0.239846 0.553070
Si Si7 0.000000 0.000000 0.000000
O O1 0.161334 0.234553 0.247244
O O2 0.063109 0.030155 0.912831
O O3 0.929000 0.398279 0.891649
O O4 0.147374 0.104288 0.771582
O O5 0.708916 0.268752 0.437720
O O6 0.717086 0.970686 0.411144
O O7 0.597127 0.116957 0.997263
O O8 0.500000 0.500000 0.500000
O O9 0.464146 0.354851 0.671329
O O10 0.310089 0.432773 0.199432
O O11 0.657989 0.725042 0.303431
O O12 0.500000 0.000000 0.500000
O O13 0.857051 0.595053 0.285655
O O14 0.897818 0.246419 0.038436
#
# Coordination Sequence:
#
# PCOD9047679 Si02
#       7
#     2   2   2   2   2   2   1
#     4  10  24  45  71  99 143 178 232 281 345 413
#     4  12  26  45  73 103 139 187 230 287 348 409
#     4  12  27  45  73 103 141 185 233 285 349 414
#     4  12  25  44  71 101 141 180 234 288 341 411
#     4  10  24  44  69 104 140 178 233 281 345 410
#     4  12  24  46  72 103 143 182 229 292 344 408
#     4   8  22  42  66  98 144 172 224 286 328 422
#
# _framework density 23.739315999999999
#
# number of rings (size 3 to 8) (size 9 to 14) (size 15 to 20)
#    0.923    0.000    1.538    5.077    4.308    1.231 
#    2.769    0.000    0.000    0.000    0.000    0.000 
#    0.000    0.000    0.000    0.000    0.000    0.000 
#
# Total GULP energy -72476.896137 kJ/mol
# GULP energy per Si atom -5575.145857 kJ/mol
# Density = 2.368528 g / cm^3
# Si number density = 23.739316 Si / 1000 Ang^3
#
#
#
# Elastic Constant Matrix: (Units=GPa)
#
#
# Indices 1 2 3 4 5 6 
#
# 1 137.8788 16.1243 11.9678 -14.2970 -23.9049 -0.6304
# 2 16.1243 97.3384 18.5139 -8.2234 -14.5402 17.2555
# 3 11.9678 18.5139 65.8231 5.2077 5.0323 0.3338
# 4 -14.2970 -8.2234 5.2077 32.1785 -3.2383 -15.6986
# 5 -23.9049 -14.5402 5.0323 -3.2383 31.2095 -3.2762
# 6 -0.6304 17.2555 0.3338 -15.6986 -3.2762 41.6632
#
#
#
# Elastic Compliance Matrix: (Units=1/GPa)
#
#
# Indices 1 2 3 4 5 6 
#
# 1 0.009983 0.000409 -0.003302 0.007853 0.009574 0.003720
# 2 0.000409 0.013026 -0.004513 0.003200 0.007065 -0.003592
# 3 -0.003302 -0.004513 0.018299 -0.007291 -0.008522 -0.001745
# 4 0.007853 0.003200 -0.007291 0.046732 0.015385 0.017670
# 5 0.009574 0.007065 -0.008522 0.015385 0.046343 0.006728
# 6 0.003720 -0.003592 -0.001745 0.017670 0.006728 0.032747
#
#
# Mechanical properties :
#
#
# Convention : Reuss Voigt Hill
#
# Bulk Modulus (GPa) = 37.74296 43.80581 40.77438
# Shear Modulus (GPa) = 26.20872 37.97252 32.09062
#
# Velocity S-wave (km/s) = 3.32629 4.00379 3.68066
# Velocity P-wave (km/s) = 5.53947 6.31401 5.93938
#
# Compressibility (1/GPa) = 0.02649501
#
# Stress axis : x y z
#
# Youngs Moduli (GPa) = 100.17202 76.76669 54.64706
#
# Poissons Ratio (x) = -0.03136 0.18045
# Poissons Ratio (y) = -0.04092 0.24663
# Poissons Ratio (z) = 0.33078 0.34647
#
# Static dielectric constant tensor:
#      x y z
#    x 1.952160 -0.050550 0.008700 
#    y -0.050550 1.901860 0.027270 
#    z 0.008700 0.027270 1.920320 
# 
# From -- ./inp_files/34723.got.cif
#   From: 2010.05.17/outbox.cif.g08.bks.cpg/sg2_18_cif.got.tgz:34723.got - 2010.06.03 11:33:40.
