data_PCOD9047619
_publ_section_title
;
Structure prediction by ZEFSAII (Michael W. Deem and Ramdas Pophale) SiO2 
 PCOD9047619
Probable space group: P -1
;
_chemical_formula_sum "Si O2"
_cell_formula_units_Z 16
_cell_length_a 22.163138
_cell_length_b 13.618962
_cell_length_c 22.227893
_cell_angle_alpha 30.612583
_cell_angle_beta 167.573959
_cell_angle_gamma 150.517594
_cell_volume 707.009690
_symmetry_space_group_name_H-M "P -1"
_symmetry_group_IT_number 2
_symmetry_cell_setting 'triclinic'
loop_
_space_group_symop_operation_xyz
x,y,z
-x,-y,-z
loop_
_atom_site_type_symbol
_atom_site_label
_atom_site_fract_x
_atom_site_fract_y
_atom_site_fract_z
Si Si1 0.211290 0.015080 0.574362
Si Si2 0.262814 0.820812 0.515331
Si Si3 0.286237 0.871712 0.909108
Si Si4 0.865236 0.036545 0.050428
Si Si5 0.889401 0.560318 0.512444
Si Si6 0.391379 0.264807 0.504643
Si Si7 0.254001 0.067218 0.259075
Si Si8 0.686262 0.496286 0.943906
O O1 0.199305 0.146133 0.435265
O O2 0.014671 0.075448 0.402749
O O3 0.538749 0.076256 0.885785
O O4 0.088602 0.776992 0.571981
O O5 0.206768 0.597899 0.551875
O O6 0.196540 0.955308 0.324968
O O7 0.026258 0.856403 0.314886
O O8 0.601759 0.914069 0.813686
O O9 0.241894 0.649632 0.958629
O O10 0.500000 0.000000 0.000000
O O11 0.174664 0.214643 0.262354
O O12 0.655917 0.160492 0.812314
O O13 0.612029 0.589210 0.264001
O O14 0.068001 0.469012 0.783500
O O15 0.500000 0.500000 0.500000
O O16 0.331311 0.304988 0.211768
O O17 0.500000 0.000000 0.500000
O O18 0.000000 0.000000 0.000000
#
# Coordination Sequence:
#
# PCOD9047619 Si02
#       8
#     2   2   2   2   2   2   2   2
#     4  12  25  43  69  97 130 181 223 271 348 398
#     4  11  22  40  66  93 135 176 216 274 331 389
#     4  12  23  40  65  99 141 169 222 276 319 403
#     4  10  24  44  68  97 127 165 222 288 327 389
#     4  12  22  40  64  92 131 180 218 251 335 394
#     4  11  25  48  73  95 131 169 224 288 345 393
#     4  12  22  37  59  93 132 173 225 255 318 400
#     4  12  23  37  60  93 136 181 212 267 312 389
#
# _framework density 22.630524000000001
#
# number of rings (size 3 to 8) (size 9 to 14) (size 15 to 20)
#    0.000    0.500    5.000    3.750    0.000    3.000 
#    0.000    3.750    0.000    0.000    0.000    0.000 
#    0.000    0.000    0.000    0.000    0.000    0.000 
#
# Total GULP energy -89173.331479 kJ/mol
# GULP energy per Si atom -5573.333217 kJ/mol
# Density = 2.257902 g / cm^3
# Si number density = 22.630524 Si / 1000 Ang^3
#
#
#
# Elastic Constant Matrix: (Units=GPa)
#
#
# Indices 1 2 3 4 5 6 
#
# 1 60.8435 45.0514 16.4578 -2.5473 1.2650 -12.4894
# 2 45.0514 170.4562 16.5970 -9.7892 -3.3121 -38.5299
# 3 16.4578 16.5970 147.6672 16.5055 8.0856 -13.7616
# 4 -2.5473 -9.7892 16.5055 34.5281 -12.6059 -5.2061
# 5 1.2650 -3.3121 8.0856 -12.6059 34.6095 -1.2935
# 6 -12.4894 -38.5299 -13.7616 -5.2061 -1.2935 38.4908
#
#
#
# Elastic Compliance Matrix: (Units=1/GPa)
#
#
# Indices 1 2 3 4 5 6 
#
# 1 0.020940 -0.005035 -0.001736 0.000975 -0.000440 0.001251
# 2 -0.005035 0.009529 -0.000466 0.005071 0.003371 0.008538
# 3 -0.001736 -0.000466 0.007896 -0.005240 -0.003698 0.000960
# 4 0.000975 0.005071 -0.005240 0.040553 0.016802 0.009569
# 5 -0.000440 0.003371 -0.003698 0.016802 0.036418 0.005406
# 6 0.001251 0.008538 0.000960 0.009569 0.005406 0.036752
#
#
# Mechanical properties :
#
#
# Convention : Reuss Voigt Hill
#
# Bulk Modulus (GPa) = 41.85679 59.46437 50.66058
# Shear Modulus (GPa) = 28.64888 41.58307 35.11597
#
# Velocity S-wave (km/s) = 3.56186 4.29123 3.94345
# Velocity P-wave (km/s) = 5.95413 7.13345 6.57031
#
# Compressibility (1/GPa) = 0.02389098
#
# Stress axis : x y z
#
# Youngs Moduli (GPa) = 47.75469 104.93864 126.65434
#
# Poissons Ratio (x) = 0.52840 0.21991
# Poissons Ratio (y) = 0.24046 0.05896
# Poissons Ratio (z) = 0.08292 0.04885
#
# Static dielectric constant tensor:
#      x y z
#    x 2.109300 -0.049980 0.011030 
#    y -0.049980 1.866800 0.005660 
#    z 0.011030 0.005660 1.835320 
# 
# From -- ./inp_files/614210.got.cif
#   From: 2010.05.17/outbox.cif.g08.bks.cpg/sg2_308_cif.got.tgz:614210.got - 2010.06.03 11:33:40.
