data_PCOD9047374
_publ_section_title
;
Structure prediction by ZEFSAII (Michael W. Deem and Ramdas Pophale) SiO2 
 PCOD9047374
Probable space group: P -1
;
_chemical_formula_sum "Si O2"
_cell_formula_units_Z 16
_cell_length_a 21.764094
_cell_length_b 18.788278
_cell_length_c 12.116859
_cell_angle_alpha 29.137409
_cell_angle_beta 142.000917
_cell_angle_gamma 161.333607
_cell_volume 746.929673
_symmetry_space_group_name_H-M "P -1"
_symmetry_group_IT_number 2
_symmetry_cell_setting 'triclinic'
loop_
_space_group_symop_operation_xyz
x,y,z
-x,-y,-z
loop_
_atom_site_type_symbol
_atom_site_label
_atom_site_fract_x
_atom_site_fract_y
_atom_site_fract_z
Si Si1 0.142129 0.224301 0.728131
Si Si2 0.112498 0.939548 0.228683
Si Si3 0.542329 0.206319 0.132560
Si Si4 0.400670 0.154870 0.506229
Si Si5 0.505471 0.499491 0.642674
Si Si6 0.619358 0.187966 0.026532
Si Si7 0.135000 0.214062 0.500502
Si Si8 0.820322 0.373726 0.455434
O O1 0.363315 0.572099 0.553782
O O2 0.031145 0.103771 0.618810
O O3 0.989494 0.093861 0.776233
O O4 0.179975 0.111377 0.982792
O O5 0.928437 0.608494 0.380671
O O6 0.300717 0.104006 0.328994
O O7 0.517199 0.110083 0.102740
O O8 0.725702 0.353897 0.251095
O O9 0.356559 0.936614 0.314407
O O10 0.562727 0.407564 0.880435
O O11 0.387301 0.239586 0.483136
O O12 0.292302 0.861045 0.760045
O O13 0.500000 0.500000 0.500000
O O14 0.279319 0.261191 0.668378
O O15 0.753948 0.496902 0.767655
O O16 0.500000 0.000000 0.000000
O O17 0.000000 0.000000 0.500000
O O18 0.000000 0.500000 0.500000
#
# Coordination Sequence:
#
# PCOD9047374 Si02
#       8
#     2   2   2   2   2   2   2   2
#     4  10  24  44  66 102 138 177 234 287 355 414
#     4  11  25  41  70  98 136 178 235 291 345 431
#     4  11  26  46  75 100 147 185 235 298 360 425
#     4  11  24  43  71  99 138 183 231 289 357 415
#     4  11  23  43  68 101 136 186 233 281 357 419
#     4  12  22  47  73  98 141 189 232 291 356 427
#     4  11  26  43  73 104 142 184 238 298 349 423
#     4  11  27  46  70 106 138 187 238 292 362 425
#
# _framework density 21.421026999999999
#
# number of rings (size 3 to 8) (size 9 to 14) (size 15 to 20)
#    0.000    1.000    3.750    1.875   10.500    2.000 
#    0.000    0.625    0.000    0.000    0.000    0.000 
#    0.000    0.000    0.000    0.000    0.000    0.000 
#
# Total GULP energy -89189.685492 kJ/mol
# GULP energy per Si atom -5574.355343 kJ/mol
# Density = 2.137227 g / cm^3
# Si number density = 21.421027 Si / 1000 Ang^3
#
#
#
# Elastic Constant Matrix: (Units=GPa)
#
#
# Indices 1 2 3 4 5 6 
#
# 1 102.2987 28.3147 63.2111 6.4101 -6.7655 -9.2654
# 2 28.3147 107.2564 50.0160 10.8601 0.5473 -10.4737
# 3 63.2111 50.0160 145.9788 19.5184 4.7229 -8.5085
# 4 6.4101 10.8601 19.5184 27.3474 -3.5061 2.9583
# 5 -6.7655 0.5473 4.7229 -3.5061 35.9889 3.5806
# 6 -9.2654 -10.4737 -8.5085 2.9583 3.5806 32.2918
#
#
#
# Elastic Compliance Matrix: (Units=1/GPa)
#
#
# Indices 1 2 3 4 5 6 
#
# 1 0.013996 -0.000933 -0.005974 0.001619 0.003427 0.001611
# 2 -0.000933 0.011529 -0.003009 -0.002598 -0.000505 0.002973
# 3 -0.005974 -0.003009 0.011472 -0.006153 -0.003308 0.001263
# 4 0.001619 -0.002598 -0.006153 0.043096 0.006008 -0.006614
# 5 0.003427 -0.000505 -0.003308 0.006008 0.029847 -0.003912
# 6 0.001611 0.002973 0.001263 -0.006614 -0.003912 0.033766
#
#
# Mechanical properties :
#
#
# Convention : Reuss Voigt Hill
#
# Bulk Modulus (GPa) = 58.26201 70.95749 64.60975
# Shear Modulus (GPa) = 29.54032 33.39175 31.46604
#
# Velocity S-wave (km/s) = 3.71756 3.95249 3.83682
# Velocity P-wave (km/s) = 6.75904 7.35028 7.06085
#
# Compressibility (1/GPa) = 0.01716384
#
# Stress axis : x y z
#
# Youngs Moduli (GPa) = 71.44777 86.73843 87.17177
#
# Poissons Ratio (x) = 0.08093 0.52080
# Poissons Ratio (y) = 0.06666 0.26231
# Poissons Ratio (z) = 0.42686 0.26100
#
# Static dielectric constant tensor:
#      x y z
#    x 1.906200 0.109700 0.143000 
#    y 0.109700 1.944890 0.235770 
#    z 0.143000 0.235770 2.152840 
# 
# From -- ./inp_files/472337.got.cif
#   From: 2010.05.17/outbox.cif.g08.bks.cpg/sg2_237_cif.got.tgz:472337.got - 2010.06.03 11:33:40.
