data_PCOD9047845
_publ_section_title
;
Structure prediction by ZEFSAII (Michael W. Deem and Ramdas Pophale) SiO2 
 PCOD9047845
Probable space group: P -1
;
_chemical_formula_sum "Si O2"
_cell_formula_units_Z 14
_cell_length_a 14.968656
_cell_length_b 14.287513
_cell_length_c 8.425550
_cell_angle_alpha 62.228804
_cell_angle_beta 43.322640
_cell_angle_gamma 30.118548
_cell_volume 546.106892
_symmetry_space_group_name_H-M "P -1"
_symmetry_group_IT_number 2
_symmetry_cell_setting 'triclinic'
loop_
_space_group_symop_operation_xyz
x,y,z
-x,-y,-z
loop_
_atom_site_type_symbol
_atom_site_label
_atom_site_fract_x
_atom_site_fract_y
_atom_site_fract_z
Si Si1 0.000000 0.000000 0.500000
Si Si2 0.592201 0.780017 0.404929
Si Si3 0.171912 0.476840 0.238887
Si Si4 0.941132 0.710434 0.847514
Si Si5 0.084655 0.159314 0.922070
Si Si6 0.000000 0.000000 0.000000
Si Si7 0.662663 0.065716 0.717574
Si Si8 0.451112 0.658895 0.936332
O O1 0.257157 0.826442 0.196047
O O2 0.861587 0.020834 0.525489
O O3 0.811161 0.535271 0.317683
O O4 0.401098 0.930504 0.681939
O O5 0.396488 0.895145 0.421862
O O6 0.747586 0.774308 0.151193
O O7 0.000000 0.500000 0.500000
O O8 0.007290 0.674645 0.189752
O O9 0.293788 0.457425 0.242389
O O10 0.396064 0.272760 0.994425
O O11 0.792914 0.866414 0.769137
O O12 0.007180 0.761684 0.839421
O O13 0.952968 0.149100 0.025814
O O14 0.705438 0.209558 0.127338
O O15 0.500000 0.500000 0.000000
#
# Coordination Sequence:
#
# PCOD9047845 Si02
#       8
#     1   2   2   2   2   1   2   2
#     4  10  24  44  70  98 140 184 238 288 354 418
#     4  11  25  45  70 104 143 189 238 294 365 437
#     4  11  24  45  77 108 148 200 238 302 382 436
#     4  11  25  46  69 106 145 181 243 301 359 430
#     4  12  24  47  71 103 151 188 241 303 361 438
#     4  12  26  46  76 108 138 196 254 290 368 438
#     4  11  23  48  70 102 147 190 238 302 361 434
#     4  11  24  48  73 104 147 191 243 302 359 440
#
# _framework density 25.636009000000001
#
# number of rings (size 3 to 8) (size 9 to 14) (size 15 to 20)
#    0.000    0.857    2.857    4.286    0.000    2.286 
#    2.571    2.143    0.000    0.000    0.000    0.000 
#    0.000    0.000    0.000    0.000    0.000    0.000 
#
# Total GULP energy -78059.707044 kJ/mol
# GULP energy per Si atom -5575.693360 kJ/mol
# Density = 2.557766 g / cm^3
# Si number density = 25.636009 Si / 1000 Ang^3
#
#
#
# Elastic Constant Matrix: (Units=GPa)
#
#
# Indices 1 2 3 4 5 6 
#
# 1 132.5321 34.3922 11.3067 -7.2871 -17.7997 -1.0173
# 2 34.3922 186.1138 13.4683 6.7853 3.5044 1.1330
# 3 11.3067 13.4683 92.2760 12.8732 2.5842 5.7156
# 4 -7.2871 6.7853 12.8732 29.3157 -3.2539 4.1894
# 5 -17.7997 3.5044 2.5842 -3.2539 38.7194 4.2514
# 6 -1.0173 1.1330 5.7156 4.1894 4.2514 40.9051
#
#
#
# Elastic Compliance Matrix: (Units=1/GPa)
#
#
# Indices 1 2 3 4 5 6 
#
# 1 0.008985 -0.001781 -0.001491 0.003888 0.004763 -0.000412
# 2 -0.001781 0.005821 -0.000345 -0.001831 -0.001497 0.000186
# 3 -0.001491 -0.000345 0.011962 -0.005612 -0.001822 -0.000935
# 4 0.003888 -0.001831 -0.005612 0.039165 0.006026 -0.003706
# 5 0.004763 -0.001497 -0.001822 0.006026 0.029135 -0.003231
# 6 -0.000412 0.000186 -0.000935 -0.003706 -0.003231 0.025277
#
#
# Mechanical properties :
#
#
# Convention : Reuss Voigt Hill
#
# Bulk Modulus (GPa) = 51.19800 58.80628 55.00214
# Shear Modulus (GPa) = 37.28779 45.23835 41.26307
#
# Velocity S-wave (km/s) = 3.81794 4.20532 4.01630
# Velocity P-wave (km/s) = 6.28093 6.82410 6.55814
#
# Compressibility (1/GPa) = 0.01953201
#
# Stress axis : x y z
#
# Youngs Moduli (GPa) = 111.29393 171.78999 83.59766
#
# Poissons Ratio (x) = 0.30603 0.12467
# Poissons Ratio (y) = 0.19826 0.02888
# Poissons Ratio (z) = 0.16597 0.05935
#
# Static dielectric constant tensor:
#      x y z
#    x 2.007760 0.007980 -0.025300 
#    y 0.007980 2.052090 -0.081730 
#    z -0.025300 -0.081730 2.263420 
# 
# From -- ./inp_files/314860.got.cif
#   From: 2010.05.17/outbox.cif.g08.bks.cpg/sg2_158_cif.got.tgz:314860.got - 2010.06.03 11:33:40.
