data_PCOD9047978
_publ_section_title
;
Structure prediction by ZEFSAII (Michael W. Deem and Ramdas Pophale) SiO2 
 PCOD9047978
Probable space group: P -1
;
_chemical_formula_sum "Si O2"
_cell_formula_units_Z 14
_cell_length_a 8.177815
_cell_length_b 12.356864
_cell_length_c 18.720621
_cell_angle_alpha 154.559792
_cell_angle_beta 48.385321
_cell_angle_gamma 124.882273
_cell_volume 605.267869
_symmetry_space_group_name_H-M "P -1"
_symmetry_group_IT_number 2
_symmetry_cell_setting 'triclinic'
loop_
_space_group_symop_operation_xyz
x,y,z
-x,-y,-z
loop_
_atom_site_type_symbol
_atom_site_label
_atom_site_fract_x
_atom_site_fract_y
_atom_site_fract_z
Si Si1 0.470285 0.908826 0.374222
Si Si2 0.027436 0.074059 0.436490
Si Si3 0.771475 0.395687 0.979786
Si Si4 0.436616 0.171958 0.051935
Si Si5 0.432544 0.279997 0.488856
Si Si6 0.308618 0.783047 0.755479
Si Si7 0.036850 0.519078 0.415807
O O1 0.208555 0.900610 0.443463
O O2 0.500000 0.000000 0.500000
O O3 0.537687 0.131565 0.436025
O O4 0.605152 0.643184 0.158775
O O5 0.005923 0.205005 0.442285
O O6 0.176568 0.244409 0.541200
O O7 0.150893 0.798342 0.221956
O O8 0.644250 0.251890 0.993649
O O9 0.000000 0.500000 0.000000
O O10 0.275827 0.020917 0.957920
O O11 0.285617 0.416238 0.266008
O O12 0.500000 0.000000 0.000000
O O13 0.441980 0.572380 0.641674
O O14 0.528776 0.139724 0.307032
O O15 0.123979 0.653278 0.686096
O O16 0.000000 0.500000 0.500000
#
# Coordination Sequence:
#
# PCOD9047978 Si02
#       7
#     2   2   2   2   2   2   2
#     4  12  26  43  73 102 144 195 246 299 374 440
#     4  11  23  47  67 102 144 186 247 297 371 438
#     4  12  26  46  70 108 147 191 248 306 361 449
#     4  12  26  45  75 112 151 194 253 309 370 446
#     4  10  24  44  72 103 145 191 242 308 371 441
#     4  10  24  45  73 107 151 191 246 306 375 444
#     4  11  25  44  76 108 146 195 243 312 379 438
#
# _framework density 23.130253
#
# number of rings (size 3 to 8) (size 9 to 14) (size 15 to 20)
#    0.000    0.857    4.286    1.714    8.000    1.714 
#    0.000    0.000    0.000    0.000    0.000    0.000 
#    0.000    0.000    0.000    0.000    0.000    0.000 
#
# Total GULP energy -78185.189166 kJ/mol
# GULP energy per Si atom -5584.656369 kJ/mol
# Density = 2.307761 g / cm^3
# Si number density = 23.130253 Si / 1000 Ang^3
#
#
#
# Elastic Constant Matrix: (Units=GPa)
#
#
# Indices 1 2 3 4 5 6 
#
# 1 75.4596 50.1098 31.1819 0.8742 -2.7140 -1.4801
# 2 50.1098 126.9918 39.9778 -0.5033 -3.4922 -30.1611
# 3 31.1819 39.9778 152.5614 -5.7081 -17.6178 -9.5022
# 4 0.8742 -0.5033 -5.7081 24.9255 6.6711 -11.6107
# 5 -2.7140 -3.4922 -17.6178 6.6711 39.4288 0.0338
# 6 -1.4801 -30.1611 -9.5022 -11.6107 0.0338 50.2920
#
#
#
# Elastic Compliance Matrix: (Units=1/GPa)
#
#
# Indices 1 2 3 4 5 6 
#
# 1 0.019796 -0.008501 -0.002312 -0.004238 0.000299 -0.005931
# 2 -0.008501 0.013698 -0.001214 0.004579 -0.000696 0.008793
# 3 -0.002312 -0.001214 0.007809 0.001532 0.002962 0.001031
# 4 -0.004238 0.004579 0.001532 0.049411 -0.007574 0.014323
# 5 0.000299 -0.000696 0.002962 -0.007574 0.027928 -0.001616
# 6 -0.005931 0.008793 0.001031 0.014323 -0.001616 0.028486
#
#
# Mechanical properties :
#
#
# Convention : Reuss Voigt Hill
#
# Bulk Modulus (GPa) = 57.96809 66.39465 62.18137
# Shear Modulus (GPa) = 28.25982 38.51216 33.38599
#
# Velocity S-wave (km/s) = 3.49917 4.08488 3.80332
# Velocity P-wave (km/s) = 6.43752 7.14250 6.79915
#
# Compressibility (1/GPa) = 0.01725087
#
# Stress axis : x y z
#
# Youngs Moduli (GPa) = 50.51533 73.00183 128.05805
#
# Poissons Ratio (x) = 0.62056 0.29607
# Poissons Ratio (y) = 0.42941 0.15540
# Poissons Ratio (z) = 0.11679 0.08859
#
# Static dielectric constant tensor:
#      x y z
#    x 1.962340 0.031120 -0.018220 
#    y 0.031120 1.929060 0.012550 
#    z -0.018220 0.012550 1.862930 
# 
# From -- ./inp_files/560116.got.cif
#   From: 2010.05.17/outbox.cif.g08.bks.cpg/sg2_281_cif.got.tgz:560116.got - 2010.06.03 11:33:40.
