data_PCOD9047102
_publ_section_title
;
Structure prediction by ZEFSAII (Michael W. Deem and Ramdas Pophale) SiO2 
 PCOD9047102
Probable space group: P -1
;
_chemical_formula_sum "Si O2"
_cell_formula_units_Z 16
_cell_length_a 8.704219
_cell_length_b 8.607030
_cell_length_c 13.770923
_cell_angle_alpha 42.551040
_cell_angle_beta 90.794458
_cell_angle_gamma 83.252721
_cell_volume 685.050755
_symmetry_space_group_name_H-M "P -1"
_symmetry_group_IT_number 2
_symmetry_cell_setting 'triclinic'
loop_
_space_group_symop_operation_xyz
x,y,z
-x,-y,-z
loop_
_atom_site_type_symbol
_atom_site_label
_atom_site_fract_x
_atom_site_fract_y
_atom_site_fract_z
Si Si1 0.381822 0.947947 0.939063
Si Si2 0.864488 0.720962 0.617856
Si Si3 0.440646 0.449421 0.246590
Si Si4 0.941093 0.088023 0.612858
Si Si5 0.875915 0.729509 0.916947
Si Si6 0.083983 0.221562 0.885900
Si Si7 0.603136 0.357402 0.482215
Si Si8 0.537142 0.867548 0.768617
O O1 0.353415 0.693693 0.089529
O O2 0.452153 0.925753 0.842697
O O3 0.500000 0.000000 0.000000
O O4 0.225207 0.139648 0.851762
O O5 0.688976 0.686618 0.648754
O O6 0.908544 0.823443 0.468100
O O7 0.971920 0.464257 0.747622
O O8 0.905039 0.898374 0.619373
O O9 0.553557 0.474737 0.324787
O O10 0.531528 0.299127 0.229053
O O11 0.790674 0.298130 0.521773
O O12 0.947396 0.949745 0.777402
O O13 0.713214 0.737215 0.856701
O O14 0.844000 0.745578 0.022886
O O15 0.000000 0.500000 0.000000
O O16 0.000000 0.000000 0.000000
O O17 0.500000 0.500000 0.500000
O O18 0.556255 0.102709 0.605984
#
# Coordination Sequence:
#
# PCOD9047102 Si02
#       8
#     2   2   2   2   2   2   2   2
#     4  12  26  44  69 102 138 182 229 290 352 406
#     4  11  23  45  67 103 137 180 227 281 339 414
#     4  12  24  47  70  98 139 180 232 287 337 419
#     4  10  24  43  71  99 137 179 231 272 347 416
#     4  11  21  44  71  99 138 182 228 284 341 407
#     4  12  25  44  69  99 141 180 227 292 345 398
#     4  11  25  43  70  99 139 182 222 285 350 402
#     4  11  24  45  67 103 135 180 235 276 347 415
#
# _framework density 23.355934000000001
#
# number of rings (size 3 to 8) (size 9 to 14) (size 15 to 20)
#    0.000    0.750    6.250    1.500    5.250    0.000 
#    2.250    1.250    0.000    0.000    0.000    0.000 
#    0.000    0.000    0.000    0.000    0.000    0.000 
#
# Total GULP energy -89579.171696 kJ/mol
# GULP energy per Si atom -5598.698231 kJ/mol
# Density = 2.330278 g / cm^3
# Si number density = 23.355934 Si / 1000 Ang^3
#
#
#
# Elastic Constant Matrix: (Units=GPa)
#
#
# Indices 1 2 3 4 5 6 
#
# 1 52.2791 27.8229 14.1259 -0.8627 -10.7751 -23.9687
# 2 27.8229 129.0550 15.4864 2.6798 9.4001 -33.0478
# 3 14.1259 15.4864 85.3545 6.2041 1.6733 -17.0193
# 4 -0.8627 2.6798 6.2041 43.5230 -8.4575 -1.8795
# 5 -10.7751 9.4001 1.6733 -8.4575 38.6879 -2.1132
# 6 -23.9687 -33.0478 -17.0193 -1.8795 -2.1132 40.3327
#
#
#
# Elastic Compliance Matrix: (Units=1/GPa)
#
#
# Indices 1 2 3 4 5 6 
#
# 1 0.030974 -0.003346 -0.001909 0.003951 0.011240 0.015632
# 2 -0.003346 0.010337 0.000077 -0.001092 -0.003342 0.006288
# 3 -0.001909 0.000077 0.013038 -0.001972 -0.001312 0.004269
# 4 0.003951 -0.001092 -0.001972 0.024856 0.007002 0.002147
# 5 0.011240 -0.003342 -0.001312 0.007002 0.031671 0.005373
# 6 0.015632 0.006288 0.004269 0.002147 0.005373 0.041419
#
#
# Mechanical properties :
#
#
# Convention : Reuss Voigt Hill
#
# Bulk Modulus (GPa) = 22.73155 42.39546 32.56350
# Shear Modulus (GPa) = 28.19803 38.45894 33.32848
#
# Velocity S-wave (km/s) = 3.47842 4.06229 3.78164
# Velocity P-wave (km/s) = 5.08786 6.33989 5.74807
#
# Compressibility (1/GPa) = 0.04399173
#
# Stress axis : x y z
#
# Youngs Moduli (GPa) = 32.28533 96.73904 76.69738
#
# Poissons Ratio (x) = 0.32370 0.14645
# Poissons Ratio (y) = 0.10803 -0.00590
# Poissons Ratio (z) = 0.06165 -0.00744
#
# Static dielectric constant tensor:
#      x y z
#    x 1.883260 0.030750 -0.014390 
#    y 0.030750 1.895180 -0.000330 
#    z -0.014390 -0.000330 1.880470 
# 
# From -- ./inp_files/298529.got.cif
#   From: 2010.05.17/outbox.cif.g08.bks.cpg/sg2_150_cif.got.tgz:298529.got - 2010.06.03 11:33:40.
