data_PCOD9047417
_publ_section_title
;
Structure prediction by ZEFSAII (Michael W. Deem and Ramdas Pophale) SiO2 
 PCOD9047417
Probable space group: P -1
;
_chemical_formula_sum "Si O2"
_cell_formula_units_Z 14
_cell_length_a 21.053586
_cell_length_b 8.546393
_cell_length_c 4.871975
_cell_angle_alpha 118.080034
_cell_angle_beta 54.794480
_cell_angle_gamma 132.257390
_cell_volume 525.122721
_symmetry_space_group_name_H-M "P -1"
_symmetry_group_IT_number 2
_symmetry_cell_setting 'triclinic'
loop_
_space_group_symop_operation_xyz
x,y,z
-x,-y,-z
loop_
_atom_site_type_symbol
_atom_site_label
_atom_site_fract_x
_atom_site_fract_y
_atom_site_fract_z
Si Si1 0.659381 0.124075 0.271933
Si Si2 0.900829 0.921942 0.401467
Si Si3 0.983619 0.682415 0.927274
Si Si4 0.721175 0.581563 0.270872
Si Si5 0.378586 0.430054 0.992105
Si Si6 0.852845 0.216049 0.018681
Si Si7 0.426995 0.147166 0.279508
O O1 0.691323 0.355160 0.277242
O O2 0.576328 0.012437 0.611927
O O3 0.749464 0.160896 0.240851
O O4 0.632568 0.986326 0.946831
O O5 0.827206 0.765392 0.224898
O O6 0.982611 0.151368 0.267140
O O7 0.845950 0.002009 0.772899
O O8 0.939111 0.784365 0.311218
O O9 0.909225 0.431606 0.869775
O O10 0.077084 0.712068 0.840347
O O11 0.697360 0.563103 0.997181
O O12 0.655563 0.626292 0.657695
O O13 0.393268 0.265222 0.660006
O O14 0.474378 0.659442 0.919415
#
# Coordination Sequence:
#
# PCOD9047417 Si02
#       7
#     2   2   2   2   2   2   2
#     4  12  26  44  70 106 144 185 235 292 350 424
#     4  11  23  43  67  98 138 182 235 290 351 416
#     4  10  24  44  66  98 132 182 238 290 352 416
#     4  12  26  44  70 106 144 185 235 292 350 424
#     4  11  25  47  73 103 139 186 237 290 356 423
#     4  11  23  43  67  98 138 182 235 290 351 416
#     4  11  25  47  73 103 139 186 237 290 356 423
#
# _framework density 26.660433000000001
#
# number of rings (size 3 to 8) (size 9 to 14) (size 15 to 20)
#    0.000    0.857    1.429    5.143    6.000    5.714 
#    0.000    0.000    0.000    0.000    0.000    0.000 
#    0.000    0.000    0.000    0.000    0.000    0.000 
#
# Total GULP energy -78359.316418 kJ/mol
# GULP energy per Si atom -5597.094030 kJ/mol
# Density = 2.659975 g / cm^3
# Si number density = 26.660433 Si / 1000 Ang^3
#
#
#
# Elastic Constant Matrix: (Units=GPa)
#
#
# Indices 1 2 3 4 5 6 
#
# 1 66.6926 41.6717 22.7489 16.5363 7.0086 -9.0804
# 2 41.6717 180.8940 31.5821 8.6286 -2.5395 -0.2905
# 3 22.7489 31.5821 80.0036 23.3706 -0.8447 -5.1629
# 4 16.5363 8.6286 23.3706 36.5965 -5.1357 -1.1560
# 5 7.0086 -2.5395 -0.8447 -5.1357 30.5615 4.8358
# 6 -9.0804 -0.2905 -5.1629 -1.1560 4.8358 44.7787
#
#
#
# Elastic Compliance Matrix: (Units=1/GPa)
#
#
# Indices 1 2 3 4 5 6 
#
# 1 0.021988 -0.004450 -0.001719 -0.008715 -0.007690 0.004837
# 2 -0.004450 0.006848 -0.002074 0.001970 0.002064 -0.001269
# 3 -0.001719 -0.002074 0.016659 -0.009487 -0.001139 0.001437
# 4 -0.008715 0.001970 -0.009487 0.037993 0.008729 -0.002810
# 5 -0.007690 0.002064 -0.001139 0.008729 0.036953 -0.005443
# 6 0.004837 -0.001269 0.001437 -0.002810 -0.005443 0.023986
#
#
# Mechanical properties :
#
#
# Convention : Reuss Voigt Hill
#
# Bulk Modulus (GPa) = 34.46992 57.73285 46.10138
# Shear Modulus (GPa) = 29.31142 37.82650 33.56896
#
# Velocity S-wave (km/s) = 3.31937 3.77082 3.55227
# Velocity P-wave (km/s) = 5.25816 6.37657 5.84418
#
# Compressibility (1/GPa) = 0.02901080
#
# Stress axis : x y z
#
# Youngs Moduli (GPa) = 45.47843 146.02439 60.02788
#
# Poissons Ratio (x) = 0.64977 0.10319
# Poissons Ratio (y) = 0.20237 0.12447
# Poissons Ratio (z) = 0.07818 0.30280
#
# Static dielectric constant tensor:
#      x y z
#    x 2.113160 -0.031470 -0.091060 
#    y -0.031470 2.054630 -0.034350 
#    z -0.091060 -0.034350 2.248740 
# 
# From -- ./inp_files/117324.got.cif
#   From: 2010.05.17/outbox.cif.g08.bks.cpg/sg2_59_cif.got.tgz:117324.got - 2010.06.03 11:33:40.
