data_PCOD9047863
_publ_section_title
;
Structure prediction by ZEFSAII (Michael W. Deem and Ramdas Pophale) SiO2 
 PCOD9047863
Probable space group: P -1
;
_chemical_formula_sum "Si O2"
_cell_formula_units_Z 14
_cell_length_a 11.993113
_cell_length_b 8.607045
_cell_length_c 11.528635
_cell_angle_alpha 63.629602
_cell_angle_beta 37.998062
_cell_angle_gamma 88.609688
_cell_volume 529.689252
_symmetry_space_group_name_H-M "P -1"
_symmetry_group_IT_number 2
_symmetry_cell_setting 'triclinic'
loop_
_space_group_symop_operation_xyz
x,y,z
-x,-y,-z
loop_
_atom_site_type_symbol
_atom_site_label
_atom_site_fract_x
_atom_site_fract_y
_atom_site_fract_z
Si Si1 0.387691 0.115690 0.518867
Si Si2 0.399279 0.056643 0.277424
Si Si3 0.226663 0.460840 0.513942
Si Si4 0.555083 0.295689 0.540837
Si Si5 0.860392 0.471606 0.738501
Si Si6 0.059036 0.038043 0.129646
Si Si7 0.711257 0.747286 0.889020
O O1 0.401001 0.171263 0.355376
O O2 0.118207 0.950202 0.804729
O O3 0.500000 0.000000 0.500000
O O4 0.548264 0.321067 0.400750
O O5 0.361647 0.844808 0.431492
O O6 0.656877 0.222276 0.976905
O O7 0.270480 0.073887 0.270616
O O8 0.315490 0.491183 0.561522
O O9 0.453177 0.608844 0.199536
O O10 0.050946 0.518649 0.654213
O O11 0.075859 0.219266 0.671808
O O12 0.293930 0.145450 0.838796
O O13 0.767974 0.608463 0.809648
O O14 0.000000 0.500000 0.500000
O O15 0.124959 0.144098 0.169189
#
# Coordination Sequence:
#
# PCOD9047863 Si02
#       7
#     2   2   2   2   2   2   2
#     4  10  24  44  71 101 140 188 242 294 345 420
#     4  11  23  45  71 105 151 186 235 295 357 420
#     4  11  25  47  73 109 146 182 239 298 348 429
#     4  10  24  46  72 104 142 192 243 290 346 421
#     4  12  25  44  74 108 148 188 234 289 361 428
#     4  11  24  47  76 103 142 190 233 293 364 416
#     4  11  27  45  73 112 145 185 234 291 361 431
#
# _framework density 26.430593999999999
#
# number of rings (size 3 to 8) (size 9 to 14) (size 15 to 20)
#    0.000    1.143    2.857    1.714    6.000    4.571 
#    0.000    2.143    0.000    0.000    0.000    0.000 
#    0.000    0.000    0.000    0.000    0.000    0.000 
#
# Total GULP energy -78068.316268 kJ/mol
# GULP energy per Si atom -5576.308305 kJ/mol
# Density = 2.637044 g / cm^3
# Si number density = 26.430594 Si / 1000 Ang^3
#
#
#
# Elastic Constant Matrix: (Units=GPa)
#
#
# Indices 1 2 3 4 5 6 
#
# 1 167.6067 62.5368 -9.7255 -12.0673 -24.8545 -0.6562
# 2 62.5368 78.3038 -2.9536 -6.8054 4.2081 -9.8952
# 3 -9.7255 -2.9536 63.0456 -3.0909 -7.4461 -0.6316
# 4 -12.0673 -6.8054 -3.0909 32.1478 -4.7077 -9.6550
# 5 -24.8545 4.2081 -7.4461 -4.7077 37.7398 11.9330
# 6 -0.6562 -9.8952 -0.6316 -9.6550 11.9330 60.5936
#
#
#
# Elastic Compliance Matrix: (Units=1/GPa)
#
#
# Indices 1 2 3 4 5 6 
#
# 1 0.011577 -0.009822 0.002704 0.003168 0.010608 -0.003035
# 2 -0.009822 0.021950 -0.001678 0.000926 -0.010955 0.005766
# 3 0.002704 -0.001678 0.017038 0.002937 0.005938 -0.000769
# 4 0.003168 0.000926 0.002937 0.034988 0.005435 0.004721
# 5 0.010608 -0.010955 0.005938 0.005435 0.039233 -0.008473
# 6 -0.003035 0.005766 -0.000769 0.004721 -0.008473 0.019825
#
#
# Mechanical properties :
#
#
# Convention : Reuss Voigt Hill
#
# Bulk Modulus (GPa) = 30.32876 45.40794 37.86835
# Shear Modulus (GPa) = 28.86926 43.36946 36.11936
#
# Velocity S-wave (km/s) = 3.30853 4.05517 3.70073
# Velocity P-wave (km/s) = 5.10832 6.25646 5.71131
#
# Compressibility (1/GPa) = 0.03297201
#
# Stress axis : x y z
#
# Youngs Moduli (GPa) = 86.37460 45.55828 58.69356
#
# Poissons Ratio (x) = 0.44750 -0.15868
# Poissons Ratio (y) = 0.84841 0.09847
# Poissons Ratio (z) = -0.23352 0.07643
#
# Static dielectric constant tensor:
#      x y z
#    x 2.097350 0.093410 0.067110 
#    y 0.093410 2.181690 0.028980 
#    z 0.067110 0.028980 2.182530 
# 
# From -- ./inp_files/427724.got.cif
#   From: 2010.05.17/outbox.cif.g08.bks.cpg/sg2_214_cif.got.tgz:427724.got - 2010.06.03 11:33:40.
