data_PCOD9047194
_publ_section_title
;
Structure prediction by ZEFSAII (Michael W. Deem and Ramdas Pophale) SiO2 
 PCOD9047194
Probable space group: P -1
;
_chemical_formula_sum "Si O2"
_cell_formula_units_Z 16
_cell_length_a 16.224962
_cell_length_b 8.381569
_cell_length_c 9.686430
_cell_angle_alpha 70.013109
_cell_angle_beta 143.298320
_cell_angle_gamma 94.414294
_cell_volume 692.803619
_symmetry_space_group_name_H-M "P -1"
_symmetry_group_IT_number 2
_symmetry_cell_setting 'triclinic'
loop_
_space_group_symop_operation_xyz
x,y,z
-x,-y,-z
loop_
_atom_site_type_symbol
_atom_site_label
_atom_site_fract_x
_atom_site_fract_y
_atom_site_fract_z
Si Si1 0.414733 0.654440 0.233217
Si Si2 0.966128 0.364494 0.605258
Si Si3 0.632036 0.850333 0.139534
Si Si4 0.083615 0.135522 0.594828
Si Si5 0.380383 0.472448 0.949329
Si Si6 0.052608 0.166150 0.059303
Si Si7 0.870916 0.343398 0.031404
Si Si8 0.692638 0.733149 0.547753
O O1 0.500000 0.500000 0.500000
O O2 0.251955 0.734964 0.053985
O O3 0.519544 0.774540 0.330998
O O4 0.408165 0.548497 0.113027
O O5 0.790586 0.412682 0.344568
O O6 0.000000 0.500000 0.500000
O O7 0.067293 0.180249 0.720062
O O8 0.006343 0.317082 0.832076
O O9 0.754286 0.928533 0.229329
O O10 0.603029 0.735884 0.005741
O O11 0.704911 0.710993 0.404819
O O12 0.500000 0.000000 0.000000
O O13 0.000000 0.000000 0.500000
O O14 0.987510 0.310372 0.321594
O O15 0.500000 0.500000 0.000000
O O16 0.964647 0.246249 0.056025
O O17 0.225537 0.129037 0.336650
O O18 0.000000 0.000000 0.000000
O O19 0.781101 0.547204 0.800788
#
# Coordination Sequence:
#
# PCOD9047194 Si02
#       8
#     2   2   2   2   2   2   2   2
#     4  10  24  43  73 108 140 187 251 310 369 435
#     4  12  26  46  76 111 142 192 267 315 359 445
#     4  12  28  46  71 110 155 195 239 313 391 450
#     4  12  26  44  72 107 150 194 244 316 378 438
#     4  12  25  45  75 110 143 195 256 309 373 452
#     4  12  27  46  72 110 152 195 245 310 386 447
#     4  11  23  47  77 101 144 195 254 312 366 446
#     4  11  24  47  73 104 142 195 254 297 370 450
#
# _framework density 23.094567000000001
#
# number of rings (size 3 to 8) (size 9 to 14) (size 15 to 20)
#    0.000    0.500    5.000    2.625    7.000    0.000 
#    0.000    0.625    0.000    0.000    0.000    0.000 
#    0.000    0.000    0.000    0.000    0.000    0.000 
#
# Total GULP energy -89247.158235 kJ/mol
# GULP energy per Si atom -5577.947390 kJ/mol
# Density = 2.304200 g / cm^3
# Si number density = 23.094567 Si / 1000 Ang^3
#
#
#
# Elastic Constant Matrix: (Units=GPa)
#
#
# Indices 1 2 3 4 5 6 
#
# 1 197.0700 43.3686 73.8509 23.3748 24.4850 3.6414
# 2 43.3686 85.9574 30.1556 23.1268 9.6142 9.7691
# 3 73.8509 30.1556 138.8528 17.9567 11.8557 -5.8076
# 4 23.3748 23.1268 17.9567 41.7215 2.8112 1.8032
# 5 24.4850 9.6142 11.8557 2.8112 61.2394 6.1055
# 6 3.6414 9.7691 -5.8076 1.8032 6.1055 45.9401
#
#
#
# Elastic Compliance Matrix: (Units=1/GPa)
#
#
# Indices 1 2 3 4 5 6 
#
# 1 0.007011 -0.001859 -0.002987 -0.001478 -0.001842 -0.000235
# 2 -0.001859 0.015308 -0.001540 -0.006603 -0.000765 -0.002942
# 3 -0.002987 -0.001540 0.009453 -0.001589 -0.000510 0.001889
# 4 -0.001478 -0.006603 -0.001589 0.029096 0.000589 0.000100
# 5 -0.001842 -0.000765 -0.000510 0.000589 0.017467 -0.002100
# 6 -0.000235 -0.002942 0.001889 0.000100 -0.002100 0.022926
#
#
# Mechanical properties :
#
#
# Convention : Reuss Voigt Hill
#
# Bulk Modulus (GPa) = 52.62841 79.62562 66.12702
# Shear Modulus (GPa) = 41.54011 48.08055 44.81033
#
# Velocity S-wave (km/s) = 4.24571 4.56773 4.40966
# Velocity P-wave (km/s) = 6.84634 7.89758 7.39068
#
# Compressibility (1/GPa) = 0.01900114
#
# Stress axis : x y z
#
# Youngs Moduli (GPa) = 142.62848 65.32457 105.78919
#
# Poissons Ratio (x) = 0.12146 0.31596
# Poissons Ratio (y) = 0.26519 0.16286
# Poissons Ratio (z) = 0.42599 0.10057
#
# Static dielectric constant tensor:
#      x y z
#    x 1.829080 0.075080 0.008190 
#    y 0.075080 2.076010 -0.016640 
#    z 0.008190 -0.016640 1.879430 
# 
# From -- ./inp_files/298419.got.cif
#   From: 2010.05.17/outbox.cif.g08.bks.cpg/sg2_150_cif.got.tgz:298419.got - 2010.06.03 11:33:40.
