data_PCOD9047555
_publ_section_title
;
Structure prediction by ZEFSAII (Michael W. Deem and Ramdas Pophale) SiO2 
 PCOD9047555
Probable space group: P -1
;
_chemical_formula_sum "Si O2"
_cell_formula_units_Z 12
_cell_length_a 9.504013
_cell_length_b 16.100752
_cell_length_c 5.258887
_cell_angle_alpha 56.024285
_cell_angle_beta 60.716729
_cell_angle_gamma 46.908854
_cell_volume 479.617240
_symmetry_space_group_name_H-M "P -1"
_symmetry_group_IT_number 2
_symmetry_cell_setting 'triclinic'
loop_
_space_group_symop_operation_xyz
x,y,z
-x,-y,-z
loop_
_atom_site_type_symbol
_atom_site_label
_atom_site_fract_x
_atom_site_fract_y
_atom_site_fract_z
Si Si1 0.340218 0.532300 0.869049
Si Si2 0.282520 0.037827 0.370800
Si Si3 0.959670 0.829112 0.154579
Si Si4 0.938827 0.635031 0.297715
Si Si5 0.516138 0.833693 0.160392
Si Si6 0.380658 0.707061 0.162285
O O1 0.353364 0.615893 0.509558
O O2 0.408360 0.395691 0.967328
O O3 0.500000 0.500000 0.000000
O O4 0.118255 0.614615 0.011237
O O5 0.150341 0.082174 0.661329
O O6 0.411161 0.897940 0.409190
O O7 0.144747 0.105193 0.129530
O O8 0.432461 0.079397 0.172247
O O9 0.934858 0.716751 0.391788
O O10 0.187930 0.777305 0.039353
O O11 0.726556 0.712229 0.231536
O O12 0.000000 0.500000 0.500000
O O13 0.392001 0.800739 0.163064
#
# Coordination Sequence:
#
# PCOD9047555 Si02
#       6
#     2   2   2   2   2   2
#     4  11  23  43  64 101 145 181 229 282 356 423
#     4  10  25  49  70 100 142 185 239 288 341 416
#     4  11  24  47  71 100 141 186 232 291 345 414
#     4  11  24  43  70 105 139 186 230 290 353 420
#     4  10  24  44  68 103 135 187 231 291 347 413
#     4  11  24  41  70 100 140 185 229 291 349 417
#
# _framework density 25.019953999999998
#
# number of rings (size 3 to 8) (size 9 to 14) (size 15 to 20)
#    0.000    1.333    1.667    3.000    4.667    8.000 
#    3.000    0.000    0.000    0.000    0.000    0.000 
#    0.000    0.000    0.000    0.000    0.000    0.000 
#
# Total GULP energy -67193.579833 kJ/mol
# GULP energy per Si atom -5599.464986 kJ/mol
# Density = 2.496301 g / cm^3
# Si number density = 25.019954 Si / 1000 Ang^3
#
#
#
# Elastic Constant Matrix: (Units=GPa)
#
#
# Indices 1 2 3 4 5 6 
#
# 1 140.0983 48.7818 17.4928 -9.8899 0.4033 -3.2598
# 2 48.7818 168.8331 25.7822 9.3392 2.1269 -2.5351
# 3 17.4928 25.7822 52.8057 11.0332 9.1789 -9.3920
# 4 -9.8899 9.3392 11.0332 33.5579 4.1221 0.6436
# 5 0.4033 2.1269 9.1789 4.1221 25.4443 -3.5275
# 6 -3.2598 -2.5351 -9.3920 0.6436 -3.5275 51.6915
#
#
#
# Elastic Compliance Matrix: (Units=1/GPa)
#
#
# Indices 1 2 3 4 5 6 
#
# 1 0.008541 -0.002294 -0.002613 0.003973 0.000345 -0.000075
# 2 -0.002294 0.007051 -0.002419 -0.001914 0.000606 -0.000173
# 3 -0.002613 -0.002419 0.024377 -0.007344 -0.006838 0.003771
# 4 0.003973 -0.001914 -0.007344 0.034329 -0.003067 -0.001814
# 5 0.000345 0.000606 -0.006838 -0.003067 0.042451 0.001744
# 6 -0.000075 -0.000173 0.003771 -0.001814 0.001744 0.020159
#
#
# Mechanical properties :
#
#
# Convention : Reuss Voigt Hill
#
# Bulk Modulus (GPa) = 39.49723 60.65009 50.07366
# Shear Modulus (GPa) = 31.25042 40.11744 35.68393
#
# Velocity S-wave (km/s) = 3.53798 4.00861 3.78063
# Velocity P-wave (km/s) = 5.70178 6.76156 6.25416
#
# Compressibility (1/GPa) = 0.02531823
#
# Stress axis : x y z
#
# Youngs Moduli (GPa) = 117.08802 141.82719 41.02146
#
# Poissons Ratio (x) = 0.32535 0.10717
# Poissons Ratio (y) = 0.26860 0.09922
# Poissons Ratio (z) = 0.30590 0.34305
#
# Static dielectric constant tensor:
#      x y z
#    x 1.936380 0.005090 -0.000240 
#    y 0.005090 2.113920 0.063410 
#    z -0.000240 0.063410 2.080970 
# 
# From -- ./inp_files/18328.got.cif
#   From: 2010.05.17/outbox.cif.g08.bks.cpg/sg2_10_cif.got.tgz:18328.got - 2010.06.03 11:33:40.
