data_PCOD9047518
_publ_section_title
;
Structure prediction by ZEFSAII (Michael W. Deem and Ramdas Pophale) SiO2 
 PCOD9047518
Probable space group: P -1
;
_chemical_formula_sum "Si O2"
_cell_formula_units_Z 13
_cell_length_a 14.019832
_cell_length_b 7.631010
_cell_length_c 12.030847
_cell_angle_alpha 89.327782
_cell_angle_beta 32.486400
_cell_angle_gamma 69.064737
_cell_volume 527.152731
_symmetry_space_group_name_H-M "P -1"
_symmetry_group_IT_number 2
_symmetry_cell_setting 'triclinic'
loop_
_space_group_symop_operation_xyz
x,y,z
-x,-y,-z
loop_
_atom_site_type_symbol
_atom_site_label
_atom_site_fract_x
_atom_site_fract_y
_atom_site_fract_z
Si Si1 0.364571 0.349058 0.324804
Si Si2 0.025556 0.693438 0.483441
Si Si3 0.844457 0.048247 0.259804
Si Si4 0.500000 0.000000 0.000000
Si Si5 0.777670 0.342859 0.947732
Si Si6 0.336835 0.291522 0.775788
Si Si7 0.881141 0.409526 0.232642
O O1 0.204771 0.589735 0.410234
O O2 0.218232 0.396794 0.578036
O O3 0.417503 0.149999 0.196167
O O4 0.596308 0.300596 0.133030
O O5 0.148297 0.679310 0.251719
O O6 0.000000 0.500000 0.500000
O O7 0.762868 0.925257 0.754464
O O8 0.603359 0.100037 0.480065
O O9 0.784126 0.281664 0.358965
O O10 0.002076 0.849163 0.193833
O O11 0.000000 0.000000 0.000000
O O12 0.675208 0.587045 0.099964
O O13 0.214185 0.479080 0.795380
O O14 0.161207 0.241408 0.962664
#
# Coordination Sequence:
#
# PCOD9047518 Si02
#       7
#     2   2   2   1   2   2   2
#     4  11  24  45  71  98 145 183 236 293 354 410
#     4  10  24  46  68  99 136 182 236 293 346 413
#     4  12  25  45  71 109 148 182 236 291 348 426
#     4  10  24  44  68 100 134 180 238 294 338 414
#     4  12  25  45  74 104 136 190 239 286 360 424
#     4  11  24  47  73 104 147 185 235 288 358 425
#     4  11  24  47  73 104 146 191 227 294 358 416
#
# _framework density 24.660786000000002
#
# number of rings (size 3 to 8) (size 9 to 14) (size 15 to 20)
#    0.000    0.923    3.077    3.692    2.154    4.923 
#    5.538    0.000    0.000    0.000    0.000    0.000 
#    0.000    0.000    0.000    0.000    0.000    0.000 
#
# Total GULP energy -72507.067267 kJ/mol
# GULP energy per Si atom -5577.466713 kJ/mol
# Density = 2.460466 g / cm^3
# Si number density = 24.660786 Si / 1000 Ang^3
#
#
#
# Elastic Constant Matrix: (Units=GPa)
#
#
# Indices 1 2 3 4 5 6 
#
# 1 106.2926 3.5452 42.9119 4.9480 -13.7071 2.7040
# 2 3.5452 36.3537 -3.1723 -15.7109 -5.6780 1.9268
# 3 42.9119 -3.1723 137.1754 -6.0826 -23.4159 10.1662
# 4 4.9480 -15.7109 -6.0826 23.7031 7.8542 5.5213
# 5 -13.7071 -5.6780 -23.4159 7.8542 65.4610 7.7036
# 6 2.7040 1.9268 10.1662 5.5213 7.7036 27.9508
#
#
#
# Elastic Compliance Matrix: (Units=1/GPa)
#
#
# Indices 1 2 3 4 5 6 
#
# 1 0.011621 -0.004503 -0.003967 -0.007254 0.001294 0.001705
# 2 -0.004503 0.043675 0.005096 0.033210 0.002043 -0.011552
# 3 -0.003967 0.005096 0.009903 0.007109 0.002983 -0.005796
# 4 -0.007254 0.033210 0.007109 0.072576 -0.002713 -0.017762
# 5 0.001294 0.002043 0.002983 -0.002713 0.017790 -0.005718
# 6 0.001705 -0.011552 -0.005796 -0.017762 -0.005718 0.043601
#
#
# Mechanical properties :
#
#
# Convention : Reuss Voigt Hill
#
# Bulk Modulus (GPa) = 17.10811 40.71015 28.90913
# Shear Modulus (GPa) = 22.18324 39.19211 30.68767
#
# Velocity S-wave (km/s) = 3.00248 3.99086 3.53142
# Velocity P-wave (km/s) = 4.35572 6.14653 5.32692
#
# Compressibility (1/GPa) = 0.05845182
#
# Stress axis : x y z
#
# Youngs Moduli (GPa) = 86.05367 22.89637 100.98428
#
# Poissons Ratio (x) = 0.10310 0.40056
# Poissons Ratio (y) = 0.38748 -0.51463
# Poissons Ratio (z) = 0.34134 -0.11668
#
# Static dielectric constant tensor:
#      x y z
#    x 2.008380 0.043880 0.011410 
#    y 0.043880 1.969330 0.086190 
#    z 0.011410 0.086190 1.963130 
# 
# From -- ./inp_files/445952.got.cif
#   From: 2010.05.17/outbox.cif.g08.bks.cpg/sg2_223_cif.got.tgz:445952.got - 2010.06.03 11:33:40.
