data_PCOD9047088
_publ_section_title
;
Structure prediction by ZEFSAII (Michael W. Deem and Ramdas Pophale) SiO2 
 PCOD9047088
Probable space group: P -1
;
_chemical_formula_sum "Si O2"
_cell_formula_units_Z 14
_cell_length_a 10.046703
_cell_length_b 12.583080
_cell_length_c 9.911774
_cell_angle_alpha 56.661647
_cell_angle_beta 137.360794
_cell_angle_gamma 122.212453
_cell_volume 690.501351
_symmetry_space_group_name_H-M "P -1"
_symmetry_group_IT_number 2
_symmetry_cell_setting 'triclinic'
loop_
_space_group_symop_operation_xyz
x,y,z
-x,-y,-z
loop_
_atom_site_type_symbol
_atom_site_label
_atom_site_fract_x
_atom_site_fract_y
_atom_site_fract_z
Si Si1 0.287988 0.649214 0.127864
Si Si2 0.953437 0.361848 0.638548
Si Si3 0.531203 0.893343 0.987496
Si Si4 0.026869 0.077976 0.821795
Si Si5 0.868763 0.627144 0.939278
Si Si6 0.470968 0.707500 0.501003
Si Si7 0.388155 0.004770 0.556072
O O1 0.446512 0.753636 0.089268
O O2 0.210229 0.516266 0.082081
O O3 0.395650 0.629212 0.363155
O O4 0.081381 0.694746 0.979419
O O5 0.004813 0.228641 0.712648
O O6 0.713392 0.328955 0.508137
O O7 0.000000 0.500000 0.500000
O O8 0.071738 0.381445 0.855244
O O9 0.761273 0.920655 0.090490
O O10 0.500000 0.000000 0.000000
O O11 0.408235 0.897078 0.754656
O O12 0.842639 0.004556 0.643950
O O13 0.000000 0.000000 0.000000
O O14 0.681596 0.691988 0.729036
O O15 0.502516 0.860326 0.386568
O O16 0.500000 0.000000 0.500000
#
# Coordination Sequence:
#
# PCOD9047088 Si02
#       7
#     2   2   2   2   2   2   2
#     4  10  24  45  63 101 133 177 231 285 341 415
#     4  11  26  43  65 106 139 176 238 289 338 422
#     4  12  27  45  70 104 141 174 238 295 336 414
#     4  12  26  46  73 100 143 188 228 285 354 413
#     4  10  24  43  71  89 138 186 222 281 352 407
#     4  11  22  43  71  94 135 179 232 282 348 411
#     4  12  24  43  71 101 133 183 226 280 351 414
#
# _framework density 20.275124000000002
#
# number of rings (size 3 to 8) (size 9 to 14) (size 15 to 20)
#    0.000    0.857    4.286    1.286    8.000    2.286 
#    0.000    0.000    0.000    0.000    0.000    0.000 
#    0.000    0.000    0.000    0.000    0.000    0.000 
#
# Total GULP energy -78187.136402 kJ/mol
# GULP energy per Si atom -5584.795457 kJ/mol
# Density = 2.022898 g / cm^3
# Si number density = 20.275124 Si / 1000 Ang^3
#
#
#
# Elastic Constant Matrix: (Units=GPa)
#
#
# Indices 1 2 3 4 5 6 
#
# 1 141.2794 37.9128 57.6410 -6.2663 14.7581 20.9888
# 2 37.9128 91.9586 4.6179 1.5021 1.7010 5.7028
# 3 57.6410 4.6179 91.3567 7.5871 18.8478 11.1443
# 4 -6.2663 1.5021 7.5871 40.4492 3.4387 -1.9058
# 5 14.7581 1.7010 18.8478 3.4387 31.2525 6.8753
# 6 20.9888 5.7028 11.1443 -1.9058 6.8753 38.2956
#
#
#
# Elastic Compliance Matrix: (Units=1/GPa)
#
#
# Indices 1 2 3 4 5 6 
#
# 1 0.011804 -0.004339 -0.006909 0.003183 -0.000747 -0.003520
# 2 -0.004339 0.012590 0.002212 -0.001590 0.000264 -0.000267
# 3 -0.006909 0.002212 0.016916 -0.003792 -0.006536 -0.000481
# 4 0.003183 -0.001590 -0.003792 0.026244 -0.002307 0.001316
# 5 -0.000747 0.000264 -0.006536 -0.002307 0.037540 -0.004582
# 6 -0.003520 -0.000267 -0.000481 0.001316 -0.004582 0.029110
#
#
# Mechanical properties :
#
#
# Convention : Reuss Voigt Hill
#
# Bulk Modulus (GPa) = 43.03694 58.32649 50.68171
# Shear Modulus (GPa) = 31.24590 36.96098 34.10344
#
# Velocity S-wave (km/s) = 3.92994 4.27426 4.10571
# Velocity P-wave (km/s) = 6.47032 7.29308 6.89399
#
# Compressibility (1/GPa) = 0.02323585
#
# Stress axis : x y z
#
# Youngs Moduli (GPa) = 84.71985 79.42775 59.11725
#
# Poissons Ratio (x) = 0.34466 0.40844
# Poissons Ratio (y) = 0.36763 -0.13075
# Poissons Ratio (z) = 0.58532 -0.17566
#
# Static dielectric constant tensor:
#      x y z
#    x 1.522090 -0.258500 0.004550 
#    y -0.258500 1.465500 -0.019570 
#    z 0.004550 -0.019570 1.712420 
# 
# From -- ./inp_files/75920.got.cif
#   From: 2010.05.17/outbox.cif.g08.bks.cpg/sg2_38_cif.got.tgz:75920.got - 2010.06.03 11:33:40.
