data_PCOD9047264
_publ_section_title
;
Structure prediction by ZEFSAII (Michael W. Deem and Ramdas Pophale) SiO2 
 PCOD9047264
Probable space group: P -1
;
_chemical_formula_sum "Si O2"
_cell_formula_units_Z 12
_cell_length_a 17.341559
_cell_length_b 7.378376
_cell_length_c 7.548600
_cell_angle_alpha 121.041436
_cell_angle_beta 53.151286
_cell_angle_gamma 130.671326
_cell_volume 573.686818
_symmetry_space_group_name_H-M "P -1"
_symmetry_group_IT_number 2
_symmetry_cell_setting 'triclinic'
loop_
_space_group_symop_operation_xyz
x,y,z
-x,-y,-z
loop_
_atom_site_type_symbol
_atom_site_label
_atom_site_fract_x
_atom_site_fract_y
_atom_site_fract_z
Si Si1 0.026725 0.349769 0.640048
Si Si2 0.723760 0.038813 0.619012
Si Si3 0.731103 0.345080 0.438554
Si Si4 0.391783 0.388513 0.211778
Si Si5 0.046585 0.858048 0.750130
Si Si6 0.210574 0.915922 0.071622
O O1 0.144689 0.421247 0.597762
O O2 0.028848 0.606670 0.735960
O O3 0.008050 0.221260 0.409860
O O4 0.919213 0.181592 0.821467
O O5 0.617043 0.793139 0.710190
O O6 0.704994 0.199672 0.585764
O O7 0.819334 0.987576 0.384865
O O8 0.778074 0.183000 0.800121
O O9 0.638497 0.418192 0.571423
O O10 0.740264 0.178818 0.192393
O O11 0.500000 0.500000 0.000000
O O12 0.287324 0.204733 0.138405
O O13 0.000000 0.000000 0.000000
#
# Coordination Sequence:
#
# PCOD9047264 Si02
#       6
#     2   2   2   2   2   2
#     4   9  19  33  55  94 123 152 196 240 296 371
#     4   8  21  42  54  93 122 147 208 245 286 366
#     4  11  21  39  66  86 122 162 190 249 315 348
#     4  10  24  44  61  87 120 158 214 253 286 353
#     4   9  17  32  58  87 127 162 185 236 305 360
#     4   9  21  40  59  91 125 152 204 246 294 366
#
# _framework density 20.917337
#
# number of rings (size 3 to 8) (size 9 to 14) (size 15 to 20)
#    1.000    1.667    0.000    1.500    2.333    4.667 
#    3.000    0.833    0.000    0.000    0.000    0.000 
#    0.000    0.000    0.000    0.000    0.000    0.000 
#
# Total GULP energy -66946.898358 kJ/mol
# GULP energy per Si atom -5578.908197 kJ/mol
# Density = 2.086973 g / cm^3
# Si number density = 20.917337 Si / 1000 Ang^3
#
#
#
# Elastic Constant Matrix: (Units=GPa)
#
#
# Indices 1 2 3 4 5 6 
#
# 1 20.0010 3.2468 3.0024 0.1071 5.4263 -12.1605
# 2 3.2468 73.6361 39.4163 -21.2238 -7.1154 -11.0244
# 3 3.0024 39.4163 66.2668 5.8520 1.1193 3.1335
# 4 0.1071 -21.2238 5.8520 43.8227 4.2782 3.2565
# 5 5.4263 -7.1154 1.1193 4.2782 22.5752 1.6121
# 6 -12.1605 -11.0244 3.1335 3.2565 1.6121 5.8401
#
#
#
# Elastic Compliance Matrix: (Units=1/GPa)
#
#
# Indices 1 2 3 4 5 6 
#
# 1 -0.019831 -0.034736 0.028069 -0.012201 0.003019 -0.115955
# 2 -0.034736 0.016537 -0.007249 0.011115 0.015215 -0.047619
# 3 0.028069 -0.007249 0.016981 -0.007942 -0.011456 0.043242
# 4 -0.012201 0.011115 -0.007942 0.030383 0.002339 -0.017749
# 5 0.003019 0.015215 -0.011456 0.002339 0.046563 0.026997
# 6 -0.115955 -0.047619 0.043242 -0.017749 0.026997 -0.180865
#
#
# Mechanical properties :
#
#
# Convention : Reuss Voigt Hill
#
# Bulk Modulus (GPa) = -70.69908 27.91500 -21.39204
# Shear Modulus (GPa) = -74.49935 22.06349 -26.21793
#
# Velocity S-wave (km/s) = -5.97440 3.25128 -3.54419
# Velocity P-wave (km/s) = 9.02573 5.24107 5.19591
#
# Compressibility (1/GPa) = -0.01414446
#
# Stress axis : x y z
#
# Youngs Moduli (GPa) = -50.42717 60.47068 58.88972
#
# Poissons Ratio (x) = 2.10050 -1.65300
# Poissons Ratio (y) = -1.75163 0.42692
# Poissons Ratio (z) = 1.41546 0.43838
#
# Static dielectric constant tensor:
#      x y z
#    x 1.772560 0.002870 0.010890 
#    y 0.002870 1.785660 -0.019650 
#    z 0.010890 -0.019650 1.731170 
# 
# From -- ./inp_files/59695.got.cif
#   From: 2010.05.17/outbox.cif.g08.bks.cpg/sg2_30_cif.got.tgz:59695.got - 2010.06.03 11:33:40.
