data_PCOD9047439
_publ_section_title
;
Structure prediction by ZEFSAII (Michael W. Deem and Ramdas Pophale) SiO2 
 PCOD9047439
Probable space group: P -1
;
_chemical_formula_sum "Si O2"
_cell_formula_units_Z 14
_cell_length_a 13.321860
_cell_length_b 11.843138
_cell_length_c 9.461049
_cell_angle_alpha 126.455990
_cell_angle_beta 116.862460
_cell_angle_gamma 34.316582
_cell_volume 674.354795
_symmetry_space_group_name_H-M "P -1"
_symmetry_group_IT_number 2
_symmetry_cell_setting 'triclinic'
loop_
_space_group_symop_operation_xyz
x,y,z
-x,-y,-z
loop_
_atom_site_type_symbol
_atom_site_label
_atom_site_fract_x
_atom_site_fract_y
_atom_site_fract_z
Si Si1 0.927519 0.726751 0.999855
Si Si2 0.349716 0.762958 0.423526
Si Si3 0.005196 0.780292 0.374701
Si Si4 0.100615 0.429506 0.365908
Si Si5 0.587010 0.587539 0.718500
Si Si6 0.696040 0.746192 0.063317
Si Si7 0.507099 0.888577 0.552105
O O1 0.861185 0.759157 0.823650
O O2 0.140278 0.495821 0.941245
O O3 0.935070 0.835514 0.208715
O O4 0.806177 0.728405 0.004997
O O5 0.440656 0.710660 0.595315
O O6 0.416429 0.541179 0.273073
O O7 0.420160 0.821987 0.417143
O O8 0.135626 0.983039 0.462161
O O9 0.999043 0.635382 0.346161
O O10 0.213903 0.615059 0.374288
O O11 0.286838 0.325062 0.435667
O O12 0.000000 0.500000 0.500000
O O13 0.575430 0.747978 0.908341
O O14 0.593226 0.941256 0.253397
O O15 0.500000 0.000000 0.500000
#
# Coordination Sequence:
#
# PCOD9047439 Si02
#       7
#     2   2   2   2   2   2   2
#     4  10  17  34  57  82 120 146 197 245 287 345
#     4  11  21  37  59  86 123 150 202 237 300 349
#     4  11  19  37  58  88 119 159 194 244 295 349
#     4  12  22  35  56  88 124 151 195 251 305 348
#     4  10  22  36  57  91 117 157 191 250 290 353
#     4  10  18  36  57  84 116 149 200 239 295 339
#     4  12  24  37  60  89 118 159 201 245 299 357
#
# _framework density 20.760584999999999
#
# number of rings (size 3 to 8) (size 9 to 14) (size 15 to 20)
#    0.000    1.143    7.143    2.143    2.000    1.143 
#    0.000    0.714    0.000    0.000    0.000    7.000 
#    0.000    0.000    0.000    0.000    0.000    0.000 
#
# Total GULP energy -78000.240683 kJ/mol
# GULP energy per Si atom -5571.445763 kJ/mol
# Density = 2.071333 g / cm^3
# Si number density = 20.760585 Si / 1000 Ang^3
#
#
#
# Elastic Constant Matrix: (Units=GPa)
#
#
# Indices 1 2 3 4 5 6 
#
# 1 79.8407 23.5085 23.7056 5.6652 -11.4104 3.6937
# 2 23.5085 52.5200 7.4224 5.9902 -3.3287 -2.9039
# 3 23.7056 7.4224 53.6044 -1.1358 -13.9079 -3.3138
# 4 5.6652 5.9902 -1.1358 20.2061 -5.3209 -3.1830
# 5 -11.4104 -3.3287 -13.9079 -5.3209 29.2243 -0.5866
# 6 3.6937 -2.9039 -3.3138 -3.1830 -0.5866 32.5505
#
#
#
# Elastic Compliance Matrix: (Units=1/GPa)
#
#
# Indices 1 2 3 4 5 6 
#
# 1 0.016989 -0.006396 -0.006321 -0.003167 0.002251 -0.003411
# 2 -0.006396 0.022589 -0.000530 -0.004855 -0.001017 0.002194
# 3 -0.006321 -0.000530 0.024640 0.006714 0.010501 0.004024
# 4 -0.003167 -0.004855 0.006714 0.056294 0.011782 0.006327
# 5 0.002251 -0.001017 0.010501 0.011782 0.042177 0.002635
# 6 -0.003411 0.002194 0.004024 0.006327 0.002635 0.032380
#
#
# Mechanical properties :
#
#
# Convention : Reuss Voigt Hill
#
# Bulk Modulus (GPa) = 26.50950 32.80423 29.65686
# Shear Modulus (GPa) = 21.35493 25.15143 23.25318
#
# Velocity S-wave (km/s) = 3.21070 3.48444 3.35037
# Velocity P-wave (km/s) = 5.15186 5.65897 5.41136
#
# Compressibility (1/GPa) = 0.03772233
#
# Stress axis : x y z
#
# Youngs Moduli (GPa) = 58.86032 44.26964 40.58499
#
# Poissons Ratio (x) = 0.28315 0.25656
# Poissons Ratio (y) = 0.37647 0.02153
# Poissons Ratio (z) = 0.37208 0.02348
#
# Static dielectric constant tensor:
#      x y z
#    x 1.794640 0.041490 0.051780 
#    y 0.041490 1.847120 -0.009570 
#    z 0.051780 -0.009570 1.773610 
# 
# From -- ./inp_files/260171.got.cif
#   From: 2010.05.17/outbox.cif.g08.bks.cpg/sg2_131_cif.got.tgz:260171.got - 2010.06.03 11:33:40.
