data_PCOD9047585
_publ_section_title
;
Structure prediction by ZEFSAII (Michael W. Deem and Ramdas Pophale) SiO2 
 PCOD9047585
Probable space group: P -1
;
_chemical_formula_sum "Si O2"
_cell_formula_units_Z 14
_cell_length_a 12.108619
_cell_length_b 8.952543
_cell_length_c 7.966369
_cell_angle_alpha 108.828760
_cell_angle_beta 128.824489
_cell_angle_gamma 87.381916
_cell_volume 622.247746
_symmetry_space_group_name_H-M "P -1"
_symmetry_group_IT_number 2
_symmetry_cell_setting 'triclinic'
loop_
_space_group_symop_operation_xyz
x,y,z
-x,-y,-z
loop_
_atom_site_type_symbol
_atom_site_label
_atom_site_fract_x
_atom_site_fract_y
_atom_site_fract_z
Si Si1 0.845570 0.671811 0.580759
Si Si2 0.408141 0.133207 0.918791
Si Si3 0.887189 0.834187 0.314492
Si Si4 0.073878 0.495187 0.889656
Si Si5 0.328031 0.102095 0.435744
Si Si6 0.348187 0.750067 0.315096
Si Si7 0.421504 0.576571 0.611849
O O1 0.859089 0.737712 0.429353
O O2 0.813635 0.826034 0.708869
O O3 0.696136 0.549301 0.442953
O O4 0.975716 0.583389 0.710102
O O5 0.256487 0.109782 0.862589
O O6 0.369901 0.115387 0.678806
O O7 0.481191 0.312610 0.117286
O O8 0.500000 0.000000 0.000000
O O9 0.930485 0.693994 0.198231
O O10 0.000000 0.000000 0.500000
O O11 0.239916 0.598988 0.071025
O O12 0.000000 0.500000 0.000000
O O13 0.478756 0.200824 0.536341
O O14 0.298606 0.915285 0.290742
O O15 0.338144 0.698043 0.480489
O O16 0.500000 0.500000 0.500000
#
# Coordination Sequence:
#
# PCOD9047585 Si02
#       7
#     2   2   2   2   2   2   2
#     4  11  26  44  74  98 142 185 238 289 354 415
#     4  11  25  43  76 102 135 188 231 288 361 413
#     4  11  29  50  69 104 146 185 237 293 349 426
#     4  12  27  46  72 102 139 195 232 288 358 417
#     4  10  24  44  68 107 136 185 229 304 342 422
#     4  11  23  44  69 100 148 174 241 290 353 412
#     4  12  23  43  72 105 142 179 237 297 349 415
#
# _framework density 22.499078000000001
#
# number of rings (size 3 to 8) (size 9 to 14) (size 15 to 20)
#    0.000    0.857    4.286    1.286    8.000    2.857 
#    0.000    0.000    0.000    0.000    0.000    0.000 
#    0.000    0.000    0.000    0.000    0.000    0.000 
#
# Total GULP energy -78030.344921 kJ/mol
# GULP energy per Si atom -5573.596066 kJ/mol
# Density = 2.244787 g / cm^3
# Si number density = 22.499078 Si / 1000 Ang^3
#
#
#
# Elastic Constant Matrix: (Units=GPa)
#
#
# Indices 1 2 3 4 5 6 
#
# 1 81.9518 48.0281 13.5881 18.2724 -3.1275 -6.0251
# 2 48.0281 128.2826 32.5794 16.7326 4.2498 -24.1739
# 3 13.5881 32.5794 57.1790 23.1628 9.3349 -7.5806
# 4 18.2724 16.7326 23.1628 40.4010 -2.6576 1.7541
# 5 -3.1275 4.2498 9.3349 -2.6576 26.9172 -2.9593
# 6 -6.0251 -24.1739 -7.5806 1.7541 -2.9593 43.4176
#
#
#
# Elastic Compliance Matrix: (Units=1/GPa)
#
#
# Indices 1 2 3 4 5 6 
#
# 1 0.016842 -0.006057 0.001451 -0.005805 0.001790 -0.000425
# 2 -0.006057 0.012248 -0.004900 0.000232 -0.000356 0.005090
# 3 0.001451 -0.004900 0.028202 -0.015563 -0.010118 0.002336
# 4 -0.005805 0.000232 -0.015563 0.036909 0.007852 -0.004350
# 5 0.001790 -0.000356 -0.010118 0.007852 0.041789 0.000815
# 6 -0.000425 0.005090 0.002336 -0.004350 0.000815 0.026446
#
#
# Mechanical properties :
#
#
# Convention : Reuss Voigt Hill
#
# Bulk Modulus (GPa) = 26.12225 50.64498 38.38362
# Shear Modulus (GPa) = 25.74555 33.69501 29.72028
#
# Velocity S-wave (km/s) = 3.38641 3.87410 3.63844
# Velocity P-wave (km/s) = 5.18902 6.52459 5.89475
#
# Compressibility (1/GPa) = 0.03828154
#
# Stress axis : x y z
#
# Youngs Moduli (GPa) = 59.37381 81.64574 35.45835
#
# Poissons Ratio (x) = 0.49449 -0.05146
# Poissons Ratio (y) = 0.35960 0.17376
# Poissons Ratio (z) = -0.08618 0.40010
#
# Static dielectric constant tensor:
#      x y z
#    x 1.789820 -0.107840 0.235590 
#    y -0.107840 1.907150 0.026930 
#    z 0.235590 0.026930 1.603090 
# 
# From -- ./inp_files/190977.got.cif
#   From: 2010.05.17/outbox.cif.g08.bks.cpg/sg2_96_cif.got.tgz:190977.got - 2010.06.03 11:33:40.
