data_PCOD9047641
_publ_section_title
;
Structure prediction by ZEFSAII (Michael W. Deem and Ramdas Pophale) SiO2 
 PCOD9047641
Probable space group: P -1
;
_chemical_formula_sum "Si O2"
_cell_formula_units_Z 10
_cell_length_a 4.922466
_cell_length_b 18.192942
_cell_length_c 4.922463
_cell_angle_alpha 96.557450
_cell_angle_beta 123.550632
_cell_angle_gamma 83.442558
_cell_volume 364.285308
_symmetry_space_group_name_H-M "P -1"
_symmetry_group_IT_number 2
_symmetry_cell_setting 'triclinic'
loop_
_space_group_symop_operation_xyz
x,y,z
-x,-y,-z
loop_
_atom_site_type_symbol
_atom_site_label
_atom_site_fract_x
_atom_site_fract_y
_atom_site_fract_z
Si Si1 0.160615 0.157075 0.814487
Si Si2 0.730952 0.250000 0.230952
Si Si3 0.695218 0.055799 0.804741
Si Si4 0.304742 0.444201 0.195218
Si Si5 0.314487 0.342925 0.660615
O O1 0.434779 0.090818 0.889090
O O2 0.997792 0.184678 0.448596
O O3 0.856984 0.126449 0.791201
O O4 0.376462 0.218908 0.103745
O O5 0.948596 0.315322 0.497792
O O6 0.603745 0.281092 0.876462
O O7 0.500000 0.000000 0.500000
O O8 0.000000 0.000000 0.000000
O O9 0.500000 0.500000 0.500000
O O10 0.291201 0.373551 0.356983
O O11 0.389090 0.409182 0.934779
O O12 0.000000 0.500000 0.000000
#
# Coordination Sequence:
#
# PCOD9047641 Si02
#       5
#     2   2   2   2   2
#     4  11  24  43  68 101 138 189 238 298 362 429
#     4  10  24  44  68  98 140 186 240 296 356 432
#     4  12  24  42  68 100 140 184 236 296 360 432
#     4  12  24  42  68 100 140 184 236 296 360 432
#     4  11  24  43  68 101 138 189 238 298 362 429
#
# _framework density 27.451013
#
# number of rings (size 3 to 8) (size 9 to 14) (size 15 to 20)
#    0.000    0.800    0.000    7.200    0.000    6.400 
#    0.000    0.000    0.000    0.000    0.000    0.000 
#    0.000    0.000    0.000    0.000    0.000    0.000 
#
# Total GULP energy -55764.210612 kJ/mol
# GULP energy per Si atom -5576.421061 kJ/mol
# Density = 2.738853 g / cm^3
# Si number density = 27.451013 Si / 1000 Ang^3
#
#
#
# Elastic Constant Matrix: (Units=GPa)
#
#
# Indices 1 2 3 4 5 6 
#
# 1 100.2270 34.8300 47.3770 2.0629 17.1669 8.5712
# 2 34.8300 136.9865 60.2431 4.3866 15.1429 -9.4070
# 3 47.3770 60.2431 225.5790 -7.2939 57.5275 2.6470
# 4 2.0629 4.3866 -7.2939 90.7098 4.5328 22.7360
# 5 17.1669 15.1429 57.5275 4.5328 64.8797 1.1835
# 6 8.5712 -9.4070 2.6470 22.7360 1.1835 52.5541
#
#
#
# Elastic Compliance Matrix: (Units=1/GPa)
#
#
# Indices 1 2 3 4 5 6 
#
# 1 0.011943 -0.002419 -0.001503 0.000401 -0.001246 -0.002451
# 2 -0.002419 0.009000 -0.002072 -0.001227 0.000414 0.002631
# 3 -0.001503 -0.002072 0.006642 0.001131 -0.005072 -0.000835
# 4 0.000401 -0.001227 0.001131 0.012699 -0.001604 -0.005800
# 5 -0.001246 0.000414 -0.005072 -0.001604 0.020241 0.000771
# 6 -0.002451 0.002631 -0.000835 -0.005800 0.000771 0.022433
#
#
# Mechanical properties :
#
#
# Convention : Reuss Voigt Hill
#
# Bulk Modulus (GPa) = 64.11047 83.07695 73.59371
# Shear Modulus (GPa) = 49.92772 62.98488 56.45630
#
# Velocity S-wave (km/s) = 4.26936 4.79523 4.53992
# Velocity P-wave (km/s) = 6.90713 7.80951 7.37214
#
# Compressibility (1/GPa) = 0.01559808
#
# Stress axis : x y z
#
# Youngs Moduli (GPa) = 83.73000 111.10629 150.56413
#
# Poissons Ratio (x) = 0.26878 0.22626
# Poissons Ratio (y) = 0.20255 0.31193
# Poissons Ratio (z) = 0.12582 0.23018
#
# Static dielectric constant tensor:
#      x y z
#    x 2.110770 -0.208340 -0.062060 
#    y -0.208340 1.579800 0.097150 
#    z -0.062060 0.097150 2.006620 
# 
# From -- ./inp_files/5360.got.cif
#   From: 2010.05.17/outbox.cif.g08.bks.cpg/sg2_3_cif.got.tgz:5360.got - 2010.06.03 11:33:40.
