data_PCOD9047258
_publ_section_title
;
Structure prediction by ZEFSAII (Michael W. Deem and Ramdas Pophale) SiO2 
 PCOD9047258
Probable space group: P -1
;
_chemical_formula_sum "Si O2"
_cell_formula_units_Z 14
_cell_length_a 9.872906
_cell_length_b 8.669544
_cell_length_c 8.393260
_cell_angle_alpha 117.439137
_cell_angle_beta 85.238572
_cell_angle_gamma 106.391248
_cell_volume 610.741517
_symmetry_space_group_name_H-M "P -1"
_symmetry_group_IT_number 2
_symmetry_cell_setting 'triclinic'
loop_
_space_group_symop_operation_xyz
x,y,z
-x,-y,-z
loop_
_atom_site_type_symbol
_atom_site_label
_atom_site_fract_x
_atom_site_fract_y
_atom_site_fract_z
Si Si1 0.108779 0.410060 0.859889
Si Si2 0.116826 0.070434 0.888600
Si Si3 0.396416 0.514261 0.718914
Si Si4 0.524598 0.206496 0.655810
Si Si5 0.762743 0.452799 0.561053
Si Si6 0.429541 0.140226 0.990564
Si Si7 0.999805 0.739731 0.551814
O O1 0.135127 0.270845 0.920884
O O2 0.263524 0.530057 0.847291
O O3 0.043190 0.318281 0.653521
O O4 0.000000 0.500000 0.000000
O O5 0.264741 0.054633 0.934418
O O6 0.062880 0.948819 0.679701
O O7 0.000000 0.000000 0.000000
O O8 0.417677 0.315817 0.648593
O O9 0.353350 0.550814 0.563246
O O10 0.534844 0.671285 0.827680
O O11 0.678398 0.339141 0.660921
O O12 0.499376 0.191392 0.837073
O O13 0.500000 0.000000 0.500000
O O14 0.865034 0.656007 0.640606
O O15 0.874880 0.345180 0.447594
O O16 0.500000 0.000000 0.000000
#
# Coordination Sequence:
#
# PCOD9047258 Si02
#       7
#     2   2   2   2   2   2   2
#     4  11  27  47  75 107 144 199 246 304 380 438
#     4  12  28  46  74 106 150 195 252 300 372 443
#     4  11  25  48  72 107 151 184 247 312 366 452
#     4  12  25  45  72 103 144 192 244 299 373 438
#     4  10  24  43  78 103 142 188 242 296 383 424
#     4  12  28  48  72 109 152 192 247 309 368 450
#     4  10  24  47  73 104 151 187 247 305 360 454
#
# _framework density 22.922954000000001
#
# number of rings (size 3 to 8) (size 9 to 14) (size 15 to 20)
#    0.000    0.857    1.429    3.857   12.000    0.000 
#    2.571    0.000    0.000    0.000    0.000    0.000 
#    0.000    0.000    0.000    0.000    0.000    0.000 
#
# Total GULP energy -78298.476322 kJ/mol
# GULP energy per Si atom -5592.748309 kJ/mol
# Density = 2.287078 g / cm^3
# Si number density = 22.922954 Si / 1000 Ang^3
#
#
#
# Elastic Constant Matrix: (Units=GPa)
#
#
# Indices 1 2 3 4 5 6 
#
# 1 138.5904 49.2670 45.1556 -13.6286 1.0039 22.6898
# 2 49.2670 106.7378 26.5525 -27.9561 -2.7705 1.7401
# 3 45.1556 26.5525 91.5601 -6.5627 10.6517 7.1342
# 4 -13.6286 -27.9561 -6.5627 44.7782 3.4114 0.1034
# 5 1.0039 -2.7705 10.6517 3.4114 32.5529 -5.9270
# 6 22.6898 1.7401 7.1342 0.1034 -5.9270 45.2567
#
#
#
# Elastic Compliance Matrix: (Units=1/GPa)
#
#
# Indices 1 2 3 4 5 6 
#
# 1 0.010557 -0.003802 -0.003684 0.000334 -0.000318 -0.004608
# 2 -0.003802 0.013369 -0.001831 0.006804 0.001480 0.001859
# 3 -0.003684 -0.001831 0.013905 0.000139 -0.004770 -0.000900
# 4 0.000334 0.006804 0.000139 0.026891 -0.002446 -0.000833
# 5 -0.000318 0.001480 -0.004770 -0.002446 0.033631 0.005264
# 6 -0.004608 0.001859 -0.000900 -0.000833 0.005264 0.025168
#
#
# Mechanical properties :
#
#
# Convention : Reuss Voigt Hill
#
# Bulk Modulus (GPa) = 52.09235 64.31541 58.20388
# Shear Modulus (GPa) = 33.65769 38.91176 36.28472
#
# Velocity S-wave (km/s) = 3.83599 4.12454 3.98288
# Velocity P-wave (km/s) = 6.51107 7.12745 6.82623
#
# Compressibility (1/GPa) = 0.01919668
#
# Stress axis : x y z
#
# Youngs Moduli (GPa) = 94.72406 74.79754 71.91786
#
# Poissons Ratio (x) = 0.28437 0.26494
# Poissons Ratio (y) = 0.36013 0.13171
# Poissons Ratio (z) = 0.34896 0.13699
#
# Static dielectric constant tensor:
#      x y z
#    x 1.873330 0.028090 -0.025630 
#    y 0.028090 1.920890 0.071850 
#    z -0.025630 0.071850 1.923080 
# 
# From -- ./inp_files/160183.got.cif
#   From: 2010.05.17/outbox.cif.g08.bks.cpg/sg2_81_cif.got.tgz:160183.got - 2010.06.03 11:33:40.
