data_PCOD9047243
_publ_section_title
;
Structure prediction by ZEFSAII (Michael W. Deem and Ramdas Pophale) SiO2 
 PCOD9047243
Probable space group: P -1
;
_chemical_formula_sum "Si O2"
_cell_formula_units_Z 10
_cell_length_a 5.612817
_cell_length_b 9.061080
_cell_length_c 17.997066
_cell_angle_alpha 29.150206
_cell_angle_beta 121.797816
_cell_angle_gamma 118.285185
_cell_volume 378.720458
_symmetry_space_group_name_H-M "P -1"
_symmetry_group_IT_number 2
_symmetry_cell_setting 'triclinic'
loop_
_space_group_symop_operation_xyz
x,y,z
-x,-y,-z
loop_
_atom_site_type_symbol
_atom_site_label
_atom_site_fract_x
_atom_site_fract_y
_atom_site_fract_z
Si Si1 0.185759 0.890882 0.508842
Si Si2 0.258575 0.787050 0.264775
Si Si3 0.820220 0.738730 0.406296
Si Si4 0.693679 0.722063 0.135095
Si Si5 0.680101 0.604740 0.910955
O O1 0.251030 0.534044 0.681506
O O2 0.013756 0.996353 0.361844
O O3 0.500000 0.000000 0.500000
O O4 0.000000 0.000000 0.500000
O O5 0.578549 0.837006 0.269086
O O6 0.268961 0.446706 0.450549
O O7 0.025237 0.837262 0.142531
O O8 0.263268 0.033154 0.223975
O O9 0.000000 0.500000 0.500000
O O10 0.527660 0.523870 0.131805
O O11 0.500000 0.000000 0.000000
O O12 0.500000 0.500000 0.000000
O O13 0.000000 0.500000 0.000000
#
# Coordination Sequence:
#
# PCOD9047243 Si02
#       5
#     2   2   2   2   2
#     4  11  27  48  76 111 151 198 249 308 374 450
#     4  10  24  47  70 108 148 189 249 301 377 439
#     4  10  24  43  76 102 146 193 242 307 367 443
#     4  11  25  50  77 112 150 200 250 312 377 448
#     4  12  28  48  74 105 150 197 245 303 374 444
#
# _framework density 26.404699999999998
#
# number of rings (size 3 to 8) (size 9 to 14) (size 15 to 20)
#    0.000    1.200    2.000    1.200   14.000    2.400 
#    3.600    0.000    0.000    0.000    0.000    0.000 
#    0.000    0.000    0.000    0.000    0.000    0.000 
#
# Total GULP energy -55669.915605 kJ/mol
# GULP energy per Si atom -5566.991560 kJ/mol
# Density = 2.634460 g / cm^3
# Si number density = 26.404700 Si / 1000 Ang^3
#
#
#
# Elastic Constant Matrix: (Units=GPa)
#
#
# Indices 1 2 3 4 5 6 
#
# 1 117.3478 51.8909 38.5139 31.1197 40.5406 15.8212
# 2 51.8909 212.5038 39.1303 45.1514 28.7696 36.0639
# 3 38.5139 39.1303 125.8104 8.7187 30.6613 19.3420
# 4 31.1197 45.1514 8.7187 62.1383 11.2700 25.3551
# 5 40.5406 28.7696 30.6613 11.2700 59.1395 15.7948
# 6 15.8212 36.0639 19.3420 25.3551 15.7948 46.9210
#
#
#
# Elastic Compliance Matrix: (Units=1/GPa)
#
#
# Indices 1 2 3 4 5 6 
#
# 1 0.013198 -0.001223 -0.001948 -0.005169 -0.007120 0.002483
# 2 -0.001223 0.006220 -0.000867 -0.002723 -0.000594 -0.002340
# 3 -0.001948 -0.000867 0.009829 0.001886 -0.002964 -0.002750
# 4 -0.005169 -0.002723 0.001886 0.024444 0.002135 -0.010869
# 5 -0.007120 -0.000594 -0.002964 0.002135 0.024643 -0.005370
# 6 0.002483 -0.002340 -0.002750 -0.010869 -0.005370 0.031088
#
#
# Mechanical properties :
#
#
# Convention : Reuss Voigt Hill
#
# Bulk Modulus (GPa) = 47.23545 79.41470 63.32507
# Shear Modulus (GPa) = 40.14284 55.38156 47.76220
#
# Velocity S-wave (km/s) = 3.90332 4.58472 4.25767
# Velocity P-wave (km/s) = 6.18405 7.62676 6.94298
#
# Compressibility (1/GPa) = 0.02117054
#
# Stress axis : x y z
#
# Youngs Moduli (GPa) = 75.76971 160.76642 101.74165
#
# Poissons Ratio (x) = 0.19664 0.19820
# Poissons Ratio (y) = 0.09268 0.08821
# Poissons Ratio (z) = 0.14760 0.13939
#
# Static dielectric constant tensor:
#      x y z
#    x 2.681680 0.507780 -0.121070 
#    y 0.507780 2.565940 -0.097590 
#    z -0.121070 -0.097590 2.084790 
# 
# From -- ./inp_files/58071.got.cif
#   From: 2010.05.17/outbox.cif.g08.bks.cpg/sg2_30_cif.got.tgz:58071.got - 2010.06.03 11:33:40.
