data_PCOD9047131
_publ_section_title
;
Structure prediction by ZEFSAII (Michael W. Deem and Ramdas Pophale) SiO2 
 PCOD9047131
Probable space group: P -1
;
_chemical_formula_sum "Si O2"
_cell_formula_units_Z 12
_cell_length_a 7.913970
_cell_length_b 9.346493
_cell_length_c 13.094203
_cell_angle_alpha 116.648922
_cell_angle_beta 36.228026
_cell_angle_gamma 114.458567
_cell_volume 509.100245
_symmetry_space_group_name_H-M "P -1"
_symmetry_group_IT_number 2
_symmetry_cell_setting 'triclinic'
loop_
_space_group_symop_operation_xyz
x,y,z
-x,-y,-z
loop_
_atom_site_type_symbol
_atom_site_label
_atom_site_fract_x
_atom_site_fract_y
_atom_site_fract_z
Si Si1 0.872719 0.561331 0.751170
Si Si2 0.113078 0.253070 0.478584
Si Si3 0.910838 0.065396 0.220913
Si Si4 0.370559 0.864639 0.943230
Si Si5 0.724616 0.962907 0.498921
Si Si6 0.787230 0.460035 0.992347
O O1 0.897398 0.527353 0.850442
O O2 0.079308 0.441236 0.559920
O O3 0.951766 0.753196 0.762922
O O4 0.553990 0.508772 0.842509
O O5 0.389248 0.207457 0.265950
O O6 0.127104 0.173094 0.557289
O O7 0.837540 0.144267 0.534156
O O8 0.605329 0.076255 0.323272
O O9 0.805202 0.966979 0.343032
O O10 0.131490 0.953162 0.027659
O O11 0.242197 0.729295 0.039575
O O12 0.500000 0.000000 0.000000
O O13 0.000000 0.500000 0.000000
#
# Coordination Sequence:
#
# PCOD9047131 Si02
#       6
#     2   2   2   2   2   2
#     4  11  26  49  75 108 148 190 242 304 361 430
#     4  11  25  45  73 107 144 186 240 303 363 427
#     4  11  24  47  73 102 142 192 244 295 362 438
#     4  12  24  48  72 104 147 193 237 301 365 431
#     4  10  24  43  72 105 138 189 243 298 358 433
#     4  11  27  48  75 110 148 191 241 301 366 431
#
# _framework density 23.570996000000001
#
# number of rings (size 3 to 8) (size 9 to 14) (size 15 to 20)
#    0.000    1.000    3.333    1.000    7.000    4.000 
#    3.000    0.000    0.000    0.000    0.000    0.000 
#    0.000    0.000    0.000    0.000    0.000    0.000 
#
# Total GULP energy -66916.654541 kJ/mol
# GULP energy per Si atom -5576.387878 kJ/mol
# Density = 2.351735 g / cm^3
# Si number density = 23.570996 Si / 1000 Ang^3
#
#
#
# Elastic Constant Matrix: (Units=GPa)
#
#
# Indices 1 2 3 4 5 6 
#
# 1 120.9143 9.4946 38.2859 -8.1557 0.9999 -5.4678
# 2 9.4946 99.9278 61.2735 11.4040 -3.8497 -28.0526
# 3 38.2859 61.2735 152.5353 25.1772 1.6234 21.0046
# 4 -8.1557 11.4040 25.1772 38.5390 -8.0618 -7.6953
# 5 0.9999 -3.8497 1.6234 -8.0618 28.1354 -24.7301
# 6 -5.4678 -28.0526 21.0046 -7.6953 -24.7301 3.0256
#
#
#
# Elastic Compliance Matrix: (Units=1/GPa)
#
#
# Indices 1 2 3 4 5 6 
#
# 1 0.008849 -0.001212 -0.001539 0.001927 -0.002917 -0.003501
# 2 -0.001212 0.008190 -0.000600 -0.006015 -0.008814 -0.009431
# 3 -0.001539 -0.000600 0.005967 -0.000683 0.007413 0.009079
# 4 0.001927 -0.006015 -0.000683 0.025569 -0.003533 -0.011385
# 5 -0.002917 -0.008814 0.007413 -0.003533 0.015619 -0.019774
# 6 -0.003501 -0.009431 0.009079 -0.011385 -0.019774 -0.016863
#
#
# Mechanical properties :
#
#
# Convention : Reuss Voigt Hill
#
# Bulk Modulus (GPa) = 61.34154 65.72058 63.53106
# Shear Modulus (GPa) = 84.07821 31.56156 57.81988
#
# Velocity S-wave (km/s) = 5.97893 3.66320 4.95816
# Velocity P-wave (km/s) = 8.58744 6.77013 7.73236
#
# Compressibility (1/GPa) = 0.01630217
#
# Stress axis : x y z
#
# Youngs Moduli (GPa) = 113.01190 122.10114 167.58969
#
# Poissons Ratio (x) = 0.14802 0.25792
# Poissons Ratio (y) = 0.13700 0.10062
# Poissons Ratio (z) = 0.17393 0.07331
#
# Static dielectric constant tensor:
#      x y z
#    x 2.035940 -0.029560 -0.041350 
#    y -0.029560 1.783820 0.005740 
#    z -0.041350 0.005740 1.961020 
# 
# From -- ./inp_files/495551.got.cif
#   From: 2010.05.17/outbox.cif.g08.bks.cpg/sg2_248_cif.got.tgz:495551.got - 2010.06.03 11:33:40.
