data_PCOD9047156
_publ_section_title
;
Structure prediction by ZEFSAII (Michael W. Deem and Ramdas Pophale) SiO2 
 PCOD9047156
Probable space group: P -1
;
_chemical_formula_sum "Si O2"
_cell_formula_units_Z 15
_cell_length_a 10.687981
_cell_length_b 11.544411
_cell_length_c 16.513800
_cell_angle_alpha 146.052797
_cell_angle_beta 149.504237
_cell_angle_gamma 37.628678
_cell_volume 555.595386
_symmetry_space_group_name_H-M "P -1"
_symmetry_group_IT_number 2
_symmetry_cell_setting 'triclinic'
loop_
_space_group_symop_operation_xyz
x,y,z
-x,-y,-z
loop_
_atom_site_type_symbol
_atom_site_label
_atom_site_fract_x
_atom_site_fract_y
_atom_site_fract_z
Si Si1 0.680697 0.897991 0.839002
Si Si2 0.043042 0.110886 0.403098
Si Si3 0.422007 0.554120 0.716188
Si Si4 0.841762 0.286243 0.093648
Si Si5 0.352215 0.670746 0.452600
Si Si6 0.166394 0.269209 0.994035
Si Si7 0.000000 0.000000 0.500000
Si Si8 0.470138 0.293506 0.753196
O O1 0.393510 0.899362 0.647689
O O2 0.757368 0.767000 0.888836
O O3 0.858472 0.774085 0.792467
O O4 0.742339 0.128090 0.006940
O O5 0.876030 0.328424 0.393193
O O6 0.340126 0.102591 0.557556
O O7 0.967457 0.115004 0.456650
O O8 0.974839 0.909938 0.208145
O O9 0.536816 0.409885 0.618463
O O10 0.561897 0.746136 0.906105
O O11 0.488401 0.410363 0.748236
O O12 0.724485 0.527963 0.195912
O O13 0.727818 0.238487 0.916035
O O14 0.500000 0.500000 0.500000
O O15 0.050457 0.752286 0.338796
O O16 0.000000 0.500000 0.000000
#
# Coordination Sequence:
#
# PCOD9047156 Si02
#       8
#     2   2   2   2   2   2   1   2
#     4  11  23  46  69 102 141 190 240 295 370 428
#     4  12  26  43  73 105 146 195 242 304 359 437
#     4  12  25  45  71 106 147 191 239 306 366 435
#     4  10  24  43  72  99 143 189 236 302 359 435
#     4  12  24  46  73 104 145 190 242 299 362 431
#     4  12  26  43  68 103 143 189 245 305 361 432
#     4  12  26  44  70 108 140 190 246 296 362 430
#     4  11  25  46  71 107 142 190 245 295 363 438
#
# _framework density 26.998066000000001
#
# number of rings (size 3 to 8) (size 9 to 14) (size 15 to 20)
#    0.000    0.533    2.667    4.800    0.000    5.333 
#    0.000    4.000    0.000    0.000    0.000    0.000 
#    0.000    0.000    0.000    0.000    0.000    0.000 
#
# Total GULP energy -83888.744389 kJ/mol
# GULP energy per Si atom -5592.582959 kJ/mol
# Density = 2.693662 g / cm^3
# Si number density = 26.998066 Si / 1000 Ang^3
#
#
#
# Elastic Constant Matrix: (Units=GPa)
#
#
# Indices 1 2 3 4 5 6 
#
# 1 112.5442 29.8535 33.5195 -2.8187 -5.3873 36.3843
# 2 29.8535 134.9762 10.1939 -0.7773 -17.8122 27.9185
# 3 33.5195 10.1939 156.3037 -1.5916 1.7347 16.5296
# 4 -2.8187 -0.7773 -1.5916 35.8344 3.1059 -6.6472
# 5 -5.3873 -17.8122 1.7347 3.1059 40.1515 1.6910
# 6 36.3843 27.9185 16.5296 -6.6472 1.6910 61.1633
#
#
#
# Elastic Compliance Matrix: (Units=1/GPa)
#
#
# Indices 1 2 3 4 5 6 
#
# 1 0.011733 -0.000995 -0.001825 -0.000446 0.001504 -0.006122
# 2 -0.000995 0.008923 -0.000033 -0.000921 0.004053 -0.003684
# 3 -0.001825 -0.000033 0.006876 0.000071 -0.000531 -0.000735
# 4 -0.000446 -0.000921 0.000071 0.028822 -0.002864 0.003878
# 5 0.001504 0.004053 -0.000531 -0.002864 0.027304 -0.003667
# 6 -0.006122 -0.003684 -0.000735 0.003878 -0.003667 0.022395
#
#
# Mechanical properties :
#
#
# Convention : Reuss Voigt Hill
#
# Bulk Modulus (GPa) = 45.81935 61.21757 53.51846
# Shear Modulus (GPa) = 42.00481 49.44699 45.72590
#
# Velocity S-wave (km/s) = 3.94870 4.28425 4.11989
# Velocity P-wave (km/s) = 6.14799 6.87001 6.51901
#
# Compressibility (1/GPa) = 0.02182484
#
# Stress axis : x y z
#
# Youngs Moduli (GPa) = 85.22995 112.07194 145.43992
#
# Poissons Ratio (x) = 0.11151 0.26543
# Poissons Ratio (y) = 0.08480 0.00484
# Poissons Ratio (z) = 0.15555 0.00373
#
# Static dielectric constant tensor:
#      x y z
#    x 1.552730 0.474890 -0.222160 
#    y 0.474890 1.629180 0.257820 
#    z -0.222160 0.257820 2.110050 
# 
# From -- ./inp_files/569257.got.cif
#   From: 2010.05.17/outbox.cif.g08.bks.cpg/sg2_285_cif.got.tgz:569257.got - 2010.06.03 11:33:40.
