data_PCOD9047380
_publ_section_title
;
Structure prediction by ZEFSAII (Michael W. Deem and Ramdas Pophale) SiO2 
 PCOD9047380
Probable space group: P -1
;
_chemical_formula_sum "Si O2"
_cell_formula_units_Z 14
_cell_length_a 20.074884
_cell_length_b 5.090216
_cell_length_c 5.504626
_cell_angle_alpha 100.992817
_cell_angle_beta 85.048633
_cell_angle_gamma 111.616999
_cell_volume 513.256527
_symmetry_space_group_name_H-M "P -1"
_symmetry_group_IT_number 2
_symmetry_cell_setting 'triclinic'
loop_
_space_group_symop_operation_xyz
x,y,z
-x,-y,-z
loop_
_atom_site_type_symbol
_atom_site_label
_atom_site_fract_x
_atom_site_fract_y
_atom_site_fract_z
Si Si1 0.215257 0.637754 0.369403
Si Si2 0.434707 0.086208 0.943840
Si Si3 0.238361 0.101474 0.007960
Si Si4 0.939637 0.546932 0.763734
Si Si5 0.455758 0.617547 0.360385
Si Si6 0.679799 0.433049 0.288338
Si Si7 0.082402 0.915893 0.904322
O O1 0.129048 0.536590 0.403215
O O2 0.257819 0.647284 0.611560
O O3 0.238584 0.896863 0.204622
O O4 0.229366 0.375329 0.188482
O O5 0.468971 0.121851 0.676847
O O6 0.361575 0.822273 0.930879
O O7 0.433111 0.379762 0.105495
O O8 0.500000 0.000000 0.000000
O O9 0.296926 0.266552 0.810913
O O10 0.165062 0.962262 0.851852
O O11 0.021940 0.732996 0.700329
O O12 0.936117 0.270835 0.873265
O O13 0.924347 0.777048 0.994216
O O14 0.500000 0.500000 0.500000
O O15 0.380071 0.588264 0.493742
#
# Coordination Sequence:
#
# PCOD9047380 Si02
#       7
#     2   2   2   2   2   2   2
#     4  10  24  44  66 102 148 190 239 294 362 426
#     4  11  26  50  72 101 133 177 240 294 353 432
#     4  10  24  44  66 104 147 189 239 294 361 430
#     4   8  14  30  59  91 130 186 236 285 345 410
#     4  11  26  48  75 101 135 180 239 297 360 434
#     4  12  27  46  75 106 145 189 234 300 369 431
#     4   8  14  30  59  91 132 183 236 288 342 409
#
# _framework density 27.276807000000002
#
# number of rings (size 3 to 8) (size 9 to 14) (size 15 to 20)
#    0.000    2.000    1.429    0.429    2.000    4.571 
#    0.000    0.714    0.000    0.000    0.000   20.000 
#    0.000    3.429    0.000    0.857    0.000    2.000 
#
# Total GULP energy -77992.056185 kJ/mol
# GULP energy per Si atom -5570.861156 kJ/mol
# Density = 2.721472 g / cm^3
# Si number density = 27.276807 Si / 1000 Ang^3
#
#
#
# Elastic Constant Matrix: (Units=GPa)
#
#
# Indices 1 2 3 4 5 6 
#
# 1 170.8319 36.5089 13.9086 -9.6723 18.8147 22.6133
# 2 36.5089 143.2344 8.2189 -13.1030 15.8339 10.1319
# 3 13.9086 8.2189 24.7729 3.7984 6.8239 20.1265
# 4 -9.6723 -13.1030 3.7984 38.1611 -3.4987 8.1929
# 5 18.8147 15.8339 6.8239 -3.4987 63.0098 3.1794
# 6 22.6133 10.1319 20.1265 8.1929 3.1794 65.1605
#
#
#
# Elastic Compliance Matrix: (Units=1/GPa)
#
#
# Indices 1 2 3 4 5 6 
#
# 1 0.006732 -0.001180 -0.001890 0.001738 -0.001326 -0.001723
# 2 -0.001180 0.007782 -0.001466 0.002532 -0.001273 -0.000604
# 3 -0.001890 -0.001466 0.056694 -0.003624 -0.004604 -0.015947
# 4 0.001738 0.002532 -0.003624 0.028727 0.001011 -0.003539
# 5 -0.001326 -0.001273 -0.004604 0.001011 0.017085 0.001119
# 6 -0.001723 -0.000604 -0.015947 -0.003539 0.001119 0.021355
#
#
# Mechanical properties :
#
#
# Convention : Reuss Voigt Hill
#
# Bulk Modulus (GPa) = 16.09367 50.67911 33.38639
# Shear Modulus (GPa) = 29.73388 51.94647 40.84018
#
# Velocity S-wave (km/s) = 3.30522 4.36870 3.87363
# Velocity P-wave (km/s) = 4.52536 6.63832 5.68094
#
# Compressibility (1/GPa) = 0.06213625
#
# Stress axis : x y z
#
# Youngs Moduli (GPa) = 148.53937 128.50921 17.63850
#
# Poissons Ratio (x) = 0.15166 0.03333
# Poissons Ratio (y) = 0.17530 0.02586
# Poissons Ratio (z) = 0.28069 0.18839
#
# Static dielectric constant tensor:
#      x y z
#    x 2.138810 0.061890 -0.011820 
#    y 0.061890 1.999200 0.041480 
#    z -0.011820 0.041480 2.105050 
# 
# From -- ./inp_files/114883.got.cif
#   From: 2010.05.17/outbox.cif.g08.bks.cpg/sg2_58_cif.got.tgz:114883.got - 2010.06.03 11:33:40.
