data_PCOD9047098
_publ_section_title
;
Structure prediction by ZEFSAII (Michael W. Deem and Ramdas Pophale) SiO2 
 PCOD9047098
Probable space group: P -1
;
_chemical_formula_sum "Si O2"
_cell_formula_units_Z 16
_cell_length_a 5.577900
_cell_length_b 15.058527
_cell_length_c 20.593054
_cell_angle_alpha 33.306112
_cell_angle_beta 75.875080
_cell_angle_gamma 96.663349
_cell_volume 736.244502
_symmetry_space_group_name_H-M "P -1"
_symmetry_group_IT_number 2
_symmetry_cell_setting 'triclinic'
loop_
_space_group_symop_operation_xyz
x,y,z
-x,-y,-z
loop_
_atom_site_type_symbol
_atom_site_label
_atom_site_fract_x
_atom_site_fract_y
_atom_site_fract_z
Si Si1 0.356986 0.685460 0.875874
Si Si2 0.366852 0.264243 0.039922
Si Si3 0.266935 0.893140 0.217085
Si Si4 0.629567 0.596901 0.502777
Si Si5 0.320975 0.028243 0.688200
Si Si6 0.792380 0.840942 0.168854
Si Si7 0.660682 0.682282 0.731603
Si Si8 0.245827 0.990866 0.563592
O O1 0.487856 0.641464 0.956449
O O2 0.480494 0.714562 0.777333
O O3 0.467237 0.908743 0.753999
O O4 0.000000 0.500000 0.000000
O O5 0.441298 0.118526 0.095859
O O6 0.475184 0.448288 0.872515
O O7 0.001626 0.122325 0.161282
O O8 0.535106 0.870029 0.194844
O O9 0.004818 0.730363 0.386694
O O10 0.048371 0.873877 0.183961
O O11 0.500000 0.500000 0.500000
O O12 0.550040 0.752014 0.428935
O O13 0.439775 0.402360 0.681703
O O14 0.270354 0.025449 0.616599
O O15 0.000000 0.000000 0.000000
O O16 0.768683 0.834915 0.572180
O O17 0.961143 0.764209 0.703827
O O18 0.500000 0.000000 0.500000
#
# Coordination Sequence:
#
# PCOD9047098 Si02
#       8
#     2   2   2   2   2   2   2   2
#     4  12  22  36  67  91 129 167 221 280 328 393
#     4  11  24  39  64  94 126 168 230 275 328 399
#     4  10  24  43  71  99 135 175 228 282 343 413
#     4   9  22  43  68  98 132 173 225 282 342 405
#     4  11  22  41  64  96 123 173 223 273 336 397
#     4  11  23  46  70 100 137 178 220 286 351 411
#     4  11  23  39  56  90 127 171 212 269 328 393
#     4  11  23  40  57  83 131 172 211 261 332 398
#
# _framework density 21.731912999999999
#
# number of rings (size 3 to 8) (size 9 to 14) (size 15 to 20)
#    0.000    1.250    3.750    1.875    5.250    1.000 
#    4.500    0.000    0.000    0.000    0.000    0.000 
#    0.000    0.000    0.000    0.000    0.000    0.000 
#
# Total GULP energy -89111.522666 kJ/mol
# GULP energy per Si atom -5569.470167 kJ/mol
# Density = 2.168245 g / cm^3
# Si number density = 21.731913 Si / 1000 Ang^3
#
#
#
# Elastic Constant Matrix: (Units=GPa)
#
#
# Indices 1 2 3 4 5 6 
#
# 1 59.3794 12.1928 16.1687 2.0865 0.5647 -3.5819
# 2 12.1928 49.2131 36.6366 -19.3681 -2.5352 -17.1978
# 3 16.1687 36.6366 161.3990 -6.2921 13.0481 -11.7172
# 4 2.0865 -19.3681 -6.2921 43.0176 -5.3033 8.5265
# 5 0.5647 -2.5352 13.0481 -5.3033 26.7012 8.1849
# 6 -3.5819 -17.1978 -11.7172 8.5265 8.1849 31.9674
#
#
#
# Elastic Compliance Matrix: (Units=1/GPa)
#
#
# Indices 1 2 3 4 5 6 
#
# 1 0.018295 -0.005551 -0.000588 -0.003686 -0.001419 0.000195
# 2 -0.005551 0.036736 -0.006936 0.014387 0.006447 0.011111
# 3 -0.000588 -0.006936 0.008286 -0.002879 -0.005718 0.001472
# 4 -0.003686 0.014387 -0.002879 0.031776 0.010676 -0.004937
# 5 -0.001419 0.006447 -0.005718 0.010676 0.047215 -0.013723
# 6 0.000195 0.011111 0.001472 -0.004937 -0.013723 0.042651
#
#
# Mechanical properties :
#
#
# Convention : Reuss Voigt Hill
#
# Bulk Modulus (GPa) = 26.90550 44.44306 35.67428
# Shear Modulus (GPa) = 22.37147 34.00346 28.18747
#
# Velocity S-wave (km/s) = 3.21195 3.95989 3.60537
# Velocity P-wave (km/s) = 5.11498 6.43449 5.81230
#
# Compressibility (1/GPa) = 0.03716712
#
# Stress axis : x y z
#
# Youngs Moduli (GPa) = 54.65832 27.22143 120.68402
#
# Poissons Ratio (x) = 0.15111 0.07092
# Poissons Ratio (y) = 0.30341 0.83711
# Poissons Ratio (z) = 0.03212 0.18882
#
# Static dielectric constant tensor:
#      x y z
#    x 2.000450 -0.010160 0.052250 
#    y -0.010160 1.786180 -0.036870 
#    z 0.052250 -0.036870 1.799200 
# 
# From -- ./inp_files/37818.got.cif
#   From: 2010.05.17/outbox.cif.g08.bks.cpg/sg2_19_cif.got.tgz:37818.got - 2010.06.03 11:33:40.
