data_PCOD9047437
_publ_section_title
;
Structure prediction by ZEFSAII (Michael W. Deem and Ramdas Pophale) SiO2 
 PCOD9047437
Probable space group: P -1
;
_chemical_formula_sum "Si O2"
_cell_formula_units_Z 14
_cell_length_a 15.196364
_cell_length_b 5.115593
_cell_length_c 15.685424
_cell_angle_alpha 76.079216
_cell_angle_beta 151.416032
_cell_angle_gamma 103.350386
_cell_volume 565.756240
_symmetry_space_group_name_H-M "P -1"
_symmetry_group_IT_number 2
_symmetry_cell_setting 'triclinic'
loop_
_space_group_symop_operation_xyz
x,y,z
-x,-y,-z
loop_
_atom_site_type_symbol
_atom_site_label
_atom_site_fract_x
_atom_site_fract_y
_atom_site_fract_z
Si Si1 0.180588 0.756004 0.764184
Si Si2 0.693569 0.018798 0.427645
Si Si3 0.508247 0.207826 0.569535
Si Si4 0.917723 0.206198 0.978773
Si Si5 0.542575 0.631399 0.899402
Si Si6 0.924988 0.982831 0.190289
Si Si7 0.205869 0.294760 0.636248
O O1 0.005399 0.651055 0.568033
O O2 0.088706 0.764060 0.779177
O O3 0.214818 0.055997 0.731510
O O4 0.371534 0.630839 0.963784
O O5 0.642789 0.846857 0.481598
O O6 0.704617 0.837561 0.364135
O O7 0.535110 0.235138 0.264435
O O8 0.893734 0.153959 0.608727
O O9 0.500000 0.500000 0.500000
O O10 0.700733 0.198754 0.782112
O O11 0.500000 0.000000 0.500000
O O12 0.000000 0.500000 0.000000
O O13 0.953134 0.093366 0.111449
O O14 0.000000 0.000000 0.000000
O O15 0.328974 0.553613 0.753421
O O16 0.730479 0.819899 0.051312
#
# Coordination Sequence:
#
# PCOD9047437 Si02
#       7
#     2   2   2   2   2   2   2
#     4  10  24  44  67 100 142 186 232 291 358 428
#     4  11  25  44  66 100 138 181 232 294 354 423
#     4  12  27  48  74 107 145 189 243 301 367 435
#     4  12  27  48  74 107 145 189 243 301 367 435
#     4  12  23  41  71  99 138 179 247 278 368 409
#     4  11  25  44  66 100 138 181 232 294 354 423
#     4  10  24  44  67 100 142 186 232 291 358 428
#
# _framework density 24.745640000000002
#
# number of rings (size 3 to 8) (size 9 to 14) (size 15 to 20)
#    0.000    0.857    1.429    4.714    4.000    2.286 
#    0.000    4.286    0.000    0.000    0.000    0.000 
#    0.000    0.000    0.000    0.000    0.000    0.000 
#
# Total GULP energy -78019.973933 kJ/mol
# GULP energy per Si atom -5572.855281 kJ/mol
# Density = 2.468932 g / cm^3
# Si number density = 24.745640 Si / 1000 Ang^3
#
#
#
# Elastic Constant Matrix: (Units=GPa)
#
#
# Indices 1 2 3 4 5 6 
#
# 1 141.4107 33.1952 35.5568 4.8816 -23.8988 12.3382
# 2 33.1952 113.6344 40.4477 8.3944 0.1437 19.5262
# 3 35.5568 40.4477 233.4588 -4.8083 18.2794 11.8669
# 4 4.8816 8.3944 -4.8083 41.9230 10.7021 -0.3319
# 5 -23.8988 0.1437 18.2794 10.7021 48.5220 4.1933
# 6 12.3382 19.5262 11.8669 -0.3319 4.1933 33.3548
#
#
#
# Elastic Compliance Matrix: (Units=1/GPa)
#
#
# Indices 1 2 3 4 5 6 
#
# 1 0.009103 -0.001486 -0.001497 -0.002443 0.005826 -0.002722
# 2 -0.001486 0.010874 -0.001495 -0.002423 0.000801 -0.005409
# 3 -0.001497 -0.001495 0.005044 0.001829 -0.003040 0.000035
# 4 -0.002443 -0.002423 0.001829 0.026918 -0.008077 0.002955
# 5 0.005826 0.000801 -0.003040 -0.008077 0.026835 -0.004997
# 6 -0.002722 -0.005409 0.000035 0.002955 -0.004997 0.034799
#
#
# Mechanical properties :
#
#
# Convention : Reuss Voigt Hill
#
# Bulk Modulus (GPa) = 62.24649 78.54482 70.39565
# Shear Modulus (GPa) = 39.09761 50.04689 44.57225
#
# Velocity S-wave (km/s) = 3.97921 4.50205 4.24868
# Velocity P-wave (km/s) = 6.80597 7.67036 7.25106
#
# Compressibility (1/GPa) = 0.01606516
#
# Stress axis : x y z
#
# Youngs Moduli (GPa) = 109.85087 91.96400 198.23875
#
# Poissons Ratio (x) = 0.13661 0.29681
# Poissons Ratio (y) = 0.16319 0.29645
# Poissons Ratio (z) = 0.16447 0.13752
#
# Static dielectric constant tensor:
#      x y z
#    x 2.018140 -0.032120 0.030770 
#    y -0.032120 2.013250 0.011950 
#    z 0.030770 0.011950 1.936170 
# 
# From -- ./inp_files/525651.got.cif
#   From: 2010.05.17/outbox.cif.g08.bks.cpg/sg2_263_cif.got.tgz:525651.got - 2010.06.03 11:33:40.
