data_PCOD9047118
_publ_section_title
;
Structure prediction by ZEFSAII (Michael W. Deem and Ramdas Pophale) SiO2 
 PCOD9047118
Probable space group: P -1
;
_chemical_formula_sum "Si O2"
_cell_formula_units_Z 16
_cell_length_a 17.186333
_cell_length_b 9.219518
_cell_length_c 11.989207
_cell_angle_alpha 81.389448
_cell_angle_beta 140.602302
_cell_angle_gamma 130.977577
_cell_volume 607.127351
_symmetry_space_group_name_H-M "P -1"
_symmetry_group_IT_number 2
_symmetry_cell_setting 'triclinic'
loop_
_space_group_symop_operation_xyz
x,y,z
-x,-y,-z
loop_
_atom_site_type_symbol
_atom_site_label
_atom_site_fract_x
_atom_site_fract_y
_atom_site_fract_z
Si Si1 0.919751 0.632240 0.808768
Si Si2 0.467123 0.916850 0.846779
Si Si3 0.165646 0.868072 0.446694
Si Si4 0.120471 0.350933 0.639243
Si Si5 0.743228 0.141506 0.668148
Si Si6 0.796599 0.009389 0.130212
Si Si7 0.439625 0.505130 0.147733
Si Si8 0.651294 0.515598 0.708225
O O1 0.728262 0.301654 0.619677
O O2 0.844317 0.678359 0.808112
O O3 0.006805 0.788187 0.772129
O O4 0.144943 0.779684 0.097222
O O5 0.380426 0.970627 0.681884
O O6 0.251515 0.580540 0.663913
O O7 0.500000 0.000000 0.000000
O O8 0.693322 0.064376 0.032281
O O9 0.071649 0.731845 0.236044
O O10 0.993626 0.671591 0.383858
O O11 0.295888 0.158632 0.573745
O O12 0.901769 0.058630 0.358676
O O13 0.314635 0.454948 0.909122
O O14 0.515171 0.801461 0.440484
O O15 0.582345 0.687211 0.883221
O O16 0.290503 0.388828 0.109073
O O17 0.500000 0.500000 0.500000
#
# Coordination Sequence:
#
# PCOD9047118 Si02
#       8
#     2   2   2   2   2   2   2   2
#     4  11  25  46  69 103 136 178 231 276 336 408
#     4  12  25  45  67 101 138 174 227 284 334 402
#     4  11  24  44  72 100 136 180 226 281 344 400
#     4  12  24  43  72  98 136 181 228 276 344 398
#     4  10  24  43  72 101 136 177 228 280 339 397
#     4  12  28  44  69 100 140 182 227 280 338 403
#     4  11  26  45  67 101 138 176 229 279 336 406
#     4  11  25  46  72 100 140 178 222 282 343 399
#
# _framework density 26.353615000000001
#
# number of rings (size 3 to 8) (size 9 to 14) (size 15 to 20)
#    0.000    0.750    2.500    3.375    1.750   15.000 
#    0.000    0.000    0.000    0.000    0.000    0.000 
#    0.000    0.000    0.000    0.000    0.000    0.000 
#
# Total GULP energy -89596.706850 kJ/mol
# GULP energy per Si atom -5599.794178 kJ/mol
# Density = 2.629363 g / cm^3
# Si number density = 26.353615 Si / 1000 Ang^3
#
#
#
# Elastic Constant Matrix: (Units=GPa)
#
#
# Indices 1 2 3 4 5 6 
#
# 1 127.5165 35.2199 17.3510 5.4689 -11.2123 10.6291
# 2 35.2199 83.8719 16.1718 -3.3060 -6.5809 -4.4838
# 3 17.3510 16.1718 57.9151 5.3615 -22.0673 -1.5608
# 4 5.4689 -3.3060 5.3615 28.1067 -5.4621 -12.5786
# 5 -11.2123 -6.5809 -22.0673 -5.4621 50.6026 -0.1253
# 6 10.6291 -4.4838 -1.5608 -12.5786 -0.1253 42.8861
#
#
#
# Elastic Compliance Matrix: (Units=1/GPa)
#
#
# Indices 1 2 3 4 5 6 
#
# 1 0.009713 -0.004149 -0.001263 -0.003803 0.000642 -0.004000
# 2 -0.004149 0.014685 -0.003147 0.004906 0.000157 0.003888
# 3 -0.001263 -0.003147 0.022064 -0.002635 0.008649 0.000039
# 4 -0.003803 0.004906 -0.002635 0.044535 0.003489 0.014432
# 5 0.000642 0.000157 0.008649 0.003489 0.024076 0.001266
# 6 -0.004000 0.003888 0.000039 0.014432 0.001266 0.028954
#
#
# Mechanical properties :
#
#
# Convention : Reuss Voigt Hill
#
# Bulk Modulus (GPa) = 34.07712 45.19878 39.63795
# Shear Modulus (GPa) = 29.25251 37.68977 33.47114
#
# Velocity S-wave (km/s) = 3.33528 3.78584 3.56768
# Velocity P-wave (km/s) = 5.27171 6.02480 5.66079
#
# Compressibility (1/GPa) = 0.02934520
#
# Stress axis : x y z
#
# Youngs Moduli (GPa) = 102.95790 68.09475 45.32242
#
# Poissons Ratio (x) = 0.28249 0.05723
# Poissons Ratio (y) = 0.42712 0.14264
# Poissons Ratio (z) = 0.13002 0.21431
#
# Static dielectric constant tensor:
#      x y z
#    x 2.085550 0.060610 -0.007650 
#    y 0.060610 2.131030 0.042420 
#    z -0.007650 0.042420 2.179010 
# 
# From -- ./inp_files/462165.got.cif
#   From: 2010.05.17/outbox.cif.g08.bks.cpg/sg2_232_cif.got.tgz:462165.got - 2010.06.03 11:33:40.
