data_PCOD9047212
_publ_section_title
;
Structure prediction by ZEFSAII (Michael W. Deem and Ramdas Pophale) SiO2 
 PCOD9047212
Probable space group: P -1
;
_chemical_formula_sum "Si O2"
_cell_formula_units_Z 15
_cell_length_a 9.095472
_cell_length_b 14.264172
_cell_length_c 11.802548
_cell_angle_alpha 128.166688
_cell_angle_beta 122.787220
_cell_angle_gamma 100.762080
_cell_volume 622.092816
_symmetry_space_group_name_H-M "P -1"
_symmetry_group_IT_number 2
_symmetry_cell_setting 'triclinic'
loop_
_space_group_symop_operation_xyz
x,y,z
-x,-y,-z
loop_
_atom_site_type_symbol
_atom_site_label
_atom_site_fract_x
_atom_site_fract_y
_atom_site_fract_z
Si Si1 0.785520 0.179898 0.823490
Si Si2 0.647342 0.748106 0.167422
Si Si3 0.939537 0.658227 0.293892
Si Si4 0.051684 0.684592 0.764545
Si Si5 0.327030 0.749449 0.697389
Si Si6 0.960232 0.031454 0.697678
Si Si7 0.986710 0.086117 0.161140
Si Si8 0.000000 0.500000 0.000000
O O1 0.975177 0.165971 0.864914
O O2 0.500000 0.000000 0.500000
O O3 0.760157 0.178054 0.946114
O O4 0.924521 0.373998 0.980630
O O5 0.838949 0.737344 0.279015
O O6 0.746873 0.833108 0.146347
O O7 0.325059 0.539314 0.893641
O O8 0.728343 0.895103 0.399270
O O9 0.991594 0.614486 0.167414
O O10 0.199430 0.776705 0.575637
O O11 0.240477 0.741477 0.781380
O O12 0.829248 0.462501 0.540999
O O13 0.902875 0.726143 0.690698
O O14 0.658908 0.919538 0.937834
O O15 0.862940 0.886320 0.644669
O O16 0.000000 0.000000 0.000000
#
# Coordination Sequence:
#
# PCOD9047212 Si02
#       8
#     2   2   2   2   2   2   2   1
#     4  12  26  45  74 104 142 184 235 299 357 422
#     4  10  24  43  74 101 141 183 237 295 361 421
#     4  11  23  45  71 107 138 187 236 299 358 423
#     4  11  26  48  72 107 139 192 242 292 358 425
#     4  11  27  47  75 105 145 192 243 295 351 436
#     4  11  24  45  67 104 140 188 235 295 352 427
#     4  12  27  47  71 104 145 193 239 292 354 426
#     4  12  24  42  68 110 140 176 236 290 362 410
#
# _framework density 24.112158000000001
#
# number of rings (size 3 to 8) (size 9 to 14) (size 15 to 20)
#    0.000    0.800    4.000    2.000    5.600    2.667 
#    0.000    0.000    0.000    0.000    0.000    0.000 
#    0.000    0.000    0.000    0.000    0.000    0.000 
#
# Total GULP energy -83786.197832 kJ/mol
# GULP energy per Si atom -5585.746522 kJ/mol
# Density = 2.405728 g / cm^3
# Si number density = 24.112158 Si / 1000 Ang^3
#
#
#
# Elastic Constant Matrix: (Units=GPa)
#
#
# Indices 1 2 3 4 5 6 
#
# 1 88.5418 16.9311 20.1625 -9.3833 -37.0820 7.5802
# 2 16.9311 122.6001 7.0257 -1.0051 -14.8122 1.7649
# 3 20.1625 7.0257 40.0839 2.5868 -20.6908 4.6929
# 4 -9.3833 -1.0051 2.5868 31.9192 3.0374 -17.0045
# 5 -37.0820 -14.8122 -20.6908 3.0374 33.1393 -4.3614
# 6 7.5802 1.7649 4.6929 -17.0045 -4.3614 44.3685
#
#
#
# Elastic Compliance Matrix: (Units=1/GPa)
#
#
# Indices 1 2 3 4 5 6 
#
# 1 0.021862 -0.000045 0.001752 0.003918 0.025184 0.000059
# 2 -0.000045 0.008637 0.000751 -0.000260 0.004290 -0.000093
# 3 0.001752 0.000751 0.038671 -0.007646 0.026517 -0.004743
# 4 0.003918 -0.000260 -0.007646 0.041803 -0.002238 0.015951
# 5 0.025184 0.004290 0.026517 -0.002238 0.076960 -0.000571
# 6 0.000059 -0.000093 -0.004743 0.015951 -0.000571 0.029091
#
#
# Mechanical properties :
#
#
# Convention : Reuss Voigt Hill
#
# Bulk Modulus (GPa) = 13.49799 37.71824 25.60811
# Shear Modulus (GPa) = 21.11446 35.69251 28.40349
#
# Velocity S-wave (km/s) = 2.96239 3.85160 3.43589
# Velocity P-wave (km/s) = 4.16067 5.95454 5.13652
#
# Compressibility (1/GPa) = 0.07408511
#
# Stress axis : x y z
#
# Youngs Moduli (GPa) = 45.74244 115.77569 25.85893
#
# Poissons Ratio (x) = 0.00526 -0.04529
# Poissons Ratio (y) = 0.00208 -0.01943
# Poissons Ratio (z) = -0.08012 -0.08699
#
# Static dielectric constant tensor:
#      x y z
#    x 1.937090 -0.054240 0.027490 
#    y -0.054240 1.917500 -0.010710 
#    z 0.027490 -0.010710 1.939670 
# 
# From -- ./inp_files/261130.got.cif
#   From: 2010.05.17/outbox.cif.g08.bks.cpg/sg2_131_cif.got.tgz:261130.got - 2010.06.03 11:33:40.
