data_PCOD9047108
_publ_section_title
;
Structure prediction by ZEFSAII (Michael W. Deem and Ramdas Pophale) SiO2 
 PCOD9047108
Probable space group: P -1
;
_chemical_formula_sum "Si O2"
_cell_formula_units_Z 14
_cell_length_a 8.457055
_cell_length_b 12.218280
_cell_length_c 9.071128
_cell_angle_alpha 116.995003
_cell_angle_beta 47.798923
_cell_angle_gamma 102.942668
_cell_volume 614.041493
_symmetry_space_group_name_H-M "P -1"
_symmetry_group_IT_number 2
_symmetry_cell_setting 'triclinic'
loop_
_space_group_symop_operation_xyz
x,y,z
-x,-y,-z
loop_
_atom_site_type_symbol
_atom_site_label
_atom_site_fract_x
_atom_site_fract_y
_atom_site_fract_z
Si Si1 0.695704 0.216727 0.944811
Si Si2 0.780244 0.026425 0.557265
Si Si3 0.950411 0.138814 0.246708
Si Si4 0.339724 0.944843 0.858250
Si Si5 0.978495 0.403206 0.821940
Si Si6 0.836423 0.408429 0.607349
Si Si7 0.386728 0.442749 0.400813
O O1 0.669359 0.103049 0.999212
O O2 0.519894 0.325519 0.171586
O O3 0.678687 0.162217 0.760299
O O4 0.920428 0.275444 0.849244
O O5 0.853512 0.039947 0.353334
O O6 0.585601 0.945398 0.653684
O O7 0.000000 0.000000 0.500000
O O8 0.793685 0.145515 0.208568
O O9 0.933687 0.268801 0.420257
O O10 0.192240 0.078041 0.022056
O O11 0.184199 0.396370 0.583518
O O12 0.801125 0.431784 0.818246
O O13 0.000000 0.500000 0.000000
O O14 0.645315 0.452052 0.640957
O O15 0.000000 0.500000 0.500000
O O16 0.500000 0.500000 0.500000
#
# Coordination Sequence:
#
# PCOD9047108 Si02
#       7
#     2   2   2   2   2   2   2
#     4  12  25  43  71 100 136 184 235 291 359 413
#     4  12  26  45  70 103 138 183 243 291 358 423
#     4  11  24  49  68 104 143 181 241 289 358 432
#     4  11  27  44  74 101 141 189 233 298 362 419
#     4  11  24  45  67 102 141 183 235 290 352 428
#     4  10  24  43  71  99 143 184 228 291 354 425
#     4  11  24  44  68 102 143 183 233 283 358 426
#
# _framework density 22.799762000000001
#
# number of rings (size 3 to 8) (size 9 to 14) (size 15 to 20)
#    0.000    0.857    4.286    1.714    8.000    0.571 
#    0.000    0.000    0.000    0.000    0.000    0.000 
#    0.000    0.000    0.000    0.000    0.000    0.000 
#
# Total GULP energy -78114.338433 kJ/mol
# GULP energy per Si atom -5579.595602 kJ/mol
# Density = 2.274787 g / cm^3
# Si number density = 22.799762 Si / 1000 Ang^3
#
#
#
# Elastic Constant Matrix: (Units=GPa)
#
#
# Indices 1 2 3 4 5 6 
#
# 1 87.2914 15.2712 30.8998 -2.1675 7.7582 -1.2999
# 2 15.2712 81.3811 17.7645 -8.4031 -9.0922 14.3552
# 3 30.8998 17.7645 118.7054 -1.7334 -1.6819 2.1501
# 4 -2.1675 -8.4031 -1.7334 47.8176 12.9654 -3.8301
# 5 7.7582 -9.0922 -1.6819 12.9654 43.0842 -4.6724
# 6 -1.2999 14.3552 2.1501 -3.8301 -4.6724 28.0748
#
#
#
# Elastic Compliance Matrix: (Units=1/GPa)
#
#
# Indices 1 2 3 4 5 6 
#
# 1 0.013323 -0.002345 -0.003177 0.001067 -0.003157 0.001680
# 2 -0.002345 0.014645 -0.001405 0.001227 0.002337 -0.006933
# 3 -0.003177 -0.001405 0.009469 -0.000246 0.000712 -0.000069
# 4 0.001067 0.001227 -0.000246 0.023113 -0.006738 0.001472
# 5 -0.003157 0.002337 0.000712 -0.006738 0.026556 0.002105
# 6 0.001680 -0.006933 -0.000069 0.001472 0.002105 0.039798
#
#
# Mechanical properties :
#
#
# Convention : Reuss Voigt Hill
#
# Bulk Modulus (GPa) = 42.40150 46.13876 44.27013
# Shear Modulus (GPa) = 33.64311 38.69148 36.16730
#
# Velocity S-wave (km/s) = 3.84551 4.12395 3.98716
# Velocity P-wave (km/s) = 6.19314 6.55411 6.37618
#
# Compressibility (1/GPa) = 0.02358407
#
# Stress axis : x y z
#
# Youngs Moduli (GPa) = 75.05960 68.28093 105.60730
#
# Poissons Ratio (x) = 0.16015 0.33547
# Poissons Ratio (y) = 0.17604 0.14833
# Poissons Ratio (z) = 0.23843 0.09591
#
# Static dielectric constant tensor:
#      x y z
#    x 2.095730 -0.007630 -0.066650 
#    y -0.007630 1.870040 0.005810 
#    z -0.066650 0.005810 1.816680 
# 
# From -- ./inp_files/189693.got.cif
#   From: 2010.05.17/outbox.cif.g08.bks.cpg/sg2_95_cif.got.tgz:189693.got - 2010.06.03 11:33:40.
