data_PCOD9047752
_publ_section_title
;
Structure prediction by ZEFSAII (Michael W. Deem and Ramdas Pophale) SiO2 
 PCOD9047752
Probable space group: P -1
;
_chemical_formula_sum "Si O2"
_cell_formula_units_Z 12
_cell_length_a 4.928610
_cell_length_b 13.891973
_cell_length_c 11.754577
_cell_angle_alpha 133.450444
_cell_angle_beta 133.399777
_cell_angle_gamma 62.952594
_cell_volume 424.275740
_symmetry_space_group_name_H-M "P -1"
_symmetry_group_IT_number 2
_symmetry_cell_setting 'triclinic'
loop_
_space_group_symop_operation_xyz
x,y,z
-x,-y,-z
loop_
_atom_site_type_symbol
_atom_site_label
_atom_site_fract_x
_atom_site_fract_y
_atom_site_fract_z
Si Si1 0.536745 0.559690 0.299223
Si Si2 0.415164 0.064492 0.649071
Si Si3 0.751515 0.635702 0.194530
Si Si4 0.280744 0.276489 0.306597
Si Si5 0.440489 0.268468 0.092900
Si Si6 0.554993 0.001786 0.156624
O O1 0.811900 0.625682 0.340480
O O2 0.666590 0.599510 0.494937
O O3 0.474316 0.402586 0.140574
O O4 0.134235 0.623466 0.227042
O O5 0.415706 0.223642 0.767011
O O6 0.645093 0.023851 0.795479
O O7 0.500000 0.000000 0.500000
O O8 0.000000 0.000000 0.500000
O O9 0.500000 0.500000 0.000000
O O10 0.291993 0.312311 0.207214
O O11 0.867888 0.219070 0.174761
O O12 0.579624 0.161015 0.310706
O O13 0.216558 0.135723 0.882309
O O14 0.500000 0.000000 0.000000
#
# Coordination Sequence:
#
# PCOD9047752 Si02
#       6
#     2   2   2   2   2   2
#     4  12  24  43  67  97 137 183 231 291 354 422
#     4  12  27  48  74 106 144 190 241 297 360 430
#     4  12  26  45  69 100 137 184 237 294 354 423
#     4  11  22  40  64  98 134 178 229 287 351 421
#     4  11  23  40  65  98 136 179 228 285 350 423
#     4  10  24  44  70 101 139 184 237 294 355 423
#
# _framework density 28.283494999999998
#
# number of rings (size 3 to 8) (size 9 to 14) (size 15 to 20)
#    0.000    0.667    0.000    8.000    0.000    8.000 
#    0.000    0.000    0.000    0.000    0.000    0.000 
#    0.000    0.000    0.000    0.000    0.000    0.000 
#
# Total GULP energy -66996.802728 kJ/mol
# GULP energy per Si atom -5583.066894 kJ/mol
# Density = 2.821912 g / cm^3
# Si number density = 28.283495 Si / 1000 Ang^3
#
#
#
# Elastic Constant Matrix: (Units=GPa)
#
#
# Indices 1 2 3 4 5 6 
#
# 1 136.8211 49.2524 56.9374 0.8758 -14.4185 24.9760
# 2 49.2524 184.2450 55.7589 46.8662 -19.2121 29.5935
# 3 56.9374 55.7589 185.7913 21.8829 -26.0491 1.8868
# 4 0.8758 46.8662 21.8829 56.2220 3.6250 -12.8773
# 5 -14.4185 -19.2121 -26.0491 3.6250 42.1694 -8.3468
# 6 24.9760 29.5935 1.8868 -12.8773 -8.3468 62.8246
#
#
#
# Elastic Compliance Matrix: (Units=1/GPa)
#
#
# Indices 1 2 3 4 5 6 
#
# 1 0.009460 -0.001798 -0.002509 0.001752 0.000230 -0.002449
# 2 -0.001798 0.009613 -0.000789 -0.009076 0.003019 -0.005249
# 3 -0.002509 -0.000789 0.007118 -0.002027 0.003595 0.001217
# 4 0.001752 -0.009076 -0.002027 0.028471 -0.005505 0.008744
# 5 0.000230 0.003019 0.003595 -0.005505 0.028056 0.000977
# 6 -0.002449 -0.005249 0.001217 0.008744 0.000977 0.021249
#
#
# Mechanical properties :
#
#
# Convention : Reuss Voigt Hill
#
# Bulk Modulus (GPa) = 62.49516 92.30609 77.40062
# Shear Modulus (GPa) = 41.84380 55.23712 48.54046
#
# Velocity S-wave (km/s) = 3.85052 4.42405 4.14721
# Velocity P-wave (km/s) = 6.47400 7.66832 7.09633
#
# Compressibility (1/GPa) = 0.01600124
#
# Stress axis : x y z
#
# Youngs Moduli (GPa) = 105.70679 104.02285 140.48165
#
# Poissons Ratio (x) = 0.18703 0.35243
# Poissons Ratio (y) = 0.19006 0.11078
# Poissons Ratio (z) = 0.26519 0.08203
#
# Static dielectric constant tensor:
#      x y z
#    x 2.342740 -0.082060 0.156010 
#    y -0.082060 2.171000 -0.164700 
#    z 0.156010 -0.164700 2.387030 
# 
# From -- ./inp_files/367294.got.cif
#   From: 2010.05.17/outbox.cif.g08.bks.cpg/sg2_184_cif.got.tgz:367294.got - 2010.06.03 11:33:40.
