data_PCOD9047908
_publ_section_title
;
Structure prediction by ZEFSAII (Michael W. Deem and Ramdas Pophale) SiO2 
 PCOD9047908
Probable space group: P -1
;
_chemical_formula_sum "Si O2"
_cell_formula_units_Z 13
_cell_length_a 8.970506
_cell_length_b 9.295868
_cell_length_c 11.602586
_cell_angle_alpha 93.133306
_cell_angle_beta 40.805954
_cell_angle_gamma 69.791360
_cell_volume 508.443919
_symmetry_space_group_name_H-M "P -1"
_symmetry_group_IT_number 2
_symmetry_cell_setting 'triclinic'
loop_
_space_group_symop_operation_xyz
x,y,z
-x,-y,-z
loop_
_atom_site_type_symbol
_atom_site_label
_atom_site_fract_x
_atom_site_fract_y
_atom_site_fract_z
Si Si1 0.322769 0.376226 0.270865
Si Si2 0.801559 0.311434 0.301819
Si Si3 0.827502 0.349009 0.031429
Si Si4 0.782912 0.985771 0.370316
Si Si5 0.355654 0.050857 0.211128
Si Si6 0.279090 0.341938 0.038638
Si Si7 0.000000 0.000000 0.500000
O O1 0.500669 0.428205 0.233279
O O2 0.366582 0.383970 0.108538
O O3 0.000000 0.500000 0.500000
O O4 0.435749 0.171820 0.224512
O O5 0.500000 0.500000 0.500000
O O6 0.934032 0.279920 0.093698
O O7 0.766263 0.157246 0.344261
O O8 0.037152 0.323618 0.224069
O O9 0.842314 0.501602 0.975558
O O10 0.974224 0.185669 0.850797
O O11 0.877131 0.956271 0.447673
O O12 0.500000 0.000000 0.500000
O O13 0.452137 0.848144 0.180054
O O14 0.027601 0.140236 0.417597
O O15 0.500000 0.000000 0.000000
#
# Coordination Sequence:
#
# PCOD9047908 Si02
#       7
#     2   2   2   2   2   2   1
#     4  11  24  42  71 106 151 195 258 324 390 470
#     4  12  27  49  74 110 157 207 256 325 412 475
#     4  12  27  46  74 113 152 199 266 327 398 480
#     4  12  29  51  80 116 156 208 269 329 398 483
#     4  10  24  44  71 106 148 204 256 320 403 471
#     4  11  24  45  71 104 151 200 254 316 401 474
#     4  12  28  46  86 110 160 200 276 316 416 470
#
# _framework density 25.568207999999998
#
# number of rings (size 3 to 8) (size 9 to 14) (size 15 to 20)
#    0.000    0.615    0.000    7.846   10.769    0.000 
#    0.000    0.000    0.000    0.000    0.000    0.000 
#    0.000    0.000    0.000    0.000    0.000    0.000 
#
# Total GULP energy -72447.686773 kJ/mol
# GULP energy per Si atom -5572.898983 kJ/mol
# Density = 2.551001 g / cm^3
# Si number density = 25.568208 Si / 1000 Ang^3
#
#
#
# Elastic Constant Matrix: (Units=GPa)
#
#
# Indices 1 2 3 4 5 6 
#
# 1 110.1763 27.4344 27.7436 -14.1565 -1.8389 9.2485
# 2 27.4344 184.9885 31.0080 -19.6628 2.3490 17.4244
# 3 27.7436 31.0080 69.4677 4.3333 16.6560 10.8709
# 4 -14.1565 -19.6628 4.3333 65.7986 8.5893 -7.7592
# 5 -1.8389 2.3490 16.6560 8.5893 53.9361 -13.1647
# 6 9.2485 17.4244 10.8709 -7.7592 -13.1647 29.0189
#
#
#
# Elastic Compliance Matrix: (Units=1/GPa)
#
#
# Indices 1 2 3 4 5 6 
#
# 1 0.010662 -0.000606 -0.004426 0.002206 0.001365 -0.000167
# 2 -0.000606 0.006278 -0.002134 0.001651 -0.000526 -0.002574
# 3 -0.004426 -0.002134 0.020836 -0.003014 -0.008385 -0.009723
# 4 0.002206 0.001651 -0.003014 0.016899 -0.000891 0.003549
# 5 0.001365 -0.000526 -0.008385 -0.000891 0.024763 0.014018
# 6 -0.000167 -0.002574 -0.009723 0.003549 0.014018 0.047010
#
#
# Mechanical properties :
#
#
# Convention : Reuss Voigt Hill
#
# Bulk Modulus (GPa) = 42.65782 59.66719 51.16250
# Shear Modulus (GPa) = 33.64829 48.31383 40.98106
#
# Velocity S-wave (km/s) = 3.63164 4.35168 4.00786
# Velocity P-wave (km/s) = 5.85706 6.97399 6.43979
#
# Compressibility (1/GPa) = 0.02344236
#
# Stress axis : x y z
#
# Youngs Moduli (GPa) = 93.78905 159.28464 47.99457
#
# Poissons Ratio (x) = 0.09659 0.21244
# Poissons Ratio (y) = 0.05687 0.10243
# Poissons Ratio (z) = 0.41514 0.33993
#
# Static dielectric constant tensor:
#      x y z
#    x -2.811160 3.594440 -0.765570 
#    y 3.594440 -0.575610 0.485380 
#    z -0.765570 0.485380 1.703710 
# 
# From -- ./inp_files/377631.got.cif
#   From: 2010.05.17/outbox.cif.g08.bks.cpg/sg2_189_cif.got.tgz:377631.got - 2010.06.03 11:33:40.
