data_PCOD9047246
_publ_section_title
;
Structure prediction by ZEFSAII (Michael W. Deem and Ramdas Pophale) SiO2 
 PCOD9047246
Probable space group: P -1
;
_chemical_formula_sum "Si O2"
_cell_formula_units_Z 14
_cell_length_a 19.684298
_cell_length_b 7.577595
_cell_length_c 14.534787
_cell_angle_alpha 124.901740
_cell_angle_beta 18.516233
_cell_angle_gamma 128.172833
_cell_volume 540.428256
_symmetry_space_group_name_H-M "P -1"
_symmetry_group_IT_number 2
_symmetry_cell_setting 'triclinic'
loop_
_space_group_symop_operation_xyz
x,y,z
-x,-y,-z
loop_
_atom_site_type_symbol
_atom_site_label
_atom_site_fract_x
_atom_site_fract_y
_atom_site_fract_z
Si Si1 0.012083 0.853512 0.811042
Si Si2 0.861384 0.673194 0.750090
Si Si3 0.280703 0.575273 0.832845
Si Si4 0.471924 0.070588 0.236404
Si Si5 0.740856 0.190268 0.256976
Si Si6 0.303450 0.271594 0.209350
Si Si7 0.656076 0.564501 0.606285
O O1 0.276597 0.903969 0.497016
O O2 0.958817 0.807240 0.756765
O O3 0.879858 0.639268 0.974915
O O4 0.919544 0.061960 0.016487
O O5 0.853658 0.790891 0.696841
O O6 0.000000 0.500000 0.500000
O O7 0.604683 0.546417 0.066062
O O8 0.500000 0.500000 0.500000
O O9 0.352694 0.772117 0.873929
O O10 0.203375 0.679990 0.872976
O O11 0.350623 0.228229 0.386963
O O12 0.580994 0.926359 0.987258
O O13 0.724394 0.376586 0.406193
O O14 0.500000 0.000000 0.500000
O O15 0.210323 0.336171 0.443308
O O16 0.500000 0.500000 0.000000
#
# Coordination Sequence:
#
# PCOD9047246 Si02
#       7
#     2   2   2   2   2   2   2
#     4  12  26  47  76 113 149 199 250 308 368 453
#     4  11  22  47  73 106 146 188 248 305 368 448
#     4  12  24  48  72 108 150 199 247 306 372 438
#     4  12  25  48  76 108 153 193 248 309 377 440
#     4  12  23  48  77 105 158 200 245 308 379 432
#     4  10  24  43  76 105 144 200 239 309 385 431
#     4  11  23  47  70 106 152 197 245 310 371 445
#
# _framework density 25.905380999999998
#
# number of rings (size 3 to 8) (size 9 to 14) (size 15 to 20)
#    0.000    0.571    5.714    3.000    2.000    1.143 
#    7.714    2.857    0.000    0.000    0.000    0.000 
#    0.000    0.000    0.000    0.000    0.000    0.000 
#
# Total GULP energy -78622.691228 kJ/mol
# GULP energy per Si atom -5615.906516 kJ/mol
# Density = 2.584642 g / cm^3
# Si number density = 25.905381 Si / 1000 Ang^3
#
#
#
# Elastic Constant Matrix: (Units=GPa)
#
#
# Indices 1 2 3 4 5 6 
#
# 1 154.7392 88.9230 37.2736 1.4321 28.5043 -10.4891
# 2 88.9230 165.3404 77.5435 25.8074 21.0923 10.4393
# 3 37.2736 77.5435 101.9379 17.0563 10.4837 0.9451
# 4 1.4321 25.8074 17.0563 56.7738 5.8748 4.6413
# 5 28.5043 21.0923 10.4837 5.8748 41.0914 6.8128
# 6 -10.4891 10.4393 0.9451 4.6413 6.8128 34.5153
#
#
#
# Elastic Compliance Matrix: (Units=1/GPa)
#
#
# Indices 1 2 3 4 5 6 
#
# 1 0.011693 -0.006783 0.001041 0.002602 -0.006341 0.006478
# 2 -0.006783 0.014115 -0.007702 -0.003548 0.000897 -0.005820
# 3 0.001041 -0.007702 0.015586 -0.001317 -0.000987 0.002591
# 4 0.002602 -0.003548 -0.001317 0.019832 -0.002436 -0.000286
# 5 -0.006341 0.000897 -0.000987 -0.002436 0.030167 -0.007798
# 6 0.006478 -0.005820 0.002591 -0.000286 -0.007798 0.034208
#
#
# Mechanical properties :
#
#
# Convention : Reuss Voigt Hill
#
# Bulk Modulus (GPa) = 68.93568 92.16640 80.55104
# Shear Modulus (GPa) = 31.78155 41.02790 36.40473
#
# Velocity S-wave (km/s) = 3.50642 3.98397 3.75279
# Velocity P-wave (km/s) = 6.56213 7.53777 7.06681
#
# Compressibility (1/GPa) = 0.01450628
#
# Stress axis : x y z
#
# Youngs Moduli (GPa) = 85.52218 70.84630 64.16164
#
# Poissons Ratio (x) = 0.48056 -0.06680
# Poissons Ratio (y) = 0.58011 0.49414
# Poissons Ratio (z) = -0.08904 0.54563
#
# Static dielectric constant tensor:
#      x y z
#    x 2.054370 0.030790 -0.021460 
#    y 0.030790 1.914580 -0.031190 
#    z -0.021460 -0.031190 2.023330 
# 
# From -- ./inp_files/540549.got.cif
#   From: 2010.05.17/outbox.cif.g08.bks.cpg/sg2_271_cif.got.tgz:540549.got - 2010.06.03 11:33:40.
