data_PCOD9047348
_publ_section_title
;
Structure prediction by ZEFSAII (Michael W. Deem and Ramdas Pophale) SiO2 
 PCOD9047348
Probable space group: P -1
;
_chemical_formula_sum "Si O2"
_cell_formula_units_Z 14
_cell_length_a 11.466652
_cell_length_b 8.533680
_cell_length_c 6.346307
_cell_angle_alpha 87.453099
_cell_angle_beta 94.675964
_cell_angle_gamma 91.584845
_cell_volume 618.145052
_symmetry_space_group_name_H-M "P -1"
_symmetry_group_IT_number 2
_symmetry_cell_setting 'triclinic'
loop_
_space_group_symop_operation_xyz
x,y,z
-x,-y,-z
loop_
_atom_site_type_symbol
_atom_site_label
_atom_site_fract_x
_atom_site_fract_y
_atom_site_fract_z
Si Si1 0.510387 0.746416 0.474099
Si Si2 0.584638 0.045431 0.204815
Si Si3 0.891825 0.404645 0.394690
Si Si4 0.037266 0.138535 0.284764
Si Si5 0.676592 0.479766 0.658373
Si Si6 0.823735 0.634803 0.024895
Si Si7 0.829714 0.932128 0.283650
O O1 0.567595 0.900159 0.372064
O O2 0.602746 0.611068 0.522039
O O3 0.407037 0.672946 0.319104
O O4 0.456826 0.800204 0.687603
O O5 0.724808 0.045147 0.192384
O O6 0.500000 0.000000 0.000000
O O7 0.783461 0.427808 0.531547
O O8 0.000000 0.500000 0.500000
O O9 0.937622 0.230508 0.393591
O O10 0.870715 0.484573 0.161846
O O11 0.089953 0.265000 0.122016
O O12 0.141138 0.091391 0.462312
O O13 0.956327 0.991536 0.209015
O O14 0.720614 0.564344 0.870454
O O15 0.794793 0.763434 0.189273
#
# Coordination Sequence:
#
# PCOD9047348 Si02
#       7
#     2   2   2   2   2   2   2
#     4  10  24  44  65  95 125 169 211 265 317 368
#     4  11  23  44  67  93 125 167 217 263 319 371
#     4  12  23  41  62  94 130 165 205 264 318 372
#     4  11  24  41  62  95 132 171 208 258 322 383
#     4  11  24  42  67  93 130 165 213 263 317 378
#     4  12  22  40  65  94 128 169 211 255 318 385
#     4  11  24  42  64  92 131 167 213 266 313 381
#
# _framework density 22.648406000000001
#
# number of rings (size 3 to 8) (size 9 to 14) (size 15 to 20)
#    0.000    0.857    2.857    4.286    0.000    3.429 
#    0.000    3.571    0.000    0.000    0.000    0.000 
#    0.000    0.000    0.000    0.000    0.000    0.000 
#
# Total GULP energy -78213.483631 kJ/mol
# GULP energy per Si atom -5586.677402 kJ/mol
# Density = 2.259686 g / cm^3
# Si number density = 22.648406 Si / 1000 Ang^3
#
#
#
# Elastic Constant Matrix: (Units=GPa)
#
#
# Indices 1 2 3 4 5 6 
#
# 1 93.2390 2.2447 28.7252 11.9892 28.5023 -1.7694
# 2 2.2447 51.3565 -7.8459 20.4821 2.5824 0.7609
# 3 28.7252 -7.8459 57.2197 11.6402 22.3857 7.6531
# 4 11.9892 20.4821 11.6402 38.2925 6.9371 8.5833
# 5 28.5023 2.5824 22.3857 6.9371 30.3377 7.9098
# 6 -1.7694 0.7609 7.6531 8.5833 7.9098 46.5883
#
#
#
# Elastic Compliance Matrix: (Units=1/GPa)
#
#
# Indices 1 2 3 4 5 6 
#
# 1 0.016139 0.000767 -0.002546 -0.003090 -0.013661 0.003907
# 2 0.000767 0.028103 0.009275 -0.017430 -0.006591 0.002377
# 3 -0.002546 0.009275 0.028841 -0.009726 -0.017392 -0.000241
# 4 -0.003090 -0.017430 -0.009726 0.040040 0.004050 -0.006300
# 5 -0.013661 -0.006591 -0.017392 0.004050 0.060500 -0.008572
# 6 0.003907 0.002377 -0.000241 -0.006300 -0.008572 0.024230
#
#
# Mechanical properties :
#
#
# Convention : Reuss Voigt Hill
#
# Bulk Modulus (GPa) = 11.35412 27.56259 19.45835
# Shear Modulus (GPa) = 23.56053 34.95646 29.25849
#
# Velocity S-wave (km/s) = 3.22883 3.93293 3.59814
# Velocity P-wave (km/s) = 4.35023 5.72888 5.08648
#
# Compressibility (1/GPa) = 0.08807378
#
# Stress axis : x y z
#
# Youngs Moduli (GPa) = 61.96340 35.58374 34.67232
#
# Poissons Ratio (x) = -0.02730 0.08828
# Poissons Ratio (y) = -0.04753 -0.32157
# Poissons Ratio (z) = 0.15777 -0.33002
#
# Static dielectric constant tensor:
#      x y z
#    x 1.890120 -0.124050 -0.071850 
#    y -0.124050 2.384290 0.432100 
#    z -0.071850 0.432100 2.003670 
# 
# From -- ./inp_files/26794.got.cif
#   From: 2010.05.17/outbox.cif.g08.bks.cpg/sg2_14_cif.got.tgz:26794.got - 2010.06.03 11:33:40.
