data_PCOD9047158
_publ_section_title
;
Structure prediction by ZEFSAII (Michael W. Deem and Ramdas Pophale) SiO2 
 PCOD9047158
Probable space group: P -1
;
_chemical_formula_sum "Si O2"
_cell_formula_units_Z 16
_cell_length_a 5.700380
_cell_length_b 19.278953
_cell_length_c 8.608267
_cell_angle_alpha 130.918907
_cell_angle_beta 87.033001
_cell_angle_gamma 83.125000
_cell_volume 698.947985
_symmetry_space_group_name_H-M "P -1"
_symmetry_group_IT_number 2
_symmetry_cell_setting 'triclinic'
loop_
_space_group_symop_operation_xyz
x,y,z
-x,-y,-z
loop_
_atom_site_type_symbol
_atom_site_label
_atom_site_fract_x
_atom_site_fract_y
_atom_site_fract_z
Si Si1 0.131571 0.085686 0.145631
Si Si2 0.664960 0.635097 0.911121
Si Si3 0.027018 0.535832 0.223136
Si Si4 0.503264 0.997538 0.246058
Si Si5 0.396257 0.425134 0.497158
Si Si6 0.778409 0.083403 0.606487
Si Si7 0.148885 0.711431 0.629933
Si Si8 0.886677 0.278214 0.975336
O O1 0.277557 0.063716 0.268077
O O2 0.947046 0.183964 0.275857
O O3 0.336351 0.070282 0.982877
O O4 0.000000 0.000000 0.000000
O O5 0.705223 0.630827 0.718259
O O6 0.382464 0.672428 0.000080
O O7 0.732161 0.530148 0.820256
O O8 0.873689 0.687724 0.041006
O O9 0.810497 0.515566 0.305265
O O10 0.023550 0.642858 0.427459
O O11 0.000000 0.500000 0.000000
O O12 0.656797 0.065362 0.422216
O O13 0.415359 0.930423 0.276712
O O14 0.500000 0.500000 0.500000
O O15 0.575772 0.346244 0.471772
O O16 0.884725 0.174359 0.765197
O O17 0.000000 0.000000 0.500000
O O18 0.116146 0.716112 0.826696
#
# Coordination Sequence:
#
# PCOD9047158 Si02
#       8
#     2   2   2   2   2   2   2   2
#     4  11  24  46  71 104 144 193 242 300 373 453
#     4  11  24  45  71 104 138 194 247 307 361 453
#     4  12  26  45  67 103 151 186 237 314 379 440
#     4  10  24  43  72  99 148 186 243 306 371 435
#     4  11  22  46  77 102 139 192 254 305 363 451
#     4  11  24  44  71 104 143 190 244 314 370 433
#     4  11  24  42  73 101 137 194 245 296 371 452
#     4  11  25  42  77 104 141 188 259 299 367 442
#
# _framework density 22.891546999999999
#
# number of rings (size 3 to 8) (size 9 to 14) (size 15 to 20)
#    0.000    1.000    2.500    4.125    5.250    3.500 
#    2.250    0.000    0.000    0.000    0.000    0.000 
#    0.000    0.000    0.000    0.000    0.000    0.000 
#
# Total GULP energy -89342.024152 kJ/mol
# GULP energy per Si atom -5583.876510 kJ/mol
# Density = 2.283944 g / cm^3
# Si number density = 22.891547 Si / 1000 Ang^3
#
#
#
# Elastic Constant Matrix: (Units=GPa)
#
#
# Indices 1 2 3 4 5 6 
#
# 1 117.0822 45.9692 43.3909 23.5046 26.8717 -23.8267
# 2 45.9692 85.0921 38.3230 34.2746 4.1911 -32.5690
# 3 43.3909 38.3230 97.4660 28.7834 21.2400 -10.6689
# 4 23.5046 34.2746 28.7834 52.2358 -0.2630 0.1030
# 5 26.8717 4.1911 21.2400 -0.2630 38.3399 4.9316
# 6 -23.8267 -32.5690 -10.6689 0.1030 4.9316 43.2086
#
#
#
# Elastic Compliance Matrix: (Units=1/GPa)
#
#
# Indices 1 2 3 4 5 6 
#
# 1 0.014619 -0.002253 -0.001280 -0.004460 -0.010251 0.007227
# 2 -0.002253 0.028457 -0.002593 -0.016283 -0.002769 0.019922
# 3 -0.001280 -0.002593 0.015677 -0.006404 -0.007821 0.002118
# 4 -0.004460 -0.016283 -0.006404 0.035454 0.010967 -0.017650
# 5 -0.010251 -0.002769 -0.007821 0.010967 0.039809 -0.014241
# 6 0.007227 0.019922 0.002118 -0.017650 -0.014241 0.044336
#
#
# Mechanical properties :
#
#
# Convention : Reuss Voigt Hill
#
# Bulk Modulus (GPa) = 21.50554 61.66738 41.58646
# Shear Modulus (GPa) = 24.25935 38.22068 31.24001
#
# Velocity S-wave (km/s) = 3.25891 4.09056 3.69819
# Velocity P-wave (km/s) = 4.85547 7.02194 6.03669
#
# Compressibility (1/GPa) = 0.04649965
#
# Stress axis : x y z
#
# Youngs Moduli (GPa) = 68.40395 35.14025 63.78760
#
# Poissons Ratio (x) = 0.07919 0.08165
# Poissons Ratio (y) = 0.15415 0.16543
# Poissons Ratio (z) = 0.08756 0.09113
#
# Static dielectric constant tensor:
#      x y z
#    x 2.069620 0.084820 0.062520 
#    y 0.084820 1.899680 -0.017730 
#    z 0.062520 -0.017730 1.880450 
# 
# From -- ./inp_files/139548.got.cif
#   From: 2010.05.17/outbox.cif.g08.bks.cpg/sg2_70_cif.got.tgz:139548.got - 2010.06.03 11:33:40.
