data_PCOD9047386
_publ_section_title
;
Structure prediction by ZEFSAII (Michael W. Deem and Ramdas Pophale) SiO2 
 PCOD9047386
Probable space group: P -1
;
_chemical_formula_sum "Si O2"
_cell_formula_units_Z 14
_cell_length_a 8.625650
_cell_length_b 16.392528
_cell_length_c 10.868723
_cell_angle_alpha 32.290066
_cell_angle_beta 61.637778
_cell_angle_gamma 62.610065
_cell_volume 716.809612
_symmetry_space_group_name_H-M "P -1"
_symmetry_group_IT_number 2
_symmetry_cell_setting 'triclinic'
loop_
_space_group_symop_operation_xyz
x,y,z
-x,-y,-z
loop_
_atom_site_type_symbol
_atom_site_label
_atom_site_fract_x
_atom_site_fract_y
_atom_site_fract_z
Si Si1 0.492359 0.219719 0.662784
Si Si2 0.482183 0.098749 0.071861
Si Si3 0.613125 0.207028 0.130682
Si Si4 0.219706 0.347456 0.176592
Si Si5 0.201375 0.941894 0.526872
Si Si6 0.169954 0.691856 0.671184
Si Si7 0.350691 0.474957 0.192801
O O1 0.704685 0.232962 0.567851
O O2 0.417703 0.355044 0.426750
O O3 0.447445 0.061564 0.818538
O O4 0.432713 0.218761 0.827612
O O5 0.605521 0.157658 0.055122
O O6 0.314493 0.051929 0.268432
O O7 0.407643 0.246788 0.205117
O O8 0.722090 0.079761 0.337745
O O9 0.696431 0.364020 0.925754
O O10 0.211150 0.402475 0.251775
O O11 0.041421 0.273455 0.309903
O O12 0.212014 0.506861 0.898153
O O13 0.226860 0.770934 0.674613
O O14 0.000000 0.000000 0.500000
O O15 0.500000 0.500000 0.000000
#
# Coordination Sequence:
#
# PCOD9047386 Si02
#       7
#     2   2   2   2   2   2   2
#     4  10  20  38  56  82 118 154 187 228 280 347
#     4  10  22  36  57  83 117 154 186 224 293 340
#     4  11  20  36  59  86 111 148 192 239 279 333
#     4  10  18  32  59  87 110 143 186 238 278 323
#     4  11  22  37  58  85 114 145 191 243 278 334
#     4  10  18  33  56  84 114 144 187 229 278 330
#     4  10  17  34  57  82 110 148 191 230 275 325
#
# _framework density 19.530985999999999
#
# number of rings (size 3 to 8) (size 9 to 14) (size 15 to 20)
#    0.000    1.714    4.286    3.857    0.000    1.714 
#    0.000    1.429    0.000    9.429    0.000    0.000 
#    0.000    0.000    0.000    0.000    0.000    0.000 
#
# Total GULP energy -78002.898773 kJ/mol
# GULP energy per Si atom -5571.635627 kJ/mol
# Density = 1.948653 g / cm^3
# Si number density = 19.530986 Si / 1000 Ang^3
#
#
#
# Elastic Constant Matrix: (Units=GPa)
#
#
# Indices 1 2 3 4 5 6 
#
# 1 75.0482 27.9409 25.2900 4.8303 19.0041 22.5739
# 2 27.9409 65.6551 35.8911 4.6897 10.2255 27.2343
# 3 25.2900 35.8911 106.7953 7.2740 29.7404 20.5594
# 4 4.8303 4.6897 7.2740 25.2851 10.9788 12.0002
# 5 19.0041 10.2255 29.7404 10.9788 27.6266 -9.6643
# 6 22.5739 27.2343 20.5594 12.0002 -9.6643 35.1626
#
#
#
# Elastic Compliance Matrix: (Units=1/GPa)
#
#
# Indices 1 2 3 4 5 6 
#
# 1 0.004248 -0.013544 -0.011626 -0.027509 0.037525 0.034262
# 2 -0.013544 0.017968 -0.012950 -0.017513 0.029296 0.016379
# 3 -0.011626 -0.012950 0.004144 -0.023717 0.028609 0.031028
# 4 -0.027509 -0.017513 -0.023717 -0.015917 0.082908 0.073311
# 5 0.037525 0.029296 0.028609 0.082908 -0.106566 -0.121092
# 6 0.034262 0.016379 0.031028 0.073311 -0.121092 -0.082686
#
#
# Mechanical properties :
#
#
# Convention : Reuss Voigt Hill
#
# Bulk Modulus (GPa) = -20.04809 47.30475 13.62833
# Shear Modulus (GPa) = -41.94821 28.17331 -6.88745
#
# Velocity S-wave (km/s) = -4.63944 3.80214 -1.87991
# Velocity P-wave (km/s) = 6.24390 6.59909 1.51025
#
# Compressibility (1/GPa) = -0.04988007
#
# Stress axis : x y z
#
# Youngs Moduli (GPa) = 235.43000 55.65300 241.31268
#
# Poissons Ratio (x) = 0.75375 2.80557
# Poissons Ratio (y) = 3.18859 3.12502
# Poissons Ratio (z) = 2.73718 0.72071
#
# Static dielectric constant tensor:
#      x y z
#    x 1.734560 0.008110 0.011820 
#    y 0.008110 1.757200 -0.048780 
#    z 0.011820 -0.048780 1.709880 
# 
# From -- ./inp_files/198945.got.cif
#   From: 2010.05.17/outbox.cif.g08.bks.cpg/sg2_100_cif.got.tgz:198945.got - 2010.06.03 11:33:40.
