data_PCOD9047097
_publ_section_title
;
Structure prediction by ZEFSAII (Michael W. Deem and Ramdas Pophale) SiO2 
 PCOD9047097
Probable space group: P -1
;
_chemical_formula_sum "Si O2"
_cell_formula_units_Z 14
_cell_length_a 29.543570
_cell_length_b 9.643608
_cell_length_c 5.294903
_cell_angle_alpha 118.246426
_cell_angle_beta 57.723492
_cell_angle_gamma 151.957766
_cell_volume 599.611437
_symmetry_space_group_name_H-M "P -1"
_symmetry_group_IT_number 2
_symmetry_cell_setting 'triclinic'
loop_
_space_group_symop_operation_xyz
x,y,z
-x,-y,-z
loop_
_atom_site_type_symbol
_atom_site_label
_atom_site_fract_x
_atom_site_fract_y
_atom_site_fract_z
Si Si1 0.294920 0.257701 0.218985
Si Si2 0.727194 0.310143 0.884630
Si Si3 0.491491 0.085865 0.848924
Si Si4 0.988312 0.716212 0.695769
Si Si5 0.788695 0.280976 0.175048
Si Si6 0.123177 0.813712 0.702642
Si Si7 0.159973 0.153013 0.255925
O O1 0.413608 0.561018 0.133932
O O2 0.254008 0.320632 0.277588
O O3 0.238933 0.107847 0.526075
O O4 0.253346 0.001311 0.975261
O O5 0.756916 0.271797 0.529399
O O6 0.800820 0.642625 0.911116
O O7 0.742205 0.268005 0.073912
O O8 0.614063 0.087640 0.994558
O O9 0.500000 0.000000 0.500000
O O10 0.500000 0.000000 0.000000
O O11 0.918017 0.460344 0.471485
O O12 0.059059 0.765656 0.666905
O O13 0.907880 0.576395 0.015424
O O14 0.073739 0.025833 0.561953
O O15 0.112381 0.872011 0.050177
#
# Coordination Sequence:
#
# PCOD9047097 Si02
#       7
#     2   2   2   2   2   2   2
#     4  10  24  43  71  99 131 183 227 279 333 400
#     4  12  28  45  67 103 142 172 224 282 339 408
#     4  12  25  46  77 104 129 173 229 286 334 393
#     4   9  21  38  64  96 135 180 226 275 332 395
#     4  11  28  46  64 101 146 179 215 277 347 401
#     4   9  19  38  65 102 126 173 242 278 315 398
#     4  11  22  39  73  95 132 180 240 274 324 397
#
# _framework density 23.348454
#
# number of rings (size 3 to 8) (size 9 to 14) (size 15 to 20)
#    0.000    1.429    1.429    3.000   10.000    2.286 
#    0.000    0.000    0.000    0.000    0.000    0.000 
#    0.000    0.000    0.000    0.000    0.000    0.000 
#
# Total GULP energy -78294.237880 kJ/mol
# GULP energy per Si atom -5592.445563 kJ/mol
# Density = 2.329531 g / cm^3
# Si number density = 23.348454 Si / 1000 Ang^3
#
#
#
# Elastic Constant Matrix: (Units=GPa)
#
#
# Indices 1 2 3 4 5 6 
#
# 1 117.8883 35.8542 28.3693 -20.9178 6.0440 -2.0203
# 2 35.8542 97.5948 30.4047 -19.2573 -19.0899 3.6001
# 3 28.3693 30.4047 133.8081 -5.8503 -11.1404 10.2775
# 4 -20.9178 -19.2573 -5.8503 45.2359 6.7625 -14.2070
# 5 6.0440 -19.0899 -11.1404 6.7625 35.4885 -6.6081
# 6 -2.0203 3.6001 10.2775 -14.2070 -6.6081 27.9154
#
#
#
# Elastic Compliance Matrix: (Units=1/GPa)
#
#
# Indices 1 2 3 4 5 6 
#
# 1 0.011298 -0.003545 -0.002034 0.005296 -0.004812 0.003580
# 2 -0.003545 0.014241 -0.001879 0.003792 0.007376 0.002274
# 3 -0.002034 -0.001879 0.008674 -0.002052 0.001756 -0.003727
# 4 0.005296 0.003792 -0.002052 0.031298 -0.002493 0.015988
# 5 -0.004812 0.007376 0.001756 -0.002493 0.034933 0.005055
# 6 0.003580 0.002274 -0.003727 0.015988 0.005055 0.046494
#
#
# Mechanical properties :
#
#
# Convention : Reuss Voigt Hill
#
# Bulk Modulus (GPa) = 51.82180 59.83862 55.83021
# Shear Modulus (GPa) = 29.71110 38.70549 34.20829
#
# Velocity S-wave (km/s) = 3.57109 4.07594 3.83184
# Velocity P-wave (km/s) = 6.26472 6.91630 6.59856
#
# Compressibility (1/GPa) = 0.01929690
#
# Stress axis : x y z
#
# Youngs Moduli (GPa) = 88.51071 70.21777 115.28299
#
# Poissons Ratio (x) = 0.24895 0.23446
# Poissons Ratio (y) = 0.31381 0.21664
# Poissons Ratio (z) = 0.18001 0.13195
#
# Static dielectric constant tensor:
#      x y z
#    x 1.892260 -0.029130 0.002920 
#    y -0.029130 1.901380 0.039320 
#    z 0.002920 0.039320 1.892990 
# 
# From -- ./inp_files/56777.got.cif
#   From: 2010.05.17/outbox.cif.g08.bks.cpg/sg2_29_cif.got.tgz:56777.got - 2010.06.03 11:33:40.
