data_PCOD9047520
_publ_section_title
;
Structure prediction by ZEFSAII (Michael W. Deem and Ramdas Pophale) SiO2 
 PCOD9047520
Probable space group: P -1
;
_chemical_formula_sum "Si O2"
_cell_formula_units_Z 16
_cell_length_a 13.783725
_cell_length_b 16.968348
_cell_length_c 5.564094
_cell_angle_alpha 90.695819
_cell_angle_beta 115.488062
_cell_angle_gamma 41.044047
_cell_volume 655.523679
_symmetry_space_group_name_H-M "P -1"
_symmetry_group_IT_number 2
_symmetry_cell_setting 'triclinic'
loop_
_space_group_symop_operation_xyz
x,y,z
-x,-y,-z
loop_
_atom_site_type_symbol
_atom_site_label
_atom_site_fract_x
_atom_site_fract_y
_atom_site_fract_z
Si Si1 0.261059 0.393531 0.179944
Si Si2 0.034190 0.891322 0.767228
Si Si3 0.607571 0.353239 0.159979
Si Si4 0.684947 0.189668 0.599830
Si Si5 0.960350 0.774693 0.612357
Si Si6 0.251849 0.226249 0.301198
Si Si7 0.369417 0.031382 0.044278
Si Si8 0.755361 0.512299 0.342753
O O1 0.494534 0.255163 0.440908
O O2 0.188618 0.350702 0.162670
O O3 0.192379 0.490290 0.334316
O O4 0.218423 0.444728 0.858659
O O5 0.169094 0.787271 0.680714
O O6 0.015108 0.813221 0.850041
O O7 0.169172 0.873590 0.039853
O O8 0.824303 0.058809 0.555065
O O9 0.603980 0.323238 0.425047
O O10 0.500000 0.500000 0.000000
O O11 0.470326 0.372845 0.883660
O O12 0.866977 0.754280 0.636479
O O13 0.129016 0.635284 0.626138
O O14 0.792733 0.915187 0.273129
O O15 0.260510 0.163742 0.083008
O O16 0.471717 0.105079 0.624994
O O17 0.500000 0.000000 0.000000
#
# Coordination Sequence:
#
# PCOD9047520 Si02
#       8
#     2   2   2   2   2   2   2   2
#     4  11  26  46  72  99 149 190 236 297 355 430
#     4  11  23  44  67 104 140 183 238 299 352 423
#     4  11  22  44  67  98 143 189 231 292 354 424
#     4  10  25  42  69 103 139 185 240 287 363 423
#     4  11  25  42  70 103 139 184 243 294 353 426
#     4  10  24  44  68 100 137 190 235 295 362 419
#     4   9  22  42  65  97 134 177 245 287 354 422
#     4  11  26  45  71 107 139 194 239 287 364 430
#
# _framework density 24.407966999999999
#
# number of rings (size 3 to 8) (size 9 to 14) (size 15 to 20)
#    0.000    1.500    2.500    0.375   10.500    4.500 
#    2.250    0.000    0.000    0.000    0.000    0.000 
#    0.000    0.000    0.000    0.000    0.000    0.000 
#
# Total GULP energy -89199.729927 kJ/mol
# GULP energy per Si atom -5574.983120 kJ/mol
# Density = 2.435241 g / cm^3
# Si number density = 24.407967 Si / 1000 Ang^3
#
#
#
# Elastic Constant Matrix: (Units=GPa)
#
#
# Indices 1 2 3 4 5 6 
#
# 1 147.1539 35.3904 24.3866 -49.0274 -10.9805 -25.4356
# 2 35.3904 135.8520 14.6718 8.5977 6.3214 8.4259
# 3 24.3866 14.6718 57.1822 -5.8698 7.8419 -13.2057
# 4 -49.0274 8.5977 -5.8698 70.6373 0.6530 36.0267
# 5 -10.9805 6.3214 7.8419 0.6530 33.7704 -0.1150
# 6 -25.4356 8.4259 -13.2057 36.0267 -0.1150 69.8210
#
#
#
# Elastic Compliance Matrix: (Units=1/GPa)
#
#
# Indices 1 2 3 4 5 6 
#
# 1 0.011172 -0.003202 -0.003897 0.007971 0.004982 -0.000385
# 2 -0.003202 0.008657 -0.001041 -0.002864 -0.002368 -0.000934
# 3 -0.003897 -0.001041 0.020878 -0.002902 -0.005850 0.004142
# 4 0.007971 -0.002864 -0.002902 0.024953 0.003285 -0.010169
# 5 0.004982 -0.002368 -0.005850 0.003285 0.032967 -0.000647
# 6 -0.000385 -0.000934 0.004142 -0.010169 -0.000647 0.020324
#
#
# Mechanical properties :
#
#
# Convention : Reuss Voigt Hill
#
# Bulk Modulus (GPa) = 40.93679 54.34286 47.63983
# Shear Modulus (GPa) = 34.87397 52.56169 43.71783
#
# Velocity S-wave (km/s) = 3.78404 4.64558 4.23677
# Velocity P-wave (km/s) = 5.99168 7.14758 6.59500
#
# Compressibility (1/GPa) = 0.02442790
#
# Stress axis : x y z
#
# Youngs Moduli (GPa) = 89.50792 115.51579 47.89734
#
# Poissons Ratio (x) = 0.36987 0.18666
# Poissons Ratio (y) = 0.28660 0.04984
# Poissons Ratio (z) = 0.34881 0.12021
#
# Static dielectric constant tensor:
#      x y z
#    x 1.718860 0.057620 0.039580 
#    y 0.057620 1.923390 -0.013130 
#    z 0.039580 -0.013130 2.045050 
# 
# From -- ./inp_files/99406.got.cif
#   From: 2010.05.17/outbox.cif.g08.bks.cpg/sg2_50_cif.got.tgz:99406.got - 2010.06.03 11:33:40.
