data_PCOD9047803
_publ_section_title
;
Structure prediction by ZEFSAII (Michael W. Deem and Ramdas Pophale) SiO2 
 PCOD9047803
Probable space group: P -1
;
_chemical_formula_sum "Si O2"
_cell_formula_units_Z 15
_cell_length_a 8.952985
_cell_length_b 9.237339
_cell_length_c 9.541137
_cell_angle_alpha 90.506888
_cell_angle_beta 106.124453
_cell_angle_gamma 67.820147
_cell_volume 697.836713
_symmetry_space_group_name_H-M "P -1"
_symmetry_group_IT_number 2
_symmetry_cell_setting 'triclinic'
loop_
_space_group_symop_operation_xyz
x,y,z
-x,-y,-z
loop_
_atom_site_type_symbol
_atom_site_label
_atom_site_fract_x
_atom_site_fract_y
_atom_site_fract_z
Si Si1 0.562450 0.263057 0.284807
Si Si2 0.827518 0.099423 0.876340
Si Si3 0.500000 0.500000 0.500000
Si Si4 0.649191 0.885412 0.940595
Si Si5 0.136108 0.536894 0.443321
Si Si6 0.086333 0.429491 0.877399
Si Si7 0.855156 0.127201 0.550761
Si Si8 0.310016 0.627349 0.937476
O O1 0.495682 0.433817 0.340232
O O2 0.422402 0.210520 0.183409
O O3 0.673821 0.152544 0.437171
O O4 0.685004 0.259924 0.187493
O O5 0.853337 0.110152 0.717329
O O6 0.715454 0.998504 0.873536
O O7 0.750396 0.266800 0.937853
O O8 0.000000 0.000000 0.000000
O O9 0.338822 0.445378 0.501728
O O10 0.793303 0.753652 0.069703
O O11 0.500000 0.000000 0.000000
O O12 0.124367 0.710985 0.472842
O O13 0.000000 0.500000 0.500000
O O14 0.062381 0.542665 0.269627
O O15 0.196306 0.530800 0.868839
O O16 0.000000 0.500000 0.000000
O O17 0.000000 0.000000 0.500000
O O18 0.500000 0.500000 0.000000
#
# Coordination Sequence:
#
# PCOD9047803 Si02
#       8
#     2   2   1   2   2   2   2   2
#     4  11  24  44  72 102 149 185 244 303 375 445
#     4  12  26  47  73 102 146 194 243 304 373 445
#     4  10  24  44  70 106 152 186 238 308 378 436
#     4  12  25  46  71 108 145 190 248 311 368 450
#     4  11  25  47  72 105 145 190 244 303 371 446
#     4  12  24  42  73 105 137 186 249 300 361 446
#     4  11  26  45  70 102 147 193 238 300 377 448
#     4  12  24  44  72 106 143 190 244 307 374 440
#
# _framework density 21.495000000000001
#
# number of rings (size 3 to 8) (size 9 to 14) (size 15 to 20)
#    0.000    0.533    2.667    5.600    5.600    2.667 
#    4.800    0.000    0.000    0.000    0.000    0.000 
#    0.000    0.000    0.000    0.000    0.000    0.000 
#
# Total GULP energy -83564.925874 kJ/mol
# GULP energy per Si atom -5570.995058 kJ/mol
# Density = 2.144608 g / cm^3
# Si number density = 21.495000 Si / 1000 Ang^3
#
#
#
# Elastic Constant Matrix: (Units=GPa)
#
#
# Indices 1 2 3 4 5 6 
#
# 1 113.0575 10.1436 23.9132 -1.5507 -1.1825 5.2878
# 2 10.1436 65.0496 19.9685 8.9970 -4.8977 -7.3126
# 3 23.9132 19.9685 125.4949 12.7561 0.1060 -18.9121
# 4 -1.5507 8.9970 12.7561 38.3229 4.7642 -0.7253
# 5 -1.1825 -4.8977 0.1060 4.7642 50.8101 8.4959
# 6 5.2878 -7.3126 -18.9121 -0.7253 8.4959 39.7081
#
#
#
# Elastic Compliance Matrix: (Units=1/GPa)
#
#
# Indices 1 2 3 4 5 6 
#
# 1 0.009555 -0.001272 -0.002141 0.001297 0.000416 -0.002592
# 2 -0.001272 0.016967 -0.001786 -0.003602 0.001607 0.002034
# 3 -0.002141 -0.001786 0.009637 -0.002691 -0.000769 0.004662
# 4 0.001297 -0.003602 -0.002691 0.028216 -0.002789 -0.001006
# 5 0.000416 0.001607 -0.000769 -0.002789 0.020886 -0.004645
# 6 -0.002592 0.002034 0.004662 -0.001006 -0.004645 0.029099
#
#
# Mechanical properties :
#
#
# Convention : Reuss Voigt Hill
#
# Bulk Modulus (GPa) = 38.81827 45.73917 42.27872
# Shear Modulus (GPa) = 37.49618 42.40665 39.95142
#
# Velocity S-wave (km/s) = 4.18115 4.44651 4.31587
# Velocity P-wave (km/s) = 6.43489 6.90558 6.67439
#
# Compressibility (1/GPa) = 0.02576107
#
# Stress axis : x y z
#
# Youngs Moduli (GPa) = 104.65219 58.93668 103.76227
#
# Poissons Ratio (x) = 0.07498 0.22217
# Poissons Ratio (y) = 0.13314 0.18534
# Poissons Ratio (z) = 0.22408 0.10527
#
# Static dielectric constant tensor:
#      x y z
#    x 1.861840 0.002360 0.018020 
#    y 0.002360 1.824260 0.006720 
#    z 0.018020 0.006720 1.808340 
# 
# From -- ./inp_files/158861.got.cif
#   From: 2010.05.17/outbox.cif.g08.bks.cpg/sg2_80_cif.got.tgz:158861.got - 2010.06.03 11:33:40.
