data_PCOD9047171
_publ_section_title
;
Structure prediction by ZEFSAII (Michael W. Deem and Ramdas Pophale) SiO2 
 PCOD9047171
Probable space group: P -1
;
_chemical_formula_sum "Si O2"
_cell_formula_units_Z 14
_cell_length_a 8.546878
_cell_length_b 12.045065
_cell_length_c 9.470054
_cell_angle_alpha 109.664062
_cell_angle_beta 104.815016
_cell_angle_gamma 122.489313
_cell_volume 647.001232
_symmetry_space_group_name_H-M "P -1"
_symmetry_group_IT_number 2
_symmetry_cell_setting 'triclinic'
loop_
_space_group_symop_operation_xyz
x,y,z
-x,-y,-z
loop_
_atom_site_type_symbol
_atom_site_label
_atom_site_fract_x
_atom_site_fract_y
_atom_site_fract_z
Si Si1 0.026840 0.982443 0.168742
Si Si2 0.212096 0.590473 0.188582
Si Si3 0.196548 0.656404 0.524119
Si Si4 0.663099 0.607152 0.952559
Si Si5 0.077431 0.841421 0.602600
Si Si6 0.638705 0.946022 0.495979
Si Si7 0.616210 0.478490 0.401293
O O1 0.937338 0.057271 0.252542
O O2 0.873020 0.795668 0.099271
O O3 0.256849 0.057938 0.337461
O O4 0.000000 0.000000 0.000000
O O5 0.139150 0.616553 0.329173
O O6 0.260085 0.475177 0.141713
O O7 0.456599 0.770592 0.302388
O O8 0.000000 0.500000 0.000000
O O9 0.241145 0.810777 0.651156
O O10 0.375618 0.645985 0.583593
O O11 0.000000 0.500000 0.500000
O O12 0.516365 0.602893 0.805649
O O13 0.500000 0.500000 0.000000
O O14 0.842093 0.657322 0.483470
O O15 0.154492 0.928899 0.507197
O O16 0.500000 0.000000 0.500000
O O17 0.500000 0.500000 0.500000
#
# Coordination Sequence:
#
# PCOD9047171 Si02
#       7
#     2   2   2   2   2   2   2
#     4  12  28  46  72 110 148 188 243 303 364 425
#     4  12  26  46  73 103 138 185 249 297 354 434
#     4  10  24  43  73 103 139 189 236 296 367 420
#     4  12  26  43  69 106 139 185 241 294 352 435
#     4  11  24  47  71 105 147 194 240 292 363 439
#     4  12  25  49  74 104 149 194 235 302 366 429
#     4  11  22  44  75 101 142 188 239 294 360 425
#
# _framework density 21.638289
#
# number of rings (size 3 to 8) (size 9 to 14) (size 15 to 20)
#    0.000    0.571    2.857    4.714    8.000    0.000 
#    0.000    1.429    0.000    0.000    0.000    0.000 
#    0.000    0.000    0.000    0.000    0.000    0.000 
#
# Total GULP energy -77979.630727 kJ/mol
# GULP energy per Si atom -5569.973623 kJ/mol
# Density = 2.158904 g / cm^3
# Si number density = 21.638289 Si / 1000 Ang^3
#
#
#
# Elastic Constant Matrix: (Units=GPa)
#
#
# Indices 1 2 3 4 5 6 
#
# 1 119.0273 54.4620 51.2419 -1.3514 -21.7696 -19.3390
# 2 54.4620 142.1469 65.1952 17.2531 3.7951 15.1735
# 3 51.2419 65.1952 124.1209 -5.9565 7.8800 -12.5637
# 4 -1.3514 17.2531 -5.9565 52.6364 -3.3811 -8.8230
# 5 -21.7696 3.7951 7.8800 -3.3811 34.4203 7.6600
# 6 -19.3390 15.1735 -12.5637 -8.8230 7.6600 60.1368
#
#
#
# Elastic Compliance Matrix: (Units=1/GPa)
#
#
# Indices 1 2 3 4 5 6 
#
# 1 0.014917 -0.005301 -0.003397 0.003155 0.010082 0.004604
# 2 -0.005301 0.013193 -0.005569 -0.006400 -0.002648 -0.006799
# 3 -0.003397 -0.005569 0.013321 0.003632 -0.005182 0.004289
# 4 0.003155 -0.006400 0.003632 0.022833 0.002690 0.006396
# 5 0.010082 -0.002648 -0.005182 0.002690 0.037518 -0.001556
# 6 0.004604 -0.006799 0.004289 0.006396 -0.001556 0.021857
#
#
# Mechanical properties :
#
#
# Convention : Reuss Voigt Hill
#
# Bulk Modulus (GPa) = 77.52487 80.78814 79.15651
# Shear Modulus (GPa) = 31.95468 43.73178 37.84323
#
# Velocity S-wave (km/s) = 3.84704 4.50047 4.18652
# Velocity P-wave (km/s) = 7.45911 8.02636 7.74793
#
# Compressibility (1/GPa) = 0.01289909
#
# Stress axis : x y z
#
# Youngs Moduli (GPa) = 67.03776 75.79591 75.06866
#
# Poissons Ratio (x) = 0.40180 0.25497
# Poissons Ratio (y) = 0.35537 0.41803
# Poissons Ratio (z) = 0.22770 0.42208
#
# Static dielectric constant tensor:
#      x y z
#    x 2.111630 -0.046540 -0.140810 
#    y -0.046540 1.815710 0.075640 
#    z -0.140810 0.075640 2.001890 
# 
# From -- ./inp_files/189491.got.cif
#   From: 2010.05.17/outbox.cif.g08.bks.cpg/sg2_95_cif.got.tgz:189491.got - 2010.06.03 11:33:40.
