data_PCOD9047298
_publ_section_title
;
Structure prediction by ZEFSAII (Michael W. Deem and Ramdas Pophale) SiO2 
 PCOD9047298
Probable space group: P -1
;
_chemical_formula_sum "Si O2"
_cell_formula_units_Z 11
_cell_length_a 6.746813
_cell_length_b 7.110721
_cell_length_c 9.265402
_cell_angle_alpha 73.610487
_cell_angle_beta 92.873093
_cell_angle_gamma 117.244200
_cell_volume 377.502993
_symmetry_space_group_name_H-M "P -1"
_symmetry_group_IT_number 2
_symmetry_cell_setting 'triclinic'
loop_
_space_group_symop_operation_xyz
x,y,z
-x,-y,-z
loop_
_atom_site_type_symbol
_atom_site_label
_atom_site_fract_x
_atom_site_fract_y
_atom_site_fract_z
Si Si1 0.528463 0.487236 0.331060
Si Si2 0.260854 0.787638 0.526851
Si Si3 0.806954 0.136965 0.804673
Si Si4 0.000000 0.500000 0.000000
Si Si5 0.421441 0.712934 0.034236
Si Si6 0.962102 0.845972 0.721327
O O1 0.500000 0.500000 0.500000
O O2 0.724136 0.415938 0.353688
O O3 0.539726 0.684741 0.187492
O O4 0.298680 0.291046 0.301614
O O5 0.092514 0.864230 0.573802
O O6 0.500000 0.000000 0.500000
O O7 0.218986 0.746447 0.364354
O O8 0.974800 0.045713 0.778249
O O9 0.819546 0.297230 0.903359
O O10 0.584499 0.922390 0.902541
O O11 0.730094 0.495134 0.022019
O O12 0.059990 0.713098 0.845332
#
# Coordination Sequence:
#
# PCOD9047298 Si02
#       6
#     2   2   2   1   2   2
#     4  11  24  45  71 101 138 181 226 286 343 405
#     4  12  24  44  71 102 138 181 225 288 343 407
#     4  11  23  44  70  99 139 177 235 275 338 414
#     4  10  24  44  64 104 136 176 230 280 342 400
#     4  10  24  46  70 102 134 186 228 280 344 407
#     4  11  26  43  70 103 136 182 230 280 343 411
#
# _framework density 29.138842
#
# number of rings (size 3 to 8) (size 9 to 14) (size 15 to 20)
#    0.000    1.091    3.636    1.636    2.545    2.909 
#    0.000    0.000    0.000    0.000    0.000    0.000 
#    0.000    0.000    0.000    0.000    0.000    0.000 
#
# Total GULP energy -61430.530340 kJ/mol
# GULP energy per Si atom -5584.593667 kJ/mol
# Density = 2.907252 g / cm^3
# Si number density = 29.138842 Si / 1000 Ang^3
#
#
#
# Elastic Constant Matrix: (Units=GPa)
#
#
# Indices 1 2 3 4 5 6 
#
# 1 176.8558 52.9212 88.3921 10.8708 10.7680 -16.4745
# 2 52.9212 107.8070 56.5044 18.2911 4.7581 -11.8075
# 3 88.3921 56.5044 241.1431 16.8677 25.1603 -30.4902
# 4 10.8708 18.2911 16.8677 56.7257 -21.1935 -1.5033
# 5 10.7680 4.7581 25.1603 -21.1935 69.8742 12.2322
# 6 -16.4745 -11.8075 -30.4902 -1.5033 12.2322 67.0582
#
#
#
# Elastic Compliance Matrix: (Units=1/GPa)
#
#
# Indices 1 2 3 4 5 6 
#
# 1 0.007512 -0.002513 -0.002045 -0.000153 -0.000391 0.000541
# 2 -0.002513 0.011973 -0.001411 -0.003346 -0.001106 0.000976
# 3 -0.002045 -0.001411 0.005946 -0.001873 -0.002720 0.002407
# 4 -0.000153 -0.003346 -0.001873 0.022258 0.008108 -0.002459
# 5 -0.000391 -0.001106 -0.002720 0.008108 0.018719 -0.004760
# 6 0.000541 0.000976 0.002407 -0.002459 -0.004760 0.017125
#
#
# Mechanical properties :
#
#
# Convention : Reuss Voigt Hill
#
# Bulk Modulus (GPa) = 74.11675 102.38237 88.24956
# Shear Modulus (GPa) = 50.01567 60.59750 55.30658
#
# Velocity S-wave (km/s) = 4.14751 4.56522 4.36137
# Velocity P-wave (km/s) = 6.95893 7.93730 7.46416
#
# Compressibility (1/GPa) = 0.01349223
#
# Stress axis : x y z
#
# Youngs Moduli (GPa) = 133.12082 83.52276 168.17412
#
# Poissons Ratio (x) = 0.20992 0.34385
# Poissons Ratio (y) = 0.33458 0.23736
# Poissons Ratio (z) = 0.27218 0.11788
#
# Static dielectric constant tensor:
#      x y z
#    x 2.054420 0.795110 -1.969470 
#    y 0.795110 0.730050 3.594920 
#    z -1.969470 3.594920 -5.386120 
# 
# From -- ./inp_files/17481.got.cif
#   From: 2010.05.17/outbox.cif.g08.bks.cpg/sg2_9_cif.got.tgz:17481.got - 2010.06.03 11:33:40.
