data_PCOD9047382
_publ_section_title
;
Structure prediction by ZEFSAII (Michael W. Deem and Ramdas Pophale) SiO2 
 PCOD9047382
Probable space group: P -1
;
_chemical_formula_sum "Si O2"
_cell_formula_units_Z 16
_cell_length_a 21.706087
_cell_length_b 14.528319
_cell_length_c 16.129539
_cell_angle_alpha 149.851426
_cell_angle_beta 158.647781
_cell_angle_gamma 18.983942
_cell_volume 596.953508
_symmetry_space_group_name_H-M "P -1"
_symmetry_group_IT_number 2
_symmetry_cell_setting 'triclinic'
loop_
_space_group_symop_operation_xyz
x,y,z
-x,-y,-z
loop_
_atom_site_type_symbol
_atom_site_label
_atom_site_fract_x
_atom_site_fract_y
_atom_site_fract_z
Si Si1 0.758181 0.853423 0.664718
Si Si2 0.815333 0.472207 0.757838
Si Si3 0.568431 0.345954 0.716585
Si Si4 0.811973 0.281256 0.198336
Si Si5 0.439696 0.892483 0.906083
Si Si6 0.804778 0.391758 0.866490
Si Si7 0.165799 0.535886 0.806436
Si Si8 0.058346 0.864991 0.573229
O O1 0.890154 0.684035 0.610432
O O2 0.500000 0.000000 0.500000
O O3 0.665920 0.131851 0.743239
O O4 0.990611 0.643828 0.859177
O O5 0.563012 0.664432 0.529726
O O6 0.727340 0.534084 0.791269
O O7 0.970118 0.148781 0.693837
O O8 0.000000 0.500000 0.000000
O O9 0.327628 0.651454 0.694858
O O10 0.797289 0.307445 0.970922
O O11 0.824376 0.400361 0.225383
O O12 0.911053 0.259980 0.396899
O O13 0.500000 0.500000 0.000000
O O14 0.022213 0.938609 0.179065
O O15 0.540025 0.626824 0.772533
O O16 0.600372 0.779231 0.105155
O O17 0.134370 0.105645 0.697409
O O18 0.500000 0.000000 0.000000
#
# Coordination Sequence:
#
# PCOD9047382 Si02
#       8
#     2   2   2   2   2   2   2   2
#     4  11  24  42  70 106 146 192 246 313 383 449
#     4  11  25  41  68 107 145 192 248 308 376 454
#     4  12  23  43  76 106 147 195 259 300 386 461
#     4  11  22  45  75 111 146 195 258 320 373 449
#     4  11  27  45  70 106 154 202 254 314 376 457
#     4  10  24  44  66 103 152 190 250 312 377 437
#     4  11  24  44  75 109 142 201 255 308 381 455
#     4  11  25  43  74 103 150 203 248 310 386 442
#
# _framework density 26.802755000000001
#
# number of rings (size 3 to 8) (size 9 to 14) (size 15 to 20)
#    0.000    1.000    3.750    1.500    7.000    3.000 
#    0.000    0.625    0.000    0.000    0.000    0.875 
#    0.000    0.000    0.000    0.000    0.000    0.000 
#
# Total GULP energy -89338.972105 kJ/mol
# GULP energy per Si atom -5583.685757 kJ/mol
# Density = 2.674175 g / cm^3
# Si number density = 26.802755 Si / 1000 Ang^3
#
#
#
# Elastic Constant Matrix: (Units=GPa)
#
#
# Indices 1 2 3 4 5 6 
#
# 1 200.0487 24.6949 47.8467 -13.5656 -7.2773 23.4756
# 2 24.6949 88.5267 35.8345 -5.7282 5.0708 11.2397
# 3 47.8467 35.8345 112.4113 0.7953 8.7885 7.8877
# 4 -13.5656 -5.7282 0.7953 35.9507 -0.5281 3.1854
# 5 -7.2773 5.0708 8.7885 -0.5281 48.7809 -14.8598
# 6 23.4756 11.2397 7.8877 3.1854 -14.8598 58.0192
#
#
#
# Elastic Compliance Matrix: (Units=1/GPa)
#
#
# Indices 1 2 3 4 5 6 
#
# 1 0.006045 -0.000348 -0.002402 0.002466 0.000793 -0.001984
# 2 -0.000348 0.013512 -0.003888 0.002303 -0.001478 -0.002453
# 3 -0.002402 -0.003888 0.011353 -0.001785 -0.002097 -0.000257
# 4 0.002466 0.002303 -0.001785 0.029403 -0.000097 -0.002841
# 5 0.000793 -0.001478 -0.002097 -0.000097 0.023023 0.006153
# 6 -0.001984 -0.002453 -0.000257 -0.002841 0.006153 0.020281
#
#
# Mechanical properties :
#
#
# Convention : Reuss Voigt Hill
#
# Bulk Modulus (GPa) = 56.71000 68.63764 62.67382
# Shear Modulus (GPa) = 40.72635 48.05754 44.39194
#
# Velocity S-wave (km/s) = 3.90228 4.23899 4.07411
# Velocity P-wave (km/s) = 6.44267 7.04434 6.75021
#
# Compressibility (1/GPa) = 0.01763357
#
# Stress axis : x y z
#
# Youngs Moduli (GPa) = 165.41821 74.00805 88.08618
#
# Poissons Ratio (x) = 0.02574 0.21162
# Poissons Ratio (y) = 0.05753 0.34247
# Poissons Ratio (z) = 0.39741 0.28774
#
# Static dielectric constant tensor:
#      x y z
#    x 2.158640 -0.022450 0.027240 
#    y -0.022450 2.268880 0.059930 
#    z 0.027240 0.059930 2.207830 
# 
# From -- ./inp_files/579338.got.cif
#   From: 2010.05.17/outbox.cif.g08.bks.cpg/sg2_290_cif.got.tgz:579338.got - 2010.06.03 11:33:40.
