data_PCOD9047573
_publ_section_title
;
Structure prediction by ZEFSAII (Michael W. Deem and Ramdas Pophale) SiO2 
 PCOD9047573
Probable space group: P -1
;
_chemical_formula_sum "Si O2"
_cell_formula_units_Z 16
_cell_length_a 5.346595
_cell_length_b 10.543718
_cell_length_c 11.599765
_cell_angle_alpha 81.778859
_cell_angle_beta 80.314810
_cell_angle_gamma 62.395033
_cell_volume 569.629436
_symmetry_space_group_name_H-M "P -1"
_symmetry_group_IT_number 2
_symmetry_cell_setting 'triclinic'
loop_
_space_group_symop_operation_xyz
x,y,z
-x,-y,-z
loop_
_atom_site_type_symbol
_atom_site_label
_atom_site_fract_x
_atom_site_fract_y
_atom_site_fract_z
Si Si1 0.866331 0.223532 0.460350
Si Si2 0.278483 0.522115 0.284974
Si Si3 0.627522 0.346975 0.949686
Si Si4 0.690700 0.767261 0.748076
Si Si5 0.112223 0.123625 0.068736
Si Si6 0.348261 0.360349 0.624449
Si Si7 0.263543 0.011837 0.610509
Si Si8 0.464984 0.158726 0.843344
O O1 0.535887 0.322030 0.499547
O O2 0.871375 0.091165 0.406414
O O3 0.062703 0.267954 0.362459
O O4 0.012464 0.169132 0.582126
O O5 0.183199 0.632370 0.169107
O O6 0.390270 0.362107 0.246594
O O7 0.519739 0.550598 0.325539
O O8 0.988753 0.561144 0.371172
O O9 0.423873 0.299176 0.901215
O O10 0.500000 0.500000 0.000000
O O11 0.792072 0.219259 0.042662
O O12 0.812815 0.780010 0.860144
O O13 0.441847 0.926581 0.718246
O O14 0.217793 0.970194 0.142463
O O15 0.275503 0.101537 0.936716
O O16 0.421043 0.212841 0.708864
O O17 0.500000 0.000000 0.500000
#
# Coordination Sequence:
#
# PCOD9047573 Si02
#       8
#     2   2   2   2   2   2   2   2
#     4  10  24  44  72 100 138 190 238 300 364 428
#     4  11  27  46  71 108 145 194 242 291 369 436
#     4  11  24  45  73 101 148 191 237 298 361 436
#     4  11  26  42  71 104 142 185 243 299 357 435
#     4  11  24  44  70 102 144 183 243 301 358 427
#     4  11  26  47  73 101 147 194 238 303 360 436
#     4   9  22  44  65 100 136 179 247 291 362 426
#     4  10  24  44  68 105 137 189 241 295 363 427
#
# _framework density 28.088435
#
# number of rings (size 3 to 8) (size 9 to 14) (size 15 to 20)
#    0.000    1.500    1.250    1.125   14.000    3.000 
#    2.250    0.000    0.000    0.000    0.000    0.000 
#    0.000    0.000    0.000    0.000    0.000    0.000 
#
# Total GULP energy -89623.423877 kJ/mol
# GULP energy per Si atom -5601.463992 kJ/mol
# Density = 2.802450 g / cm^3
# Si number density = 28.088435 Si / 1000 Ang^3
#
#
#
# Elastic Constant Matrix: (Units=GPa)
#
#
# Indices 1 2 3 4 5 6 
#
# 1 110.7414 17.0003 18.6628 5.0925 -0.8535 -4.4316
# 2 17.0003 105.5177 20.5219 -6.1534 -7.7441 12.0753
# 3 18.6628 20.5219 130.0895 -13.7636 -11.1552 -6.3881
# 4 5.0925 -6.1534 -13.7636 52.3804 2.6855 1.9178
# 5 -0.8535 -7.7441 -11.1552 2.6855 51.4874 5.6776
# 6 -4.4316 12.0753 -6.3881 1.9178 5.6776 56.3674
#
#
#
# Elastic Compliance Matrix: (Units=1/GPa)
#
#
# Indices 1 2 3 4 5 6 
#
# 1 0.009584 -0.001528 -0.001271 -0.001463 -0.000383 0.001025
# 2 -0.001528 0.010461 -0.001323 0.001051 0.001504 -0.002698
# 3 -0.001271 -0.001323 0.008465 0.002086 0.001402 0.000931
# 4 -0.001463 0.001051 0.002086 0.019951 -0.000373 -0.000745
# 5 -0.000383 0.001504 0.001402 -0.000373 0.020210 -0.002216
# 6 0.001025 -0.002698 0.000931 -0.000745 -0.002216 0.018753
#
#
# Mechanical properties :
#
#
# Convention : Reuss Voigt Hill
#
# Bulk Modulus (GPa) = 49.34495 50.96872 50.15684
# Shear Modulus (GPa) = 48.81639 51.39128 50.10383
#
# Velocity S-wave (km/s) = 4.17340 4.28205 4.22807
# Velocity P-wave (km/s) = 6.38975 6.52941 6.45995
#
# Compressibility (1/GPa) = 0.02026550
#
# Stress axis : x y z
#
# Youngs Moduli (GPa) = 104.33893 95.59235 118.13536
#
# Poissons Ratio (x) = 0.14603 0.15018
# Poissons Ratio (y) = 0.15939 0.15634
# Poissons Ratio (z) = 0.13264 0.12651
#
# Static dielectric constant tensor:
#      x y z
#    x 2.197970 -0.049070 0.026770 
#    y -0.049070 2.203710 -0.026010 
#    z 0.026770 -0.026010 2.203870 
# 
# From -- ./inp_files/364268.got.cif
#   From: 2010.05.17/outbox.cif.g08.bks.cpg/sg2_183_cif.got.tgz:364268.got - 2010.06.03 11:33:40.
