data_PCOD9047968
_publ_section_title
;
Structure prediction by ZEFSAII (Michael W. Deem and Ramdas Pophale) SiO2 
 PCOD9047968
Probable space group: P -1
;
_chemical_formula_sum "Si O2"
_cell_formula_units_Z 13
_cell_length_a 10.931665
_cell_length_b 7.985383
_cell_length_c 13.472138
_cell_angle_alpha 120.269891
_cell_angle_beta 134.292693
_cell_angle_gamma 39.276997
_cell_volume 531.175447
_symmetry_space_group_name_H-M "P -1"
_symmetry_group_IT_number 2
_symmetry_cell_setting 'triclinic'
loop_
_space_group_symop_operation_xyz
x,y,z
-x,-y,-z
loop_
_atom_site_type_symbol
_atom_site_label
_atom_site_fract_x
_atom_site_fract_y
_atom_site_fract_z
Si Si1 0.968259 0.472835 0.357062
Si Si2 0.408621 0.274242 0.076689
Si Si3 0.937065 0.852371 0.974853
Si Si4 0.360542 0.774915 0.447206
Si Si5 0.500000 0.000000 0.500000
Si Si6 0.480792 0.972810 0.735123
Si Si7 0.141368 0.876109 0.788058
O O1 0.862696 0.341278 0.242525
O O2 0.000000 0.500000 0.500000
O O3 0.228008 0.274001 0.405673
O O4 0.771038 0.765814 0.289926
O O5 0.419147 0.253834 0.196236
O O6 0.605599 0.273097 0.155371
O O7 0.145162 0.538174 0.979240
O O8 0.500000 0.000000 0.000000
O O9 0.918165 0.922237 0.100816
O O10 0.680197 0.976582 0.839443
O O11 0.000000 0.000000 0.000000
O O12 0.500000 0.500000 0.500000
O O13 0.424529 0.933956 0.582787
O O14 0.422881 0.810930 0.385876
O O15 0.087417 0.943168 0.357759
#
# Coordination Sequence:
#
# PCOD9047968 Si02
#       7
#     2   2   2   2   1   2   2
#     4  11  24  47  71 111 143 188 246 305 370 445
#     4  12  28  48  75 106 153 193 243 313 366 447
#     4  12  29  49  76 109 147 197 253 302 371 452
#     4  11  26  45  74 110 146 192 249 306 379 446
#     4  10  24  44  72 102 158 184 234 314 370 434
#     4  12  26  47  77 108 148 191 250 308 374 443
#     4  11  26  49  71 107 146 191 246 304 370 448
#
# _framework density 24.474024
#
# number of rings (size 3 to 8) (size 9 to 14) (size 15 to 20)
#    0.000    0.615    4.615    2.308   10.769    5.538 
#    0.000    0.000    0.000    0.000    0.000    0.000 
#    0.000    0.000    0.000    0.000    0.000    0.000 
#
# Total GULP energy -72476.329547 kJ/mol
# GULP energy per Si atom -5575.102273 kJ/mol
# Density = 2.441832 g / cm^3
# Si number density = 24.474024 Si / 1000 Ang^3
#
#
#
# Elastic Constant Matrix: (Units=GPa)
#
#
# Indices 1 2 3 4 5 6 
#
# 1 79.5669 19.2261 13.0670 -13.7490 27.3758 -22.4870
# 2 19.2261 125.3419 24.5434 -27.9832 7.6268 -3.8300
# 3 13.0670 24.5434 113.7228 -6.3032 23.5643 -20.4588
# 4 -13.7490 -27.9832 -6.3032 47.0563 -5.3922 -1.2318
# 5 27.3758 7.6268 23.5643 -5.3922 42.4217 -8.4695
# 6 -22.4870 -3.8300 -20.4588 -1.2318 -8.4695 34.6312
#
#
#
# Elastic Compliance Matrix: (Units=1/GPa)
#
#
# Indices 1 2 3 4 5 6 
#
# 1 0.020751 -0.001664 0.002845 0.004440 -0.011656 0.012278
# 2 -0.001664 0.009671 -0.001937 0.005090 0.000908 -0.000753
# 3 0.002845 -0.001937 0.011487 0.000663 -0.006411 0.006875
# 4 0.004440 0.005090 0.000663 0.025799 0.000084 0.004776
# 5 -0.011656 0.000908 -0.006411 0.000084 0.033913 -0.002959
# 6 0.012278 -0.000753 0.006875 0.004776 -0.002959 0.040272
#
#
# Mechanical properties :
#
#
# Convention : Reuss Voigt Hill
#
# Bulk Modulus (GPa) = 24.75573 48.03385 36.39479
# Shear Modulus (GPa) = 31.87356 42.27486 37.07421
#
# Velocity S-wave (km/s) = 3.61271 4.16063 3.89632
# Velocity P-wave (km/s) = 5.24779 6.53836 5.92830
#
# Compressibility (1/GPa) = 0.04039468
#
# Stress axis : x y z
#
# Youngs Moduli (GPa) = 48.19134 103.40352 87.05870
#
# Poissons Ratio (x) = 0.17210 -0.24769
# Poissons Ratio (y) = 0.08021 0.16867
# Poissons Ratio (z) = -0.13711 0.20033
#
# Static dielectric constant tensor:
#      x y z
#    x 1.648780 0.039280 0.148390 
#    y 0.039280 1.944270 0.063790 
#    z 0.148390 0.063790 1.952300 
# 
# From -- ./inp_files/232033.got.cif
#   From: 2010.05.17/outbox.cif.g08.bks.cpg/sg2_117_cif.got.tgz:232033.got - 2010.06.03 11:33:40.
