data_PCOD9047095
_publ_section_title
;
Structure prediction by ZEFSAII (Michael W. Deem and Ramdas Pophale) SiO2 
 PCOD9047095
Probable space group: P -1
;
_chemical_formula_sum "Si O2"
_cell_formula_units_Z 16
_cell_length_a 8.211992
_cell_length_b 11.833956
_cell_length_c 14.014945
_cell_angle_alpha 71.500363
_cell_angle_beta 61.389246
_cell_angle_gamma 120.451176
_cell_volume 693.351436
_symmetry_space_group_name_H-M "P -1"
_symmetry_group_IT_number 2
_symmetry_cell_setting 'triclinic'
loop_
_space_group_symop_operation_xyz
x,y,z
-x,-y,-z
loop_
_atom_site_type_symbol
_atom_site_label
_atom_site_fract_x
_atom_site_fract_y
_atom_site_fract_z
Si Si1 0.196849 0.147893 0.317096
Si Si2 0.812363 0.084993 0.952297
Si Si3 0.484915 0.040975 0.228515
Si Si4 0.494535 0.462381 0.901406
Si Si5 0.253444 0.627530 0.236667
Si Si6 0.406697 0.293733 0.703860
Si Si7 0.078959 0.334895 0.621133
Si Si8 0.144672 0.944412 0.755043
O O1 0.403528 0.139515 0.230491
O O2 0.410790 0.369168 0.224500
O O3 0.975879 0.084740 0.310333
O O4 0.000000 0.000000 0.500000
O O5 0.952440 0.192694 0.781810
O O6 0.112214 0.172703 0.881358
O O7 0.698865 0.118789 0.055937
O O8 0.522621 0.856220 0.072222
O O9 0.636151 0.055502 0.275812
O O10 0.166448 0.814108 0.353129
O O11 0.731507 0.479127 0.805145
O O12 0.500000 0.500000 0.000000
O O13 0.159509 0.238092 0.050323
O O14 0.349899 0.637944 0.311795
O O15 0.951515 0.549199 0.354555
O O16 0.587196 0.500464 0.559580
O O17 0.303134 0.143263 0.697420
#
# Coordination Sequence:
#
# PCOD9047095 Si02
#       8
#     2   2   2   2   2   2   2   2
#     4  11  28  49  73 102 144 191 236 300 351 413
#     4  11  22  40  68 103 137 186 228 294 349 427
#     4  11  24  45  74 103 143 185 244 287 352 433
#     4  10  24  43  71  98 137 195 239 281 345 426
#     4  11  21  40  69  97 136 183 235 274 364 421
#     4  12  22  41  67 108 143 176 226 298 372 412
#     4  11  25  37  68 109 146 175 223 307 364 409
#     4  11  23  46  74 102 141 187 239 291 354 430
#
# _framework density 23.076319999999999
#
# number of rings (size 3 to 8) (size 9 to 14) (size 15 to 20)
#    0.000    1.000    3.750    4.125    7.000    1.000 
#    2.250    1.250    0.000    0.000    0.000    0.000 
#    0.000    0.000    0.000    0.000    0.000    0.000 
#
# Total GULP energy -89229.862208 kJ/mol
# GULP energy per Si atom -5576.866388 kJ/mol
# Density = 2.302380 g / cm^3
# Si number density = 23.076320 Si / 1000 Ang^3
#
#
#
# Elastic Constant Matrix: (Units=GPa)
#
#
# Indices 1 2 3 4 5 6 
#
# 1 97.5082 15.5640 22.8774 11.1863 24.3898 2.9889
# 2 15.5640 59.7141 17.2768 15.3608 8.1792 -15.3492
# 3 22.8774 17.2768 132.4093 -11.1455 9.0367 4.2332
# 4 11.1863 15.3608 -11.1455 18.4818 -2.3650 -4.1697
# 5 24.3898 8.1792 9.0367 -2.3650 30.3599 13.0345
# 6 2.9889 -15.3492 4.2332 -4.1697 13.0345 47.2213
#
#
#
# Elastic Compliance Matrix: (Units=1/GPa)
#
#
# Indices 1 2 3 4 5 6 
#
# 1 0.016320 0.004396 -0.003853 -0.017082 -0.016052 0.003664
# 2 0.004396 0.031687 -0.006809 -0.032537 -0.018046 0.012740
# 3 -0.003853 -0.006809 0.010085 0.013980 0.004220 -0.002804
# 4 -0.017082 -0.032537 0.013980 0.101530 0.030632 -0.010238
# 5 -0.016052 -0.018046 0.004220 0.030632 0.060022 -0.019091
# 6 0.003664 0.012740 -0.002804 -0.010238 -0.019091 0.029703
#
#
# Mechanical properties :
#
#
# Convention : Reuss Voigt Hill
#
# Bulk Modulus (GPa) = 21.94877 44.56312 33.25594
# Shear Modulus (GPa) = 18.04632 34.80683 26.42657
#
# Velocity S-wave (km/s) = 2.79951 3.88794 3.38772
# Velocity P-wave (km/s) = 4.47009 6.28553 5.45388
#
# Compressibility (1/GPa) = 0.04556063
#
# Stress axis : x y z
#
# Youngs Moduli (GPa) = 61.27282 31.55871 99.15962
#
# Poissons Ratio (x) = -0.13872 0.38205
# Poissons Ratio (y) = -0.26933 0.67513
# Poissons Ratio (z) = 0.23608 0.21487
#
# Static dielectric constant tensor:
#      x y z
#    x 2.140740 0.003330 0.023840 
#    y 0.003330 1.865050 -0.014460 
#    z 0.023840 -0.014460 1.896700 
# 
# From -- ./inp_files/500260.got.cif
#   From: 2010.05.17/outbox.cif.g08.bks.cpg/sg2_251_cif.got.tgz:500260.got - 2010.06.03 11:33:40.
