data_PCOD9047062
_publ_section_title
;
Structure prediction by ZEFSAII (Michael W. Deem and Ramdas Pophale) SiO2 
 PCOD9047062
Probable space group: P -1
;
_chemical_formula_sum "Si O2"
_cell_formula_units_Z 12
_cell_length_a 17.131635
_cell_length_b 5.676596
_cell_length_c 9.531351
_cell_angle_alpha 105.798723
_cell_angle_beta 115.642845
_cell_angle_gamma 123.676688
_cell_volume 508.074771
_symmetry_space_group_name_H-M "P -1"
_symmetry_group_IT_number 2
_symmetry_cell_setting 'triclinic'
loop_
_space_group_symop_operation_xyz
x,y,z
-x,-y,-z
loop_
_atom_site_type_symbol
_atom_site_label
_atom_site_fract_x
_atom_site_fract_y
_atom_site_fract_z
Si Si1 0.960996 0.658775 0.581461
Si Si2 0.903914 0.301535 0.757384
Si Si3 0.839438 0.786542 0.391111
Si Si4 0.623795 0.332310 0.755947
Si Si5 0.334203 0.121636 0.297210
Si Si6 0.559761 0.359038 0.015814
O O1 0.952808 0.609578 0.732000
O O2 0.820675 0.472153 0.384865
O O3 0.000000 0.500000 0.500000
O O4 0.081320 0.081345 0.672737
O O5 0.906399 0.066373 0.623969
O O6 0.750561 0.008671 0.648785
O O7 0.000000 0.500000 0.000000
O O8 0.715802 0.691766 0.243113
O O9 0.703005 0.740434 0.818023
O O10 0.559052 0.276173 0.841104
O O11 0.500000 0.000000 0.500000
O O12 0.697733 0.232301 0.820561
O O13 0.500000 0.500000 0.500000
O O14 0.500000 0.500000 0.000000
O O15 0.500000 0.000000 0.000000
#
# Coordination Sequence:
#
# PCOD9047062 Si02
#       6
#     2   2   2   2   2   2
#     4   9  22  46  70  98 140 189 251 306 372 435
#     4  11  26  43  74 104 142 192 253 305 377 444
#     4  10  25  45  73 101 148 193 249 313 372 444
#     4  10  24  44  69 100 147 186 244 297 371 433
#     4  10  24  43  71 102 145 187 235 304 369 435
#     4  12  29  45  77 112 150 199 253 306 382 451
#
# _framework density 23.618573000000001
#
# number of rings (size 3 to 8) (size 9 to 14) (size 15 to 20)
#    0.000    1.667    0.000    1.000   18.667    4.667 
#    0.000    0.000    0.000    0.000    0.000    0.000 
#    0.000    0.000    0.000    0.000    0.000    0.000 
#
# Total GULP energy -66879.353904 kJ/mol
# GULP energy per Si atom -5573.279492 kJ/mol
# Density = 2.356482 g / cm^3
# Si number density = 23.618573 Si / 1000 Ang^3
#
#
#
# Elastic Constant Matrix: (Units=GPa)
#
#
# Indices 1 2 3 4 5 6 
#
# 1 206.2819 90.9000 56.2217 -21.0226 -9.3968 -10.0144
# 2 90.9000 194.8028 49.6243 -49.9577 -7.3599 -4.6333
# 3 56.2217 49.6243 114.2625 -30.7930 -9.6929 7.9548
# 4 -21.0226 -49.9577 -30.7930 35.3203 6.3434 -3.7206
# 5 -9.3968 -7.3599 -9.6929 6.3434 42.0641 -10.1364
# 6 -10.0144 -4.6333 7.9548 -3.7206 -10.1364 62.0033
#
#
#
# Elastic Compliance Matrix: (Units=1/GPa)
#
#
# Indices 1 2 3 4 5 6 
#
# 1 0.006792 -0.003129 -0.002742 -0.002836 0.001059 0.001218
# 2 -0.003129 0.009637 0.000618 0.012492 -0.000563 0.000793
# 3 -0.002742 0.000618 0.012685 0.010056 0.000583 -0.001325
# 4 -0.002836 0.012492 0.010056 0.053938 -0.003832 0.001795
# 5 0.001059 -0.000563 0.000583 -0.003832 0.025589 0.004008
# 6 0.001218 0.000793 -0.001325 0.001795 0.004008 0.017317
#
#
# Mechanical properties :
#
#
# Convention : Reuss Voigt Hill
#
# Bulk Modulus (GPa) = 53.74420 100.98213 77.36317
# Shear Modulus (GPa) = 35.04635 49.11764 42.08200
#
# Velocity S-wave (km/s) = 3.85625 4.56523 4.22564
# Velocity P-wave (km/s) = 6.52932 8.40456 7.52558
#
# Compressibility (1/GPa) = 0.01860666
#
# Stress axis : x y z
#
# Youngs Moduli (GPa) = 147.22238 103.76202 78.83623
#
# Poissons Ratio (x) = 0.32470 0.21620
# Poissons Ratio (y) = 0.46069 -0.04870
# Poissons Ratio (z) = 0.40373 -0.06410
#
# Static dielectric constant tensor:
#      x y z
#    x 1.982650 -0.096410 0.117210 
#    y -0.096410 2.146110 0.090980 
#    z 0.117210 0.090980 1.972470 
# 
# From -- ./inp_files/58701.got.cif
#   From: 2010.05.17/outbox.cif.g08.bks.cpg/sg2_30_cif.got.tgz:58701.got - 2010.06.03 11:33:40.
