data_PCOD9047579
_publ_section_title
;
Structure prediction by ZEFSAII (Michael W. Deem and Ramdas Pophale) SiO2 
 PCOD9047579
Probable space group: P -1
;
_chemical_formula_sum "Si O2"
_cell_formula_units_Z 15
_cell_length_a 8.105793
_cell_length_b 11.465020
_cell_length_c 11.756756
_cell_angle_alpha 47.853022
_cell_angle_beta 91.040985
_cell_angle_gamma 68.334775
_cell_volume 694.535003
_symmetry_space_group_name_H-M "P -1"
_symmetry_group_IT_number 2
_symmetry_cell_setting 'triclinic'
loop_
_space_group_symop_operation_xyz
x,y,z
-x,-y,-z
loop_
_atom_site_type_symbol
_atom_site_label
_atom_site_fract_x
_atom_site_fract_y
_atom_site_fract_z
Si Si1 0.670147 0.470420 0.785133
Si Si2 0.299713 0.357585 0.526312
Si Si3 0.219465 0.371644 0.128618
Si Si4 0.032270 0.124357 0.006703
Si Si5 0.000000 0.000000 0.500000
Si Si6 0.116511 0.429849 0.709454
Si Si7 0.706808 0.021611 0.674941
Si Si8 0.732038 0.420072 0.191597
O O1 0.682319 0.483006 0.640960
O O2 0.746034 0.593950 0.764213
O O3 0.458669 0.544181 0.773765
O O4 0.821568 0.267014 0.960359
O O5 0.278770 0.368073 0.654563
O O6 0.085919 0.407109 0.451438
O O7 0.486247 0.176934 0.598564
O O8 0.288087 0.163867 0.239411
O O9 0.326323 0.450858 0.003736
O O10 0.000000 0.500000 0.000000
O O11 0.096654 0.256619 0.859765
O O12 0.176401 0.016001 0.181203
O O13 0.000000 0.000000 0.000000
O O14 0.117044 0.792034 0.691705
O O15 0.819281 0.060794 0.551673
O O16 0.168928 0.506875 0.768013
#
# Coordination Sequence:
#
# PCOD9047579 Si02
#       8
#     2   2   2   2   1   2   2   2
#     4  11  24  43  67 105 136 189 228 287 355 416
#     4  10  24  44  68 106 135 184 235 285 354 407
#     4  12  22  44  70  94 147 185 232 284 353 417
#     4  11  25  46  71 103 140 181 242 293 339 423
#     4  12  26  40  68 112 138 178 236 292 338 420
#     4  10  24  48  72  97 145 188 233 286 358 417
#     4  12  25  45  74 104 143 185 234 293 350 414
#     4  12  24  44  71 101 143 187 233 287 353 419
#
# _framework density 21.597185
#
# number of rings (size 3 to 8) (size 9 to 14) (size 15 to 20)
#    0.000    0.800    5.333    1.200    1.867    6.933 
#    0.000    0.000    0.000    0.000    0.000    0.000 
#    0.000    0.000    0.000    0.000    0.000    0.000 
#
# Total GULP energy -83528.607824 kJ/mol
# GULP energy per Si atom -5568.573855 kJ/mol
# Density = 2.154803 g / cm^3
# Si number density = 21.597185 Si / 1000 Ang^3
#
#
#
# Elastic Constant Matrix: (Units=GPa)
#
#
# Indices 1 2 3 4 5 6 
#
# 1 93.9040 48.8151 25.9755 -6.5651 2.5640 -22.2590
# 2 48.8151 105.3778 38.3731 -2.3957 11.5774 -19.1986
# 3 25.9755 38.3731 101.3006 3.2308 -2.1715 -8.6273
# 4 -6.5651 -2.3957 3.2308 35.9950 -15.0987 -0.2860
# 5 2.5640 11.5774 -2.1715 -15.0987 24.5525 7.5087
# 6 -22.2590 -19.1986 -8.6273 -0.2860 7.5087 52.8744
#
#
#
# Elastic Compliance Matrix: (Units=1/GPa)
#
#
# Indices 1 2 3 4 5 6 
#
# 1 0.015224 -0.006029 -0.001367 0.003403 0.002088 0.003719
# 2 -0.006029 0.015617 -0.004129 -0.004242 -0.010927 0.003987
# 3 -0.001367 -0.004129 0.011812 -0.000266 0.003153 -0.000597
# 4 0.003403 -0.004242 -0.000266 0.039457 0.027040 -0.003777
# 5 0.002088 -0.010927 0.003153 0.027040 0.066188 -0.011827
# 6 0.003719 0.003987 -0.000597 -0.003777 -0.011827 0.023488
#
#
# Mechanical properties :
#
#
# Convention : Reuss Voigt Hill
#
# Bulk Modulus (GPa) = 51.01542 58.54553 54.78048
# Shear Modulus (GPa) = 24.83007 35.17896 30.00452
#
# Velocity S-wave (km/s) = 3.39439 4.04030 3.73135
# Velocity P-wave (km/s) = 6.24781 6.99515 6.63202
#
# Compressibility (1/GPa) = 0.01960192
#
# Stress axis : x y z
#
# Youngs Moduli (GPa) = 65.68642 64.03398 84.66315
#
# Poissons Ratio (x) = 0.38606 0.11573
# Poissons Ratio (y) = 0.39603 0.34958
# Poissons Ratio (z) = 0.08979 0.26440
#
# Static dielectric constant tensor:
#      x y z
#    x 1.822920 -0.012830 -0.020680 
#    y -0.012830 1.816290 0.045380 
#    z -0.020680 0.045380 1.828040 
# 
# From -- ./inp_files/388840.got.cif
#   From: 2010.05.17/outbox.cif.g08.bks.cpg/sg2_195_cif.got.tgz:388840.got - 2010.06.03 11:33:40.
