data_PCOD9047084
_publ_section_title
;
Structure prediction by ZEFSAII (Michael W. Deem and Ramdas Pophale) SiO2 
 PCOD9047084
Probable space group: P -1
;
_chemical_formula_sum "Si O2"
_cell_formula_units_Z 10
_cell_length_a 16.481467
_cell_length_b 9.822581
_cell_length_c 12.475726
_cell_angle_alpha 146.947408
_cell_angle_beta 24.637588
_cell_angle_gamma 147.749877
_cell_volume 426.839659
_symmetry_space_group_name_H-M "P -1"
_symmetry_group_IT_number 2
_symmetry_cell_setting 'triclinic'
loop_
_space_group_symop_operation_xyz
x,y,z
-x,-y,-z
loop_
_atom_site_type_symbol
_atom_site_label
_atom_site_fract_x
_atom_site_fract_y
_atom_site_fract_z
Si Si1 0.757056 0.853219 0.656527
Si Si2 0.458758 0.242381 0.806166
Si Si3 0.433982 0.074881 0.285718
Si Si4 0.234619 0.024591 0.725313
Si Si5 0.761158 0.348300 0.215141
O O1 0.712810 0.950214 0.656013
O O2 0.717984 0.544864 0.480619
O O3 0.000000 0.000000 0.500000
O O4 0.570447 0.888205 0.973646
O O5 0.682607 0.212422 0.500436
O O6 0.347166 0.237834 0.824271
O O7 0.313551 0.955916 0.849419
O O8 0.500000 0.500000 0.000000
O O9 0.634326 0.340330 0.251746
O O10 0.301640 0.053029 0.538719
O O11 0.000000 0.000000 0.000000
O O12 0.000000 0.500000 0.000000
#
# Coordination Sequence:
#
# PCOD9047084 Si02
#       5
#     2   2   2   2   2
#     4  11  23  44  71 108 147 194 241 310 378 439
#     4  10  25  49  73 106 150 194 249 303 367 448
#     4  10  24  43  71 107 150 188 249 304 372 442
#     4  10  24  46  75 104 144 199 245 304 367 444
#     4  11  23  44  75 107 145 190 243 310 370 435
#
# _framework density 23.428003
#
# number of rings (size 3 to 8) (size 9 to 14) (size 15 to 20)
#    0.000    1.600    2.000    0.600    2.800   12.000 
#    0.000    4.000    0.000    0.000    0.000    0.000 
#    0.000    0.000    0.000    0.000    0.000    0.000 
#
# Total GULP energy -55678.828053 kJ/mol
# GULP energy per Si atom -5567.882805 kJ/mol
# Density = 2.337468 g / cm^3
# Si number density = 23.428003 Si / 1000 Ang^3
#
#
#
# Elastic Constant Matrix: (Units=GPa)
#
#
# Indices 1 2 3 4 5 6 
#
# 1 205.2967 70.6321 102.6622 -9.5544 8.1343 35.7534
# 2 70.6321 136.4442 105.9053 23.7728 0.8894 28.7251
# 3 102.6622 105.9053 222.8296 -29.1022 5.8453 27.9689
# 4 -9.5544 23.7728 -29.1022 37.9499 21.8689 6.5873
# 5 8.1343 0.8894 5.8453 21.8689 50.2213 -2.5963
# 6 35.7534 28.7251 27.9689 6.5873 -2.5963 47.2427
#
#
#
# Elastic Compliance Matrix: (Units=1/GPa)
#
#
# Indices 1 2 3 4 5 6 
#
# 1 0.008085 -0.007433 0.002565 0.014198 -0.007945 -0.005534
# 2 -0.007433 0.048739 -0.032698 -0.082382 0.040488 0.009061
# 3 0.002565 -0.032698 0.029161 0.063222 -0.031270 -0.009858
# 4 0.014198 -0.082382 0.063222 0.187831 -0.091505 -0.029303
# 5 -0.007945 0.040488 -0.031270 -0.091505 0.064806 0.016228
# 6 -0.005534 0.009061 -0.009858 -0.029303 0.016228 0.030660
#
#
# Mechanical properties :
#
#
# Convention : Reuss Voigt Hill
#
# Bulk Modulus (GPa) = 92.14786 124.77439 108.46112
# Shear Modulus (GPa) = 11.15992 46.10752 28.63372
#
# Velocity S-wave (km/s) = 2.18491 4.44109 3.49979
# Velocity P-wave (km/s) = 6.76630 8.92591 7.92006
#
# Compressibility (1/GPa) = 0.01085212
#
# Stress axis : x y z
#
# Youngs Moduli (GPa) = 123.68604 20.51745 34.29217
#
# Poissons Ratio (x) = 0.15252 -0.08797
# Poissons Ratio (y) = 0.91942 1.12130
# Poissons Ratio (z) = -0.31731 0.67089
#
# Static dielectric constant tensor:
#      x y z
#    x 2.012490 -0.059700 0.043660 
#    y -0.059700 1.956630 0.021800 
#    z 0.043660 0.021800 1.945570 
# 
# From -- ./inp_files/538073.got.cif
#   From: 2010.05.17/outbox.cif.g08.bks.cpg/sg2_270_cif.got.tgz:538073.got - 2010.06.03 11:33:40.
