data_PCOD9047766
_publ_section_title
;
Structure prediction by ZEFSAII (Michael W. Deem and Ramdas Pophale) SiO2 
 PCOD9047766
Probable space group: P -1
;
_chemical_formula_sum "Si O2"
_cell_formula_units_Z 16
_cell_length_a 8.886613
_cell_length_b 17.826964
_cell_length_c 6.821026
_cell_angle_alpha 121.556947
_cell_angle_beta 123.098003
_cell_angle_gamma 76.740367
_cell_volume 768.974046
_symmetry_space_group_name_H-M "P -1"
_symmetry_group_IT_number 2
_symmetry_cell_setting 'triclinic'
loop_
_space_group_symop_operation_xyz
x,y,z
-x,-y,-z
loop_
_atom_site_type_symbol
_atom_site_label
_atom_site_fract_x
_atom_site_fract_y
_atom_site_fract_z
Si Si1 0.270660 0.508164 0.048726
Si Si2 0.913702 0.591896 0.871796
Si Si3 0.396513 0.027023 0.154401
Si Si4 0.070050 0.772334 0.378702
Si Si5 0.416779 0.789138 0.365270
Si Si6 0.630854 0.628284 0.389538
Si Si7 0.955551 0.914735 0.216329
Si Si8 0.224359 0.854678 0.996176
O O1 0.205157 0.478543 0.177676
O O2 0.447981 0.575435 0.268753
O O3 0.317390 0.424307 0.839344
O O4 0.099685 0.551211 0.887672
O O5 0.793379 0.624354 0.653834
O O6 0.979432 0.673937 0.170391
O O7 0.510201 0.108525 0.444562
O O8 0.349433 0.937806 0.118181
O O9 0.216495 0.066412 0.004797
O O10 0.500000 0.000000 0.000000
O O11 0.260924 0.775316 0.400573
O O12 0.944805 0.833355 0.247686
O O13 0.109673 0.813162 0.675966
O O14 0.572471 0.725275 0.430899
O O15 0.327177 0.778291 0.072073
O O16 0.104050 0.893800 0.133736
O O17 0.000000 0.000000 0.500000
#
# Coordination Sequence:
#
# PCOD9047766 Si02
#       8
#     2   2   2   2   2   2   2   2
#     4  10  24  44  70 103 130 175 220 273 344 403
#     4  11  23  44  71 100 135 174 222 273 339 398
#     4  12  22  42  66  93 132 174 222 276 333 386
#     4  11  23  43  65  96 135 176 218 277 330 393
#     4  11  24  41  64  98 133 174 221 279 329 393
#     4  11  23  46  69 101 137 171 222 278 335 399
#     4  11  23  42  66  93 128 176 225 272 330 395
#     4  11  24  44  65  93 135 179 221 270 332 399
#
# _framework density 20.806944000000001
#
# number of rings (size 3 to 8) (size 9 to 14) (size 15 to 20)
#    0.000    1.000    3.750    3.000    0.000    4.000 
#   11.250    0.000    0.000    0.000    0.000    0.000 
#    0.000    0.000    0.000    0.000    0.000    0.000 
#
# Total GULP energy -89421.474363 kJ/mol
# GULP energy per Si atom -5588.842148 kJ/mol
# Density = 2.075959 g / cm^3
# Si number density = 20.806944 Si / 1000 Ang^3
#
#
#
# Elastic Constant Matrix: (Units=GPa)
#
#
# Indices 1 2 3 4 5 6 
#
# 1 60.4927 20.7494 16.4814 -10.0234 4.0215 -13.2197
# 2 20.7494 81.4959 22.5017 -15.9389 -6.2409 -26.1133
# 3 16.4814 22.5017 75.6385 -6.6067 -3.4826 4.9601
# 4 -10.0234 -15.9389 -6.6067 43.1600 -3.6844 5.1654
# 5 4.0215 -6.2409 -3.4826 -3.6844 25.7861 -3.9755
# 6 -13.2197 -26.1133 4.9601 5.1654 -3.9755 27.9786
#
#
#
# Elastic Compliance Matrix: (Units=1/GPa)
#
#
# Indices 1 2 3 4 5 6 
#
# 1 0.020640 -0.000667 -0.004785 0.002522 -0.002249 0.009192
# 2 -0.000667 0.023902 -0.007611 0.005469 0.009289 0.023652
# 3 -0.004785 -0.007611 0.017336 0.000179 -0.000666 -0.012565
# 4 0.002522 0.005469 0.000179 0.025968 0.005001 0.002181
# 5 -0.002249 0.009289 -0.000666 0.005001 0.044017 0.013056
# 6 0.009192 0.023652 -0.012565 0.002181 0.013056 0.065840
#
#
# Mechanical properties :
#
#
# Convention : Reuss Voigt Hill
#
# Bulk Modulus (GPa) = 27.97052 37.45467 32.71259
# Shear Modulus (GPa) = 21.20923 29.91124 25.56024
#
# Velocity S-wave (km/s) = 3.19617 3.79563 3.50872
# Velocity P-wave (km/s) = 5.20506 6.10321 5.67194
#
# Compressibility (1/GPa) = 0.03575193
#
# Stress axis : x y z
#
# Youngs Moduli (GPa) = 48.45019 41.83834 57.68208
#
# Poissons Ratio (x) = 0.02792 0.27600
# Poissons Ratio (y) = 0.03234 0.43900
# Poissons Ratio (z) = 0.23183 0.31842
#
# Static dielectric constant tensor:
#      x y z
#    x 1.715100 0.006160 0.057520 
#    y 0.006160 1.757220 -0.044640 
#    z 0.057520 -0.044640 1.795170 
# 
# From -- ./inp_files/48805.got.cif
#   From: 2010.05.17/outbox.cif.g08.bks.cpg/sg2_25_cif.got.tgz:48805.got - 2010.06.03 11:33:40.
