data_PCOD9047004
_publ_section_title
;
Structure prediction by ZEFSAII (Michael W. Deem and Ramdas Pophale) SiO2 
 PCOD9047004
Probable space group: P -1
;
_chemical_formula_sum "Si O2"
_cell_formula_units_Z 14
_cell_length_a 9.116652
_cell_length_b 9.492166
_cell_length_c 9.840215
_cell_angle_alpha 71.031227
_cell_angle_beta 83.605894
_cell_angle_gamma 43.372062
_cell_volume 542.698498
_symmetry_space_group_name_H-M "P -1"
_symmetry_group_IT_number 2
_symmetry_cell_setting 'triclinic'
loop_
_space_group_symop_operation_xyz
x,y,z
-x,-y,-z
loop_
_atom_site_type_symbol
_atom_site_label
_atom_site_fract_x
_atom_site_fract_y
_atom_site_fract_z
Si Si1 0.914879 0.009589 0.188496
Si Si2 0.008642 0.652245 0.099139
Si Si3 0.305880 0.956582 0.155662
Si Si4 0.970106 0.618458 0.601596
Si Si5 0.478872 0.271763 0.067142
Si Si6 0.624388 0.081479 0.386882
Si Si7 0.413365 0.397373 0.540656
O O1 0.971263 0.817760 0.157037
O O2 0.836941 0.025059 0.343072
O O3 0.112687 0.975359 0.169042
O O4 0.681885 0.234910 0.081351
O O5 0.239422 0.498754 0.052495
O O6 0.004954 0.505119 0.232951
O O7 0.825367 0.800017 0.954340
O O8 0.433982 0.827350 0.318973
O O9 0.480285 0.808177 0.064147
O O10 0.178257 0.570824 0.580328
O O11 0.000000 0.500000 0.500000
O O12 0.735662 0.868929 0.528078
O O13 0.538982 0.109765 0.234162
O O14 0.442945 0.311377 0.411999
O O15 0.500000 0.500000 0.500000
#
# Coordination Sequence:
#
# PCOD9047004 Si02
#       7
#     2   2   2   2   2   2   2
#     4   9  21  39  66 102 140 175 237 288 333 417
#     4  11  22  40  69 104 135 182 235 289 347 414
#     4  11  24  43  66 104 146 180 238 294 348 426
#     4  12  24  46  75 104 145 187 238 293 349 426
#     4   9  21  39  69 101 131 185 234 281 344 407
#     4  10  24  43  70 104 138 184 244 281 347 427
#     4  12  30  48  71 103 148 190 229 298 368 410
#
# _framework density 25.797011999999999
#
# number of rings (size 3 to 8) (size 9 to 14) (size 15 to 20)
#    0.857    0.571    1.429    3.429    2.000   12.000 
#    0.000    1.429    0.000    0.000    0.000    0.000 
#    0.000    0.000    0.000    0.000    0.000    0.000 
#
# Total GULP energy -78262.738812 kJ/mol
# GULP energy per Si atom -5590.195629 kJ/mol
# Density = 2.573830 g / cm^3
# Si number density = 25.797012 Si / 1000 Ang^3
#
#
#
# Elastic Constant Matrix: (Units=GPa)
#
#
# Indices 1 2 3 4 5 6 
#
# 1 80.7119 22.7171 8.0827 5.2637 -23.6767 -16.4730
# 2 22.7171 142.2583 26.5073 10.9346 -2.5841 -29.8061
# 3 8.0827 26.5073 127.4675 -4.4156 -7.2026 4.3914
# 4 5.2637 10.9346 -4.4156 43.4279 -8.3110 2.0047
# 5 -23.6767 -2.5841 -7.2026 -8.3110 38.7285 -1.6515
# 6 -16.4730 -29.8061 4.3914 2.0047 -1.6515 41.1314
#
#
#
# Elastic Compliance Matrix: (Units=1/GPa)
#
#
# Indices 1 2 3 4 5 6 
#
# 1 0.017210 -0.001067 -0.000503 -0.000143 0.010607 0.006606
# 2 -0.001067 0.009198 -0.002216 -0.002866 -0.000785 0.006583
# 3 -0.000503 -0.002216 0.008579 0.001892 0.001429 -0.002758
# 4 -0.000143 -0.002866 0.001892 0.025131 0.005323 -0.003347
# 5 0.010607 -0.000785 0.001429 0.005323 0.033859 0.004627
# 6 0.006606 0.006583 -0.002758 -0.003347 0.004627 0.032372
#
#
# Mechanical properties :
#
#
# Convention : Reuss Voigt Hill
#
# Bulk Modulus (GPa) = 36.47405 51.67243 44.07324
# Shear Modulus (GPa) = 34.95121 44.19959 39.57540
#
# Velocity S-wave (km/s) = 3.68483 4.14377 3.92102
# Velocity P-wave (km/s) = 5.68098 6.55502 6.13359
#
# Compressibility (1/GPa) = 0.02741675
#
# Stress axis : x y z
#
# Youngs Moduli (GPa) = 58.10725 108.72039 116.56378
#
# Poissons Ratio (x) = 0.11598 0.05858
# Poissons Ratio (y) = 0.06199 0.25825
# Poissons Ratio (z) = 0.02920 0.24087
#
# Static dielectric constant tensor:
#      x y z
#    x 2.152210 -0.028870 -0.029700 
#    y -0.028870 1.992150 -0.046530 
#    z -0.029700 -0.046530 2.049010 
# 
# From -- ./inp_files/427769.got.cif
#   From: 2010.05.17/outbox.cif.g08.bks.cpg/sg2_214_cif.got.tgz:427769.got - 2010.06.03 11:33:40.
