data_PCOD9047112
_publ_section_title
;
Structure prediction by ZEFSAII (Michael W. Deem and Ramdas Pophale) SiO2 
 PCOD9047112
Probable space group: P -1
;
_chemical_formula_sum "Si O2"
_cell_formula_units_Z 16
_cell_length_a 15.788718
_cell_length_b 11.572919
_cell_length_c 7.536004
_cell_angle_alpha 78.607965
_cell_angle_beta 55.813782
_cell_angle_gamma 39.766073
_cell_volume 653.233385
_symmetry_space_group_name_H-M "P -1"
_symmetry_group_IT_number 2
_symmetry_cell_setting 'triclinic'
loop_
_space_group_symop_operation_xyz
x,y,z
-x,-y,-z
loop_
_atom_site_type_symbol
_atom_site_label
_atom_site_fract_x
_atom_site_fract_y
_atom_site_fract_z
Si Si1 0.511685 0.232876 0.801497
Si Si2 0.054847 0.560874 0.791399
Si Si3 0.361109 0.786693 0.842553
Si Si4 0.792903 0.318649 0.818419
Si Si5 0.164965 0.943260 0.670403
Si Si6 0.717090 0.908597 0.923241
Si Si7 0.777068 0.366022 0.409815
Si Si8 0.375345 0.207071 0.670999
O O1 0.678762 0.162921 0.613413
O O2 0.598122 0.038813 0.854054
O O3 0.450816 0.247000 0.675114
O O4 0.350726 0.450118 0.019286
O O5 0.101081 0.641863 0.808019
O O6 0.256824 0.343204 0.594688
O O7 0.929362 0.707531 0.732030
O O8 0.000000 0.500000 0.000000
O O9 0.234456 0.923445 0.782179
O O10 0.565195 0.574622 0.615781
O O11 0.291801 0.731647 0.033726
O O12 0.338764 0.926124 0.942068
O O13 0.832340 0.295305 0.570751
O O14 0.976308 0.157187 0.756444
O O15 0.176770 0.791416 0.708986
O O16 0.696655 0.804155 0.078556
O O17 0.500000 0.000000 0.500000
#
# Coordination Sequence:
#
# PCOD9047112 Si02
#       8
#     2   2   2   2   2   2   2   2
#     4  12  25  46  70 102 144 180 232 286 347 421
#     4  10  24  43  72 100 133 182 237 287 339 411
#     4  12  24  43  71 101 144 179 231 285 345 418
#     4  12  26  43  69 108 141 185 226 284 355 413
#     4  12  26  41  69 106 143 182 232 282 348 419
#     4  11  23  45  67  98 135 182 228 286 344 405
#     4  12  22  44  69 100 145 185 228 285 352 410
#     4  11  25  46  71  96 133 182 234 288 348 405
#
# _framework density 24.493545000000001
#
# number of rings (size 3 to 8) (size 9 to 14) (size 15 to 20)
#    0.000    0.500    2.500    6.375    3.500    0.000 
#    2.250    0.625    0.000    0.000    0.000    0.000 
#    0.000    0.000    0.000    0.000    0.000    0.000 
#
# Total GULP energy -89234.956702 kJ/mol
# GULP energy per Si atom -5577.184794 kJ/mol
# Density = 2.443780 g / cm^3
# Si number density = 24.493545 Si / 1000 Ang^3
#
#
#
# Elastic Constant Matrix: (Units=GPa)
#
#
# Indices 1 2 3 4 5 6 
#
# 1 74.7978 18.4078 28.5844 -4.4524 -11.4097 -14.8582
# 2 18.4078 121.0257 19.9366 12.1883 -7.6838 -32.1531
# 3 28.5844 19.9366 48.7228 -3.9239 -16.5954 -7.9500
# 4 -4.4524 12.1883 -3.9239 43.7099 9.1931 -9.8046
# 5 -11.4097 -7.6838 -16.5954 9.1931 40.7223 -8.7361
# 6 -14.8582 -32.1531 -7.9500 -9.8046 -8.7361 51.6239
#
#
#
# Elastic Compliance Matrix: (Units=1/GPa)
#
#
# Indices 1 2 3 4 5 6 
#
# 1 0.018134 -0.000146 -0.009080 0.001649 0.001917 0.004367
# 2 -0.000146 0.010810 -0.002521 -0.002442 0.002880 0.006326
# 3 -0.009080 -0.002521 0.030680 0.001013 0.009767 0.002386
# 4 0.001649 -0.002442 0.001013 0.025509 -0.004665 0.003165
# 5 0.001917 0.002880 0.009767 -0.004665 0.032485 0.008461
# 6 0.004367 0.006326 0.002386 0.003165 0.008461 0.026968
#
#
# Mechanical properties :
#
#
# Convention : Reuss Voigt Hill
#
# Bulk Modulus (GPa) = 27.67876 42.04485 34.86181
# Shear Modulus (GPa) = 27.75860 39.05239 33.40549
#
# Velocity S-wave (km/s) = 3.37011 3.99732 3.69704
# Velocity P-wave (km/s) = 5.14475 6.20546 5.69983
#
# Compressibility (1/GPa) = 0.03612878
#
# Stress axis : x y z
#
# Youngs Moduli (GPa) = 55.14614 92.51053 32.59404
#
# Poissons Ratio (x) = 0.01354 0.29596
# Poissons Ratio (y) = 0.00807 0.08217
# Poissons Ratio (z) = 0.50073 0.23321
#
# Static dielectric constant tensor:
#      x y z
#    x 2.033530 0.057800 -0.130740 
#    y 0.057800 2.067600 -0.035080 
#    z -0.130740 -0.035080 1.949910 
# 
# From -- ./inp_files/307273.got.cif
#   From: 2010.05.17/outbox.cif.g08.bks.cpg/sg2_154_cif.got.tgz:307273.got - 2010.06.03 11:33:40.
