data_PCOD9047642
_publ_section_title
;
Structure prediction by ZEFSAII (Michael W. Deem and Ramdas Pophale) SiO2 
 PCOD9047642
Probable space group: P -1
;
_chemical_formula_sum "Si O2"
_cell_formula_units_Z 12
_cell_length_a 9.683297
_cell_length_b 12.957224
_cell_length_c 9.908566
_cell_angle_alpha 110.432686
_cell_angle_beta 85.214978
_cell_angle_gamma 150.352330
_cell_volume 507.252450
_symmetry_space_group_name_H-M "P -1"
_symmetry_group_IT_number 2
_symmetry_cell_setting 'triclinic'
loop_
_space_group_symop_operation_xyz
x,y,z
-x,-y,-z
loop_
_atom_site_type_symbol
_atom_site_label
_atom_site_fract_x
_atom_site_fract_y
_atom_site_fract_z
Si Si1 0.416934 0.564955 0.009808
Si Si2 0.979790 0.131251 0.310172
Si Si3 0.520349 0.972000 0.335584
Si Si4 0.693036 0.291508 0.327376
Si Si5 0.624218 0.488635 0.325609
Si Si6 0.981303 0.556492 0.888499
O O1 0.120311 0.393762 0.045432
O O2 0.500000 0.500000 0.000000
O O3 0.337687 0.517527 0.835869
O O4 0.722583 0.856556 0.161019
O O5 0.301007 0.326571 0.297000
O O6 0.099991 0.238817 0.504683
O O7 0.816694 0.133688 0.300871
O O8 0.436746 0.022871 0.284436
O O9 0.500000 0.000000 0.500000
O O10 0.333176 0.726413 0.268013
O O11 0.612264 0.362850 0.349597
O O12 0.000000 0.500000 0.500000
O O13 0.762244 0.293226 0.172781
O O14 0.000000 0.500000 0.000000
#
# Coordination Sequence:
#
# PCOD9047642 Si02
#       6
#     2   2   2   2   2   2
#     4  11  26  44  68 100 144 180 229 294 346 416
#     4  10  24  44  68  99 135 180 233 283 346 417
#     4  11  23  43  70  99 137 177 229 289 337 414
#     4  12  23  43  74 101 136 185 231 286 350 413
#     4  11  23  46  69 101 140 181 233 287 350 421
#     4  11  24  44  66 103 138 176 235 283 347 417
#
# _framework density 23.656860999999999
#
# number of rings (size 3 to 8) (size 9 to 14) (size 15 to 20)
#    0.000    1.000    5.000    0.500    2.333    2.667 
#    0.000    0.000    0.000    0.000    0.000    0.000 
#    0.000    0.000    0.000    0.000    0.000    0.000 
#
# Total GULP energy -66805.209807 kJ/mol
# GULP energy per Si atom -5567.100817 kJ/mol
# Density = 2.360302 g / cm^3
# Si number density = 23.656861 Si / 1000 Ang^3
#
#
#
# Elastic Constant Matrix: (Units=GPa)
#
#
# Indices 1 2 3 4 5 6 
#
# 1 128.2573 15.8423 36.6510 -8.9486 -30.8128 -11.6775
# 2 15.8423 50.5813 32.7534 -11.9304 -9.6697 -5.9203
# 3 36.6510 32.7534 133.4581 5.5868 -28.6956 4.0201
# 4 -8.9486 -11.9304 5.5868 46.0580 1.3304 -0.9790
# 5 -30.8128 -9.6697 -28.6956 1.3304 39.3642 -4.4731
# 6 -11.6775 -5.9203 4.0201 -0.9790 -4.4731 36.3288
#
#
#
# Elastic Compliance Matrix: (Units=1/GPa)
#
#
# Indices 1 2 3 4 5 6 
#
# 1 0.010638 0.000197 -0.001545 0.002181 0.007702 0.004629
# 2 0.000197 0.027012 -0.006693 0.007902 0.002291 0.005701
# 3 -0.001545 -0.006693 0.010831 -0.003538 0.004903 -0.002277
# 4 0.002181 0.007902 -0.003538 0.024661 0.000590 0.003118
# 5 0.007702 0.002291 0.004903 0.000590 0.036321 0.006795
# 6 0.004629 0.005701 -0.002277 0.003118 0.006795 0.031116
#
#
# Mechanical properties :
#
#
# Convention : Reuss Voigt Hill
#
# Bulk Modulus (GPa) = 30.86542 53.64335 42.25438
# Shear Modulus (GPa) = 29.85793 39.48687 34.67240
#
# Velocity S-wave (km/s) = 3.55649 4.08996 3.83252
# Velocity P-wave (km/s) = 5.47178 6.71033 6.12245
#
# Compressibility (1/GPa) = 0.03239872
#
# Stress axis : x y z
#
# Youngs Moduli (GPa) = 94.00429 37.02096 92.32990
#
# Poissons Ratio (x) = -0.00729 0.14261
# Poissons Ratio (y) = -0.01852 0.61799
# Poissons Ratio (z) = 0.14519 0.24779
#
# Static dielectric constant tensor:
#      x y z
#    x 1.857730 0.058320 0.088630 
#    y 0.058320 1.987880 0.044830 
#    z 0.088630 0.044830 1.976690 
# 
# From -- ./inp_files/189331.got.cif
#   From: 2010.05.17/outbox.cif.g08.bks.cpg/sg2_95_cif.got.tgz:189331.got - 2010.06.03 11:33:40.
