data_PCOD9047702
_publ_section_title
;
Structure prediction by ZEFSAII (Michael W. Deem and Ramdas Pophale) SiO2 
 PCOD9047702
Probable space group: P -1
;
_chemical_formula_sum "Si O2"
_cell_formula_units_Z 14
_cell_length_a 8.732340
_cell_length_b 8.635675
_cell_length_c 11.493728
_cell_angle_alpha 67.475631
_cell_angle_beta 65.286825
_cell_angle_gamma 53.288845
_cell_volume 620.549258
_symmetry_space_group_name_H-M "P -1"
_symmetry_group_IT_number 2
_symmetry_cell_setting 'triclinic'
loop_
_space_group_symop_operation_xyz
x,y,z
-x,-y,-z
loop_
_atom_site_type_symbol
_atom_site_label
_atom_site_fract_x
_atom_site_fract_y
_atom_site_fract_z
Si Si1 0.016253 0.030846 0.816703
Si Si2 0.138958 0.539043 0.588702
Si Si3 0.203400 0.519962 0.299194
Si Si4 0.425422 0.782023 0.861920
Si Si5 0.409275 0.865763 0.090638
Si Si6 0.185606 0.872698 0.560719
Si Si7 0.472390 0.151205 0.690119
O O1 0.911370 0.267183 0.787534
O O2 0.828866 0.004657 0.874325
O O3 0.188436 0.888056 0.891778
O O4 0.134035 0.964364 0.677054
O O5 0.186143 0.553272 0.434424
O O6 0.205609 0.662132 0.608475
O O7 0.266388 0.317546 0.655972
O O8 0.913031 0.594475 0.654929
O O9 0.426968 0.391933 0.219999
O O10 0.466362 0.956976 0.770914
O O11 0.475693 0.724627 0.997965
O O12 0.475901 0.784141 0.222566
O O13 0.500000 0.000000 0.000000
O O14 0.367820 0.874568 0.447099
O O15 0.000000 0.000000 0.500000
#
# Coordination Sequence:
#
# PCOD9047702 Si02
#       7
#     2   2   2   2   2   2   2
#     4  12  24  45  70  99 132 175 221 274 336 391
#     4  11  23  40  65 104 136 171 220 271 337 398
#     4  11  24  41  68 100 136 171 218 278 331 395
#     4  11  25  44  68  96 134 182 223 270 326 391
#     4  10  24  44  69  93 133 178 224 275 322 389
#     4  12  22  38  68  97 136 172 210 274 336 390
#     4  11  22  42  68 100 135 175 221 272 334 390
#
# _framework density 22.560656000000002
#
# number of rings (size 3 to 8) (size 9 to 14) (size 15 to 20)
#    0.000    0.857    4.286    2.571    4.000    2.857 
#    0.000    2.143    0.000    0.000    0.000    0.000 
#    0.000    0.000    0.000    0.000    0.000    0.000 
#
# Total GULP energy -78281.912138 kJ/mol
# GULP energy per Si atom -5591.565153 kJ/mol
# Density = 2.250931 g / cm^3
# Si number density = 22.560656 Si / 1000 Ang^3
#
#
#
# Elastic Constant Matrix: (Units=GPa)
#
#
# Indices 1 2 3 4 5 6 
#
# 1 90.6925 15.5096 21.8897 -1.2445 -24.6662 -17.0632
# 2 15.5096 78.0835 22.2250 -1.5606 -18.6795 -9.9615
# 3 21.8897 22.2250 85.6180 2.4671 -11.7009 -3.5649
# 4 -1.2445 -1.5606 2.4671 25.3643 -1.5846 -7.3985
# 5 -24.6662 -18.6795 -11.7009 -1.5846 40.5273 -2.4295
# 6 -17.0632 -9.9615 -3.5649 -7.3985 -2.4295 34.0076
#
#
#
# Elastic Compliance Matrix: (Units=1/GPa)
#
#
# Indices 1 2 3 4 5 6 
#
# 1 0.016300 0.001483 -0.002823 0.004776 0.010582 0.010112
# 2 0.001483 0.016291 -0.003353 0.003815 0.007986 0.006565
# 3 -0.002823 -0.003353 0.013329 -0.002027 0.000421 -0.001412
# 4 0.004776 0.003815 -0.002027 0.044426 0.006623 0.013439
# 5 0.010582 0.007986 0.000421 0.006623 0.035878 0.011697
# 6 0.010112 0.006565 -0.001412 0.013439 0.011697 0.040013
#
#
# Mechanical properties :
#
#
# Convention : Reuss Voigt Hill
#
# Bulk Modulus (GPa) = 27.37197 41.51586 34.44392
# Shear Modulus (GPa) = 26.62402 32.96449 29.79426
#
# Velocity S-wave (km/s) = 3.43900 3.82665 3.63799
# Velocity P-wave (km/s) = 5.28468 6.16167 5.73995
#
# Compressibility (1/GPa) = 0.03653372
#
# Stress axis : x y z
#
# Youngs Moduli (GPa) = 61.34927 61.38437 75.02431
#
# Poissons Ratio (x) = -0.09102 0.21177
# Poissons Ratio (y) = -0.09096 0.25157
# Poissons Ratio (z) = 0.17317 0.20583
#
# Static dielectric constant tensor:
#      x y z
#    x 1.944200 0.084960 -0.031480 
#    y 0.084960 1.893970 -0.029370 
#    z -0.031480 -0.029370 1.885640 
# 
# From -- ./inp_files/168951.got.cif
#   From: 2010.05.17/outbox.cif.g08.bks.cpg/sg2_85_cif.got.tgz:168951.got - 2010.06.03 11:33:40.
