data_PCOD9047074
_publ_section_title
;
Structure prediction by ZEFSAII (Michael W. Deem and Ramdas Pophale) SiO2 
 PCOD9047074
Probable space group: P -1
;
_chemical_formula_sum "Si O2"
_cell_formula_units_Z 14
_cell_length_a 16.474872
_cell_length_b 9.180384
_cell_length_c 8.827302
_cell_angle_alpha 129.861107
_cell_angle_beta 57.031643
_cell_angle_gamma 137.423066
_cell_volume 686.633873
_symmetry_space_group_name_H-M "P -1"
_symmetry_group_IT_number 2
_symmetry_cell_setting 'triclinic'
loop_
_space_group_symop_operation_xyz
x,y,z
-x,-y,-z
loop_
_atom_site_type_symbol
_atom_site_label
_atom_site_fract_x
_atom_site_fract_y
_atom_site_fract_z
Si Si1 0.546572 0.428407 0.539882
Si Si2 0.886400 0.253908 0.880237
Si Si3 0.307832 0.000209 0.658822
Si Si4 0.747736 0.375787 0.301066
Si Si5 0.078500 0.759363 0.517925
Si Si6 0.639266 0.657429 0.904834
Si Si7 0.873372 0.791481 0.663946
O O1 0.500000 0.500000 0.500000
O O2 0.435215 0.188349 0.573043
O O3 0.641468 0.385124 0.358931
O O4 0.614960 0.638842 0.736515
O O5 0.888870 0.257768 0.698801
O O6 0.884555 0.029701 0.780239
O O7 0.780988 0.258844 0.064325
O O8 0.000000 0.500000 0.000000
O O9 0.293165 0.780830 0.608469
O O10 0.199347 0.919751 0.601227
O O11 0.302392 0.128347 0.895439
O O12 0.853170 0.642907 0.431994
O O13 0.000000 0.500000 0.500000
O O14 0.991149 0.840682 0.655045
O O15 0.745585 0.622526 0.773122
O O16 0.500000 0.500000 0.000000
#
# Coordination Sequence:
#
# PCOD9047074 Si02
#       7
#     2   2   2   2   2   2   2
#     4  10  24  43  71 105 136 178 236 287 342 411
#     4  12  25  45  69 100 136 187 233 280 346 410
#     4  11  22  44  69  98 143 183 222 286 341 410
#     4  11  23  46  70  98 140 183 225 287 354 403
#     4  12  26  45  65 105 141 176 240 281 341 421
#     4   9  21  43  68  98 134 176 226 275 347 405
#     4  11  23  44  73  98 141 184 228 289 343 409
#
# _framework density 20.389322
#
# number of rings (size 3 to 8) (size 9 to 14) (size 15 to 20)
#    0.000    1.143    4.286    0.857    4.000    0.571 
#    5.143    1.429    0.000    0.000    0.000    0.000 
#    0.000    0.000    0.000    0.000    0.000    0.000 
#
# Total GULP energy -77981.003662 kJ/mol
# GULP energy per Si atom -5570.071690 kJ/mol
# Density = 2.034292 g / cm^3
# Si number density = 20.389322 Si / 1000 Ang^3
#
#
#
# Elastic Constant Matrix: (Units=GPa)
#
#
# Indices 1 2 3 4 5 6 
#
# 1 148.4416 37.8470 44.8216 5.9728 -2.1017 -2.8128
# 2 37.8470 73.0190 46.0545 3.0415 -1.6467 -8.2132
# 3 44.8216 46.0545 115.7120 16.3012 -7.8332 -14.9879
# 4 5.9728 3.0415 16.3012 37.3875 7.4302 0.4845
# 5 -2.1017 -1.6467 -7.8332 7.4302 36.5346 7.7257
# 6 -2.8128 -8.2132 -14.9879 0.4845 7.7257 34.7590
#
#
#
# Elastic Compliance Matrix: (Units=1/GPa)
#
#
# Indices 1 2 3 4 5 6 
#
# 1 0.008111 -0.003022 -0.002029 -0.000180 0.000135 -0.000960
# 2 -0.003022 0.019641 -0.006826 0.002149 -0.001564 0.001771
# 3 -0.002029 -0.006826 0.013596 -0.005670 0.002900 0.003520
# 4 -0.000180 0.002149 -0.005670 0.030508 -0.007168 -0.000784
# 5 0.000135 -0.001564 0.002900 -0.007168 0.030617 -0.005813
# 6 -0.000960 0.001771 0.003520 -0.000784 -0.005813 0.031931
#
#
# Mechanical properties :
#
#
# Convention : Reuss Voigt Hill
#
# Bulk Modulus (GPa) = 56.83687 66.06873 61.45280
# Shear Modulus (GPa) = 30.48373 35.63285 33.05829
#
# Velocity S-wave (km/s) = 3.87083 4.18499 4.03097
# Velocity P-wave (km/s) = 6.92200 7.47169 7.20209
#
# Compressibility (1/GPa) = 0.01759421
#
# Stress axis : x y z
#
# Youngs Moduli (GPa) = 123.29479 50.91401 73.55122
#
# Poissons Ratio (x) = 0.15384 0.14923
# Poissons Ratio (y) = 0.37255 0.50207
# Poissons Ratio (z) = 0.25016 0.34754
#
# Static dielectric constant tensor:
#      x y z
#    x 1.672170 0.077930 -0.025690 
#    y 0.077930 1.809480 0.005370 
#    z -0.025690 0.005370 1.738220 
# 
# From -- ./inp_files/296646.got.cif
#   From: 2010.05.17/outbox.cif.g08.bks.cpg/sg2_149_cif.got.tgz:296646.got - 2010.06.03 11:33:40.
