data_PCOD9047713
_publ_section_title
;
Structure prediction by ZEFSAII (Michael W. Deem and Ramdas Pophale) SiO2 
 PCOD9047713
Probable space group: P -1
;
_chemical_formula_sum "Si O2"
_cell_formula_units_Z 16
_cell_length_a 18.817598
_cell_length_b 5.983557
_cell_length_c 11.851633
_cell_angle_alpha 102.597030
_cell_angle_beta 150.009100
_cell_angle_gamma 78.028598
_cell_volume 650.513812
_symmetry_space_group_name_H-M "P -1"
_symmetry_group_IT_number 2
_symmetry_cell_setting 'triclinic'
loop_
_space_group_symop_operation_xyz
x,y,z
-x,-y,-z
loop_
_atom_site_type_symbol
_atom_site_label
_atom_site_fract_x
_atom_site_fract_y
_atom_site_fract_z
Si Si1 0.746154 0.270305 0.186826
Si Si2 0.613572 0.118834 0.587946
Si Si3 0.121927 0.184340 0.166122
Si Si4 0.922505 0.995002 0.560033
Si Si5 0.498536 0.066347 0.189626
Si Si6 0.825626 0.345988 0.070233
Si Si7 0.653406 0.713634 0.203294
Si Si8 0.029210 0.580702 0.217693
O O1 0.770370 0.416053 0.124320
O O2 0.676503 0.439506 0.203832
O O3 0.887524 0.141992 0.415437
O O4 0.640258 0.074318 0.986064
O O5 0.500000 0.000000 0.500000
O O6 0.734088 0.939327 0.688011
O O7 0.545309 0.194782 0.381857
O O8 0.701830 0.292939 0.805169
O O9 0.121446 0.354158 0.290358
O O10 0.077451 0.354703 0.022531
O O11 0.000000 0.000000 0.000000
O O12 0.805696 0.806546 0.385877
O O13 0.075512 0.883925 0.791611
O O14 0.886593 0.191252 0.625086
O O15 0.602583 0.864646 0.257434
O O16 0.456338 0.224487 0.042728
O O17 0.930676 0.524372 0.181315
#
# Coordination Sequence:
#
# PCOD9047713 Si02
#       8
#     2   2   2   2   2   2   2   2
#     4  11  24  44  69  98 139 187 234 288 360 423
#     4  12  25  46  72 101 149 191 224 292 365 426
#     4  11  24  45  72 102 143 182 240 298 346 431
#     4  11  24  42  71 101 137 178 236 302 356 410
#     4  10  24  44  69  96 140 183 231 294 348 429
#     4  12  25  45  66 107 143 178 238 295 359 431
#     4  10  24  46  68 103 132 183 242 291 351 422
#     4  11  24  42  71 106 134 185 235 297 361 417
#
# _framework density 24.595941
#
# number of rings (size 3 to 8) (size 9 to 14) (size 15 to 20)
#    0.000    1.000    3.750    1.500    5.250    5.000 
#    2.250    1.250    0.000    0.000    0.000    0.000 
#    0.000    0.000    0.000    0.000    0.000    0.000 
#
# Total GULP energy -89441.154982 kJ/mol
# GULP energy per Si atom -5590.072186 kJ/mol
# Density = 2.453996 g / cm^3
# Si number density = 24.595941 Si / 1000 Ang^3
#
#
#
# Elastic Constant Matrix: (Units=GPa)
#
#
# Indices 1 2 3 4 5 6 
#
# 1 114.2925 11.3595 31.4209 1.0485 -4.6664 8.8392
# 2 11.3595 63.8343 25.2502 8.6962 7.0538 -2.7176
# 3 31.4209 25.2502 124.6561 9.6407 -17.2610 -0.4751
# 4 1.0485 8.6962 9.6407 37.8821 0.9236 -6.0994
# 5 -4.6664 7.0538 -17.2610 0.9236 43.7905 -5.7558
# 6 8.8392 -2.7176 -0.4751 -6.0994 -5.7558 36.5936
#
#
#
# Elastic Compliance Matrix: (Units=1/GPa)
#
#
# Indices 1 2 3 4 5 6 
#
# 1 0.009650 -0.000938 -0.002267 0.000138 -0.000034 -0.002412
# 2 -0.000938 0.018272 -0.003846 -0.003028 -0.004452 0.000329
# 3 -0.002267 -0.003846 0.010125 -0.001607 0.004512 0.000835
# 4 0.000138 -0.003028 -0.001607 0.028210 -0.000147 0.004400
# 5 -0.000034 -0.004452 0.004512 -0.000147 0.025827 0.003774
# 6 -0.002412 0.000329 0.000835 0.004400 0.003774 0.029272
#
#
# Mechanical properties :
#
#
# Convention : Reuss Voigt Hill
#
# Bulk Modulus (GPa) = 41.76203 48.76045 45.26124
# Shear Modulus (GPa) = 34.85787 39.30340 37.08064
#
# Velocity S-wave (km/s) = 3.76868 4.00179 3.88698
# Velocity P-wave (km/s) = 5.99612 6.42028 6.21182
#
# Compressibility (1/GPa) = 0.02394519
#
# Stress axis : x y z
#
# Youngs Moduli (GPa) = 103.62859 54.72780 98.76820
#
# Poissons Ratio (x) = 0.05135 0.22389
# Poissons Ratio (y) = 0.09723 0.37984
# Poissons Ratio (z) = 0.23491 0.21047
#
# Static dielectric constant tensor:
#      x y z
#    x 1.983750 0.026020 -0.094600 
#    y 0.026020 0.790180 0.941240 
#    z -0.094600 0.941240 1.129150 
# 
# From -- ./inp_files/468418.got.cif
#   From: 2010.05.17/outbox.cif.g08.bks.cpg/sg2_235_cif.got.tgz:468418.got - 2010.06.03 11:33:40.
