data_PCOD9047403
_publ_section_title
;
Structure prediction by ZEFSAII (Michael W. Deem and Ramdas Pophale) SiO2 
 PCOD9047403
Probable space group: P -1
;
_chemical_formula_sum "Si O2"
_cell_formula_units_Z 14
_cell_length_a 21.667029
_cell_length_b 8.611541
_cell_length_c 5.527317
_cell_angle_alpha 73.542322
_cell_angle_beta 123.016522
_cell_angle_gamma 140.053412
_cell_volume 537.665736
_symmetry_space_group_name_H-M "P -1"
_symmetry_group_IT_number 2
_symmetry_cell_setting 'triclinic'
loop_
_space_group_symop_operation_xyz
x,y,z
-x,-y,-z
loop_
_atom_site_type_symbol
_atom_site_label
_atom_site_fract_x
_atom_site_fract_y
_atom_site_fract_z
Si Si1 0.959871 0.663932 0.609256
Si Si2 0.287641 0.906022 0.039023
Si Si3 0.482667 0.645925 0.500182
Si Si4 0.091128 0.097367 0.350667
Si Si5 0.572449 0.136299 0.848950
Si Si6 0.846357 0.203101 0.790394
Si Si7 0.692338 0.733995 0.375925
O O1 0.902927 0.736291 0.536120
O O2 0.874024 0.368657 0.551139
O O3 0.035654 0.845373 0.466286
O O4 0.049961 0.743665 0.959524
O O5 0.325455 0.821425 0.981889
O O6 0.178338 0.727017 0.058391
O O7 0.392543 0.071340 0.379470
O O8 0.303537 0.112926 0.872971
O O9 0.500000 0.500000 0.500000
O O10 0.394409 0.618244 0.194427
O O11 0.431813 0.541537 0.708160
O O12 0.216881 0.255257 0.477090
O O13 0.000000 0.000000 0.000000
O O14 0.500000 0.000000 0.500000
O O15 0.500000 0.000000 0.000000
O O16 0.741691 0.912066 0.636537
#
# Coordination Sequence:
#
# PCOD9047403 Si02
#       7
#     2   2   2   2   2   2   2
#     4  10  24  44  66  94 139 173 226 291 345 413
#     4  11  24  44  68  99 141 180 229 284 346 427
#     4  11  23  44  70  99 138 180 226 289 346 417
#     4  11  23  43  66  98 133 177 227 287 345 412
#     4  10  24  45  67  97 138 185 234 288 347 412
#     4  11  23  43  67 100 132 180 227 282 351 420
#     4  12  24  41  67 101 133 181 231 277 352 414
#
# _framework density 26.038481999999998
#
# number of rings (size 3 to 8) (size 9 to 14) (size 15 to 20)
#    0.000    1.143    4.286    1.286    4.000    2.857 
#    0.000    0.000    0.000    0.000    0.000    0.000 
#    0.000    0.000    0.000    0.000    0.000    0.000 
#
# Total GULP energy -78162.865162 kJ/mol
# GULP energy per Si atom -5583.061797 kJ/mol
# Density = 2.597922 g / cm^3
# Si number density = 26.038482 Si / 1000 Ang^3
#
#
#
# Elastic Constant Matrix: (Units=GPa)
#
#
# Indices 1 2 3 4 5 6 
#
# 1 191.2543 19.9376 24.1574 -5.2136 28.1006 12.9736
# 2 19.9376 85.8209 7.8692 -25.5782 4.2932 5.5194
# 3 24.1574 7.8692 81.3144 -18.8925 17.8258 3.2414
# 4 -5.2136 -25.5782 -18.8925 45.1258 -1.1221 1.8136
# 5 28.1006 4.2932 17.8258 -1.1221 46.4990 -5.8884
# 6 12.9736 5.5194 3.2414 1.8136 -5.8884 39.3264
#
#
#
# Elastic Compliance Matrix: (Units=1/GPa)
#
#
# Indices 1 2 3 4 5 6 
#
# 1 0.006129 -0.001101 -0.000912 -0.000293 -0.003553 -0.002311
# 2 -0.001101 0.014622 0.001330 0.008782 -0.001286 -0.002396
# 3 -0.000912 0.001330 0.015397 0.007049 -0.005598 -0.002318
# 4 -0.000293 0.008782 0.007049 0.030122 -0.003060 -0.003564
# 5 -0.003553 -0.001286 -0.005598 -0.003060 0.026596 0.005937
# 6 -0.002311 -0.002396 -0.002318 -0.003564 0.005937 0.027771
#
#
# Mechanical properties :
#
#
# Convention : Reuss Voigt Hill
#
# Bulk Modulus (GPa) = 28.75012 51.36866 40.05939
# Shear Modulus (GPa) = 37.42567 46.61859 42.02213
#
# Velocity S-wave (km/s) = 3.79532 4.23587 4.02163
# Velocity P-wave (km/s) = 5.50193 6.61016 6.08135
#
# Compressibility (1/GPa) = 0.03478246
#
# Stress axis : x y z
#
# Youngs Moduli (GPa) = 163.14961 68.39067 64.94604
#
# Poissons Ratio (x) = 0.07533 0.05920
# Poissons Ratio (y) = 0.17970 -0.08637
# Poissons Ratio (z) = 0.14872 -0.09095
#
# Static dielectric constant tensor:
#      x y z
#    x 2.116350 -0.074220 -0.049950 
#    y -0.074220 2.177140 0.133630 
#    z -0.049950 0.133630 2.191790 
# 
# From -- ./inp_files/34286.got.cif
#   From: 2010.05.17/outbox.cif.g08.bks.cpg/sg2_18_cif.got.tgz:34286.got - 2010.06.03 11:33:40.
