data_PCOD9047892
_publ_section_title
;
Structure prediction by ZEFSAII (Michael W. Deem and Ramdas Pophale) SiO2 
 PCOD9047892
Probable space group: P -1
;
_chemical_formula_sum "Si O2"
_cell_formula_units_Z 14
_cell_length_a 9.104905
_cell_length_b 15.303377
_cell_length_c 16.254782
_cell_angle_alpha 38.318221
_cell_angle_beta 29.832779
_cell_angle_gamma 34.827925
_cell_volume 622.180863
_symmetry_space_group_name_H-M "P -1"
_symmetry_group_IT_number 2
_symmetry_cell_setting 'triclinic'
loop_
_space_group_symop_operation_xyz
x,y,z
-x,-y,-z
loop_
_atom_site_type_symbol
_atom_site_label
_atom_site_fract_x
_atom_site_fract_y
_atom_site_fract_z
Si Si1 0.771077 0.706494 0.921884
Si Si2 0.622351 0.028683 0.670793
Si Si3 0.771686 0.229781 0.729751
Si Si4 0.715252 0.697718 0.237035
Si Si5 0.772147 0.413662 0.066654
Si Si6 0.144808 0.387400 0.348073
Si Si7 0.387442 0.956115 0.672512
O O1 0.637318 0.873483 0.821059
O O2 0.079995 0.677575 0.852238
O O3 0.505745 0.697410 0.120334
O O4 0.838538 0.566595 0.928754
O O5 0.471337 0.036857 0.648484
O O6 0.400483 0.178415 0.724016
O O7 0.000000 0.000000 0.500000
O O8 0.595126 0.247522 0.714507
O O9 0.989608 0.322792 0.542271
O O10 0.992677 0.047316 0.784178
O O11 0.853604 0.523251 0.337700
O O12 0.013193 0.685971 0.041695
O O13 0.392265 0.454568 0.210353
O O14 0.391051 0.232141 0.290870
O O15 0.500000 0.000000 0.500000
#
# Coordination Sequence:
#
# PCOD9047892 Si02
#       7
#     2   2   2   2   2   2   2
#     4  10  25  45  68 102 149 182 240 287 354 414
#     4  12  27  44  74 103 141 182 240 292 353 422
#     4  10  24  44  72 102 144 192 231 293 348 407
#     4  11  25  44  71 108 139 187 237 289 354 410
#     4  10  24  44  71 104 144 193 228 295 348 415
#     4  11  23  43  75  99 146 184 243 279 352 420
#     4  10  24  45  69 102 138 181 230 291 349 415
#
# _framework density 22.501497000000001
#
# number of rings (size 3 to 8) (size 9 to 14) (size 15 to 20)
#    0.000    1.429    0.000    3.429   10.000    5.714 
#    0.000    0.000    0.000    0.000    0.000    0.000 
#    0.000    0.000    0.000    0.000    0.000    0.000 
#
# Total GULP energy -78234.079523 kJ/mol
# GULP energy per Si atom -5588.148537 kJ/mol
# Density = 2.245028 g / cm^3
# Si number density = 22.501497 Si / 1000 Ang^3
#
#
#
# Elastic Constant Matrix: (Units=GPa)
#
#
# Indices 1 2 3 4 5 6 
#
# 1 131.0939 73.5427 44.4342 1.1383 18.6012 -6.8058
# 2 73.5427 158.9091 26.8620 0.7738 15.2279 -4.2279
# 3 44.4342 26.8620 75.5353 1.5109 2.7603 7.0370
# 4 1.1383 0.7738 1.5109 27.5517 -5.1032 7.2711
# 5 18.6012 15.2279 2.7603 -5.1032 27.8407 7.3091
# 6 -6.8058 -4.2279 7.0370 7.2711 7.3091 40.2257
#
#
#
# Elastic Compliance Matrix: (Units=1/GPa)
#
#
# Indices 1 2 3 4 5 6 
#
# 1 0.013722 -0.004312 -0.006655 -0.002882 -0.007992 0.005006
# 2 -0.004312 0.008596 -0.000502 -0.000620 -0.002082 0.000752
# 3 -0.006655 -0.000502 0.017632 0.001618 0.004689 -0.005408
# 4 -0.002882 -0.000620 0.001618 0.041452 0.012485 -0.010597
# 5 -0.007992 -0.002082 0.004689 0.012485 0.047717 -0.013318
# 6 0.005006 0.000752 -0.005408 -0.010597 -0.013318 0.031067
#
#
# Mechanical properties :
#
#
# Convention : Reuss Voigt Hill
#
# Bulk Modulus (GPa) = 58.78278 72.80178 65.79228
# Shear Modulus (GPa) = 26.48367 33.83692 30.16029
#
# Velocity S-wave (km/s) = 3.43443 3.88205 3.66508
# Velocity P-wave (km/s) = 6.47362 7.24694 6.87117
#
# Compressibility (1/GPa) = 0.01701179
#
# Stress axis : x y z
#
# Youngs Moduli (GPa) = 72.87552 116.33303 56.71435
#
# Poissons Ratio (x) = 0.50168 0.37744
# Poissons Ratio (y) = 0.31427 0.02845
# Poissons Ratio (z) = 0.48499 0.05836
#
# Static dielectric constant tensor:
#      x y z
#    x 1.839490 -0.012500 -0.024070 
#    y -0.012500 2.033110 0.061040 
#    z -0.024070 0.061040 1.847810 
# 
# From -- ./inp_files/505196.got.cif
#   From: 2010.05.17/outbox.cif.g08.bks.cpg/sg2_253_cif.got.tgz:505196.got - 2010.06.03 11:33:40.
