data_PCOD9047529
_publ_section_title
;
Structure prediction by ZEFSAII (Michael W. Deem and Ramdas Pophale) SiO2 
 PCOD9047529
Probable space group: P -1
;
_chemical_formula_sum "Si O2"
_cell_formula_units_Z 14
_cell_length_a 10.554216
_cell_length_b 11.384113
_cell_length_c 4.944305
_cell_angle_alpha 85.400089
_cell_angle_beta 62.711875
_cell_angle_gamma 72.880952
_cell_volume 503.508293
_symmetry_space_group_name_H-M "P -1"
_symmetry_group_IT_number 2
_symmetry_cell_setting 'triclinic'
loop_
_space_group_symop_operation_xyz
x,y,z
-x,-y,-z
loop_
_atom_site_type_symbol
_atom_site_label
_atom_site_fract_x
_atom_site_fract_y
_atom_site_fract_z
Si Si1 0.835791 0.084562 0.225800
Si Si2 0.442196 0.786999 0.917479
Si Si3 0.644164 0.922723 0.536524
Si Si4 0.190960 0.286366 0.005313
Si Si5 0.006327 0.370478 0.657825
Si Si6 0.375273 0.433611 0.595406
Si Si7 0.228043 0.679838 0.425016
O O1 0.710195 0.136486 0.104112
O O2 0.858237 0.201279 0.341589
O O3 0.749114 0.006031 0.504259
O O4 0.000000 0.000000 0.000000
O O5 0.559058 0.863023 0.856161
O O6 0.544731 0.683157 0.642931
O O7 0.381773 0.712529 0.215551
O O8 0.734357 0.831455 0.230210
O O9 0.500000 0.000000 0.500000
O O10 0.062203 0.358736 0.908759
O O11 0.296286 0.376033 0.912996
O O12 0.124386 0.273625 0.364106
O O13 0.000000 0.500000 0.500000
O O14 0.855359 0.334068 0.767051
O O15 0.500000 0.500000 0.500000
O O16 0.252856 0.546970 0.556810
#
# Coordination Sequence:
#
# PCOD9047529 Si02
#       7
#     2   2   2   2   2   2   2
#     4  11  24  45  70  98 140 188 246 300 354 431
#     4  10  24  44  68 101 139 181 240 299 370 431
#     4   9  22  49  70 102 143 191 247 301 365 434
#     4  11  26  49  72 108 148 196 239 305 368 440
#     4  12  27  45  73 108 152 191 239 299 378 438
#     4  11  23  43  74 102 142 183 240 303 368 441
#     4  12  26  41  73 105 139 190 241 302 366 443
#
# _framework density 27.804902999999999
#
# number of rings (size 3 to 8) (size 9 to 14) (size 15 to 20)
#    0.000    1.143    2.857    1.714    6.000    3.429 
#    5.143    0.000    0.000    0.000    0.000    0.000 
#    0.000    0.000    0.000    0.000    0.000    0.000 
#
# Total GULP energy -78422.310630 kJ/mol
# GULP energy per Si atom -5601.593616 kJ/mol
# Density = 2.774162 g / cm^3
# Si number density = 27.804903 Si / 1000 Ang^3
#
#
#
# Elastic Constant Matrix: (Units=GPa)
#
#
# Indices 1 2 3 4 5 6 
#
# 1 143.9140 42.8173 27.7881 5.5075 -14.4904 17.1689
# 2 42.8173 118.2833 29.3913 -0.5646 -18.0611 0.4056
# 3 27.7881 29.3913 107.7337 -0.3956 -14.7749 -6.2473
# 4 5.5075 -0.5646 -0.3956 60.5570 5.9529 -17.7539
# 5 -14.4904 -18.0611 -14.7749 5.9529 50.8994 -2.0040
# 6 17.1689 0.4056 -6.2473 -17.7539 -2.0040 47.1362
#
#
#
# Elastic Compliance Matrix: (Units=1/GPa)
#
#
# Indices 1 2 3 4 5 6 
#
# 1 0.008723 -0.002566 -0.001635 -0.002157 0.001188 -0.004134
# 2 -0.002566 0.010176 -0.001739 0.000331 0.002370 0.000842
# 3 -0.001635 -0.001739 0.010593 0.000697 0.002004 0.002362
# 4 -0.002157 0.000331 0.000697 0.019296 -0.002234 0.008048
# 5 0.001188 0.002370 0.002004 -0.002234 0.021664 -0.000108
# 6 -0.004134 0.000842 0.002362 0.008048 -0.000108 0.026053
#
#
# Mechanical properties :
#
#
# Convention : Reuss Voigt Hill
#
# Bulk Modulus (GPa) = 56.78102 63.32492 60.05297
# Shear Modulus (GPa) = 43.76145 49.71414 46.73779
#
# Velocity S-wave (km/s) = 3.97151 4.23302 4.10435
# Velocity P-wave (km/s) = 6.44175 6.83487 6.64122
#
# Compressibility (1/GPa) = 0.01761152
#
# Stress axis : x y z
#
# Youngs Moduli (GPa) = 114.63984 98.27112 94.40584
#
# Poissons Ratio (x) = 0.25219 0.15431
# Poissons Ratio (y) = 0.29419 0.16419
# Poissons Ratio (z) = 0.18739 0.17091
#
# Static dielectric constant tensor:
#      x y z
#    x 2.038820 -0.570610 0.137570 
#    y -0.570610 0.859810 0.521250 
#    z 0.137570 0.521250 1.961830 
# 
# From -- ./inp_files/70228.got.cif
#   From: 2010.05.17/outbox.cif.g08.bks.cpg/sg2_36_cif.got.tgz:70228.got - 2010.06.03 11:33:40.
