data_PCOD9047238
_publ_section_title
;
Structure prediction by ZEFSAII (Michael W. Deem and Ramdas Pophale) SiO2 
 PCOD9047238
Probable space group: P -1
;
_chemical_formula_sum "Si O2"
_cell_formula_units_Z 13
_cell_length_a 8.289133
_cell_length_b 10.952102
_cell_length_c 9.433621
_cell_angle_alpha 121.103953
_cell_angle_beta 88.291976
_cell_angle_gamma 127.358769
_cell_volume 529.816296
_symmetry_space_group_name_H-M "P -1"
_symmetry_group_IT_number 2
_symmetry_cell_setting 'triclinic'
loop_
_space_group_symop_operation_xyz
x,y,z
-x,-y,-z
loop_
_atom_site_type_symbol
_atom_site_label
_atom_site_fract_x
_atom_site_fract_y
_atom_site_fract_z
Si Si1 0.660168 0.670534 0.482869
Si Si2 0.819790 0.244583 0.191821
Si Si3 0.819008 0.265660 0.877731
Si Si4 0.899649 0.997384 0.148940
Si Si5 0.119540 0.194547 0.711872
Si Si6 0.500000 0.000000 0.500000
Si Si7 0.706395 0.336426 0.512108
O O1 0.500000 0.500000 0.500000
O O2 0.886120 0.828168 0.658163
O O3 0.712415 0.634843 0.306305
O O4 0.530583 0.738290 0.490062
O O5 0.716285 0.305090 0.327617
O O6 0.770867 0.060126 0.145684
O O7 0.087119 0.438777 0.315879
O O8 0.761493 0.211576 0.010380
O O9 0.937464 0.195591 0.771463
O O10 0.600166 0.150767 0.721541
O O11 0.000000 0.500000 0.000000
O O12 0.783409 0.815924 0.152417
O O13 0.000000 0.000000 0.000000
O O14 0.000000 0.000000 0.500000
O O15 0.292250 0.809141 0.489262
#
# Coordination Sequence:
#
# PCOD9047238 Si02
#       7
#     2   2   2   2   2   1   2
#     4  11  24  43  68 100 140 185 241 291 368 437
#     4  11  25  46  72 101 148 192 240 309 378 430
#     4  12  26  48  74 111 149 195 247 310 373 444
#     4  11  22  44  67  98 138 187 236 295 365 431
#     4  10  24  43  75  99 147 196 242 302 372 433
#     4  12  26  44  74 104 150 190 246 300 368 444
#     4  11  26  45  70 107 143 193 243 305 368 442
#
# _framework density 24.536808000000001
#
# number of rings (size 3 to 8) (size 9 to 14) (size 15 to 20)
#    0.000    0.923    4.615    1.846    8.615    0.615 
#    0.000    3.077    0.000    0.000    0.000    0.000 
#    0.000    0.000    0.000    0.000    0.000    0.000 
#
# Total GULP energy -72443.494401 kJ/mol
# GULP energy per Si atom -5572.576492 kJ/mol
# Density = 2.448096 g / cm^3
# Si number density = 24.536808 Si / 1000 Ang^3
#
#
#
# Elastic Constant Matrix: (Units=GPa)
#
#
# Indices 1 2 3 4 5 6 
#
# 1 29.7538 1.9185 9.0009 2.3721 -0.6134 6.1630
# 2 1.9185 126.5211 46.0438 -34.3567 9.4926 -4.4042
# 3 9.0009 46.0438 143.1173 -39.0286 6.4323 -6.5626
# 4 2.3721 -34.3567 -39.0286 60.6900 -1.0406 -3.1049
# 5 -0.6134 9.4926 6.4323 -1.0406 29.5497 -8.9548
# 6 6.1630 -4.4042 -6.5626 -3.1049 -8.9548 28.6151
#
#
#
# Elastic Compliance Matrix: (Units=1/GPa)
#
#
# Indices 1 2 3 4 5 6 
#
# 1 0.037239 -0.000739 -0.003828 -0.004869 -0.001347 -0.009962
# 2 -0.000739 0.010016 -0.001775 0.004571 -0.002368 0.001049
# 3 -0.003828 -0.001775 0.009425 0.005360 -0.000413 0.003165
# 4 -0.004869 0.004571 0.005360 0.022972 -0.000297 0.005381
# 5 -0.001347 -0.002368 -0.000413 -0.000297 0.038217 0.011758
# 6 -0.009962 0.001049 0.003165 0.005381 0.011758 0.042243
#
#
# Mechanical properties :
#
#
# Convention : Reuss Voigt Hill
#
# Bulk Modulus (GPa) = 22.72997 45.92431 34.32714
# Shear Modulus (GPa) = 26.67216 39.93288 33.30252
#
# Velocity S-wave (km/s) = 3.30059 4.03857 3.68808
# Velocity P-wave (km/s) = 4.87943 6.36426 5.67066
#
# Compressibility (1/GPa) = 0.04399477
#
# Stress axis : x y z
#
# Youngs Moduli (GPa) = 26.85379 99.83682 106.10553
#
# Poissons Ratio (x) = 0.07381 0.40618
# Poissons Ratio (y) = 0.01985 0.18834
# Poissons Ratio (z) = 0.10280 0.17721
#
# Static dielectric constant tensor:
#      x y z
#    x 1.743240 -0.378110 0.172650 
#    y -0.378110 1.813480 0.129810 
#    z 0.172650 0.129810 1.807770 
# 
# From -- ./inp_files/152912.got.cif
#   From: 2010.05.17/outbox.cif.g08.bks.cpg/sg2_77_cif.got.tgz:152912.got - 2010.06.03 11:33:40.
