data_PCOD9047426
_publ_section_title
;
Structure prediction by ZEFSAII (Michael W. Deem and Ramdas Pophale) SiO2 
 PCOD9047426
Probable space group: P -1
;
_chemical_formula_sum "Si O2"
_cell_formula_units_Z 14
_cell_length_a 18.028876
_cell_length_b 9.047742
_cell_length_c 12.141445
_cell_angle_alpha 37.334159
_cell_angle_beta 31.192492
_cell_angle_gamma 51.604181
_cell_volume 610.972229
_symmetry_space_group_name_H-M "P -1"
_symmetry_group_IT_number 2
_symmetry_cell_setting 'triclinic'
loop_
_space_group_symop_operation_xyz
x,y,z
-x,-y,-z
loop_
_atom_site_type_symbol
_atom_site_label
_atom_site_fract_x
_atom_site_fract_y
_atom_site_fract_z
Si Si1 0.080958 0.193976 0.870316
Si Si2 0.455597 0.709184 0.508016
Si Si3 0.657151 0.987046 0.257579
Si Si4 0.503074 0.868605 0.954739
Si Si5 0.962010 0.990330 0.373719
Si Si6 0.835916 0.236826 0.591782
Si Si7 0.280092 0.489137 0.067054
O O1 0.088816 0.477149 0.659078
O O2 0.244067 0.143977 0.711619
O O3 0.000000 0.000000 0.000000
O O4 0.007778 0.136460 0.117134
O O5 0.500000 0.500000 0.500000
O O6 0.603975 0.822433 0.317538
O O7 0.327357 0.597775 0.821110
O O8 0.416132 0.926581 0.354233
O O9 0.500000 0.000000 0.500000
O O10 0.734288 0.275340 0.979264
O O11 0.337501 0.788625 0.172570
O O12 0.585688 0.639711 0.991364
O O13 0.500000 0.000000 0.000000
O O14 0.858847 0.728184 0.631949
O O15 0.099675 0.929695 0.302259
O O16 0.878004 0.139858 0.476224
#
# Coordination Sequence:
#
# PCOD9047426 Si02
#       7
#     2   2   2   2   2   2   2
#     4  12  27  46  70 100 140 188 229 279 347 413
#     4  11  22  40  69  98 135 174 222 285 339 396
#     4  10  24  44  66  99 135 178 226 280 343 400
#     4  12  23  41  71 105 128 176 227 281 342 401
#     4  11  25  45  69 100 138 181 231 281 347 408
#     4  11  24  45  69 100 138 178 230 288 341 406
#     4  11  24  44  66 100 139 172 230 282 336 410
#
# _framework density 22.914300000000001
#
# number of rings (size 3 to 8) (size 9 to 14) (size 15 to 20)
#    0.000    0.857    2.857    3.857    0.000    8.571 
#    0.000    0.000    0.000    0.000    0.000    0.000 
#    0.000    0.000    0.000    0.000    0.000    0.000 
#
# Total GULP energy -78416.661285 kJ/mol
# GULP energy per Si atom -5601.190092 kJ/mol
# Density = 2.286215 g / cm^3
# Si number density = 22.914300 Si / 1000 Ang^3
#
#
#
# Elastic Constant Matrix: (Units=GPa)
#
#
# Indices 1 2 3 4 5 6 
#
# 1 83.4767 9.9717 2.0896 2.8220 -1.0677 5.3354
# 2 9.9717 89.1791 -5.2194 -14.2377 -0.3455 13.0960
# 3 2.0896 -5.2194 86.8888 -2.6398 7.3378 -3.1519
# 4 2.8220 -14.2377 -2.6398 39.5866 -2.8231 -7.9698
# 5 -1.0677 -0.3455 7.3378 -2.8231 46.0886 -12.8987
# 6 5.3354 13.0960 -3.1519 -7.9698 -12.8987 47.7341
#
#
#
# Elastic Compliance Matrix: (Units=1/GPa)
#
#
# Indices 1 2 3 4 5 6 
#
# 1 0.012310 -0.001485 -0.000475 -0.001718 -0.000125 -0.001320
# 2 -0.001485 0.012470 0.000860 0.004068 -0.000577 -0.002675
# 3 -0.000475 0.000860 0.011761 0.001066 -0.001726 0.000305
# 4 -0.001718 0.004068 0.001066 0.028044 0.002824 0.004592
# 5 -0.000125 -0.000577 -0.001726 0.002824 0.024110 0.007045
# 6 -0.001320 -0.002675 0.000305 0.004592 0.007045 0.024521
#
#
# Mechanical properties :
#
#
# Convention : Reuss Voigt Hill
#
# Bulk Modulus (GPa) = 29.11945 30.35870 29.73907
# Shear Modulus (GPa) = 39.41299 43.52873 41.47086
#
# Velocity S-wave (km/s) = 4.15181 4.36320 4.25882
# Velocity P-wave (km/s) = 5.97653 6.21779 6.09836
#
# Compressibility (1/GPa) = 0.03434131
#
# Stress axis : x y z
#
# Youngs Moduli (GPa) = 81.23776 80.19299 85.02464
#
# Poissons Ratio (x) = 0.11909 0.04037
# Poissons Ratio (y) = 0.12064 -0.07313
# Poissons Ratio (z) = 0.03857 -0.06897
#
# Static dielectric constant tensor:
#      x y z
#    x 1.861030 0.012380 0.018970 
#    y 0.012380 1.845640 -0.006020 
#    z 0.018970 -0.006020 1.923050 
# 
# From -- ./inp_files/461771.got.cif
#   From: 2010.05.17/outbox.cif.g08.bks.cpg/sg2_231_cif.got.tgz:461771.got - 2010.06.03 11:33:40.
