data_PCOD9047765
_publ_section_title
;
Structure prediction by ZEFSAII (Michael W. Deem and Ramdas Pophale) SiO2 
 PCOD9047765
Probable space group: P -1
;
_chemical_formula_sum "Si O2"
_cell_formula_units_Z 14
_cell_length_a 12.318474
_cell_length_b 9.149265
_cell_length_c 18.483736
_cell_angle_alpha 139.512246
_cell_angle_beta 152.348809
_cell_angle_gamma 35.553589
_cell_volume 555.978328
_symmetry_space_group_name_H-M "P -1"
_symmetry_group_IT_number 2
_symmetry_cell_setting 'triclinic'
loop_
_space_group_symop_operation_xyz
x,y,z
-x,-y,-z
loop_
_atom_site_type_symbol
_atom_site_label
_atom_site_fract_x
_atom_site_fract_y
_atom_site_fract_z
Si Si1 0.500000 0.000000 0.000000
Si Si2 0.574113 0.954419 0.769939
Si Si3 0.897811 0.771110 0.504296
Si Si4 0.951610 0.562760 0.200680
Si Si5 0.726286 0.318981 0.443361
Si Si6 0.685406 0.127620 0.638780
Si Si7 0.500000 0.500000 0.000000
Si Si8 0.201027 0.924131 0.922046
O O1 0.239492 0.224873 0.887898
O O2 0.323411 0.050879 0.989360
O O3 0.391603 0.869622 0.677533
O O4 0.835571 0.699611 0.809253
O O5 0.400157 0.101197 0.654348
O O6 0.649019 0.133718 0.932131
O O7 0.000000 0.500000 0.500000
O O8 0.088351 0.754693 0.545121
O O9 0.884739 0.964123 0.631531
O O10 0.766168 0.503001 0.121020
O O11 0.124817 0.651469 0.387221
O O12 0.486902 0.590901 0.384119
O O13 0.890619 0.088013 0.808754
O O14 0.500000 0.000000 0.500000
O O15 0.682554 0.370727 0.137527
#
# Coordination Sequence:
#
# PCOD9047765 Si02
#       8
#     1   2   2   2   2   2   1   2
#     4  10  24  44  70 102 148 184 240 298 372 428
#     4  12  28  49  75 112 152 199 248 310 384 446
#     4  12  27  46  79 113 150 199 256 304 376 451
#     4  11  24  49  74 108 150 198 245 312 375 441
#     4  12  26  50  78 109 156 196 253 312 377 449
#     4  12  26  49  77 111 148 198 253 315 369 444
#     4  10  24  46  70  98 152 192 240 306 370 436
#     4  11  27  46  71 108 148 192 246 309 373 442
#
# _framework density 25.180837
#
# number of rings (size 3 to 8) (size 9 to 14) (size 15 to 20)
#    0.000    0.571    2.857    4.286    6.000    2.857 
#    5.143    0.000    0.000    0.000    0.000    0.000 
#    0.000    0.000    0.000    0.000    0.000    0.000 
#
# Total GULP energy -78051.948723 kJ/mol
# GULP energy per Si atom -5575.139194 kJ/mol
# Density = 2.512352 g / cm^3
# Si number density = 25.180837 Si / 1000 Ang^3
#
#
#
# Elastic Constant Matrix: (Units=GPa)
#
#
# Indices 1 2 3 4 5 6 
#
# 1 76.4914 17.6646 38.0677 2.1322 5.3678 -8.2640
# 2 17.6646 146.2215 76.0706 -35.6102 4.3890 -3.0324
# 3 38.0677 76.0706 139.8596 -31.6995 7.7221 19.9363
# 4 2.1322 -35.6102 -31.6995 59.3419 0.0343 2.3817
# 5 5.3678 4.3890 7.7221 0.0343 27.1932 -7.5694
# 6 -8.2640 -3.0324 19.9363 2.3817 -7.5694 56.9867
#
#
#
# Elastic Compliance Matrix: (Units=1/GPa)
#
#
# Indices 1 2 3 4 5 6 
#
# 1 0.016793 0.000435 -0.006376 -0.003942 -0.000227 0.004824
# 2 0.000435 0.010442 -0.005435 0.003249 0.000448 0.002444
# 3 -0.006376 -0.005435 0.014111 0.004783 -0.003785 -0.006853
# 4 -0.003942 0.003249 0.004783 0.021629 -0.002036 -0.003246
# 5 -0.000227 0.000448 -0.003785 -0.002036 0.039681 0.006671
# 6 0.004824 0.002444 -0.006853 -0.003246 0.006671 0.021797
#
#
# Mechanical properties :
#
#
# Convention : Reuss Voigt Hill
#
# Bulk Modulus (GPa) = 53.77580 69.57536 61.67558
# Shear Modulus (GPa) = 32.59389 44.08898 38.34144
#
# Velocity S-wave (km/s) = 3.60167 4.18891 3.90634
# Velocity P-wave (km/s) = 6.22079 7.14746 6.70017
#
# Compressibility (1/GPa) = 0.01859572
#
# Stress axis : x y z
#
# Youngs Moduli (GPa) = 59.54904 95.76476 70.86449
#
# Poissons Ratio (x) = -0.04168 0.45183
# Poissons Ratio (y) = -0.02592 0.38513
# Poissons Ratio (z) = 0.37968 0.52046
#
# Static dielectric constant tensor:
#      x y z
#    x 1.909670 -0.068370 -0.068030 
#    y -0.068370 2.148630 0.028740 
#    z -0.068030 0.028740 2.089670 
# 
# From -- ./inp_files/185216.got.cif
#   From: 2010.05.17/outbox.cif.g08.bks.cpg/sg2_93_cif.got.tgz:185216.got - 2010.06.03 11:33:40.
