data_PCOD9047291
_publ_section_title
;
Structure prediction by ZEFSAII (Michael W. Deem and Ramdas Pophale) SiO2 
 PCOD9047291
Probable space group: P -1
;
_chemical_formula_sum "Si O2"
_cell_formula_units_Z 16
_cell_length_a 18.818792
_cell_length_b 12.763707
_cell_length_c 8.332486
_cell_angle_alpha 78.408136
_cell_angle_beta 129.709818
_cell_angle_gamma 141.921927
_cell_volume 732.391656
_symmetry_space_group_name_H-M "P -1"
_symmetry_group_IT_number 2
_symmetry_cell_setting 'triclinic'
loop_
_space_group_symop_operation_xyz
x,y,z
-x,-y,-z
loop_
_atom_site_type_symbol
_atom_site_label
_atom_site_fract_x
_atom_site_fract_y
_atom_site_fract_z
Si Si1 0.705708 0.672958 0.689657
Si Si2 0.882532 0.375614 0.704645
Si Si3 0.143645 0.497061 0.869086
Si Si4 0.793021 0.512195 0.402546
Si Si5 0.956690 0.099959 0.754196
Si Si6 0.532947 0.918923 0.487947
Si Si7 0.498657 0.682417 0.740226
Si Si8 0.111357 0.000509 0.673317
O O1 0.500000 0.500000 0.500000
O O2 0.660691 0.544964 0.519255
O O3 0.837635 0.750884 0.989401
O O4 0.821457 0.894073 0.733947
O O5 0.803802 0.413685 0.546546
O O6 0.024952 0.484483 0.734242
O O7 0.709533 0.119197 0.563591
O O8 0.000000 0.500000 0.000000
O O9 0.184411 0.499957 0.746400
O O10 0.010636 0.273089 0.828635
O O11 0.343206 0.703460 0.181991
O O12 0.601699 0.378655 0.222414
O O13 0.968748 0.768946 0.614393
O O14 0.864719 0.008610 0.474862
O O15 0.559488 0.847955 0.672335
O O16 0.500000 0.000000 0.500000
O O17 0.684569 0.799139 0.008812
O O18 0.000000 0.000000 0.500000
#
# Coordination Sequence:
#
# PCOD9047291 Si02
#       8
#     2   2   2   2   2   2   2   2
#     4  11  24  42  70  99 137 183 239 287 352 415
#     4  12  24  43  71 100 141 184 233 293 350 420
#     4  11  25  44  70 101 144 182 236 291 359 418
#     4  11  26  45  70 102 144 188 239 287 360 425
#     4  10  24  44  63  99 139 179 230 288 349 414
#     4  12  24  45  71 104 139 183 239 293 356 424
#     4  12  25  45  74 105 141 189 239 291 354 425
#     4  11  25  45  70 102 142 187 234 293 354 419
#
# _framework density 21.846233000000002
#
# number of rings (size 3 to 8) (size 9 to 14) (size 15 to 20)
#    0.000    0.750    3.750    2.625    1.750    7.500 
#    0.000    0.000    0.000    0.000    0.000    0.000 
#    0.000    0.000    0.000    0.000    0.000    0.000 
#
# Total GULP energy -89445.105612 kJ/mol
# GULP energy per Si atom -5590.319101 kJ/mol
# Density = 2.179651 g / cm^3
# Si number density = 21.846233 Si / 1000 Ang^3
#
#
#
# Elastic Constant Matrix: (Units=GPa)
#
#
# Indices 1 2 3 4 5 6 
#
# 1 102.1072 18.3971 31.0720 5.4251 13.8790 6.2577
# 2 18.3971 87.9919 27.1509 8.9162 0.9282 -8.3585
# 3 31.0720 27.1509 111.9593 7.4382 5.2290 -3.0217
# 4 5.4251 8.9162 7.4382 23.7776 -3.0653 -0.8275
# 5 13.8790 0.9282 5.2290 -3.0653 38.6238 7.4171
# 6 6.2577 -8.3585 -3.0217 -0.8275 7.4171 28.8456
#
#
#
# Elastic Compliance Matrix: (Units=1/GPa)
#
#
# Indices 1 2 3 4 5 6 
#
# 1 0.011592 -0.001636 -0.002609 -0.001744 -0.003445 -0.002426
# 2 -0.001636 0.013198 -0.002369 -0.003757 -0.000464 0.003943
# 3 -0.002609 -0.002369 0.010419 -0.001837 -0.000777 0.001118
# 4 -0.001744 -0.003757 -0.001837 0.045015 0.004695 -0.000819
# 5 -0.003445 -0.000464 -0.000777 0.004695 0.028918 -0.006769
# 6 -0.002426 0.003943 0.001118 -0.000819 -0.006769 0.038170
#
#
# Mechanical properties :
#
#
# Convention : Reuss Voigt Hill
#
# Bulk Modulus (GPa) = 45.49419 50.58870 48.04144
# Shear Modulus (GPa) = 29.78565 33.27863 31.53214
#
# Velocity S-wave (km/s) = 3.69646 3.90720 3.80329
# Velocity P-wave (km/s) = 6.25207 6.60014 6.42846
#
# Compressibility (1/GPa) = 0.02198083
#
# Stress axis : x y z
#
# Youngs Moduli (GPa) = 86.26631 75.77029 95.97983
#
# Poissons Ratio (x) = 0.12396 0.25042
# Poissons Ratio (y) = 0.14113 0.22736
# Poissons Ratio (z) = 0.22508 0.17949
#
# Static dielectric constant tensor:
#      x y z
#    x 1.881100 -0.015360 0.013670 
#    y -0.015360 1.814790 -0.010480 
#    z 0.013670 -0.010480 1.761960 
# 
# From -- ./inp_files/283306.got.cif
#   From: 2010.05.17/outbox.cif.g08.bks.cpg/sg2_142_cif.got.tgz:283306.got - 2010.06.03 11:33:40.
