data_PCOD9047817
_publ_section_title
;
Structure prediction by ZEFSAII (Michael W. Deem and Ramdas Pophale) SiO2 
 PCOD9047817
Probable space group: P -1
;
_chemical_formula_sum "Si O2"
_cell_formula_units_Z 16
_cell_length_a 14.864611
_cell_length_b 7.754678
_cell_length_c 14.931827
_cell_angle_alpha 99.992582
_cell_angle_beta 139.734450
_cell_angle_gamma 108.823797
_cell_volume 766.041721
_symmetry_space_group_name_H-M "P -1"
_symmetry_group_IT_number 2
_symmetry_cell_setting 'triclinic'
loop_
_space_group_symop_operation_xyz
x,y,z
-x,-y,-z
loop_
_atom_site_type_symbol
_atom_site_label
_atom_site_fract_x
_atom_site_fract_y
_atom_site_fract_z
Si Si1 0.894287 0.576223 0.469035
Si Si2 0.944355 0.718661 0.000346
Si Si3 0.921681 0.446760 0.791975
Si Si4 0.648172 0.726601 0.705132
Si Si5 0.276008 0.853465 0.986506
Si Si6 0.617308 0.224248 0.394182
Si Si7 0.270723 0.128909 0.863449
Si Si8 0.326757 0.557778 0.890109
O O1 0.767405 0.411080 0.445336
O O2 0.762750 0.538921 0.286168
O O3 0.000000 0.500000 0.500000
O O4 0.060391 0.863278 0.650419
O O5 0.971001 0.634269 0.103671
O O6 0.884134 0.524744 0.859672
O O7 0.769763 0.702979 0.859271
O O8 0.164298 0.998945 0.172271
O O9 0.733765 0.246584 0.568105
O O10 0.074490 0.698948 0.873208
O O11 0.500000 0.500000 0.500000
O O12 0.507167 0.726038 0.655296
O O13 0.449949 0.957308 0.195878
O O14 0.251875 0.671848 0.883835
O O15 0.327229 0.074592 0.991201
O O16 0.271207 0.338438 0.885943
O O17 0.436082 0.225378 0.924017
#
# Coordination Sequence:
#
# PCOD9047817 Si02
#       8
#     2   2   2   2   2   2   2   2
#     4  12  22  42  70  98 137 181 224 279 339 402
#     4  10  24  44  70  94 134 175 220 285 345 406
#     4  11  23  44  67  97 128 178 225 275 344 408
#     4  11  23  44  69 100 136 173 224 283 349 403
#     4  12  23  43  65  98 139 177 226 283 335 407
#     4  12  24  39  72  99 133 183 228 277 343 411
#     4  11  23  41  68  91 136 179 226 279 335 402
#     4  11  24  42  66  98 131 185 225 275 341 396
#
# _framework density 20.886590999999999
#
# number of rings (size 3 to 8) (size 9 to 14) (size 15 to 20)
#    0.000    0.750    6.250    1.500    0.000    2.500 
#    2.250    0.000    0.000    0.000    0.000    0.000 
#    0.000    0.000    0.000    0.000    0.000    0.000 
#
# Total GULP energy -89381.384111 kJ/mol
# GULP energy per Si atom -5586.336507 kJ/mol
# Density = 2.083905 g / cm^3
# Si number density = 20.886591 Si / 1000 Ang^3
#
#
#
# Elastic Constant Matrix: (Units=GPa)
#
#
# Indices 1 2 3 4 5 6 
#
# 1 66.9984 15.2333 20.3658 -11.7932 5.9533 7.0867
# 2 15.2333 78.0592 11.0283 -33.6444 0.1082 -3.5070
# 3 20.3658 11.0283 122.9263 -17.5304 -15.5237 6.1693
# 4 -11.7932 -33.6444 -17.5304 32.7615 0.6448 3.4455
# 5 5.9533 0.1082 -15.5237 0.6448 33.1872 -3.1557
# 6 7.0867 -3.5070 6.1693 3.4455 -3.1557 7.5075
#
#
#
# Elastic Compliance Matrix: (Units=1/GPa)
#
#
# Indices 1 2 3 4 5 6 
#
# 1 0.020420 -0.001613 -0.001806 0.007489 -0.007019 -0.024932
# 2 -0.001613 0.023363 0.001699 0.024298 0.000547 0.000118
# 3 -0.001806 0.001699 0.010230 0.007270 0.004253 -0.007457
# 4 0.007489 0.024298 0.007270 0.065558 -0.002414 -0.032794
# 5 -0.007019 0.000547 0.004253 -0.002414 0.035262 0.019316
# 6 -0.024932 0.000118 -0.007457 -0.032794 0.019316 0.186087
#
#
# Mechanical properties :
#
#
# Convention : Reuss Voigt Hill
#
# Bulk Modulus (GPa) = 19.77259 40.13763 29.95511
# Shear Modulus (GPa) = 13.84211 29.44834 21.64523
#
# Velocity S-wave (km/s) = 2.57714 3.75896 3.22269
# Velocity P-wave (km/s) = 4.28284 6.17239 5.31230
#
# Compressibility (1/GPa) = 0.05057505
#
# Stress axis : x y z
#
# Youngs Moduli (GPa) = 48.97105 42.80346 97.75501
#
# Poissons Ratio (x) = 0.06903 0.17650
# Poissons Ratio (y) = 0.07897 -0.16613
# Poissons Ratio (z) = 0.08842 -0.07274
#
# Static dielectric constant tensor:
#      x y z
#    x 1.762140 -0.006400 -0.001110 
#    y -0.006400 1.767370 -0.013190 
#    z -0.001110 -0.013190 1.771670 
# 
# From -- ./inp_files/529923.got.cif
#   From: 2010.05.17/outbox.cif.g08.bks.cpg/sg2_265_cif.got.tgz:529923.got - 2010.06.03 11:33:40.
