data_PCOD9047793
_publ_section_title
;
Structure prediction by ZEFSAII (Michael W. Deem and Ramdas Pophale) SiO2 
 PCOD9047793
Probable space group: P -1
;
_chemical_formula_sum "Si O2"
_cell_formula_units_Z 12
_cell_length_a 15.711317
_cell_length_b 22.270481
_cell_length_c 18.400701
_cell_angle_alpha 161.750996
_cell_angle_beta 22.984821
_cell_angle_gamma 165.028668
_cell_volume 520.453583
_symmetry_space_group_name_H-M "P -1"
_symmetry_group_IT_number 2
_symmetry_cell_setting 'triclinic'
loop_
_space_group_symop_operation_xyz
x,y,z
-x,-y,-z
loop_
_atom_site_type_symbol
_atom_site_label
_atom_site_fract_x
_atom_site_fract_y
_atom_site_fract_z
Si Si1 0.198226 0.059974 0.268004
Si Si2 0.938913 0.427675 0.141572
Si Si3 0.114828 0.783610 0.543019
Si Si4 0.264506 0.603639 0.470634
Si Si5 0.230987 0.201925 0.824132
Si Si6 0.158852 0.777961 0.240529
O O1 0.583563 0.271443 0.216649
O O2 0.087499 0.199976 0.539775
O O3 0.091517 0.951973 0.144532
O O4 0.035432 0.783829 0.127277
O O5 0.986514 0.523432 0.296432
O O6 0.190516 0.708583 0.216600
O O7 0.919017 0.653843 0.623466
O O8 0.500000 0.000000 0.500000
O O9 0.100182 0.959534 0.705685
O O10 0.547369 0.705862 0.314429
O O11 0.000000 0.500000 0.500000
O O12 0.475674 0.899147 0.690344
O O13 0.500000 0.500000 0.000000
O O14 0.000000 0.500000 0.000000
#
# Coordination Sequence:
#
# PCOD9047793 Si02
#       6
#     2   2   2   2   2   2
#     4  10  24  44  70 105 140 194 247 292 374 436
#     4  11  23  45  73  98 147 197 240 302 371 436
#     4  12  23  44  74 101 145 196 242 308 371 433
#     4  11  24  45  70 106 143 190 250 297 368 443
#     4  11  24  45  71 106 148 186 247 309 363 444
#     4  11  25  45  69 107 149 186 246 310 363 439
#
# _framework density 23.056809999999999
#
# number of rings (size 3 to 8) (size 9 to 14) (size 15 to 20)
#    0.000    1.000    5.000    1.500    4.667    1.333 
#    3.000    0.000    0.000    0.000    0.000    0.000 
#    0.000    0.000    0.000    0.000    0.000    0.000 
#
# Total GULP energy -66945.587240 kJ/mol
# GULP energy per Si atom -5578.798937 kJ/mol
# Density = 2.300433 g / cm^3
# Si number density = 23.056810 Si / 1000 Ang^3
#
#
#
# Elastic Constant Matrix: (Units=GPa)
#
#
# Indices 1 2 3 4 5 6 
#
# 1 134.2082 63.6451 51.1986 8.8185 -2.9947 5.3217
# 2 63.6451 93.5385 34.8487 24.9621 -5.3452 -20.6851
# 3 51.1986 34.8487 149.7292 12.8435 -3.2661 -0.1950
# 4 8.8185 24.9621 12.8435 32.2440 -3.4214 2.4181
# 5 -2.9947 -5.3452 -3.2661 -3.4214 51.0340 16.9455
# 6 5.3217 -20.6851 -0.1950 2.4181 16.9455 67.9643
#
#
#
# Elastic Compliance Matrix: (Units=1/GPa)
#
#
# Indices 1 2 3 4 5 6 
#
# 1 0.013392 -0.010845 -0.002567 0.006294 0.001557 -0.004969
# 2 -0.010845 0.024830 -0.000655 -0.016971 -0.002406 0.009608
# 3 -0.002567 -0.000655 0.007877 -0.001918 0.000137 0.000058
# 4 0.006294 -0.016971 -0.001918 0.044260 0.004186 -0.008282
# 5 0.001557 -0.002406 0.000137 0.004186 0.021867 -0.006455
# 6 -0.004969 0.009608 0.000058 -0.008282 -0.006455 0.019931
#
#
# Mechanical properties :
#
#
# Convention : Reuss Voigt Hill
#
# Bulk Modulus (GPa) = 55.66675 75.20672 65.43673
# Shear Modulus (GPa) = 30.07000 45.43405 37.75202
#
# Velocity S-wave (km/s) = 3.61525 4.44388 4.05081
# Velocity P-wave (km/s) = 6.45154 7.68242 7.09373
#
# Compressibility (1/GPa) = 0.01796405
#
# Stress axis : x y z
#
# Youngs Moduli (GPa) = 74.67347 40.27385 126.95707
#
# Poissons Ratio (x) = 0.43676 0.32596
# Poissons Ratio (y) = 0.80981 0.08316
# Poissons Ratio (z) = 0.19172 0.02638
#
# Static dielectric constant tensor:
#      x y z
#    x 1.926830 -0.007240 0.012180 
#    y -0.007240 2.026400 0.053060 
#    z 0.012180 0.053060 1.968950 
# 
# From -- ./inp_files/574335.got.cif
#   From: 2010.05.17/outbox.cif.g08.bks.cpg/sg2_288_cif.got.tgz:574335.got - 2010.06.03 11:33:40.
