data_PCOD9047054
_publ_section_title
;
Structure prediction by ZEFSAII (Michael W. Deem and Ramdas Pophale) SiO2 
 PCOD9047054
Probable space group: P -1
;
_chemical_formula_sum "Si O2"
_cell_formula_units_Z 14
_cell_length_a 11.881471
_cell_length_b 8.543547
_cell_length_c 9.157691
_cell_angle_alpha 105.363241
_cell_angle_beta 54.767794
_cell_angle_gamma 123.694735
_cell_volume 629.672686
_symmetry_space_group_name_H-M "P -1"
_symmetry_group_IT_number 2
_symmetry_cell_setting 'triclinic'
loop_
_space_group_symop_operation_xyz
x,y,z
-x,-y,-z
loop_
_atom_site_type_symbol
_atom_site_label
_atom_site_fract_x
_atom_site_fract_y
_atom_site_fract_z
Si Si1 0.438557 0.258693 0.817747
Si Si2 0.722833 0.484682 0.440807
Si Si3 0.847989 0.825904 0.642871
Si Si4 0.489060 0.187652 0.071471
Si Si5 0.000070 0.851904 0.847287
Si Si6 0.316145 0.901544 0.668591
Si Si7 0.259952 0.452245 0.880638
O O1 0.556400 0.357873 0.618325
O O2 0.329604 0.348119 0.900083
O O3 0.338893 0.031378 0.823424
O O4 0.528068 0.295176 0.912576
O O5 0.820180 0.643717 0.527299
O O6 0.758155 0.321669 0.325512
O O7 0.727404 0.581613 0.308158
O O8 0.684993 0.838405 0.763811
O O9 0.902820 0.827801 0.767463
O O10 0.000000 0.000000 0.500000
O O11 0.623586 0.327648 0.118964
O O12 0.500000 0.000000 0.000000
O O13 0.183679 0.922365 0.682525
O O14 0.920245 0.654522 0.949643
O O15 0.000000 0.000000 0.000000
O O16 0.500000 0.000000 0.500000
#
# Coordination Sequence:
#
# PCOD9047054 Si02
#       7
#     2   2   2   2   2   2   2
#     4  11  21  44  71  99 136 181 231 280 344 412
#     4  11  25  42  67 105 138 181 233 281 346 410
#     4  12  27  43  68  99 142 182 234 287 345 413
#     4  12  26  45  70 103 140 182 237 287 342 407
#     4  12  24  44  72 100 137 185 230 285 348 408
#     4  10  24  43  71 101 139 176 229 283 346 409
#     4  12  23  41  75  98 138 186 230 280 346 411
#
# _framework density 22.233772999999999
#
# number of rings (size 3 to 8) (size 9 to 14) (size 15 to 20)
#    0.000    0.571    4.286    3.429    0.000    5.714 
#    0.000    0.000    0.000    0.000    0.000    0.000 
#    0.000    0.000    0.000    0.000    0.000    0.000 
#
# Total GULP energy -78027.532646 kJ/mol
# GULP energy per Si atom -5573.395189 kJ/mol
# Density = 2.218317 g / cm^3
# Si number density = 22.233773 Si / 1000 Ang^3
#
#
#
# Elastic Constant Matrix: (Units=GPa)
#
#
# Indices 1 2 3 4 5 6 
#
# 1 97.9480 47.2055 58.7497 6.5335 0.6349 9.4130
# 2 47.2055 153.5595 49.9312 26.2274 -2.3620 16.0954
# 3 58.7497 49.9312 112.7675 -11.5391 14.7215 7.8344
# 4 6.5335 26.2274 -11.5391 49.8266 10.0989 4.4025
# 5 0.6349 -2.3620 14.7215 10.0989 44.3710 -2.0931
# 6 9.4130 16.0954 7.8344 4.4025 -2.0931 32.4795
#
#
#
# Elastic Compliance Matrix: (Units=1/GPa)
#
#
# Indices 1 2 3 4 5 6 
#
# 1 0.016492 -0.001329 -0.008793 -0.004098 0.003486 -0.001220
# 2 -0.001329 0.009843 -0.004636 -0.006585 0.003473 -0.002258
# 3 -0.008793 -0.004636 0.017618 0.009436 -0.008171 -0.001209
# 4 -0.004098 -0.006585 0.009436 0.028495 -0.010018 -0.002333
# 5 0.003486 0.003473 -0.008171 -0.010018 0.027776 0.002387
# 6 -0.001220 -0.002258 -0.001209 -0.002333 0.002387 0.033023
#
#
# Mechanical properties :
#
#
# Convention : Reuss Voigt Hill
#
# Bulk Modulus (GPa) = 69.27124 75.11642 72.19383
# Shear Modulus (GPa) = 29.83699 39.22799 34.53249
#
# Velocity S-wave (km/s) = 3.66726 4.20496 3.94528
# Velocity P-wave (km/s) = 7.01108 7.57851 7.30031
#
# Compressibility (1/GPa) = 0.01443601
#
# Stress axis : x y z
#
# Youngs Moduli (GPa) = 60.63399 101.59466 56.75985
#
# Poissons Ratio (x) = 0.13505 0.49911
# Poissons Ratio (y) = 0.08060 0.26315
# Poissons Ratio (z) = 0.53317 0.47101
#
# Static dielectric constant tensor:
#      x y z
#    x 1.840120 -0.011230 -0.062110 
#    y -0.011230 1.874990 -0.023320 
#    z -0.062110 -0.023320 1.885290 
# 
# From -- ./inp_files/244930.got.cif
#   From: 2010.05.17/outbox.cif.g08.bks.cpg/sg2_123_cif.got.tgz:244930.got - 2010.06.03 11:33:40.
