data_PCOD9047043
_publ_section_title
;
Structure prediction by ZEFSAII (Michael W. Deem and Ramdas Pophale) SiO2 
 PCOD9047043
Probable space group: P -1
;
_chemical_formula_sum "Si O2"
_cell_formula_units_Z 16
_cell_length_a 19.956825
_cell_length_b 8.124591
_cell_length_c 5.507989
_cell_angle_alpha 78.554554
_cell_angle_beta 102.621160
_cell_angle_gamma 134.493118
_cell_volume 620.346812
_symmetry_space_group_name_H-M "P -1"
_symmetry_group_IT_number 2
_symmetry_cell_setting 'triclinic'
loop_
_space_group_symop_operation_xyz
x,y,z
-x,-y,-z
loop_
_atom_site_type_symbol
_atom_site_label
_atom_site_fract_x
_atom_site_fract_y
_atom_site_fract_z
Si Si1 0.056444 0.185359 0.784047
Si Si2 0.484989 0.723504 0.994404
Si Si3 0.422500 0.301115 0.311584
Si Si4 0.236265 0.608307 0.316065
Si Si5 0.203946 0.914762 0.385567
Si Si6 0.349920 0.808820 0.846892
Si Si7 0.858493 0.889203 0.473537
Si Si8 0.992587 0.390253 0.781276
O O1 0.138517 0.206944 0.749022
O O2 0.079013 0.404820 0.841901
O O3 0.972760 0.096777 0.550428
O O4 0.000000 0.000000 0.000000
O O5 0.533407 0.789991 0.749854
O O6 0.413416 0.753654 0.966195
O O7 0.426698 0.456472 0.067905
O O8 0.576382 0.911400 0.181523
O O9 0.500000 0.500000 0.500000
O O10 0.313480 0.108965 0.353122
O O11 0.180876 0.681305 0.358131
O O12 0.306493 0.708711 0.575340
O O13 0.184722 0.338398 0.335143
O O14 0.283365 0.722404 0.056868
O O15 0.115333 0.861901 0.207226
O O16 0.192986 0.016450 0.589854
O O17 0.000000 0.500000 0.500000
O O18 0.000000 0.500000 0.000000
#
# Coordination Sequence:
#
# PCOD9047043 Si02
#       8
#     2   2   2   2   2   2   2   2
#     4  10  24  46  72 104 145 193 245 304 382 453
#     4  10  24  43  70  98 145 192 249 300 372 428
#     4  11  23  45  71 107 147 197 247 309 367 441
#     4  12  26  47  71 108 147 187 251 302 369 438
#     4  11  25  47  74 111 147 196 251 308 370 451
#     4  11  26  45  70 102 141 198 242 306 364 436
#     4  10  25  45  70 106 144 189 241 309 369 443
#     4  11  27  49  79 111 151 198 246 313 385 452
#
# _framework density 25.792023
#
# number of rings (size 3 to 8) (size 9 to 14) (size 15 to 20)
#    0.000    1.250    1.250    2.250   12.250    2.000 
#    6.750    0.000    0.000    0.000    0.000    0.000 
#    0.000    0.000    0.000    0.000    0.000    0.000 
#
# Total GULP energy -89085.458699 kJ/mol
# GULP energy per Si atom -5567.841169 kJ/mol
# Density = 2.573332 g / cm^3
# Si number density = 25.792023 Si / 1000 Ang^3
#
#
#
# Elastic Constant Matrix: (Units=GPa)
#
#
# Indices 1 2 3 4 5 6 
#
# 1 185.6061 28.9167 31.8008 -6.4421 -39.0398 -6.2899
# 2 28.9167 97.0228 18.3170 10.1601 -0.6508 9.1597
# 3 31.8008 18.3170 79.6196 2.9755 -18.9795 12.0666
# 4 -6.4421 10.1601 2.9755 43.4232 -3.9307 4.2526
# 5 -39.0398 -0.6508 -18.9795 -3.9307 36.9904 3.0530
# 6 -6.2899 9.1597 12.0666 4.2526 3.0530 50.0391
#
#
#
# Elastic Compliance Matrix: (Units=1/GPa)
#
#
# Indices 1 2 3 4 5 6 
#
# 1 0.007661 -0.002400 -0.000889 0.002369 0.007761 0.000942
# 2 -0.002400 0.011906 -0.002339 -0.003182 -0.003745 -0.001418
# 3 -0.000889 -0.002339 0.015836 0.000402 0.007518 -0.003995
# 4 0.002369 -0.003182 0.000402 0.024750 0.005417 -0.001651
# 5 0.007761 -0.003745 0.007518 0.005417 0.039843 -0.003043
# 6 0.000942 -0.001418 -0.003995 -0.001651 -0.003043 0.021652
#
#
# Mechanical properties :
#
#
# Convention : Reuss Voigt Hill
#
# Bulk Modulus (GPa) = 41.41606 57.81304 49.61455
# Shear Modulus (GPa) = 35.47322 44.97146 40.22234
#
# Velocity S-wave (km/s) = 3.71260 4.18020 3.95332
# Velocity P-wave (km/s) = 5.87115 6.76480 6.33376
#
# Compressibility (1/GPa) = 0.02414522
#
# Stress axis : x y z
#
# Youngs Moduli (GPa) = 130.53977 83.99257 63.14921
#
# Poissons Ratio (x) = 0.20161 0.05612
# Poissons Ratio (y) = 0.31334 0.14772
# Poissons Ratio (z) = 0.11602 0.19648
#
# Static dielectric constant tensor:
#      x y z
#    x 2.125760 -0.190170 -0.112950 
#    y -0.190170 2.350120 0.166790 
#    z -0.112950 0.166790 2.243400 
# 
# From -- ./inp_files/106743.got.cif
#   From: 2010.05.17/outbox.cif.g08.bks.cpg/sg2_54_cif.got.tgz:106743.got - 2010.06.03 11:33:40.
