data_PCOD9047878
_publ_section_title
;
Structure prediction by ZEFSAII (Michael W. Deem and Ramdas Pophale) SiO2 
 PCOD9047878
Probable space group: P -1
;
_chemical_formula_sum "Si O2"
_cell_formula_units_Z 16
_cell_length_a 17.945886
_cell_length_b 5.449292
_cell_length_c 9.386518
_cell_angle_alpha 120.607881
_cell_angle_beta 53.961380
_cell_angle_gamma 106.448336
_cell_volume 638.662358
_symmetry_space_group_name_H-M "P -1"
_symmetry_group_IT_number 2
_symmetry_cell_setting 'triclinic'
loop_
_space_group_symop_operation_xyz
x,y,z
-x,-y,-z
loop_
_atom_site_type_symbol
_atom_site_label
_atom_site_fract_x
_atom_site_fract_y
_atom_site_fract_z
Si Si1 0.605895 0.988526 0.209238
Si Si2 0.532708 0.387361 0.157913
Si Si3 0.086939 0.691459 0.430697
Si Si4 0.086067 0.792980 0.868822
Si Si5 0.743425 0.659106 0.741293
Si Si6 0.647255 0.954813 0.723366
Si Si7 0.710635 0.118651 0.415802
Si Si8 0.993808 0.245674 0.756062
O O1 0.537889 0.729058 0.249007
O O2 0.650610 0.111227 0.338283
O O3 0.564668 0.236556 0.226012
O O4 0.681604 0.817035 0.977604
O O5 0.432325 0.263420 0.207136
O O6 0.598972 0.250987 0.919242
O O7 0.172871 0.491552 0.314295
O O8 0.074020 0.789660 0.310979
O O9 0.000000 0.500000 0.500000
O O10 0.062407 0.978533 0.628786
O O11 0.062323 0.504018 0.728670
O O12 0.183446 0.924776 0.763954
O O13 0.074412 0.704938 0.020636
O O14 0.000000 0.000000 0.000000
O O15 0.740344 0.907402 0.696700
O O16 0.713632 0.400984 0.593852
O O17 0.670549 0.909180 0.518548
#
# Coordination Sequence:
#
# PCOD9047878 Si02
#       8
#     2   2   2   2   2   2   2   2
#     4  11  27  47  79 112 155 204 254 326 379 473
#     4  10  24  52  79 114 156 202 256 312 413 456
#     4  11  24  45  72 102 144 198 251 305 380 455
#     4  11  25  47  69 102 151 196 246 312 380 454
#     4  11  26  47  69 111 150 195 256 311 378 455
#     4  10  25  47  82 106 153 197 248 324 382 468
#     4  12  27  45  73 114 147 198 261 311 379 454
#     4  10  24  44  71 103 139 207 244 313 378 452
#
# _framework density 25.052361999999999
#
# number of rings (size 3 to 8) (size 9 to 14) (size 15 to 20)
#    0.000    1.250    1.250    2.250    7.000    9.500 
#    0.000    0.000    0.000    0.000    0.000    0.000 
#    0.000    0.000    0.000    0.000    0.000    0.000 
#
# Total GULP energy -89432.028111 kJ/mol
# GULP energy per Si atom -5589.501757 kJ/mol
# Density = 2.499534 g / cm^3
# Si number density = 25.052362 Si / 1000 Ang^3
#
#
#
# Elastic Constant Matrix: (Units=GPa)
#
#
# Indices 1 2 3 4 5 6 
#
# 1 112.8431 6.3746 52.1155 -9.8099 0.4627 -26.2818
# 2 6.3746 69.4789 21.8662 -6.9557 -11.6487 -4.9549
# 3 52.1155 21.8662 100.4692 -26.0936 2.2758 -8.1143
# 4 -9.8099 -6.9557 -26.0936 37.4602 -10.9920 7.2882
# 5 0.4627 -11.6487 2.2758 -10.9920 45.2277 3.5855
# 6 -26.2818 -4.9549 -8.1143 7.2882 3.5855 37.6569
#
#
#
# Elastic Compliance Matrix: (Units=1/GPa)
#
#
# Indices 1 2 3 4 5 6 
#
# 1 0.014245 0.001285 -0.007831 -0.003578 -0.001021 0.009213
# 2 0.001285 0.016558 -0.003766 0.001915 0.004792 0.001437
# 3 -0.007831 -0.003766 0.017151 0.010376 0.001116 -0.004380
# 4 -0.003578 0.001915 0.010376 0.037845 0.009861 -0.008272
# 5 -0.001021 0.004792 0.001116 0.009861 0.026031 -0.004228
# 6 0.009213 0.001437 -0.004380 -0.008272 -0.004228 0.034235
#
#
# Mechanical properties :
#
#
# Convention : Reuss Voigt Hill
#
# Bulk Modulus (GPa) = 36.58817 49.27818 42.93317
# Shear Modulus (GPa) = 28.44213 37.56461 33.00337
#
# Velocity S-wave (km/s) = 3.37309 3.87647 3.63350
# Velocity P-wave (km/s) = 5.45955 6.30466 5.89726
#
# Compressibility (1/GPa) = 0.02733124
#
# Stress axis : x y z
#
# Youngs Moduli (GPa) = 70.20114 60.39499 58.30644
#
# Poissons Ratio (x) = -0.07763 0.45658
# Poissons Ratio (y) = -0.09023 0.21955
# Poissons Ratio (z) = 0.54973 0.22742
#
# Static dielectric constant tensor:
#      x y z
#    x 2.023180 -0.068100 0.033400 
#    y -0.068100 2.236020 -0.005770 
#    z 0.033400 -0.005770 2.004020 
# 
# From -- ./inp_files/322989.got.cif
#   From: 2010.05.17/outbox.cif.g08.bks.cpg/sg2_162_cif.got.tgz:322989.got - 2010.06.03 11:33:40.
