data_PCOD9047909
_publ_section_title
;
Structure prediction by ZEFSAII (Michael W. Deem and Ramdas Pophale) SiO2 
 PCOD9047909
Probable space group: P -1
;
_chemical_formula_sum "Si O2"
_cell_formula_units_Z 16
_cell_length_a 9.300593
_cell_length_b 13.819163
_cell_length_c 18.876355
_cell_angle_alpha 155.522029
_cell_angle_beta 67.808943
_cell_angle_gamma 96.474002
_cell_volume 743.158021
_symmetry_space_group_name_H-M "P -1"
_symmetry_group_IT_number 2
_symmetry_cell_setting 'triclinic'
loop_
_space_group_symop_operation_xyz
x,y,z
-x,-y,-z
loop_
_atom_site_type_symbol
_atom_site_label
_atom_site_fract_x
_atom_site_fract_y
_atom_site_fract_z
Si Si1 0.607594 0.192101 0.316572
Si Si2 0.624745 0.216606 0.563282
Si Si3 0.604552 0.785859 0.939967
Si Si4 0.877204 0.878144 0.428677
Si Si5 0.048467 0.876492 0.049294
Si Si6 0.039195 0.314878 0.939863
Si Si7 0.805688 0.754984 0.745399
Si Si8 0.330462 0.273676 0.549386
O O1 0.500000 0.500000 0.500000
O O2 0.470624 0.216195 0.420918
O O3 0.816555 0.105361 0.242322
O O4 0.659239 0.915216 0.077199
O O5 0.588691 0.525209 0.783571
O O6 0.438532 0.255362 0.590158
O O7 0.721942 0.049052 0.507409
O O8 0.780738 0.002095 0.331317
O O9 0.758521 0.669720 0.770211
O O10 0.393902 0.076085 0.148710
O O11 0.751761 0.909499 0.541143
O O12 0.000000 0.000000 0.500000
O O13 0.026427 0.535378 0.147821
O O14 0.090882 0.760978 0.046115
O O15 0.157378 0.006503 0.090958
O O16 0.136139 0.602459 0.798939
O O17 0.000000 0.500000 0.000000
O O18 0.000000 0.500000 0.500000
#
# Coordination Sequence:
#
# PCOD9047909 Si02
#       8
#     2   2   2   2   2   2   2   2
#     4  12  27  45  66 100 143 184 230 288 347 401
#     4  11  21  44  71  95 139 178 226 285 340 416
#     4  11  26  42  66 102 138 173 233 289 335 404
#     4  10  24  44  71 107 137 174 229 290 345 416
#     4  11  22  42  68  94 135 175 234 275 338 417
#     4   9  20  40  68  96 128 176 216 274 344 408
#     4  11  23  42  68  98 133 180 230 280 341 406
#     4  11  24  45  70  96 135 186 224 276 352 409
#
# _framework density 21.529741000000001
#
# number of rings (size 3 to 8) (size 9 to 14) (size 15 to 20)
#    0.000    1.250    2.500    2.625    5.250    3.000 
#    4.500    1.250    0.000    0.000    0.000    0.000 
#    0.000    0.000    0.000    0.000    0.000    0.000 
#
# Total GULP energy -89102.279182 kJ/mol
# GULP energy per Si atom -5568.892449 kJ/mol
# Density = 2.148074 g / cm^3
# Si number density = 21.529741 Si / 1000 Ang^3
#
#
#
# Elastic Constant Matrix: (Units=GPa)
#
#
# Indices 1 2 3 4 5 6 
#
# 1 67.2228 38.2421 0.7830 1.1122 -0.0410 12.4847
# 2 38.2421 82.2083 8.8466 -2.2200 -5.5316 13.6845
# 3 0.7830 8.8466 71.9759 -7.4447 -5.7701 -6.3695
# 4 1.1122 -2.2200 -7.4447 32.0962 21.5766 0.1110
# 5 -0.0410 -5.5316 -5.7701 21.5766 33.7359 3.7901
# 6 12.4847 13.6845 -6.3695 0.1110 3.7901 30.7596
#
#
#
# Elastic Compliance Matrix: (Units=1/GPa)
#
#
# Indices 1 2 3 4 5 6 
#
# 1 0.020848 -0.009062 0.000373 -0.001115 -0.000198 -0.004325
# 2 -0.009062 0.017746 -0.002396 -0.001868 0.004271 -0.005232
# 3 0.000373 -0.002396 0.014873 0.003715 -0.000681 0.004065
# 4 -0.001115 -0.001868 0.003715 0.056423 -0.036472 0.006343
# 5 -0.000198 0.004271 -0.000681 -0.036472 0.054512 -0.008546
# 6 -0.004325 -0.005232 0.004065 0.006343 -0.008546 0.038465
#
#
# Mechanical properties :
#
#
# Convention : Reuss Voigt Hill
#
# Bulk Modulus (GPa) = 31.95208 35.23894 33.59551
# Shear Modulus (GPa) = 21.23407 30.88736 26.06071
#
# Velocity S-wave (km/s) = 3.14390 3.79177 3.48293
# Velocity P-wave (km/s) = 5.29640 5.96432 5.64026
#
# Compressibility (1/GPa) = 0.03129687
#
# Stress axis : x y z
#
# Youngs Moduli (GPa) = 47.96550 56.35208 67.23406
#
# Poissons Ratio (x) = 0.51066 -0.02509
# Poissons Ratio (y) = 0.43466 0.16112
# Poissons Ratio (z) = -0.01790 0.13504
#
# Static dielectric constant tensor:
#      x y z
#    x 1.134930 -0.296890 0.145740 
#    y -0.296890 1.710760 0.117850 
#    z 0.145740 0.117850 1.834810 
# 
# From -- ./inp_files/590521.got.cif
#   From: 2010.05.17/outbox.cif.g08.bks.cpg/sg2_296_cif.got.tgz:590521.got - 2010.06.03 11:33:40.
