data_PCOD9047884
_publ_section_title
;
Structure prediction by ZEFSAII (Michael W. Deem and Ramdas Pophale) SiO2 
 PCOD9047884
Probable space group: P -1
;
_chemical_formula_sum "Si O2"
_cell_formula_units_Z 10
_cell_length_a 5.532916
_cell_length_b 9.159028
_cell_length_c 11.488521
_cell_angle_alpha 56.277451
_cell_angle_beta 64.741495
_cell_angle_gamma 89.775688
_cell_volume 416.400205
_symmetry_space_group_name_H-M "P -1"
_symmetry_group_IT_number 2
_symmetry_cell_setting 'triclinic'
loop_
_space_group_symop_operation_xyz
x,y,z
-x,-y,-z
loop_
_atom_site_type_symbol
_atom_site_label
_atom_site_fract_x
_atom_site_fract_y
_atom_site_fract_z
Si Si1 0.126440 0.441081 0.177681
Si Si2 0.158271 0.784812 0.888817
Si Si3 0.189765 0.970342 0.128923
Si Si4 0.267882 0.096989 0.324916
Si Si5 0.835648 0.546041 0.401268
O O1 0.314916 0.317312 0.236387
O O2 0.002097 0.338890 0.129443
O O3 0.902896 0.436161 0.325688
O O4 0.250410 0.654526 0.020543
O O5 0.427946 0.926656 0.708775
O O6 0.963339 0.884982 0.948765
O O7 0.988620 0.762459 0.252493
O O8 0.207277 0.020954 0.240231
O O9 0.500000 0.000000 0.000000
O O10 0.000000 0.000000 0.500000
O O11 0.500000 0.500000 0.500000
O O12 0.000000 0.500000 0.500000
#
# Coordination Sequence:
#
# PCOD9047884 Si02
#       5
#     2   2   2   2   2
#     4  10  24  44  71 103 144 191 249 300 374 445
#     4  10  24  45  75 103 141 196 247 309 370 451
#     4  11  27  46  73 107 148 198 252 309 374 453
#     4  11  24  42  71 104 146 188 251 305 375 445
#     4  12  30  48  75 110 157 199 247 315 385 446
#
# _framework density 24.015356000000001
#
# number of rings (size 3 to 8) (size 9 to 14) (size 15 to 20)
#    0.000    1.200    0.000    3.000   14.000    4.800 
#    0.000    0.000    0.000    0.000    0.000    0.000 
#    0.000    0.000    0.000    0.000    0.000    0.000 
#
# Total GULP energy -55864.310623 kJ/mol
# GULP energy per Si atom -5586.431062 kJ/mol
# Density = 2.396070 g / cm^3
# Si number density = 24.015356 Si / 1000 Ang^3
#
#
#
# Elastic Constant Matrix: (Units=GPa)
#
#
# Indices 1 2 3 4 5 6 
#
# 1 90.8888 49.5923 69.5453 -1.2393 -34.5048 -24.7669
# 2 49.5923 164.9424 74.8063 24.4363 -17.2940 -16.9878
# 3 69.5453 74.8063 169.6367 27.7406 -38.3752 -28.0493
# 4 -1.2393 24.4363 27.7406 50.1155 -7.7301 -11.2401
# 5 -34.5048 -17.2940 -38.3752 -7.7301 48.5753 11.6809
# 6 -24.7669 -16.9878 -28.0493 -11.2401 11.6809 37.0014
#
#
#
# Elastic Compliance Matrix: (Units=1/GPa)
#
#
# Indices 1 2 3 4 5 6 
#
# 1 0.024403 -0.004017 -0.005824 0.009574 0.010501 0.009668
# 2 -0.004017 0.008448 -0.002053 -0.003559 -0.001825 -0.000872
# 3 -0.005824 -0.002053 0.010679 -0.004407 0.002604 0.001093
# 4 0.009574 -0.003559 -0.004407 0.026882 0.004352 0.008226
# 5 0.010501 -0.001825 0.002604 0.004352 0.030154 -0.000032
# 6 0.009668 -0.000872 0.001093 0.008226 -0.000032 0.036434
#
#
# Mechanical properties :
#
#
# Convention : Reuss Voigt Hill
#
# Bulk Modulus (GPa) = 50.65992 90.37285 70.51639
# Shear Modulus (GPa) = 29.87417 42.57338 36.22377
#
# Velocity S-wave (km/s) = 3.53081 4.21498 3.88797
# Velocity P-wave (km/s) = 6.14514 7.83588 7.04144
#
# Compressibility (1/GPa) = 0.01973947
#
# Stress axis : x y z
#
# Youngs Moduli (GPa) = 40.97918 118.37146 93.64434
#
# Poissons Ratio (x) = 0.47552 0.54541
# Poissons Ratio (y) = 0.16462 0.19230
# Poissons Ratio (z) = 0.23867 0.24307
#
# Static dielectric constant tensor:
#      x y z
#    x 2.092090 -0.063330 0.067460 
#    y -0.063330 1.933160 -0.058410 
#    z 0.067460 -0.058410 1.971460 
# 
# From -- ./inp_files/15441.got.cif
#   From: 2010.05.17/outbox.cif.g08.bks.cpg/sg2_8_cif.got.tgz:15441.got - 2010.06.03 11:33:40.
