data_PCOD9047202
_publ_section_title
;
Structure prediction by ZEFSAII (Michael W. Deem and Ramdas Pophale) SiO2 
 PCOD9047202
Probable space group: P -1
;
_chemical_formula_sum "Si O2"
_cell_formula_units_Z 16
_cell_length_a 11.253698
_cell_length_b 13.709321
_cell_length_c 12.314331
_cell_angle_alpha 96.518788
_cell_angle_beta 84.108075
_cell_angle_gamma 158.875303
_cell_volume 680.253328
_symmetry_space_group_name_H-M "P -1"
_symmetry_group_IT_number 2
_symmetry_cell_setting 'triclinic'
loop_
_space_group_symop_operation_xyz
x,y,z
-x,-y,-z
loop_
_atom_site_type_symbol
_atom_site_label
_atom_site_fract_x
_atom_site_fract_y
_atom_site_fract_z
Si Si1 0.225201 0.344090 0.361475
Si Si2 0.299023 0.263125 0.929084
Si Si3 0.751524 0.119380 0.733736
Si Si4 0.212586 0.138299 0.235431
Si Si5 0.175234 0.804827 0.737116
Si Si6 0.037257 0.157408 0.589014
Si Si7 0.360378 0.682919 0.122344
Si Si8 0.320632 0.651341 0.869871
O O1 0.176202 0.226519 0.256318
O O2 0.012021 0.148706 0.461611
O O3 0.607562 0.621508 0.393774
O O4 0.088447 0.343689 0.334843
O O5 0.510672 0.330289 0.890936
O O6 0.500000 0.500000 0.000000
O O7 0.116373 0.158578 0.824174
O O8 0.000000 0.000000 0.000000
O O9 0.975801 0.218851 0.652821
O O10 0.972892 0.367357 0.808811
O O11 0.462115 0.956573 0.678088
O O12 0.565718 0.909639 0.813508
O O13 0.508303 0.324676 0.159384
O O14 0.227844 0.110998 0.354263
O O15 0.974069 0.582949 0.811654
O O16 0.372066 0.040815 0.813301
O O17 0.307358 0.667758 0.999091
#
# Coordination Sequence:
#
# PCOD9047202 Si02
#       8
#     2   2   2   2   2   2   2   2
#     4  11  23  45  69 103 127 179 221 298 337 406
#     4  12  25  37  65 104 142 176 219 273 340 398
#     4  11  25  46  66 101 132 184 221 281 332 408
#     4  11  22  41  68 100 137 176 221 284 335 409
#     4  12  27  44  68  97 143 175 228 276 340 393
#     4  10  24  43  73  96 134 170 237 278 350 396
#     4  12  25  42  65 102 135 185 225 274 326 408
#     4  11  24  41  70  95 137 177 232 268 331 399
#
# _framework density 23.520648999999999
#
# number of rings (size 3 to 8) (size 9 to 14) (size 15 to 20)
#    0.000    0.750    3.750    3.375    5.250    3.500 
#    0.000    0.000    0.000    3.750    0.000    0.000 
#    0.000    0.000    0.000    0.000    0.000    0.000 
#
# Total GULP energy -89518.065390 kJ/mol
# GULP energy per Si atom -5594.879087 kJ/mol
# Density = 2.346711 g / cm^3
# Si number density = 23.520649 Si / 1000 Ang^3
#
#
#
# Elastic Constant Matrix: (Units=GPa)
#
#
# Indices 1 2 3 4 5 6 
#
# 1 126.4823 30.8907 20.6464 8.0988 1.3737 20.5935
# 2 30.8907 107.2961 18.8440 -2.2271 -2.5120 -5.9709
# 3 20.6464 18.8440 80.2889 -10.8952 4.1931 6.9193
# 4 8.0988 -2.2271 -10.8952 28.0762 -5.2072 -1.2229
# 5 1.3737 -2.5120 4.1931 -5.2072 14.7099 3.2987
# 6 20.5935 -5.9709 6.9193 -1.2229 3.2987 51.7862
#
#
#
# Elastic Compliance Matrix: (Units=1/GPa)
#
#
# Indices 1 2 3 4 5 6 
#
# 1 0.009871 -0.002829 -0.002039 -0.004306 -0.001454 -0.003988
# 2 -0.002829 0.010705 -0.001931 0.001510 0.002620 0.002486
# 3 -0.002039 -0.001931 0.014390 0.005598 -0.002019 -0.001074
# 4 -0.004306 0.001510 0.005598 0.041720 0.013550 0.001261
# 5 -0.001454 0.002620 -0.002019 0.013550 0.074674 -0.003287
# 6 -0.003988 0.002486 -0.001074 0.001261 -0.003287 0.021565
#
#
# Mechanical properties :
#
#
# Convention : Reuss Voigt Hill
#
# Bulk Modulus (GPa) = 46.80038 50.53659 48.66848
# Shear Modulus (GPa) = 25.82038 35.16019 30.49029
#
# Velocity S-wave (km/s) = 3.31686 3.87054 3.60435
# Velocity P-wave (km/s) = 5.88299 6.44263 6.16916
#
# Compressibility (1/GPa) = 0.02136735
#
# Stress axis : x y z
#
# Youngs Moduli (GPa) = 101.30783 93.41716 69.49164
#
# Poissons Ratio (x) = 0.26429 0.14170
# Poissons Ratio (y) = 0.28661 0.13419
# Poissons Ratio (z) = 0.20657 0.18039
#
# Static dielectric constant tensor:
#      x y z
#    x 1.963430 0.032390 0.020090 
#    y 0.032390 1.852320 0.096610 
#    z 0.020090 0.096610 1.739060 
# 
# From -- ./inp_files/434050.got.cif
#   From: 2010.05.17/outbox.cif.g08.bks.cpg/sg2_218_cif.got.tgz:434050.got - 2010.06.03 11:33:40.
