data_PCOD9047763
_publ_section_title
;
Structure prediction by ZEFSAII (Michael W. Deem and Ramdas Pophale) SiO2 
 PCOD9047763
Probable space group: P -1
;
_chemical_formula_sum "Si O2"
_cell_formula_units_Z 16
_cell_length_a 9.125426
_cell_length_b 28.191999
_cell_length_c 13.575919
_cell_angle_alpha 158.519556
_cell_angle_beta 56.155026
_cell_angle_gamma 137.596074
_cell_volume 732.885740
_symmetry_space_group_name_H-M "P -1"
_symmetry_group_IT_number 2
_symmetry_cell_setting 'triclinic'
loop_
_space_group_symop_operation_xyz
x,y,z
-x,-y,-z
loop_
_atom_site_type_symbol
_atom_site_label
_atom_site_fract_x
_atom_site_fract_y
_atom_site_fract_z
Si Si1 0.802045 0.800252 0.129737
Si Si2 0.096183 0.541507 0.190916
Si Si3 0.581336 0.896620 0.795279
Si Si4 0.200924 0.818865 0.279098
Si Si5 0.081281 0.405393 0.247504
Si Si6 0.085428 0.038776 0.808193
Si Si7 0.256033 0.464536 0.793686
Si Si8 0.665482 0.780097 0.722605
O O1 0.763982 0.829775 0.090115
O O2 0.533015 0.641358 0.981883
O O3 0.000000 0.000000 0.500000
O O4 0.927776 0.724312 0.929566
O O5 0.322148 0.679449 0.450533
O O6 0.968266 0.608754 0.337618
O O7 0.219113 0.534911 0.038535
O O8 0.867181 0.332524 0.914127
O O9 0.673684 0.905372 0.887245
O O10 0.812971 0.966358 0.776049
O O11 0.500000 0.000000 0.000000
O O12 0.500000 0.000000 0.500000
O O13 0.065846 0.875657 0.480862
O O14 0.079325 0.718529 0.026679
O O15 0.000000 0.500000 0.500000
O O16 0.374073 0.584069 0.459271
O O17 0.228206 0.136343 0.046881
O O18 0.215965 0.292003 0.500459
#
# Coordination Sequence:
#
# PCOD9047763 Si02
#       8
#     2   2   2   2   2   2   2   2
#     4  11  23  44  71 104 143 187 253 299 365 439
#     4  11  24  44  72 104 143 193 242 302 365 437
#     4  12  27  45  73 105 150 192 250 299 370 437
#     4  12  25  45  73 107 146 192 248 301 373 441
#     4  11  25  43  70 102 145 189 238 306 366 431
#     4  12  26  44  75 105 144 199 242 307 364 440
#     4  10  24  44  70 102 145 191 239 300 370 437
#     4  11  25  47  68 103 145 188 244 296 367 436
#
# _framework density 21.831506999999998
#
# number of rings (size 3 to 8) (size 9 to 14) (size 15 to 20)
#    0.000    0.750    2.500    4.125    3.500    6.000 
#    0.000    0.000    0.000    0.000    0.000    0.000 
#    0.000    0.000    0.000    0.000    0.000    0.000 
#
# Total GULP energy -89437.295900 kJ/mol
# GULP energy per Si atom -5589.830994 kJ/mol
# Density = 2.178182 g / cm^3
# Si number density = 21.831507 Si / 1000 Ang^3
#
#
#
# Elastic Constant Matrix: (Units=GPa)
#
#
# Indices 1 2 3 4 5 6 
#
# 1 138.1691 51.0679 64.6976 -9.2558 -14.7952 4.4134
# 2 51.0679 89.1510 44.0879 10.1155 3.0148 7.5948
# 3 64.6976 44.0879 112.4732 -5.3798 0.6479 11.4373
# 4 -9.2558 10.1155 -5.3798 38.9882 6.7210 -5.1181
# 5 -14.7952 3.0148 0.6479 6.7210 56.7105 4.7928
# 6 4.4134 7.5948 11.4373 -5.1181 4.7928 37.4798
#
#
#
# Elastic Compliance Matrix: (Units=1/GPa)
#
#
# Indices 1 2 3 4 5 6 
#
# 1 0.011806 -0.004903 -0.004855 0.003046 0.002940 0.001125
# 2 -0.004903 0.016866 -0.003840 -0.006172 -0.001201 -0.002358
# 3 -0.004855 -0.003840 0.013517 0.001601 -0.001204 -0.002402
# 4 0.003046 -0.006172 0.001601 0.029296 -0.002770 0.004758
# 5 0.002940 -0.001201 -0.001204 -0.002770 0.019022 -0.002546
# 6 0.001125 -0.002358 -0.002402 0.004758 -0.002546 0.028735
#
#
# Mechanical properties :
#
#
# Convention : Reuss Voigt Hill
#
# Bulk Modulus (GPa) = 66.69320 73.27780 69.98550
# Shear Modulus (GPa) = 33.01795 38.63169 35.82482
#
# Velocity S-wave (km/s) = 3.89318 4.21115 4.05528
# Velocity P-wave (km/s) = 7.12913 7.56856 7.35213
#
# Compressibility (1/GPa) = 0.01499403
#
# Stress axis : x y z
#
# Youngs Moduli (GPa) = 84.70474 59.29147 73.98339
#
# Poissons Ratio (x) = 0.29068 0.35918
# Poissons Ratio (y) = 0.41527 0.28407
# Poissons Ratio (z) = 0.41123 0.22766
#
# Static dielectric constant tensor:
#      x y z
#    x 1.796650 -0.027880 -0.040050 
#    y -0.027880 1.778230 -0.002070 
#    z -0.040050 -0.002070 1.788920 
# 
# From -- ./inp_files/509154.got.cif
#   From: 2010.05.17/outbox.cif.g08.bks.cpg/sg2_255_cif.got.tgz:509154.got - 2010.06.03 11:33:40.
