data_PCOD9047562
_publ_section_title
;
Structure prediction by ZEFSAII (Michael W. Deem and Ramdas Pophale) SiO2 
 PCOD9047562
Probable space group: P -1
;
_chemical_formula_sum "Si O2"
_cell_formula_units_Z 14
_cell_length_a 13.301161
_cell_length_b 22.431019
_cell_length_c 6.701583
_cell_angle_alpha 79.275408
_cell_angle_beta 89.710546
_cell_angle_gamma 159.386159
_cell_volume 591.579358
_symmetry_space_group_name_H-M "P -1"
_symmetry_group_IT_number 2
_symmetry_cell_setting 'triclinic'
loop_
_space_group_symop_operation_xyz
x,y,z
-x,-y,-z
loop_
_atom_site_type_symbol
_atom_site_label
_atom_site_fract_x
_atom_site_fract_y
_atom_site_fract_z
Si Si1 0.739686 0.621935 0.110841
Si Si2 0.266582 0.745095 0.374597
Si Si3 0.170600 0.391836 0.498009
Si Si4 0.817916 0.801650 0.107225
Si Si5 0.763841 0.102161 0.371652
Si Si6 0.769536 0.875861 0.390387
Si Si7 0.038588 0.504590 0.767327
O O1 0.640777 0.524024 0.360501
O O2 0.880154 0.765523 0.113269
O O3 0.500000 0.500000 0.000000
O O4 0.040376 0.761877 0.908312
O O5 0.032576 0.564798 0.612949
O O6 0.101842 0.715938 0.369190
O O7 0.263303 0.710761 0.180800
O O8 0.582384 0.937688 0.396283
O O9 0.414119 0.565572 0.229612
O O10 0.008190 0.242428 0.471655
O O11 0.815621 0.841060 0.281752
O O12 0.060293 0.974394 0.842456
O O13 0.500000 0.000000 0.500000
O O14 0.393374 0.676600 0.593144
O O15 0.000000 0.000000 0.500000
O O16 0.000000 0.500000 0.000000
#
# Coordination Sequence:
#
# PCOD9047562 Si02
#       7
#     2   2   2   2   2   2   2
#     4  12  26  42  76 108 143 191 240 296 368 439
#     4  10  24  45  70 102 150 188 250 291 366 430
#     4  11  24  45  74 103 148 190 235 302 368 429
#     4  11  25  45  69 104 148 180 246 291 361 438
#     4  10  24  44  68 103 143 187 238 292 359 432
#     4  11  27  45  74 106 143 193 239 310 363 424
#     4  11  25  44  75 105 143 196 244 307 360 428
#
# _framework density 23.665464
#
# number of rings (size 3 to 8) (size 9 to 14) (size 15 to 20)
#    0.000    1.143    2.857    1.286    4.000    9.143 
#    0.000    0.000    0.000    0.000    0.000    0.000 
#    0.000    0.000    0.000    0.000    0.000    0.000 
#
# Total GULP energy -77995.295689 kJ/mol
# GULP energy per Si atom -5571.092549 kJ/mol
# Density = 2.361160 g / cm^3
# Si number density = 23.665464 Si / 1000 Ang^3
#
#
#
# Elastic Constant Matrix: (Units=GPa)
#
#
# Indices 1 2 3 4 5 6 
#
# 1 94.4478 40.3714 51.0561 25.7084 -17.3707 -12.7103
# 2 40.3714 164.3064 50.7389 31.7746 -1.9916 -32.5743
# 3 51.0561 50.7389 118.4624 20.4373 -27.6767 -11.7019
# 4 25.7084 31.7746 20.4373 38.0366 -4.2652 -5.8749
# 5 -17.3707 -1.9916 -27.6767 -4.2652 38.5018 1.4233
# 6 -12.7103 -32.5743 -11.7019 -5.8749 1.4233 45.8368
#
#
#
# Elastic Compliance Matrix: (Units=1/GPa)
#
#
# Indices 1 2 3 4 5 6 
#
# 1 0.016114 -0.000812 -0.004442 -0.007202 0.003173 0.001735
# 2 -0.000812 0.009076 -0.002794 -0.005065 -0.002649 0.004945
# 3 -0.004442 -0.002794 0.013456 -0.001086 0.007410 -0.000151
# 4 -0.007202 -0.005065 -0.001086 0.035743 -0.000285 -0.001284
# 5 0.003173 -0.002649 0.007410 -0.000285 0.032568 -0.000159
# 6 0.001735 0.004945 -0.000151 -0.001284 -0.000159 0.025613
#
#
# Mechanical properties :
#
#
# Convention : Reuss Voigt Hill
#
# Bulk Modulus (GPa) = 44.34594 73.50550 58.92572
# Shear Modulus (GPa) = 32.01371 40.14507 36.07939
#
# Velocity S-wave (km/s) = 3.68198 4.12315 3.90880
# Velocity P-wave (km/s) = 6.07086 7.33450 6.73239
#
# Compressibility (1/GPa) = 0.02254998
#
# Stress axis : x y z
#
# Youngs Moduli (GPa) = 62.05936 110.17666 74.31543
#
# Poissons Ratio (x) = 0.08951 0.33008
# Poissons Ratio (y) = 0.05042 0.20764
# Poissons Ratio (z) = 0.27564 0.30784
#
# Static dielectric constant tensor:
#      x y z
#    x 1.947500 0.018740 -0.048580 
#    y 0.018740 2.071110 -0.056070 
#    z -0.048580 -0.056070 1.925490 
# 
# From -- ./inp_files/101080.got.cif
#   From: 2010.05.17/outbox.cif.g08.bks.cpg/sg2_51_cif.got.tgz:101080.got - 2010.06.03 11:33:40.
