data_PCOD9048659
_publ_section_title
;
Structure prediction by ZEFSAII (Michael W. Deem and Ramdas Pophale) SiO2 
 PCOD9048659
Probable space group: P -1
;
_chemical_formula_sum "Si O2"
_cell_formula_units_Z 16
_cell_length_a 14.881024
_cell_length_b 8.154900
_cell_length_c 9.258601
_cell_angle_alpha 102.176783
_cell_angle_beta 39.711058
_cell_angle_gamma 97.518866
_cell_volume 700.822869
_symmetry_space_group_name_H-M "P -1"
_symmetry_group_IT_number 2
_symmetry_cell_setting 'triclinic'
loop_
_space_group_symop_operation_xyz
x,y,z
-x,-y,-z
loop_
_atom_site_type_symbol
_atom_site_label
_atom_site_fract_x
_atom_site_fract_y
_atom_site_fract_z
Si Si1 0.798249 0.796740 0.615210
Si Si2 0.219400 0.841247 0.454124
Si Si3 0.799641 0.135123 0.181965
Si Si4 0.512251 0.199912 0.058317
Si Si5 0.268662 0.232852 0.817392
Si Si6 0.930943 0.675456 0.163948
Si Si7 0.453499 0.693250 0.627760
Si Si8 0.059659 0.334887 0.314042
O O1 0.640551 0.732010 0.794988
O O2 0.896076 0.674494 0.373756
O O3 0.866590 0.793204 0.685697
O O4 0.799678 0.977374 0.567742
O O5 0.249874 0.860410 0.589495
O O6 0.075230 0.747056 0.603304
O O7 0.351579 0.749716 0.190732
O O8 0.702077 0.260319 0.228970
O O9 0.784805 0.947781 0.110592
O O10 0.959544 0.185525 0.983531
O O11 0.531135 0.246878 0.213126
O O12 0.500000 0.000000 0.000000
O O13 0.212002 0.282491 0.737945
O O14 0.435526 0.216098 0.595198
O O15 0.185406 0.362856 0.050225
O O16 0.000000 0.500000 0.000000
O O17 0.500000 0.500000 0.500000
O O18 0.000000 0.500000 0.500000
#
# Coordination Sequence:
#
# PCOD9048659 Si02
#       8
#     2   2   2   2   2   2   2   2
#     4  11  24  44  69  97 136 183 227 279 348 410
#     4  11  24  46  69 103 136 176 234 283 340 420
#     4  12  26  44  75 104 134 185 235 287 348 417
#     4  10  24  45  71 100 138 181 228 279 348 421
#     4  12  24  47  69  98 141 178 238 281 341 424
#     4  12  23  43  70  98 140 179 228 289 346 408
#     4  12  28  46  73 108 140 183 234 293 355 411
#     4  12  28  42  66 103 141 181 227 285 347 404
#
# _framework density 22.830304999999999
#
# number of rings (size 3 to 8) (size 9 to 14) (size 15 to 20)
#    0.000    0.500    3.750    4.125    8.750    0.000 
#    0.000    1.250    0.000    0.000    0.000    0.000 
#    0.000    0.000    0.000    0.000    0.000    0.000 
#
# Total GULP energy -89501.725216 kJ/mol
# GULP energy per Si atom -5593.857826 kJ/mol
# Density = 2.277834 g / cm^3
# Si number density = 22.830305 Si / 1000 Ang^3
#
#
#
# Elastic Constant Matrix: (Units=GPa)
#
#
# Indices 1 2 3 4 5 6 
#
# 1 79.1168 17.5578 22.7497 8.6590 15.5002 -1.3620
# 2 17.5578 38.8699 2.9433 19.3431 5.0967 -0.3037
# 3 22.7497 2.9433 153.6416 2.3038 15.0081 14.0270
# 4 8.6590 19.3431 2.3038 29.0260 9.5453 2.6914
# 5 15.5002 5.0967 15.0081 9.5453 38.0897 0.8513
# 6 -1.3620 -0.3037 14.0270 2.6914 0.8513 23.0221
#
#
#
# Elastic Compliance Matrix: (Units=1/GPa)
#
#
# Indices 1 2 3 4 5 6 
#
# 1 0.015601 -0.007068 -0.001878 0.001712 -0.005136 0.001964
# 2 -0.007068 0.042163 -0.000044 -0.027636 0.004105 0.003244
# 3 -0.001878 -0.000044 0.007428 0.001209 -0.002355 -0.004692
# 4 0.001712 -0.027636 0.001209 0.056721 -0.011529 -0.007205
# 5 -0.005136 0.004105 -0.002355 -0.011529 0.031581 0.001365
# 6 0.001964 0.003244 -0.004692 -0.007205 0.001365 0.047246
#
#
# Mechanical properties :
#
#
# Convention : Reuss Voigt Hill
#
# Bulk Modulus (GPa) = 21.18119 39.79220 30.48670
# Shear Modulus (GPa) = 21.32600 33.25273 27.28937
#
# Velocity S-wave (km/s) = 3.05964 3.82057 3.46108
# Velocity P-wave (km/s) = 4.66687 6.07699 5.41800
#
# Compressibility (1/GPa) = 0.04721171
#
# Stress axis : x y z
#
# Youngs Moduli (GPa) = 64.09992 23.71767 134.62994
#
# Poissons Ratio (x) = 0.16764 0.25282
# Poissons Ratio (y) = 0.45305 0.00591
# Poissons Ratio (z) = 0.12037 0.00104
#
# Static dielectric constant tensor:
#      x y z
#    x 1.800440 0.008450 -0.050740 
#    y 0.008450 1.899890 0.028370 
#    z -0.050740 0.028370 1.739190 
# 
# From -- ./inp_files/186054.got.cif
#   From: 2010.05.17/outbox.cif.g08.bks.cpg/sg2_94_cif.got.tgz:186054.got - 2010.06.03 11:33:40.
