data_PCOD9048588
_publ_section_title
;
Structure prediction by ZEFSAII (Michael W. Deem and Ramdas Pophale) SiO2 
 PCOD9048588
Probable space group: P -1
;
_chemical_formula_sum "Si O2"
_cell_formula_units_Z 12
_cell_length_a 5.083522
_cell_length_b 15.088957
_cell_length_c 9.241252
_cell_angle_alpha 116.792387
_cell_angle_beta 102.279445
_cell_angle_gamma 115.597877
_cell_volume 492.166507
_symmetry_space_group_name_H-M "P -1"
_symmetry_group_IT_number 2
_symmetry_cell_setting 'triclinic'
loop_
_space_group_symop_operation_xyz
x,y,z
-x,-y,-z
loop_
_atom_site_type_symbol
_atom_site_label
_atom_site_fract_x
_atom_site_fract_y
_atom_site_fract_z
Si Si1 0.824894 0.548164 0.926485
Si Si2 0.192500 0.124125 0.519000
Si Si3 0.279341 0.387768 0.507930
Si Si4 0.883612 0.942038 0.098963
Si Si5 0.958473 0.292466 0.673231
Si Si6 0.906116 0.222026 0.073855
O O1 0.551029 0.435285 0.704944
O O2 0.030939 0.661272 0.918252
O O3 0.000000 0.500000 0.000000
O O4 0.776713 0.616098 0.103561
O O5 0.593716 0.221598 0.653602
O O6 0.018423 0.191085 0.567683
O O7 0.000000 0.000000 0.500000
O O8 0.129319 0.062326 0.312177
O O9 0.500000 0.500000 0.500000
O O10 0.987123 0.356971 0.567943
O O11 0.088156 0.271250 0.289145
O O12 0.493752 0.881083 0.034736
O O13 0.938206 0.835782 0.038027
O O14 0.000000 0.000000 0.000000
#
# Coordination Sequence:
#
# PCOD9048588 Si02
#       6
#     2   2   2   2   2   2
#     4  11  25  46  73 104 142 187 237 292 353 419
#     4  12  25  43  68 101 138 180 228 285 348 415
#     4  10  24  45  70 102 140 184 235 290 350 416
#     4  12  24  44  71 103 140 185 232 288 352 421
#     4  12  24  44  69 101 138 182 230 286 347 416
#     4  11  25  46  71 105 142 184 234 291 351 421
#
# _framework density 24.381993000000001
#
# number of rings (size 3 to 8) (size 9 to 14) (size 15 to 20)
#    0.000    0.667    0.000    7.500    0.000    5.333 
#    0.000    8.333    0.000    0.000    0.000    0.000 
#    0.000    0.000    0.000    0.000    0.000    0.000 
#
# Total GULP energy -66937.312475 kJ/mol
# GULP energy per Si atom -5578.109373 kJ/mol
# Density = 2.432650 g / cm^3
# Si number density = 24.381993 Si / 1000 Ang^3
#
#
#
# Elastic Constant Matrix: (Units=GPa)
#
#
# Indices 1 2 3 4 5 6 
#
# 1 99.0501 13.2708 27.6648 5.2583 -1.2449 0.3567
# 2 13.2708 127.5285 7.3125 -12.2970 3.2062 -6.4790
# 3 27.6648 7.3125 154.9268 -9.4360 22.3086 -5.8498
# 4 5.2583 -12.2970 -9.4360 53.5540 8.3525 3.8208
# 5 -1.2449 3.2062 22.3086 8.3525 32.5187 -1.5660
# 6 0.3567 -6.4790 -5.8498 3.8208 -1.5660 29.6279
#
#
#
# Elastic Compliance Matrix: (Units=1/GPa)
#
#
# Indices 1 2 3 4 5 6 
#
# 1 0.011123 -0.001326 -0.002483 -0.002239 0.002812 -0.000477
# 2 -0.001326 0.008294 0.000259 0.002213 -0.001542 0.001514
# 3 -0.002483 0.000259 0.007977 0.002607 -0.006215 0.000997
# 4 -0.002239 0.002213 0.002607 0.021202 -0.007640 -0.002112
# 5 0.002812 -0.001542 -0.006215 -0.007640 0.037302 0.001359
# 6 -0.000477 0.001514 0.000997 -0.002112 0.001359 0.034630
#
#
# Mechanical properties :
#
#
# Convention : Reuss Voigt Hill
#
# Bulk Modulus (GPa) = 49.27432 53.11131 51.19282
# Shear Modulus (GPa) = 37.20468 45.35727 41.28097
#
# Velocity S-wave (km/s) = 3.91053 4.31777 4.11918
# Velocity P-wave (km/s) = 6.37517 6.83285 6.60797
#
# Compressibility (1/GPa) = 0.02029455
#
# Stress axis : x y z
#
# Youngs Moduli (GPa) = 89.90463 120.57605 125.35920
#
# Poissons Ratio (x) = 0.15987 0.31125
# Poissons Ratio (y) = 0.11920 -0.03250
# Poissons Ratio (z) = 0.22322 -0.03126
#
# Static dielectric constant tensor:
#      x y z
#    x 1.966540 0.052750 0.031350 
#    y 0.052750 2.049030 0.031510 
#    z 0.031350 0.031510 1.902150 
# 
# From -- ./inp_files/138084.got.cif
#   From: 2010.05.17/outbox.cif.g08.bks.cpg/sg2_70_cif.got.tgz:138084.got - 2010.06.03 11:33:40.
