data_PCOD9048219
_publ_section_title
;
Structure prediction by ZEFSAII (Michael W. Deem and Ramdas Pophale) SiO2 
 PCOD9048219
Probable space group: P -1
;
_chemical_formula_sum "Si O2"
_cell_formula_units_Z 13
_cell_length_a 7.699549
_cell_length_b 11.614036
_cell_length_c 8.906057
_cell_angle_alpha 94.012214
_cell_angle_beta 73.491782
_cell_angle_gamma 138.072022
_cell_volume 497.629445
_symmetry_space_group_name_H-M "P -1"
_symmetry_group_IT_number 2
_symmetry_cell_setting 'triclinic'
loop_
_space_group_symop_operation_xyz
x,y,z
-x,-y,-z
loop_
_atom_site_type_symbol
_atom_site_label
_atom_site_fract_x
_atom_site_fract_y
_atom_site_fract_z
Si Si1 0.430759 0.817835 0.184260
Si Si2 0.144409 0.317654 0.638159
Si Si3 0.278101 0.436286 0.928590
Si Si4 0.794904 0.497862 0.613591
Si Si5 0.550844 0.805115 0.823456
Si Si6 0.000000 0.000000 0.500000
Si Si7 0.794304 0.179371 0.246134
O O1 0.375274 0.661498 0.241088
O O2 0.147625 0.756384 0.255662
O O3 0.637473 0.982789 0.262951
O O4 0.554359 0.871035 0.989836
O O5 0.287276 0.369396 0.768120
O O6 0.305650 0.488129 0.510947
O O7 0.082871 0.169396 0.556586
O O8 0.343436 0.598806 0.882223
O O9 0.500000 0.500000 0.000000
O O10 0.980929 0.279618 0.061475
O O11 0.000000 0.500000 0.500000
O O12 0.995329 0.687191 0.662539
O O13 0.434113 0.830808 0.721603
O O14 0.836417 0.897680 0.694362
#
# Coordination Sequence:
#
# PCOD9048219 Si02
#       7
#     2   2   2   2   2   1   2
#     4  11  22  48  88 116 149 215 272 324 389 490
#     4  11  25  53  73 117 166 204 264 329 404 465
#     4  12  28  51  81 114 157 214 271 330 394 473
#     4  10  24  44  77 122 153 198 268 334 391 470
#     4  12  24  48  79 116 161 207 263 329 397 469
#     4  12  28  46  76 120 164 210 254 334 408 458
#     4  12  23  48  84 114 152 210 271 317 397 487
#
# _framework density 26.123856
#
# number of rings (size 3 to 8) (size 9 to 14) (size 15 to 20)
#    0.000    0.615    4.615    3.692    2.154    3.077 
#    8.308    1.538    0.000    0.000    0.000    0.000 
#    0.000    0.000    0.000    0.000    0.000    0.000 
#
# Total GULP energy -72609.284346 kJ/mol
# GULP energy per Si atom -5585.329565 kJ/mol
# Density = 2.606440 g / cm^3
# Si number density = 26.123856 Si / 1000 Ang^3
#
#
#
# Elastic Constant Matrix: (Units=GPa)
#
#
# Indices 1 2 3 4 5 6 
#
# 1 96.4504 38.0712 21.6605 23.9182 25.3232 -11.9569
# 2 38.0712 144.7053 37.0909 22.3597 10.4532 -9.3555
# 3 21.6605 37.0909 152.5010 18.2132 -6.2870 -4.9057
# 4 23.9182 22.3597 18.2132 41.3903 0.2970 -14.1218
# 5 25.3232 10.4532 -6.2870 0.2970 43.8782 5.7205
# 6 -11.9569 -9.3555 -4.9057 -14.1218 5.7205 27.6752
#
#
#
# Elastic Compliance Matrix: (Units=1/GPa)
#
#
# Indices 1 2 3 4 5 6 
#
# 1 0.016029 -0.001955 -0.001338 -0.005831 -0.009594 0.005035
# 2 -0.001955 0.008310 -0.001473 -0.002473 -0.001134 0.000676
# 3 -0.001338 -0.001473 0.007420 -0.002178 0.002379 -0.001364
# 4 -0.005831 -0.002473 -0.002178 0.034410 0.001653 0.013475
# 5 -0.009594 -0.001134 0.002379 0.001653 0.030166 -0.009499
# 6 0.005035 0.000676 -0.001364 0.013475 -0.009499 0.047135
#
#
# Mechanical properties :
#
#
# Convention : Reuss Voigt Hill
#
# Bulk Modulus (GPa) = 44.99021 65.25576 55.12299
# Shear Modulus (GPa) = 31.16979 42.37769 36.77374
#
# Velocity S-wave (km/s) = 3.45795 4.03200 3.75596
# Velocity P-wave (km/s) = 5.76216 6.83445 6.32108
#
# Compressibility (1/GPa) = 0.02222706
#
# Stress axis : x y z
#
# Youngs Moduli (GPa) = 62.38591 120.33421 134.76863
#
# Poissons Ratio (x) = 0.23520 0.18038
# Poissons Ratio (y) = 0.12194 0.19855
# Poissons Ratio (z) = 0.08350 0.17728
#
# Static dielectric constant tensor:
#      x y z
#    x 1.066470 0.194150 0.030820 
#    y 0.194150 1.983570 -0.029300 
#    z 0.030820 -0.029300 2.049430 
# 
# From -- ./inp_files/180142.got.cif
#   From: 2010.05.17/outbox.cif.g08.bks.cpg/sg2_91_cif.got.tgz:180142.got - 2010.06.03 11:33:40.
