data_PCOD9048578
_publ_section_title
;
Structure prediction by ZEFSAII (Michael W. Deem and Ramdas Pophale) SiO2 
 PCOD9048578
Probable space group: P -1
;
_chemical_formula_sum "Si O2"
_cell_formula_units_Z 16
_cell_length_a 5.673481
_cell_length_b 11.733458
_cell_length_c 11.887810
_cell_angle_alpha 112.571190
_cell_angle_beta 71.516085
_cell_angle_gamma 119.936254
_cell_volume 625.418584
_symmetry_space_group_name_H-M "P -1"
_symmetry_group_IT_number 2
_symmetry_cell_setting 'triclinic'
loop_
_space_group_symop_operation_xyz
x,y,z
-x,-y,-z
loop_
_atom_site_type_symbol
_atom_site_label
_atom_site_fract_x
_atom_site_fract_y
_atom_site_fract_z
Si Si1 0.400624 0.174867 0.153968
Si Si2 0.758901 0.621820 0.093458
Si Si3 0.761752 0.392298 0.369153
Si Si4 0.934187 0.310718 0.535428
Si Si5 0.181856 0.978998 0.561636
Si Si6 0.507012 0.190378 0.753124
Si Si7 0.728869 0.115801 0.883917
Si Si8 0.737329 0.607306 0.838830
O O1 0.238206 0.242773 0.133351
O O2 0.552552 0.281055 0.272621
O O3 0.221717 0.017895 0.156014
O O4 0.618997 0.155140 0.029768
O O5 0.560568 0.697346 0.132696
O O6 0.587666 0.497208 0.153882
O O7 0.038576 0.739480 0.138123
O O8 0.815141 0.585773 0.946045
O O9 0.796532 0.547947 0.432027
O O10 0.066553 0.419470 0.287109
O O11 0.750459 0.335071 0.474936
O O12 0.976211 0.179078 0.438353
O O13 0.764913 0.262905 0.658733
O O14 0.248816 0.104280 0.681296
O O15 0.500000 0.000000 0.500000
O O16 0.000000 0.000000 0.500000
O O17 0.519303 0.082697 0.799660
#
# Coordination Sequence:
#
# PCOD9048578 Si02
#       8
#     2   2   2   2   2   2   2   2
#     4  11  25  43  67 102 142 186 231 296 370 442
#     4  11  24  41  72 103 142 181 237 298 363 446
#     4  11  23  48  68  97 143 188 240 301 360 442
#     4  10  24  46  70  98 137 192 246 297 364 428
#     4  10  24  45  70 101 143 192 249 306 364 433
#     4  11  23  44  71 103 139 183 242 298 364 439
#     4  11  25  42  68 104 144 185 232 297 371 441
#     4  11  24  43  68 106 138 189 237 292 372 435
#
# _framework density 25.582868999999999
#
# number of rings (size 3 to 8) (size 9 to 14) (size 15 to 20)
#    0.000    1.250    3.750    0.750    5.250    3.000 
#    4.500    1.250    0.000    0.000    0.000    0.000 
#    0.000    0.000    0.000    0.000    0.000    0.000 
#
# Total GULP energy -89425.655797 kJ/mol
# GULP energy per Si atom -5589.103487 kJ/mol
# Density = 2.552464 g / cm^3
# Si number density = 25.582869 Si / 1000 Ang^3
#
#
#
# Elastic Constant Matrix: (Units=GPa)
#
#
# Indices 1 2 3 4 5 6 
#
# 1 53.1097 25.7399 11.9082 -9.0251 6.9896 10.2521
# 2 25.7399 139.6055 26.9875 6.2214 8.0165 -4.2782
# 3 11.9082 26.9875 90.3744 -4.2361 14.1799 18.9707
# 4 -9.0251 6.2214 -4.2361 43.9946 6.6242 -0.1109
# 5 6.9896 8.0165 14.1799 6.6242 35.5375 0.4927
# 6 10.2521 -4.2782 18.9707 -0.1109 0.4927 37.9596
#
#
#
# Elastic Compliance Matrix: (Units=1/GPa)
#
#
# Indices 1 2 3 4 5 6 
#
# 1 0.024200 -0.004868 0.000945 0.006500 -0.005147 -0.007471
# 2 -0.004868 0.008842 -0.003014 -0.002620 0.000601 0.003802
# 3 0.000945 -0.003014 0.014500 0.002858 -0.005717 -0.007759
# 4 0.006500 -0.002620 0.002858 0.025690 -0.006570 -0.003319
# 5 -0.005147 0.000601 -0.005717 -0.006570 0.032468 0.003874
# 6 -0.007471 0.003802 -0.007759 -0.003319 0.003874 0.032608
#
#
# Mechanical properties :
#
#
# Convention : Reuss Voigt Hill
#
# Bulk Modulus (GPa) = 29.70058 45.81788 37.75923
# Shear Modulus (GPa) = 30.59880 38.06194 34.33037
#
# Velocity S-wave (km/s) = 3.46217 3.86137 3.66721
# Velocity P-wave (km/s) = 5.25518 6.15051 5.72039
#
# Compressibility (1/GPa) = 0.03366937
#
# Stress axis : x y z
#
# Youngs Moduli (GPa) = 41.32170 113.09667 68.96413
#
# Poissons Ratio (x) = 0.55053 -0.06520
# Poissons Ratio (y) = 0.20115 0.20787
# Poissons Ratio (z) = -0.03907 0.34090
#
# Static dielectric constant tensor:
#      x y z
#    x 2.078150 0.038920 -0.070660 
#    y 0.038920 2.024010 0.029130 
#    z -0.070660 0.029130 2.037330 
# 
# From -- ./inp_files/364759.got.cif
#   From: 2010.05.17/outbox.cif.g08.bks.cpg/sg2_183_cif.got.tgz:364759.got - 2010.06.03 11:33:40.
