data_PCOD9048794
_publ_section_title
;
Structure prediction by ZEFSAII (Michael W. Deem and Ramdas Pophale) SiO2 
 PCOD9048794
Probable space group: P -1
;
_chemical_formula_sum "Si O2"
_cell_formula_units_Z 16
_cell_length_a 21.764656
_cell_length_b 14.891548
_cell_length_c 11.336021
_cell_angle_alpha 27.750641
_cell_angle_beta 25.727691
_cell_angle_gamma 30.963139
_cell_volume 708.873586
_symmetry_space_group_name_H-M "P -1"
_symmetry_group_IT_number 2
_symmetry_cell_setting 'triclinic'
loop_
_space_group_symop_operation_xyz
x,y,z
-x,-y,-z
loop_
_atom_site_type_symbol
_atom_site_label
_atom_site_fract_x
_atom_site_fract_y
_atom_site_fract_z
Si Si1 0.853307 0.957889 0.359598
Si Si2 0.230518 0.339408 0.590125
Si Si3 0.530068 0.634756 0.686493
Si Si4 0.371423 0.597108 0.447014
Si Si5 0.444716 0.810214 0.281338
Si Si6 0.731361 0.958788 0.331426
Si Si7 0.926984 0.236976 0.608893
Si Si8 0.048654 0.759781 0.708870
O O1 0.716351 0.144419 0.427056
O O2 0.788272 0.864566 0.470045
O O3 0.919172 0.823200 0.516348
O O4 0.000000 0.000000 0.000000
O O5 0.327557 0.308942 0.576001
O O6 0.188389 0.571595 0.352101
O O7 0.301415 0.189419 0.536002
O O8 0.076937 0.303471 0.932502
O O9 0.552219 0.486073 0.711216
O O10 0.406584 0.845171 0.636196
O O11 0.500000 0.500000 0.000000
O O12 0.415644 0.770816 0.240422
O O13 0.428828 0.392543 0.662568
O O14 0.199399 0.677693 0.616821
O O15 0.500000 0.000000 0.000000
O O16 0.857272 0.051800 0.951948
O O17 0.934908 0.304516 0.382196
O O18 0.000000 0.000000 0.500000
#
# Coordination Sequence:
#
# PCOD9048794 Si02
#       8
#     2   2   2   2   2   2   2   2
#     4  10  24  45  73 100 144 186 237 296 350 423
#     4  12  26  40  73 103 137 188 234 291 358 426
#     4  12  24  46  70 101 147 181 234 295 353 426
#     4  11  26  47  74 100 145 187 230 299 358 422
#     4  11  26  49  74 107 140 188 241 292 357 431
#     4  11  23  47  67 101 138 189 234 288 358 419
#     4  11  23  45  66 102 141 180 232 298 349 421
#     4  12  24  45  71 104 142 183 240 298 358 420
#
# _framework density 22.571020000000001
#
# number of rings (size 3 to 8) (size 9 to 14) (size 15 to 20)
#    0.000    0.750    5.000    1.500    3.500    2.500 
#    0.000    0.000    0.000    0.000    0.000    0.000 
#    0.000    0.000    0.000    0.000    0.000    0.000 
#
# Total GULP energy -89376.833255 kJ/mol
# GULP energy per Si atom -5586.052078 kJ/mol
# Density = 2.251965 g / cm^3
# Si number density = 22.571020 Si / 1000 Ang^3
#
#
#
# Elastic Constant Matrix: (Units=GPa)
#
#
# Indices 1 2 3 4 5 6 
#
# 1 188.4381 66.0954 37.0369 5.0335 -14.1033 6.1473
# 2 66.0954 127.0902 32.7394 5.5146 -21.7109 1.2878
# 3 37.0369 32.7394 41.9951 -2.2759 -16.7038 2.0298
# 4 5.0335 5.5146 -2.2759 31.1874 6.2459 -7.4742
# 5 -14.1033 -21.7109 -16.7038 6.2459 11.0523 -2.7893
# 6 6.1473 1.2878 2.0298 -7.4742 -2.7893 63.8844
#
#
#
# Elastic Compliance Matrix: (Units=1/GPa)
#
#
# Indices 1 2 3 4 5 6 
#
# 1 0.007279 -0.003457 -0.007155 0.000498 -0.008782 -0.000728
# 2 -0.003457 0.015622 0.007796 -0.010336 0.044022 0.000483
# 3 -0.007155 0.007796 0.075589 -0.020913 0.132615 0.001473
# 4 0.000498 -0.010336 -0.020913 0.048648 -0.077982 0.003112
# 5 -0.008782 0.044022 0.132615 -0.077982 0.411401 0.004583
# 6 -0.000728 0.000483 0.001473 0.003112 0.004583 0.016231
#
#
# Mechanical properties :
#
#
# Convention : Reuss Voigt Hill
#
# Bulk Modulus (GPa) = 10.76918 69.91852 40.34385
# Shear Modulus (GPa) = 8.17857 36.00159 22.09008
#
# Velocity S-wave (km/s) = 1.90561 3.99812 3.13180
# Velocity P-wave (km/s) = 3.10216 7.23586 5.56691
#
# Compressibility (1/GPa) = 0.09285762
#
# Stress axis : x y z
#
# Youngs Moduli (GPa) = 137.38598 64.01408 13.22952
#
# Poissons Ratio (x) = 0.22127 0.09466
# Poissons Ratio (y) = 0.47489 -0.10314
# Poissons Ratio (z) = 0.98305 -0.49907
#
# Static dielectric constant tensor:
#      x y z
#    x 1.903780 0.062830 -0.050970 
#    y 0.062830 1.923440 -0.046310 
#    z -0.050970 -0.046310 1.954140 
# 
# From -- ./inp_files/471650.got.cif
#   From: 2010.05.17/outbox.cif.g08.bks.cpg/sg2_236_cif.got.tgz:471650.got - 2010.06.03 11:33:40.
