data_PCOD9048512
_publ_section_title
;
Structure prediction by ZEFSAII (Michael W. Deem and Ramdas Pophale) SiO2 
 PCOD9048512
Probable space group: P -1
;
_chemical_formula_sum "Si O2"
_cell_formula_units_Z 16
_cell_length_a 8.917253
_cell_length_b 6.708313
_cell_length_c 13.440872
_cell_angle_alpha 100.439394
_cell_angle_beta 123.104623
_cell_angle_gamma 83.993311
_cell_volume 662.350565
_symmetry_space_group_name_H-M "P -1"
_symmetry_group_IT_number 2
_symmetry_cell_setting 'triclinic'
loop_
_space_group_symop_operation_xyz
x,y,z
-x,-y,-z
loop_
_atom_site_type_symbol
_atom_site_label
_atom_site_fract_x
_atom_site_fract_y
_atom_site_fract_z
Si Si1 0.769396 0.466066 0.172111
Si Si2 0.867280 0.143283 0.336012
Si Si3 0.586358 0.298438 0.894913
Si Si4 0.179723 0.371076 0.071499
Si Si5 0.272778 0.041108 0.223065
Si Si6 0.496780 0.736723 0.502078
Si Si7 0.052208 0.194598 0.823400
Si Si8 0.739110 0.957205 0.470567
O O1 0.801804 0.343104 0.273720
O O2 0.615237 0.634949 0.148651
O O3 0.944571 0.590411 0.213087
O O4 0.699797 0.329113 0.041609
O O5 0.749247 0.056269 0.374801
O O6 0.880837 0.976361 0.240915
O O7 0.071015 0.151763 0.451502
O O8 0.659795 0.472037 0.862135
O O9 0.619489 0.085646 0.833358
O O10 0.172269 0.226238 0.149059
O O11 0.191039 0.228062 0.966329
O O12 0.000000 0.500000 0.000000
O O13 0.386497 0.150903 0.359929
O O14 0.129092 0.885485 0.200744
O O15 0.500000 0.500000 0.500000
O O16 0.304979 0.846764 0.457746
O O17 0.588441 0.798075 0.436370
#
# Coordination Sequence:
#
# PCOD9048512 Si02
#       8
#     2   2   2   2   2   2   2   2
#     4  10  25  44  72 108 149 195 230 291 354 443
#     4  11  24  47  74 101 145 186 240 293 370 415
#     4  10  24  45  69 109 151 185 243 282 356 442
#     4  11  24  39  71 113 146 188 238 283 352 442
#     4  12  25  44  76 100 146 194 233 304 361 416
#     4  11  27  50  76 100 139 183 250 307 360 418
#     4  11  24  41  72 108 146 184 237 288 351 442
#     4  10  26  50  72 105 135 185 244 313 352 428
#
# _framework density 24.156390999999999
#
# number of rings (size 3 to 8) (size 9 to 14) (size 15 to 20)
#    0.000    1.250    2.500    1.125    7.000    5.000 
#    0.000    6.250    0.000    0.000    0.000    0.000 
#    0.000    0.000    0.000    0.000    0.000    0.000 
#
# Total GULP energy -89509.378072 kJ/mol
# GULP energy per Si atom -5594.336130 kJ/mol
# Density = 2.410141 g / cm^3
# Si number density = 24.156391 Si / 1000 Ang^3
#
#
#
# Elastic Constant Matrix: (Units=GPa)
#
#
# Indices 1 2 3 4 5 6 
#
# 1 131.2523 52.8642 30.1172 -11.2230 -14.0775 10.2802
# 2 52.8642 125.3490 60.3471 -23.6558 -2.2711 9.7462
# 3 30.1172 60.3471 74.6055 -19.0815 -3.6615 9.5596
# 4 -11.2230 -23.6558 -19.0815 49.2530 6.1261 -8.4348
# 5 -14.0775 -2.2711 -3.6615 6.1261 30.7404 0.7747
# 6 10.2802 9.7462 9.5596 -8.4348 0.7747 32.4033
#
#
#
# Elastic Compliance Matrix: (Units=1/GPa)
#
#
# Indices 1 2 3 4 5 6 
#
# 1 0.009840 -0.003724 -0.000658 -0.000700 0.004345 -0.002094
# 2 -0.003724 0.014760 -0.009899 0.002775 -0.002358 0.000441
# 3 -0.000658 -0.009899 0.022945 0.003381 0.001095 -0.002729
# 4 -0.000700 0.002775 0.003381 0.024187 -0.004654 0.004797
# 5 0.004345 -0.002358 0.001095 -0.004654 0.035481 -0.003052
# 6 -0.002094 0.000441 -0.002729 0.004797 -0.003052 0.033520
#
#
# Mechanical properties :
#
#
# Convention : Reuss Voigt Hill
#
# Bulk Modulus (GPa) = 52.67476 68.65152 60.66314
# Shear Modulus (GPa) = 28.47049 35.00457 31.73753
#
# Velocity S-wave (km/s) = 3.43678 3.81081 3.62862
# Velocity P-wave (km/s) = 6.13202 6.91696 6.53628
#
# Compressibility (1/GPa) = 0.01898442
#
# Stress axis : x y z
#
# Youngs Moduli (GPa) = 101.62818 67.74885 43.58339
#
# Poissons Ratio (x) = 0.25228 0.02866
# Poissons Ratio (y) = 0.37844 0.43142
# Poissons Ratio (z) = 0.06683 0.67063
#
# Static dielectric constant tensor:
#      x y z
#    x 1.976890 -0.004760 0.014720 
#    y -0.004760 1.896150 -0.016220 
#    z 0.014720 -0.016220 1.994340 
# 
# From -- ./inp_files/488592.got.cif
#   From: 2010.05.17/outbox.cif.g08.bks.cpg/sg2_245_cif.got.tgz:488592.got - 2010.06.03 11:33:40.
