data_PCOD9048838
_publ_section_title
;
Structure prediction by ZEFSAII (Michael W. Deem and Ramdas Pophale) SiO2 
 PCOD9048838
Probable space group: P -1
;
_chemical_formula_sum "Si O2"
_cell_formula_units_Z 14
_cell_length_a 13.923428
_cell_length_b 16.774700
_cell_length_c 23.967538
_cell_angle_alpha 17.234533
_cell_angle_beta 157.809576
_cell_angle_gamma 146.892128
_cell_volume 569.219408
_symmetry_space_group_name_H-M "P -1"
_symmetry_group_IT_number 2
_symmetry_cell_setting 'triclinic'
loop_
_space_group_symop_operation_xyz
x,y,z
-x,-y,-z
loop_
_atom_site_type_symbol
_atom_site_label
_atom_site_fract_x
_atom_site_fract_y
_atom_site_fract_z
Si Si1 0.770673 0.892389 0.676625
Si Si2 0.705152 0.211508 0.672526
Si Si3 0.285289 0.505231 0.793550
Si Si4 0.828896 0.781000 0.651118
Si Si5 0.709775 0.398810 0.731166
Si Si6 0.897865 0.332266 0.289449
Si Si7 0.049869 0.261980 0.732456
O O1 0.846001 0.173709 0.522936
O O2 0.134381 0.948872 0.957926
O O3 0.500000 0.000000 0.500000
O O4 0.749445 0.825174 0.644352
O O5 0.477052 0.075796 0.637660
O O6 0.514001 0.509696 0.401141
O O7 0.770453 0.303536 0.586607
O O8 0.000000 0.000000 0.000000
O O9 0.131697 0.539740 0.748415
O O10 0.250370 0.290535 0.870851
O O11 0.598124 0.452864 0.016024
O O12 0.000937 0.431542 0.964774
O O13 0.985270 0.982083 0.580943
O O14 0.500000 0.500000 0.500000
O O15 0.904859 0.569265 0.707709
O O16 0.000000 0.500000 0.500000
#
# Coordination Sequence:
#
# PCOD9048838 Si02
#       7
#     2   2   2   2   2   2   2
#     4  10  24  45  73 109 152 195 246 322 397 461
#     4  12  27  51  79 110 159 207 270 326 383 473
#     4  10  24  46  78 114 156 203 261 325 388 471
#     4  10  25  47  75 115 150 193 258 326 388 465
#     4  12  28  49  79 113 153 210 265 320 400 473
#     4  10  24  47  81 118 148 203 269 325 388 465
#     4  12  30  51  76 114 162 211 256 326 406 469
#
# _framework density 24.595086999999999
#
# number of rings (size 3 to 8) (size 9 to 14) (size 15 to 20)
#    0.000    1.143    1.429    1.714   12.000    2.286 
#    5.143    0.000    0.000    0.000    0.000    0.000 
#    0.000    0.000    0.000    0.000    0.000    0.000 
#
# Total GULP energy -78194.323635 kJ/mol
# GULP energy per Si atom -5585.308831 kJ/mol
# Density = 2.453911 g / cm^3
# Si number density = 24.595087 Si / 1000 Ang^3
#
#
#
# Elastic Constant Matrix: (Units=GPa)
#
#
# Indices 1 2 3 4 5 6 
#
# 1 170.8704 48.4865 93.7986 -31.5307 17.1931 4.0361
# 2 48.4865 108.1109 58.3984 -7.9661 9.6984 20.0678
# 3 93.7986 58.3984 127.3275 -17.0929 5.1403 17.0361
# 4 -31.5307 -7.9661 -17.0929 49.9187 -7.2765 -5.1481
# 5 17.1931 9.6984 5.1403 -7.2765 50.8496 -6.0798
# 6 4.0361 20.0678 17.0361 -5.1481 -6.0798 33.8632
#
#
#
# Elastic Compliance Matrix: (Units=1/GPa)
#
#
# Indices 1 2 3 4 5 6 
#
# 1 0.011235 -0.001113 -0.007566 0.004429 -0.001771 0.003482
# 2 -0.001113 0.013547 -0.004607 -0.001147 -0.002651 -0.006228
# 3 -0.007566 -0.004607 0.016019 -0.000281 0.001270 -0.004241
# 4 0.004429 -0.001147 -0.000281 0.023376 0.002611 0.004316
# 5 -0.001771 -0.002651 0.001270 0.002611 0.021665 0.005430
# 6 0.003482 -0.006228 -0.004241 0.004316 0.005430 0.036571
#
#
# Mechanical properties :
#
#
# Convention : Reuss Voigt Hill
#
# Bulk Modulus (GPa) = 70.27979 89.74173 80.01076
# Shear Modulus (GPa) = 32.52534 40.63462 36.57998
#
# Velocity S-wave (km/s) = 3.64047 4.06907 3.86072
# Velocity P-wave (km/s) = 6.80496 7.65789 7.24399
#
# Compressibility (1/GPa) = 0.01422884
#
# Stress axis : x y z
#
# Youngs Moduli (GPa) = 89.01131 73.81826 62.42759
#
# Poissons Ratio (x) = 0.08216 0.47230
# Poissons Ratio (y) = 0.09906 0.28761
# Poissons Ratio (z) = 0.67342 0.34008
#
# Static dielectric constant tensor:
#      x y z
#    x 1.929090 -0.110110 -0.024610 
#    y -0.110110 2.072590 0.012090 
#    z -0.024610 0.012090 1.950360 
# 
# From -- ./inp_files/595225.got.cif
#   From: 2010.05.17/outbox.cif.g08.bks.cpg/sg2_298_cif.got.tgz:595225.got - 2010.06.03 11:33:40.
