data_PCOD9048066
_publ_section_title
;
Structure prediction by ZEFSAII (Michael W. Deem and Ramdas Pophale) SiO2 
 PCOD9048066
Probable space group: P -1
;
_chemical_formula_sum "Si O2"
_cell_formula_units_Z 14
_cell_length_a 5.565407
_cell_length_b 17.805689
_cell_length_c 6.752524
_cell_angle_alpha 90.346533
_cell_angle_beta 101.985428
_cell_angle_gamma 106.729178
_cell_volume 625.307445
_symmetry_space_group_name_H-M "P -1"
_symmetry_group_IT_number 2
_symmetry_cell_setting 'triclinic'
loop_
_space_group_symop_operation_xyz
x,y,z
-x,-y,-z
loop_
_atom_site_type_symbol
_atom_site_label
_atom_site_fract_x
_atom_site_fract_y
_atom_site_fract_z
Si Si1 0.245428 0.823481 0.564330
Si Si2 0.309205 0.682997 0.351239
Si Si3 0.859620 0.665044 0.564561
Si Si4 0.544654 0.535669 0.726106
Si Si5 0.981826 0.052332 0.685403
Si Si6 0.754436 0.426551 0.003054
Si Si7 0.376558 0.064217 0.067103
O O1 0.357711 0.773398 0.425521
O O2 0.146553 0.884244 0.419384
O O3 0.431831 0.867874 0.770530
O O4 0.015709 0.755868 0.627641
O O5 0.571433 0.664423 0.456991
O O6 0.255365 0.652766 0.116275
O O7 0.042645 0.642512 0.428404
O O8 0.810879 0.606171 0.742313
O O9 0.500000 0.500000 0.500000
O O10 0.544784 0.460291 0.853674
O O11 0.339986 0.574142 0.788261
O O12 0.817962 0.987414 0.806959
O O13 0.000000 0.000000 0.500000
O O14 0.763138 0.908204 0.141090
O O15 0.000000 0.500000 0.000000
O O16 0.500000 0.000000 0.000000
#
# Coordination Sequence:
#
# PCOD9048066 Si02
#       7
#     2   2   2   2   2   2   2
#     4  10  25  44  74 103 159 190 247 314 380 442
#     4  10  24  45  71 102 148 193 240 302 386 432
#     4  10  24  44  73 101 145 201 234 304 387 427
#     4  11  23  43  74  99 143 189 249 305 358 438
#     4  11  24  43  79 104 147 190 250 307 371 442
#     4  11  25  41  74 106 137 192 257 302 367 447
#     4  11  24  43  74 111 135 196 253 293 373 457
#
# _framework density 22.388983
#
# number of rings (size 3 to 8) (size 9 to 14) (size 15 to 20)
#    0.857    0.571    2.857    1.286    6.000    1.143 
#    0.000    8.571    0.000    0.000    0.000    0.000 
#    0.000    0.000    0.000    0.000    0.000    0.000 
#
# Total GULP energy -77986.734166 kJ/mol
# GULP energy per Si atom -5570.481012 kJ/mol
# Density = 2.233802 g / cm^3
# Si number density = 22.388983 Si / 1000 Ang^3
#
#
#
# Elastic Constant Matrix: (Units=GPa)
#
#
# Indices 1 2 3 4 5 6 
#
# 1 111.9163 34.5718 71.3716 17.2646 -9.4054 2.2807
# 2 34.5718 104.7760 61.7426 25.4745 5.1676 -2.1586
# 3 71.3716 61.7426 181.3362 36.1387 -7.3043 -7.9103
# 4 17.2646 25.4745 36.1387 45.4825 -0.5438 -3.6239
# 5 -9.4054 5.1676 -7.3043 -0.5438 50.7458 -2.8849
# 6 2.2807 -2.1586 -7.9103 -3.6239 -2.8849 43.6719
#
#
#
# Elastic Compliance Matrix: (Units=1/GPa)
#
#
# Indices 1 2 3 4 5 6 
#
# 1 0.012372 -0.001582 -0.004211 -0.000556 0.001762 -0.001417
# 2 -0.001582 0.013008 -0.003046 -0.004317 -0.002121 -0.000324
# 3 -0.004211 -0.003046 0.009059 -0.003767 0.000876 0.001455
# 4 -0.000556 -0.004317 -0.003767 0.027725 0.000174 0.001446
# 5 0.001762 -0.002121 0.000876 0.000174 0.020452 0.001327
# 6 -0.001417 -0.000324 0.001455 0.001446 0.001327 0.023427
#
#
# Mechanical properties :
#
#
# Convention : Reuss Voigt Hill
#
# Bulk Modulus (GPa) = 59.65935 81.48893 70.57414
# Shear Modulus (GPa) = 38.66741 43.33621 41.00181
#
# Velocity S-wave (km/s) = 4.16032 4.40432 4.28406
# Velocity P-wave (km/s) = 7.05565 7.89557 7.48740
#
# Compressibility (1/GPa) = 0.01676183
#
# Stress axis : x y z
#
# Youngs Moduli (GPa) = 80.82804 76.87323 110.39317
#
# Poissons Ratio (x) = 0.12159 0.46485
# Poissons Ratio (y) = 0.12784 0.33626
# Poissons Ratio (z) = 0.34036 0.23416
#
# Static dielectric constant tensor:
#      x y z
#    x 1.968650 -0.029900 0.064090 
#    y -0.029900 1.920950 -0.027880 
#    z 0.064090 -0.027880 1.851060 
# 
# From -- ./inp_files/9016.got.cif
#   From: 2010.05.17/outbox.cif.g08.bks.cpg/sg2_5_cif.got.tgz:9016.got - 2010.06.03 11:33:40.
