data_PCOD9048613
_publ_section_title
;
Structure prediction by ZEFSAII (Michael W. Deem and Ramdas Pophale) SiO2 
 PCOD9048613
Probable space group: P -1
;
_chemical_formula_sum "Si O2"
_cell_formula_units_Z 16
_cell_length_a 5.400448
_cell_length_b 13.465783
_cell_length_c 26.752106
_cell_angle_alpha 24.772941
_cell_angle_beta 70.726528
_cell_angle_gamma 59.340362
_cell_volume 651.803500
_symmetry_space_group_name_H-M "P -1"
_symmetry_group_IT_number 2
_symmetry_cell_setting 'triclinic'
loop_
_space_group_symop_operation_xyz
x,y,z
-x,-y,-z
loop_
_atom_site_type_symbol
_atom_site_label
_atom_site_fract_x
_atom_site_fract_y
_atom_site_fract_z
Si Si1 0.224073 0.616717 0.422903
Si Si2 0.015888 0.768110 0.818168
Si Si3 0.688005 0.116894 0.343215
Si Si4 0.536557 0.732169 0.918143
Si Si5 0.044435 0.018329 0.902889
Si Si6 0.573092 0.425406 0.303480
Si Si7 0.838320 0.752024 0.108589
Si Si8 0.647675 0.198357 0.508097
O O1 0.500000 0.500000 0.500000
O O2 0.405324 0.490581 0.417012
O O3 0.000000 0.500000 0.500000
O O4 0.017464 0.953944 0.282448
O O5 0.190796 0.742598 0.767201
O O6 0.665235 0.847135 0.814968
O O7 0.207707 0.458025 0.970081
O O8 0.483093 0.319069 0.309441
O O9 0.505789 0.988322 0.388441
O O10 0.017569 0.894329 0.449140
O O11 0.247128 0.946444 0.872906
O O12 0.500000 0.500000 0.000000
O O13 0.128601 0.141006 0.888697
O O14 0.699233 0.271489 0.798707
O O15 0.052708 0.753726 0.049203
O O16 0.838150 0.472536 0.243932
O O17 0.661107 0.226292 0.435250
O O18 0.500000 0.000000 0.000000
#
# Coordination Sequence:
#
# PCOD9048613 Si02
#       8
#     2   2   2   2   2   2   2   2
#     4  12  25  49  76 110 146 202 255 306 376 446
#     4  11  28  47  72 109 149 197 254 314 383 449
#     4  12  28  49  75 111 150 197 252 309 380 450
#     4  11  29  46  75 107 151 194 252 320 380 453
#     4  10  24  45  70 106 140 190 249 302 383 446
#     4  11  27  42  76 104 150 193 246 312 374 447
#     4   9  22  42  66 102 136 187 236 302 364 446
#     4  12  27  48  74 111 153 195 255 312 371 450
#
# _framework density 24.547277000000001
#
# number of rings (size 3 to 8) (size 9 to 14) (size 15 to 20)
#    0.000    1.000    2.500    0.750   17.500    2.000 
#    0.000    0.000    0.000    0.000    0.000    0.000 
#    0.000    0.000    0.000    0.000    0.000    0.000 
#
# Total GULP energy -89381.819152 kJ/mol
# GULP energy per Si atom -5586.363697 kJ/mol
# Density = 2.449141 g / cm^3
# Si number density = 24.547277 Si / 1000 Ang^3
#
#
#
# Elastic Constant Matrix: (Units=GPa)
#
#
# Indices 1 2 3 4 5 6 
#
# 1 98.7633 11.7094 12.1522 0.0983 -6.8792 -15.9390
# 2 11.7094 112.9396 4.1971 0.2958 20.4693 -30.5593
# 3 12.1522 4.1971 51.6734 5.7140 -7.3518 -15.7522
# 4 0.0983 0.2958 5.7140 35.2097 1.5053 6.6503
# 5 -6.8792 20.4693 -7.3518 1.5053 25.8855 -7.2090
# 6 -15.9390 -30.5593 -15.7522 6.6503 -7.2090 33.2184
#
#
#
# Elastic Compliance Matrix: (Units=1/GPa)
#
#
# Indices 1 2 3 4 5 6 
#
# 1 0.011628 -0.000320 0.000387 -0.001648 0.005496 0.006991
# 2 -0.000320 0.013268 0.002034 -0.002448 -0.006487 0.012099
# 3 0.000387 0.002034 0.027841 -0.008789 0.012402 0.019710
# 4 -0.001648 -0.002448 -0.008789 0.033069 -0.007209 -0.015396
# 5 0.005496 -0.006487 0.012402 -0.007209 0.053510 0.015606
# 6 0.006991 0.012099 0.019710 -0.015396 0.015606 0.060404
#
#
# Mechanical properties :
#
#
# Convention : Reuss Voigt Hill
#
# Bulk Modulus (GPa) = 17.56312 35.49927 26.53120
# Shear Modulus (GPa) = 23.31013 34.55055 28.93034
#
# Velocity S-wave (km/s) = 3.08490 3.75575 3.43673
# Velocity P-wave (km/s) = 4.45636 5.77066 5.15557
#
# Compressibility (1/GPa) = 0.05693749
#
# Stress axis : x y z
#
# Youngs Moduli (GPa) = 85.99695 75.37047 35.91829
#
# Poissons Ratio (x) = 0.02413 -0.01389
# Poissons Ratio (y) = 0.02753 -0.07304
# Poissons Ratio (z) = -0.03326 -0.15327
#
# Static dielectric constant tensor:
#      x y z
#    x 2.081960 -0.041110 0.057050 
#    y -0.041110 1.945780 0.012630 
#    z 0.057050 0.012630 1.998800 
# 
# From -- ./inp_files/604387.got.cif
#   From: 2010.05.17/outbox.cif.g08.bks.cpg/sg2_303_cif.got.tgz:604387.got - 2010.06.03 11:33:40.
