data_PCOD9048122
_publ_section_title
;
Structure prediction by ZEFSAII (Michael W. Deem and Ramdas Pophale) SiO2 
 PCOD9048122
Probable space group: P -1
;
_chemical_formula_sum "Si O2"
_cell_formula_units_Z 16
_cell_length_a 24.889565
_cell_length_b 5.337015
_cell_length_c 24.046342
_cell_angle_alpha 106.131174
_cell_angle_beta 11.291295
_cell_angle_gamma 107.071057
_cell_volume 597.003582
_symmetry_space_group_name_H-M "P -1"
_symmetry_group_IT_number 2
_symmetry_cell_setting 'triclinic'
loop_
_space_group_symop_operation_xyz
x,y,z
-x,-y,-z
loop_
_atom_site_type_symbol
_atom_site_label
_atom_site_fract_x
_atom_site_fract_y
_atom_site_fract_z
Si Si1 0.721258 0.338475 0.292030
Si Si2 0.615686 0.894929 0.654116
Si Si3 0.563519 0.208140 0.899220
Si Si4 0.686847 0.232668 0.448765
Si Si5 0.088740 0.674748 0.109008
Si Si6 0.859995 0.668908 0.740134
Si Si7 0.650660 0.478008 0.687316
Si Si8 0.164197 0.931363 0.942362
O O1 0.500000 0.500000 0.500000
O O2 0.711979 0.333236 0.366608
O O3 0.728804 0.079250 0.230148
O O4 0.000000 0.500000 0.000000
O O5 0.889550 0.899087 0.338638
O O6 0.694231 0.729799 0.618452
O O7 0.543317 0.192903 0.751927
O O8 0.350548 0.725315 0.885732
O O9 0.886084 0.258083 0.557409
O O10 0.500000 0.500000 0.000000
O O11 0.348872 0.131849 0.061535
O O12 0.500000 0.000000 0.000000
O O13 0.861763 0.423235 0.325132
O O14 0.366108 0.161463 0.781067
O O15 0.846970 0.976002 0.266669
O O16 0.193893 0.694932 0.939709
O O17 0.067642 0.596657 0.574593
O O18 0.590913 0.468773 0.020911
#
# Coordination Sequence:
#
# PCOD9048122 Si02
#       8
#     2   2   2   2   2   2   2   2
#     4  12  24  44  68  95 135 170 216 273 330 437
#     4  12  28  47  74 102 142 180 246 313 368 419
#     4  11  24  41  68 112 154 194 238 294 354 415
#     4  12  26  45  70  97 132 175 221 269 357 431
#     4  12  28  45  70 101 134 174 222 303 364 436
#     4  10  24  44  74 101 148 198 246 294 352 420
#     4  11  26  48  70 103 136 193 250 301 356 417
#     4  12  26  45  70  97 132 175 221 269 357 431
#
# _framework density 26.800511
#
# number of rings (size 3 to 8) (size 9 to 14) (size 15 to 20)
#    0.000    0.500    1.250    6.000    7.000    6.000 
#    0.000    0.000    0.000    0.000    0.000    0.000 
#    0.000    0.000    0.000    0.000    0.000    0.000 
#
# Total GULP energy -89209.320228 kJ/mol
# GULP energy per Si atom -5575.582514 kJ/mol
# Density = 2.673951 g / cm^3
# Si number density = 26.800511 Si / 1000 Ang^3
#
#
#
# Elastic Constant Matrix: (Units=GPa)
#
#
# Indices 1 2 3 4 5 6 
#
# 1 95.5069 33.0853 32.0124 -0.6995 -3.8979 -32.4323
# 2 33.0853 105.8731 12.1076 7.8631 -5.1358 -13.8697
# 3 32.0124 12.1076 172.7134 -0.7430 -15.0773 -2.4226
# 4 -0.6995 7.8631 -0.7430 31.6036 1.9021 -1.0241
# 5 -3.8979 -5.1358 -15.0773 1.9021 58.4702 -6.9482
# 6 -32.4323 -13.8697 -2.4226 -1.0241 -6.9482 52.1290
#
#
#
# Elastic Compliance Matrix: (Units=1/GPa)
#
#
# Indices 1 2 3 4 5 6 
#
# 1 0.015522 -0.003471 -0.002408 0.001369 0.001110 0.008797
# 2 -0.003471 0.010893 -0.000042 -0.002816 0.000901 0.000802
# 3 -0.002408 -0.000042 0.006342 -0.000008 0.001349 -0.001035
# 4 0.001369 -0.002816 -0.000008 0.032461 -0.001144 0.000587
# 5 0.001110 0.000901 0.001349 -0.001144 0.018042 0.003375
# 6 0.008797 0.000802 -0.001035 0.000587 0.003375 0.025283
#
#
# Mechanical properties :
#
#
# Convention : Reuss Voigt Hill
#
# Bulk Modulus (GPa) = 47.81124 58.72265 53.26694
# Shear Modulus (GPa) = 39.25997 48.23310 43.74654
#
# Velocity S-wave (km/s) = 3.83155 4.24690 4.04456
# Velocity P-wave (km/s) = 6.11987 6.78283 6.45986
#
# Compressibility (1/GPa) = 0.02091558
#
# Stress axis : x y z
#
# Youngs Moduli (GPa) = 64.42343 91.80504 157.67077
#
# Poissons Ratio (x) = 0.31864 0.37960
# Poissons Ratio (y) = 0.22360 0.00670
# Poissons Ratio (z) = 0.15510 0.00390
#
# Static dielectric constant tensor:
#      x y z
#    x 2.311960 0.133060 0.035280 
#    y 0.133060 2.293610 -0.036190 
#    z 0.035280 -0.036190 2.015930 
# 
# From -- ./inp_files/621076.got.cif
#   From: 2010.05.17/outbox.cif.g08.bks.cpg/sg2_311_cif.got.tgz:621076.got - 2010.06.03 11:33:40.
