data_PCOD9048120
_publ_section_title
;
Structure prediction by ZEFSAII (Michael W. Deem and Ramdas Pophale) SiO2 
 PCOD9048120
Probable space group: P -1
;
_chemical_formula_sum "Si O2"
_cell_formula_units_Z 15
_cell_length_a 15.663158
_cell_length_b 15.186734
_cell_length_c 5.271231
_cell_angle_alpha 119.313356
_cell_angle_beta 115.994585
_cell_angle_gamma 30.294861
_cell_volume 551.183705
_symmetry_space_group_name_H-M "P -1"
_symmetry_group_IT_number 2
_symmetry_cell_setting 'triclinic'
loop_
_space_group_symop_operation_xyz
x,y,z
-x,-y,-z
loop_
_atom_site_type_symbol
_atom_site_label
_atom_site_fract_x
_atom_site_fract_y
_atom_site_fract_z
Si Si1 0.211176 0.542913 0.908158
Si Si2 0.792268 0.817302 0.209989
Si Si3 0.534283 0.321571 0.854530
Si Si4 0.120974 0.436229 0.347721
Si Si5 0.059695 0.115557 0.713867
Si Si6 0.848140 0.153181 0.215830
Si Si7 0.500000 0.000000 0.000000
Si Si8 0.513486 0.754989 0.827361
O O1 0.021308 0.747839 0.971647
O O2 0.287452 0.435366 0.118532
O O3 0.339897 0.515646 0.949321
O O4 0.227313 0.434629 0.591851
O O5 0.979228 0.611398 0.229143
O O6 0.826830 0.903593 0.313808
O O7 0.751426 0.764165 0.865057
O O8 0.634369 0.920250 0.311394
O O9 0.534069 0.278715 0.510929
O O10 0.669657 0.287897 0.043042
O O11 0.569878 0.205028 0.955490
O O12 0.000000 0.500000 0.500000
O O13 0.897676 0.217050 0.488700
O O14 0.138776 0.943752 0.683023
O O15 0.000000 0.000000 0.000000
O O16 0.484434 0.895913 0.927655
#
# Coordination Sequence:
#
# PCOD9048120 Si02
#       8
#     2   2   2   2   2   2   1   2
#     4  10  24  44  74 100 147 185 242 297 362 437
#     4  11  26  41  72 103 151 189 240 296 361 438
#     4  10  25  47  75 103 146 188 244 306 362 432
#     4  11  22  43  67 107 141 189 236 289 357 440
#     4  11  26  47  71 106 140 193 243 308 371 432
#     4  11  28  47  74 103 142 190 250 310 371 440
#     4  12  24  42  68 108 146 196 240 294 352 446
#     4  10  25  45  71 108 146 189 241 299 360 435
#
# _framework density 27.214158999999999
#
# number of rings (size 3 to 8) (size 9 to 14) (size 15 to 20)
#    0.800    0.533    1.333    2.400   11.200    1.067 
#    4.800    1.333    0.000    0.000    0.000    0.000 
#    0.000    0.000    0.000    0.000    0.000    0.000 
#
# Total GULP energy -83613.941250 kJ/mol
# GULP energy per Si atom -5574.262750 kJ/mol
# Density = 2.715222 g / cm^3
# Si number density = 27.214159 Si / 1000 Ang^3
#
#
#
# Elastic Constant Matrix: (Units=GPa)
#
#
# Indices 1 2 3 4 5 6 
#
# 1 146.6865 7.4615 31.9657 -23.7575 45.9547 -4.3938
# 2 7.4615 32.6755 7.2286 -3.2968 22.1168 0.7134
# 3 31.9657 7.2286 100.4297 -23.1073 22.0656 10.3333
# 4 -23.7575 -3.2968 -23.1073 40.7727 -13.3806 10.2571
# 5 45.9547 22.1168 22.0656 -13.3806 55.6482 -4.1774
# 6 -4.3938 0.7134 10.3333 10.2571 -4.1774 55.3021
#
#
#
# Elastic Compliance Matrix: (Units=1/GPa)
#
#
# Indices 1 2 3 4 5 6 
#
# 1 0.010059 0.004285 -0.000842 0.002850 -0.009014 -0.000308
# 2 0.004285 0.044032 0.000271 -0.000341 -0.021365 -0.001829
# 3 -0.000842 0.000271 0.012875 0.006783 -0.003185 -0.003975
# 4 0.002850 -0.000341 0.006783 0.032522 0.002396 -0.006888
# 5 -0.009014 -0.021365 -0.003185 0.002396 0.035926 0.002424
# 6 -0.000308 -0.001829 -0.003975 -0.006888 0.002424 0.020285
#
#
# Mechanical properties :
#
#
# Convention : Reuss Voigt Hill
#
# Bulk Modulus (GPa) = 13.44216 41.45592 27.44904
# Shear Modulus (GPa) = 28.88997 45.88699 37.38848
#
# Velocity S-wave (km/s) = 3.26172 4.11072 3.71058
# Velocity P-wave (km/s) = 4.37438 6.14793 5.33537
#
# Compressibility (1/GPa) = 0.07439280
#
# Stress axis : x y z
#
# Youngs Moduli (GPa) = 99.41341 22.71050 77.66942
#
# Poissons Ratio (x) = -0.09730 0.06542
# Poissons Ratio (y) = -0.42594 -0.02104
# Poissons Ratio (z) = 0.08373 -0.00615
#
# Static dielectric constant tensor:
#      x y z
#    x 1.980570 0.103760 -0.027120 
#    y 0.103760 2.459450 -0.228170 
#    z -0.027120 -0.228170 2.297950 
# 
# From -- ./inp_files/98642.got.cif
#   From: 2010.05.17/outbox.cif.g08.bks.cpg/sg2_50_cif.got.tgz:98642.got - 2010.06.03 11:33:40.
