data_PCOD9048646
_publ_section_title
;
Structure prediction by ZEFSAII (Michael W. Deem and Ramdas Pophale) SiO2 
 PCOD9048646
Probable space group: P -1
;
_chemical_formula_sum "Si O2"
_cell_formula_units_Z 16
_cell_length_a 8.460524
_cell_length_b 6.939340
_cell_length_c 13.366156
_cell_angle_alpha 98.214836
_cell_angle_beta 108.194911
_cell_angle_gamma 101.752338
_cell_volume 711.654798
_symmetry_space_group_name_H-M "P -1"
_symmetry_group_IT_number 2
_symmetry_cell_setting 'triclinic'
loop_
_space_group_symop_operation_xyz
x,y,z
-x,-y,-z
loop_
_atom_site_type_symbol
_atom_site_label
_atom_site_fract_x
_atom_site_fract_y
_atom_site_fract_z
Si Si1 0.131219 0.599555 0.448063
Si Si2 0.400509 0.825918 0.172745
Si Si3 0.681089 0.980598 0.409359
Si Si4 0.853923 0.601247 0.937260
Si Si5 0.830125 0.905693 0.798096
Si Si6 0.082639 0.171771 0.705939
Si Si7 0.358437 0.301035 0.923658
Si Si8 0.653108 0.690284 0.572336
O O1 0.190161 0.413289 0.403684
O O2 0.000000 0.500000 0.500000
O O3 0.037194 0.703089 0.356307
O O4 0.280703 0.784194 0.537276
O O5 0.515429 0.894788 0.299946
O O6 0.301270 0.589394 0.141985
O O7 0.532053 0.850819 0.105918
O O8 0.252781 0.943288 0.144063
O O9 0.841374 0.944944 0.373757
O O10 0.667924 0.855649 0.500570
O O11 0.905883 0.756586 0.868514
O O12 0.779275 0.725836 0.016048
O O13 0.000000 0.500000 0.000000
O O14 0.666082 0.782575 0.691327
O O15 0.970003 0.024722 0.755101
O O16 0.246150 0.317859 0.804746
O O17 0.500000 0.500000 0.000000
O O18 0.500000 0.500000 0.500000
#
# Coordination Sequence:
#
# PCOD9048646 Si02
#       8
#     2   2   2   2   2   2   2   2
#     4  12  24  42  69  97 139 190 225 279 339 406
#     4  10  24  45  70  98 139 179 223 284 344 414
#     4  11  23  46  64 102 145 178 229 278 336 423
#     4  11  25  46  72 102 135 176 232 291 348 409
#     4  12  26  42  69 103 134 180 233 282 347 405
#     4  11  23  43  69  99 138 177 231 283 339 413
#     4   9  22  46  70  95 132 179 222 286 346 402
#     4  12  26  40  67 103 141 187 226 275 348 408
#
# _framework density 22.482807999999999
#
# number of rings (size 3 to 8) (size 9 to 14) (size 15 to 20)
#    0.000    1.000    2.500    3.375    5.250    3.500 
#    2.250    3.750    0.000    0.000    0.000    0.000 
#    0.000    0.000    0.000    0.000    0.000    0.000 
#
# Total GULP energy -89414.436054 kJ/mol
# GULP energy per Si atom -5588.402253 kJ/mol
# Density = 2.243164 g / cm^3
# Si number density = 22.482808 Si / 1000 Ang^3
#
#
#
# Elastic Constant Matrix: (Units=GPa)
#
#
# Indices 1 2 3 4 5 6 
#
# 1 70.0685 30.0565 9.1363 -19.9174 -7.2992 -9.7066
# 2 30.0565 124.5307 44.9950 -19.7762 -6.4540 -1.0796
# 3 9.1363 44.9950 103.5436 0.5781 9.5935 4.9211
# 4 -19.9174 -19.7762 0.5781 47.3438 4.3523 -2.4045
# 5 -7.2992 -6.4540 9.5935 4.3523 40.5398 7.8058
# 6 -9.7066 -1.0796 4.9211 -2.4045 7.8058 34.0501
#
#
#
# Elastic Compliance Matrix: (Units=1/GPa)
#
#
# Indices 1 2 3 4 5 6 
#
# 1 0.018442 -0.003017 -0.000728 0.006669 0.001247 0.005452
# 2 -0.003017 0.011095 -0.004757 0.003236 0.002012 -0.000053
# 3 -0.000728 -0.004757 0.012174 -0.002222 -0.003236 -0.001533
# 4 0.006669 0.003236 -0.002222 0.025659 -0.001370 0.004451
# 5 0.001247 0.002012 -0.003236 -0.001370 0.027172 -0.005439
# 6 0.005452 -0.000053 -0.001533 0.004451 -0.005439 0.032704
#
#
# Mechanical properties :
#
#
# Convention : Reuss Voigt Hill
#
# Bulk Modulus (GPa) = 40.47484 51.83538 46.15511
# Shear Modulus (GPa) = 32.79027 38.65041 35.72034
#
# Velocity S-wave (km/s) = 3.82312 4.15071 3.99028
# Velocity P-wave (km/s) = 6.12617 6.78799 6.46556
#
# Compressibility (1/GPa) = 0.02470671
#
# Stress axis : x y z
#
# Youngs Moduli (GPa) = 54.22477 90.13293 82.14097
#
# Poissons Ratio (x) = 0.27193 0.05980
# Poissons Ratio (y) = 0.16360 0.39074
# Poissons Ratio (z) = 0.03948 0.42876
#
# Static dielectric constant tensor:
#      x y z
#    x 1.908150 -0.005470 -0.007860 
#    y -0.005470 1.780560 0.052180 
#    z -0.007860 0.052180 1.864750 
# 
# From -- ./inp_files/139612.got.cif
#   From: 2010.05.17/outbox.cif.g08.bks.cpg/sg2_70_cif.got.tgz:139612.got - 2010.06.03 11:33:40.
