data_PCOD9048947
_publ_section_title
;
Structure prediction by ZEFSAII (Michael W. Deem and Ramdas Pophale) SiO2 
 PCOD9048947
Probable space group: P -1
;
_chemical_formula_sum "Si O2"
_cell_formula_units_Z 16
_cell_length_a 11.130074
_cell_length_b 24.778829
_cell_length_c 18.721603
_cell_angle_alpha 161.797286
_cell_angle_beta 142.310993
_cell_angle_gamma 29.278457
_cell_volume 764.968237
_symmetry_space_group_name_H-M "P -1"
_symmetry_group_IT_number 2
_symmetry_cell_setting 'triclinic'
loop_
_space_group_symop_operation_xyz
x,y,z
-x,-y,-z
loop_
_atom_site_type_symbol
_atom_site_label
_atom_site_fract_x
_atom_site_fract_y
_atom_site_fract_z
Si Si1 0.116657 0.714693 0.114983
Si Si2 0.871136 0.204517 0.341619
Si Si3 0.408566 0.408575 0.735443
Si Si4 0.809224 0.698449 0.315707
Si Si5 0.621514 0.945981 0.237123
Si Si6 0.679484 0.855982 0.311450
Si Si7 0.679554 0.279965 0.039625
Si Si8 0.580488 0.332776 0.224472
O O1 0.324465 0.717726 0.254924
O O2 0.822707 0.920786 0.245579
O O3 0.207277 0.610153 0.947543
O O4 0.131082 0.530498 0.934893
O O5 0.797790 0.215693 0.239304
O O6 0.621202 0.408125 0.521161
O O7 0.055714 0.264854 0.514621
O O8 0.038634 0.953877 0.135496
O O9 0.392144 0.524301 0.799976
O O10 0.392700 0.211315 0.468594
O O11 0.884812 0.722909 0.303134
O O12 0.511674 0.891453 0.432068
O O13 0.742249 0.862723 0.268734
O O14 0.537903 0.796736 0.991063
O O15 0.520372 0.765654 0.124388
O O16 0.664294 0.323201 0.171288
#
# Coordination Sequence:
#
# PCOD9048947 Si02
#       8
#     2   2   2   2   2   2   2   2
#     4  11  22  37  58  85 122 164 184 230 296 349
#     4  10  21  38  63  88 114 149 197 245 294 335
#     4  11  24  39  56  87 126 156 193 227 289 364
#     4  10  17  34  59  87 117 147 187 240 293 336
#     4  11  22  38  60  88 120 155 192 239 290 345
#     4   9  19  33  59  91 115 143 191 245 288 340
#     4  10  21  38  61  87 117 151 192 244 290 341
#     4  10  22  39  64  89 112 147 201 250 286 335
#
# _framework density 20.915903
#
# number of rings (size 3 to 8) (size 9 to 14) (size 15 to 20)
#    0.000    1.750    3.750    0.750    0.000    2.500 
#    0.000    0.625    0.000    2.250    0.000    0.000 
#    0.000    0.000    0.000    0.000    0.000    0.000 
#
# Total GULP energy -89252.591220 kJ/mol
# GULP energy per Si atom -5578.286951 kJ/mol
# Density = 2.086830 g / cm^3
# Si number density = 20.915903 Si / 1000 Ang^3
#
#
#
# Elastic Constant Matrix: (Units=GPa)
#
#
# Indices 1 2 3 4 5 6 
#
# 1 84.9385 34.8610 35.0558 -2.7461 -6.8085 21.9149
# 2 34.8610 74.6031 28.5732 -13.5151 -2.8238 15.5392
# 3 35.0558 28.5732 84.4317 -2.4448 -9.2501 22.1667
# 4 -2.7461 -13.5151 -2.4448 27.1655 7.5796 -3.7900
# 5 -6.8085 -2.8238 -9.2501 7.5796 20.7637 -1.0939
# 6 21.9149 15.5392 22.1667 -3.7900 -1.0939 18.3987
#
#
#
# Elastic Compliance Matrix: (Units=1/GPa)
#
#
# Indices 1 2 3 4 5 6 
#
# 1 0.019445 -0.005704 -0.000908 -0.005171 0.006138 -0.017950
# 2 -0.005704 0.019826 -0.003498 0.009660 -0.004470 -0.004012
# 3 -0.000908 -0.003498 0.019459 -0.005320 0.008785 -0.019983
# 4 -0.005171 0.009660 -0.005320 0.047899 -0.019546 0.013115
# 5 0.006138 -0.004470 0.008785 -0.019546 0.059846 -0.014588
# 6 -0.017950 -0.004012 -0.019983 0.013115 -0.014588 0.105030
#
#
# Mechanical properties :
#
#
# Convention : Reuss Voigt Hill
#
# Bulk Modulus (GPa) = 25.96693 48.99481 37.48087
# Shear Modulus (GPa) = 16.41702 22.96446 19.69074
#
# Velocity S-wave (km/s) = 2.80466 3.31712 3.07159
# Velocity P-wave (km/s) = 4.78853 6.17629 5.52614
#
# Compressibility (1/GPa) = 0.03851051
#
# Stress axis : x y z
#
# Youngs Moduli (GPa) = 51.42650 50.43920 51.38979
#
# Poissons Ratio (x) = 0.28772 0.04665
# Poissons Ratio (y) = 0.29336 0.17975
# Poissons Ratio (z) = 0.04668 0.17642
#
# Static dielectric constant tensor:
#      x y z
#    x 1.801090 -0.045000 -0.063560 
#    y -0.045000 1.787400 0.033370 
#    z -0.063560 0.033370 1.787650 
# 
# From -- ./inp_files/454394.got.cif
#   From: 2010.05.17/outbox.cif.g08.bks.cpg/sg2_228_cif.got.tgz:454394.got - 2010.06.03 11:33:40.
