data_PCOD9048686
_publ_section_title
;
Structure prediction by ZEFSAII (Michael W. Deem and Ramdas Pophale) SiO2 
 PCOD9048686
Probable space group: P -1
;
_chemical_formula_sum "Si O2"
_cell_formula_units_Z 16
_cell_length_a 9.524315
_cell_length_b 16.294055
_cell_length_c 12.118068
_cell_angle_alpha 130.491929
_cell_angle_beta 27.458667
_cell_angle_gamma 121.029637
_cell_volume 649.516236
_symmetry_space_group_name_H-M "P -1"
_symmetry_group_IT_number 2
_symmetry_cell_setting 'triclinic'
loop_
_space_group_symop_operation_xyz
x,y,z
-x,-y,-z
loop_
_atom_site_type_symbol
_atom_site_label
_atom_site_fract_x
_atom_site_fract_y
_atom_site_fract_z
Si Si1 0.802046 0.911893 0.849776
Si Si2 0.094361 0.770810 0.964701
Si Si3 0.267050 0.714982 0.261243
Si Si4 0.091445 0.441964 0.036380
Si Si5 0.798794 0.659454 0.370462
Si Si6 0.763147 0.416237 0.614977
Si Si7 0.157444 0.918970 0.223089
Si Si8 0.107160 0.197210 0.094550
O O1 0.826794 0.905747 0.958664
O O2 0.094280 0.826471 0.534010
O O3 0.789741 0.015864 0.869976
O O4 0.488575 0.868503 0.997627
O O5 0.467648 0.737229 0.675108
O O6 0.953114 0.840194 0.018969
O O7 0.989414 0.827404 0.204860
O O8 0.972901 0.657108 0.930628
O O9 0.240183 0.619727 0.285844
O O10 0.073911 0.708900 0.278978
O O11 0.611833 0.735814 0.026070
O O12 0.113213 0.388860 0.853339
O O13 0.426041 0.470520 0.854069
O O14 0.820472 0.546014 0.325662
O O15 0.000000 0.500000 0.500000
O O16 0.827499 0.295841 0.406604
O O17 0.000000 0.000000 0.500000
#
# Coordination Sequence:
#
# PCOD9048686 Si02
#       8
#     2   2   2   2   2   2   2   2
#     4  10  24  45  71 104 139 178 238 294 353 440
#     4  12  25  45  73 101 145 191 231 308 352 419
#     4  11  23  43  71 101 140 191 232 288 354 424
#     4  11  25  42  66 106 145 189 241 289 349 419
#     4  11  25  42  67 102 145 188 240 287 347 423
#     4  11  24  41  66 102 147 192 236 286 346 419
#     4  11  25  47  75 108 137 182 240 297 368 429
#     4  11  24  43  69 102 146 183 238 289 361 422
#
# _framework density 24.633717000000001
#
# number of rings (size 3 to 8) (size 9 to 14) (size 15 to 20)
#    0.000    1.000    3.750    1.875    5.250    3.500 
#    0.000    2.500    0.000    0.000    0.000    0.000 
#    0.000    0.000    0.000    0.000    0.000    0.000 
#
# Total GULP energy -89390.232298 kJ/mol
# GULP energy per Si atom -5586.889519 kJ/mol
# Density = 2.457765 g / cm^3
# Si number density = 24.633717 Si / 1000 Ang^3
#
#
#
# Elastic Constant Matrix: (Units=GPa)
#
#
# Indices 1 2 3 4 5 6 
#
# 1 174.5780 33.5345 15.4392 -8.8380 2.8414 -3.7239
# 2 33.5345 81.2963 -1.9697 -5.8211 -8.5405 -10.7602
# 3 15.4392 -1.9697 38.8462 -4.2104 -3.3996 4.9558
# 4 -8.8380 -5.8211 -4.2104 19.4009 6.6580 -3.7314
# 5 2.8414 -8.5405 -3.3996 6.6580 36.6547 4.4917
# 6 -3.7239 -10.7602 4.9558 -3.7314 4.4917 46.3945
#
#
#
# Elastic Compliance Matrix: (Units=1/GPa)
#
#
# Indices 1 2 3 4 5 6 
#
# 1 0.006670 -0.002776 -0.002775 0.002371 -0.001921 0.000565
# 2 -0.002776 0.014394 0.002050 0.003073 0.002850 0.002868
# 3 -0.002775 0.002050 0.027972 0.003903 0.002909 -0.002703
# 4 0.002371 0.003073 0.003903 0.059252 -0.010638 0.006282
# 5 -0.001921 0.002850 0.002909 -0.010638 0.030742 -0.003636
# 6 0.000565 0.002868 -0.002703 0.006282 -0.003636 0.023411
#
#
# Mechanical properties :
#
#
# Convention : Reuss Voigt Hill
#
# Bulk Modulus (GPa) = 23.79020 43.19206 33.49113
# Shear Modulus (GPa) = 27.25458 37.00444 32.12951
#
# Velocity S-wave (km/s) = 3.32986 3.88001 3.61541
# Velocity P-wave (km/s) = 4.94596 6.13550 5.57256
#
# Compressibility (1/GPa) = 0.04203411
#
# Stress axis : x y z
#
# Youngs Moduli (GPa) = 149.92302 69.47150 35.75021
#
# Poissons Ratio (x) = 0.19285 0.09920
# Poissons Ratio (y) = 0.41617 -0.07328
# Poissons Ratio (z) = 0.41602 -0.14240
#
# Static dielectric constant tensor:
#      x y z
#    x 1.958100 -0.038750 0.049640 
#    y -0.038750 2.095330 -0.013770 
#    z 0.049640 -0.013770 1.997340 
# 
# From -- ./inp_files/135198.got.cif
#   From: 2010.05.17/outbox.cif.g08.bks.cpg/sg2_68_cif.got.tgz:135198.got - 2010.06.03 11:33:40.
