data_PCOD9048865
_publ_section_title
;
Structure prediction by ZEFSAII (Michael W. Deem and Ramdas Pophale) SiO2 
 PCOD9048865
Probable space group: P -1
;
_chemical_formula_sum "Si O2"
_cell_formula_units_Z 13
_cell_length_a 9.643309
_cell_length_b 10.234992
_cell_length_c 8.049272
_cell_angle_alpha 136.286643
_cell_angle_beta 86.862079
_cell_angle_gamma 78.648306
_cell_volume 515.011933
_symmetry_space_group_name_H-M "P -1"
_symmetry_group_IT_number 2
_symmetry_cell_setting 'triclinic'
loop_
_space_group_symop_operation_xyz
x,y,z
-x,-y,-z
loop_
_atom_site_type_symbol
_atom_site_label
_atom_site_fract_x
_atom_site_fract_y
_atom_site_fract_z
Si Si1 0.662329 0.848031 0.377289
Si Si2 0.929218 0.193850 0.330870
Si Si3 0.000000 0.500000 0.500000
Si Si4 0.870040 0.477644 0.877594
Si Si5 0.823671 0.127636 0.768904
Si Si6 0.665666 0.729309 0.636681
Si Si7 0.348792 0.821599 0.853068
O O1 0.654907 0.735708 0.444512
O O2 0.500000 0.000000 0.500000
O O3 0.768549 0.973942 0.525708
O O4 0.732961 0.683203 0.080414
O O5 0.015263 0.248289 0.222924
O O6 0.928147 0.403442 0.621126
O O7 0.769510 0.190666 0.289713
O O8 0.030524 0.014475 0.273876
O O9 0.824182 0.573293 0.520289
O O10 0.835690 0.294539 0.796102
O O11 0.000000 0.500000 0.000000
O O12 0.706616 0.231923 0.016087
O O13 0.518872 0.700645 0.690874
O O14 0.660177 0.948237 0.904012
#
# Coordination Sequence:
#
# PCOD9048865 Si02
#       7
#     2   2   1   2   2   2   2
#     4  11  26  49  73 106 154 195 252 320 376 452
#     4  12  26  43  76 116 147 202 250 321 370 457
#     4  12  24  46  70 108 154 188 258 306 380 438
#     4  12  27  47  76 105 151 205 255 310 376 456
#     4  11  25  49  73 113 150 203 255 311 380 447
#     4  10  24  47  73 109 146 197 247 314 378 447
#     4  10  24  45  74 104 148 196 246 310 379 441
#
# _framework density 25.242135000000001
#
# number of rings (size 3 to 8) (size 9 to 14) (size 15 to 20)
#    0.000    0.923    4.615    0.923    6.462    4.923 
#    0.000    0.000    0.000    0.000    0.000    0.000 
#    0.000    0.000    0.000    0.000    0.000    0.000 
#
# Total GULP energy -72652.453780 kJ/mol
# GULP energy per Si atom -5588.650291 kJ/mol
# Density = 2.518468 g / cm^3
# Si number density = 25.242135 Si / 1000 Ang^3
#
#
#
# Elastic Constant Matrix: (Units=GPa)
#
#
# Indices 1 2 3 4 5 6 
#
# 1 156.8419 41.7910 47.9226 2.8722 -22.7474 -11.5902
# 2 41.7910 105.4322 13.9275 9.3915 -8.8703 -13.3641
# 3 47.9226 13.9275 128.6098 -0.8294 -5.7961 -5.2449
# 4 2.8722 9.3915 -0.8294 26.1436 -6.6653 -3.0346
# 5 -22.7474 -8.8703 -5.7961 -6.6653 43.7728 6.6825
# 6 -11.5902 -13.3641 -5.2449 -3.0346 6.6825 46.2753
#
#
#
# Elastic Compliance Matrix: (Units=1/GPa)
#
#
# Indices 1 2 3 4 5 6 
#
# 1 0.008452 -0.002709 -0.002667 0.000931 0.003543 0.000582
# 2 -0.002709 0.011174 -0.000130 -0.003463 -0.000041 0.002313
# 3 -0.002667 -0.000130 0.008792 0.000607 -0.000211 0.000361
# 4 0.000931 -0.003463 0.000607 0.041058 0.005941 0.001137
# 5 0.003543 -0.000041 -0.000211 0.005941 0.025937 -0.002504
# 6 0.000582 0.002313 0.000361 0.001137 -0.002504 0.022900
#
#
# Mechanical properties :
#
#
# Convention : Reuss Voigt Hill
#
# Bulk Modulus (GPa) = 57.45119 66.46291 61.95705
# Shear Modulus (GPa) = 37.00175 42.38785 39.69480
#
# Velocity S-wave (km/s) = 3.83283 4.10231 3.96986
# Velocity P-wave (km/s) = 6.51129 6.98755 6.75362
#
# Compressibility (1/GPa) = 0.01740608
#
# Stress axis : x y z
#
# Youngs Moduli (GPa) = 118.31025 89.49388 113.73450
#
# Poissons Ratio (x) = 0.24245 0.30330
# Poissons Ratio (y) = 0.32052 0.01484
# Poissons Ratio (z) = 0.31550 0.01167
#
# Static dielectric constant tensor:
#      x y z
#    x 2.183430 0.343650 -0.133640 
#    y 0.343650 2.496330 -0.129120 
#    z -0.133640 -0.129120 2.263190 
# 
# From -- ./inp_files/173784.got.cif
#   From: 2010.05.17/outbox.cif.g08.bks.cpg/sg2_87_cif.got.tgz:173784.got - 2010.06.03 11:33:40.
