data_PCOD9048928
_publ_section_title
;
Structure prediction by ZEFSAII (Michael W. Deem and Ramdas Pophale) SiO2 
 PCOD9048928
Probable space group: P -1
;
_chemical_formula_sum "Si O2"
_cell_formula_units_Z 16
_cell_length_a 15.017632
_cell_length_b 5.595321
_cell_length_c 7.929197
_cell_angle_alpha 95.847259
_cell_angle_beta 87.639671
_cell_angle_gamma 70.082119
_cell_volume 621.108697
_symmetry_space_group_name_H-M "P -1"
_symmetry_group_IT_number 2
_symmetry_cell_setting 'triclinic'
loop_
_space_group_symop_operation_xyz
x,y,z
-x,-y,-z
loop_
_atom_site_type_symbol
_atom_site_label
_atom_site_fract_x
_atom_site_fract_y
_atom_site_fract_z
Si Si1 0.270448 0.384054 0.848399
Si Si2 0.151302 0.883796 0.065967
Si Si3 0.602437 0.027368 0.965839
Si Si4 0.580245 0.126859 0.526768
Si Si5 0.442883 0.522901 0.768905
Si Si6 0.249074 0.175198 0.325167
Si Si7 0.040512 0.102452 0.750586
Si Si8 0.893518 0.482157 0.400274
O O1 0.359464 0.409999 0.745315
O O2 0.182290 0.438297 0.739053
O O3 0.231882 0.613542 0.001966
O O4 0.316080 0.113085 0.912536
O O5 0.062338 0.828451 0.151265
O O6 0.193307 0.035628 0.205376
O O7 0.112415 0.038245 0.904037
O O8 0.656551 0.848555 0.791735
O O9 0.500000 0.000000 0.000000
O O10 0.579404 0.319723 0.045955
O O11 0.543550 0.301276 0.710707
O O12 0.566691 0.291947 0.372882
O O13 0.500000 0.000000 0.500000
O O14 0.692660 0.979921 0.529566
O O15 0.170119 0.427604 0.420609
O O16 0.047623 0.328719 0.641627
O O17 0.060573 0.825498 0.639399
#
# Coordination Sequence:
#
# PCOD9048928 Si02
#       8
#     2   2   2   2   2   2   2   2
#     4  11  24  44  71  99 138 194 241 296 360 446
#     4  10  24  45  76 105 141 188 245 304 365 445
#     4  12  26  41  66 102 145 183 241 301 367 417
#     4  11  25  44  68  99 142 186 241 288 370 426
#     4  11  23  44  68  93 138 192 232 295 354 441
#     4  12  25  42  70 110 138 190 243 306 355 437
#     4  10  25  51  75 107 146 197 236 302 385 443
#     4  11  26  45  78 103 148 192 243 300 370 449
#
# _framework density 25.760384999999999
#
# number of rings (size 3 to 8) (size 9 to 14) (size 15 to 20)
#    0.000    1.000    1.250    4.500    7.000    9.500 
#    0.000    0.000    0.000    0.000    0.000    0.000 
#    0.000    0.000    0.000    0.000    0.000    0.000 
#
# Total GULP energy -89416.239031 kJ/mol
# GULP energy per Si atom -5588.514939 kJ/mol
# Density = 2.570175 g / cm^3
# Si number density = 25.760385 Si / 1000 Ang^3
#
#
#
# Elastic Constant Matrix: (Units=GPa)
#
#
# Indices 1 2 3 4 5 6 
#
# 1 92.2217 21.4309 10.1654 4.5957 -3.4918 -10.8121
# 2 21.4309 104.4429 32.1985 13.2659 -17.3087 -14.1029
# 3 10.1654 32.1985 122.4537 30.6849 -13.5621 3.6355
# 4 4.5957 13.2659 30.6849 35.7151 -1.1303 -5.3173
# 5 -3.4918 -17.3087 -13.5621 -1.1303 63.6342 4.6112
# 6 -10.8121 -14.1029 3.6355 -5.3173 4.6112 35.9712
#
#
#
# Elastic Compliance Matrix: (Units=1/GPa)
#
#
# Indices 1 2 3 4 5 6 
#
# 1 0.011669 -0.001865 -0.000625 0.000152 -0.000207 0.002888
# 2 -0.001865 0.011783 -0.002457 -0.001386 0.002278 0.003810
# 3 -0.000625 -0.002457 0.011564 -0.009472 0.001881 -0.003961
# 4 0.000152 -0.001386 -0.009472 0.037499 -0.002177 0.006282
# 5 -0.000207 0.002278 0.001881 -0.002177 0.016818 -0.001837
# 6 0.002888 0.003810 -0.003961 0.006282 -0.001837 0.031726
#
#
# Mechanical properties :
#
#
# Convention : Reuss Voigt Hill
#
# Bulk Modulus (GPa) = 39.80611 49.63420 44.72016
# Shear Modulus (GPa) = 35.88664 44.08566 39.98615
#
# Velocity S-wave (km/s) = 3.73647 4.14136 3.94411
# Velocity P-wave (km/s) = 5.83960 6.49441 6.17569
#
# Compressibility (1/GPa) = 0.02512177
#
# Stress axis : x y z
#
# Youngs Moduli (GPa) = 85.69712 84.86858 86.47724
#
# Poissons Ratio (x) = 0.15830 0.05404
# Poissons Ratio (y) = 0.15985 0.21246
# Poissons Ratio (z) = 0.05355 0.20850
#
# Static dielectric constant tensor:
#      x y z
#    x 2.122290 0.136520 -0.000350 
#    y 0.136520 2.137950 -0.077770 
#    z -0.000350 -0.077770 2.180580 
# 
# From -- ./inp_files/94324.got.cif
#   From: 2010.05.17/outbox.cif.g08.bks.cpg/sg2_48_cif.got.tgz:94324.got - 2010.06.03 11:33:40.
