data_PCOD9048722
_publ_section_title
;
Structure prediction by ZEFSAII (Michael W. Deem and Ramdas Pophale) SiO2 
 PCOD9048722
Probable space group: P -1
;
_chemical_formula_sum "Si O2"
_cell_formula_units_Z 14
_cell_length_a 11.800627
_cell_length_b 21.799234
_cell_length_c 6.534024
_cell_angle_alpha 51.736112
_cell_angle_beta 117.941487
_cell_angle_gamma 151.623722
_cell_volume 613.967283
_symmetry_space_group_name_H-M "P -1"
_symmetry_group_IT_number 2
_symmetry_cell_setting 'triclinic'
loop_
_space_group_symop_operation_xyz
x,y,z
-x,-y,-z
loop_
_atom_site_type_symbol
_atom_site_label
_atom_site_fract_x
_atom_site_fract_y
_atom_site_fract_z
Si Si1 0.649704 0.278549 0.690911
Si Si2 0.977520 0.824652 0.479099
Si Si3 0.909737 0.378111 0.309530
Si Si4 0.799882 0.952936 0.514990
Si Si5 0.589032 0.740385 0.126988
Si Si6 0.294661 0.455644 0.338404
Si Si7 0.509130 0.095307 0.269036
O O1 0.858071 0.385382 0.475236
O O2 0.410178 0.153744 0.606635
O O3 0.589960 0.312229 0.747538
O O4 0.658404 0.202224 0.980200
O O5 0.776754 0.782979 0.320571
O O6 0.860337 0.678103 0.669867
O O7 0.079358 0.901729 0.627064
O O8 0.219991 0.959519 0.268023
O O9 0.658293 0.214498 0.334048
O O10 0.089675 0.395618 0.423718
O O11 0.000000 0.500000 0.000000
O O12 0.719683 0.872289 0.828618
O O13 0.000000 0.000000 0.500000
O O14 0.456658 0.616341 0.102227
O O15 0.500000 0.500000 0.500000
O O16 0.500000 0.000000 0.500000
#
# Coordination Sequence:
#
# PCOD9048722 Si02
#       7
#     2   2   2   2   2   2   2
#     4  12  24  42  76 105 140 188 245 294 363 420
#     4  11  21  44  70 104 144 186 228 301 360 423
#     4  12  26  47  75 105 143 190 247 296 360 439
#     4  12  22  40  72 110 140 185 240 298 356 431
#     4  11  23  44  72 102 145 185 239 296 355 433
#     4  10  24  45  71  96 146 188 228 297 364 420
#     4  12  25  45  68 102 148 185 236 300 358 424
#
# _framework density 22.802520000000001
#
# number of rings (size 3 to 8) (size 9 to 14) (size 15 to 20)
#    0.000    0.571    5.714    3.000    0.000    2.857 
#    0.000    0.714   12.571    0.000    0.000    0.000 
#    0.000    0.000    0.000    0.000    0.000    0.000 
#
# Total GULP energy -77994.305436 kJ/mol
# GULP energy per Si atom -5571.021817 kJ/mol
# Density = 2.275062 g / cm^3
# Si number density = 22.802520 Si / 1000 Ang^3
#
#
#
# Elastic Constant Matrix: (Units=GPa)
#
#
# Indices 1 2 3 4 5 6 
#
# 1 165.9147 55.7443 65.0718 -7.7229 -0.4253 -2.2039
# 2 55.7443 125.0831 6.8817 -8.9291 6.1076 -33.7625
# 3 65.0718 6.8817 88.5929 -7.1364 -4.0875 -11.2601
# 4 -7.7229 -8.9291 -7.1364 32.3263 -3.0231 8.1104
# 5 -0.4253 6.1076 -4.0875 -3.0231 32.4168 -5.9748
# 6 -2.2039 -33.7625 -11.2601 8.1104 -5.9748 62.5659
#
#
#
# Elastic Compliance Matrix: (Units=1/GPa)
#
#
# Indices 1 2 3 4 5 6 
#
# 1 0.011092 -0.005572 -0.008251 0.000286 -0.000592 -0.004195
# 2 -0.005572 0.012234 0.004097 0.001165 -0.000472 0.006947
# 3 -0.008251 0.004097 0.017965 0.002077 0.002523 0.005125
# 4 0.000286 0.001165 0.002077 0.032772 0.002551 -0.002992
# 5 -0.000592 -0.000472 0.002523 0.002551 0.032021 0.002906
# 6 -0.004195 0.006947 0.005125 -0.002992 0.002906 0.021172
#
#
# Mechanical properties :
#
#
# Convention : Reuss Voigt Hill
#
# Bulk Modulus (GPa) = 45.79075 70.55402 58.17238
# Shear Modulus (GPa) = 32.47022 42.25465 37.36244
#
# Velocity S-wave (km/s) = 3.77765 4.30940 4.05226
# Velocity P-wave (km/s) = 6.25720 7.46791 6.88921
#
# Compressibility (1/GPa) = 0.02183847
#
# Stress axis : x y z
#
# Youngs Moduli (GPa) = 90.15869 81.74089 55.66350
#
# Poissons Ratio (x) = 0.45546 0.45930
# Poissons Ratio (y) = 0.50236 -0.22807
# Poissons Ratio (z) = 0.74393 -0.33492
#
# Static dielectric constant tensor:
#      x y z
#    x 1.869020 -0.050460 -0.094480 
#    y -0.050460 1.865700 -0.073050 
#    z -0.094480 -0.073050 1.734890 
# 
# From -- ./inp_files/83082.got.cif
#   From: 2010.05.17/outbox.cif.g08.bks.cpg/sg2_42_cif.got.tgz:83082.got - 2010.06.03 11:33:40.
