data_PCOD9048607
_publ_section_title
;
Structure prediction by ZEFSAII (Michael W. Deem and Ramdas Pophale) SiO2 
 PCOD9048607
Probable space group: P -1
;
_chemical_formula_sum "Si O2"
_cell_formula_units_Z 14
_cell_length_a 13.395769
_cell_length_b 9.848251
_cell_length_c 11.795836
_cell_angle_alpha 153.441598
_cell_angle_beta 117.805898
_cell_angle_gamma 62.256823
_cell_volume 610.838794
_symmetry_space_group_name_H-M "P -1"
_symmetry_group_IT_number 2
_symmetry_cell_setting 'triclinic'
loop_
_space_group_symop_operation_xyz
x,y,z
-x,-y,-z
loop_
_atom_site_type_symbol
_atom_site_label
_atom_site_fract_x
_atom_site_fract_y
_atom_site_fract_z
Si Si1 0.973813 0.674294 0.858828
Si Si2 0.464533 0.160540 0.719478
Si Si3 0.468355 0.154372 0.253762
Si Si4 0.919122 0.815385 0.692925
Si Si5 0.815987 0.227088 0.548918
Si Si6 0.315140 0.163514 0.986641
Si Si7 0.803416 0.764733 0.383378
O O1 0.904220 0.833883 0.834036
O O2 0.907434 0.428275 0.697755
O O3 0.104821 0.537468 0.799130
O O4 0.000091 0.962954 0.160607
O O5 0.327561 0.216883 0.705728
O O6 0.500000 0.000000 0.500000
O O7 0.523154 0.930528 0.674315
O O8 0.500000 0.500000 0.000000
O O9 0.500000 0.500000 0.500000
O O10 0.565282 0.907761 0.066821
O O11 0.350734 0.098881 0.088702
O O12 0.809119 0.844867 0.579237
O O13 0.000000 0.500000 0.500000
O O14 0.762075 0.049410 0.283455
O O15 0.855192 0.982584 0.482965
O O16 0.732255 0.480690 0.764457
#
# Coordination Sequence:
#
# PCOD9048607 Si02
#       7
#     2   2   2   2   2   2   2
#     4  10  24  45  70 105 140 190 237 292 361 441
#     4  12  31  48  74 110 148 191 248 303 372 430
#     4  11  24  50  76 102 147 199 245 303 360 431
#     4   9  22  44  68  96 144 185 236 288 358 428
#     4  12  26  43  76 111 144 185 243 296 363 430
#     4  11  25  42  74 105 147 186 243 296 359 420
#     4  11  25  46  72 100 145 187 234 304 358 427
#
# _framework density 22.919302999999999
#
# number of rings (size 3 to 8) (size 9 to 14) (size 15 to 20)
#    0.000    1.143    2.857    0.429   14.000    2.857 
#    2.571    0.000    0.000    0.000    0.000    0.000 
#    0.000    0.000    0.000    0.000    0.000    0.000 
#
# Total GULP energy -77990.006235 kJ/mol
# GULP energy per Si atom -5570.714731 kJ/mol
# Density = 2.286714 g / cm^3
# Si number density = 22.919303 Si / 1000 Ang^3
#
#
#
# Elastic Constant Matrix: (Units=GPa)
#
#
# Indices 1 2 3 4 5 6 
#
# 1 32.7354 36.5343 23.1030 6.7957 3.8958 13.5934
# 2 36.5343 160.7064 58.9897 8.2901 4.5540 10.6274
# 3 23.1030 58.9897 132.2758 10.8327 1.0824 4.4571
# 4 6.7957 8.2901 10.8327 24.6982 11.9334 1.2734
# 5 3.8958 4.5540 1.0824 11.9334 29.8705 1.0767
# 6 13.5934 10.6274 4.4571 1.2734 1.0767 28.2968
#
#
#
# Elastic Compliance Matrix: (Units=1/GPa)
#
#
# Indices 1 2 3 4 5 6 
#
# 1 0.054301 -0.008948 -0.004070 -0.008330 -0.001462 -0.021653
# 2 -0.008948 0.009101 -0.002592 0.000696 -0.000451 0.001274
# 3 -0.004070 -0.002592 0.009622 -0.003172 0.001791 0.001488
# 4 -0.008330 0.000696 -0.003172 0.053683 -0.020445 0.002602
# 5 -0.001462 -0.000451 0.001791 -0.020445 0.041843 -0.000082
# 6 -0.021653 0.001274 0.001488 0.002602 -0.000082 0.044915
#
#
# Mechanical properties :
#
#
# Convention : Reuss Voigt Hill
#
# Bulk Modulus (GPa) = 23.92103 62.55239 43.23671
# Shear Modulus (GPa) = 19.33350 30.37913 24.85631
#
# Velocity S-wave (km/s) = 2.90754 3.64467 3.29677
# Velocity P-wave (km/s) = 4.66170 6.71291 5.77904
#
# Compressibility (1/GPa) = 0.04180422
#
# Stress axis : x y z
#
# Youngs Moduli (GPa) = 18.41579 109.88242 103.93071
#
# Poissons Ratio (x) = 0.98318 0.42302
# Poissons Ratio (y) = 0.16478 0.26939
# Poissons Ratio (z) = 0.07496 0.28482
#
# Static dielectric constant tensor:
#      x y z
#    x 1.879790 -0.017200 0.005750 
#    y -0.017200 1.897410 -0.059140 
#    z 0.005750 -0.059140 2.035770 
# 
# From -- ./inp_files/446519.got.cif
#   From: 2010.05.17/outbox.cif.g08.bks.cpg/sg2_224_cif.got.tgz:446519.got - 2010.06.03 11:33:40.
