data_PCOD9048783
_publ_section_title
;
Structure prediction by ZEFSAII (Michael W. Deem and Ramdas Pophale) SiO2 
 PCOD9048783
Probable space group: P -1
;
_chemical_formula_sum "Si O2"
_cell_formula_units_Z 14
_cell_length_a 11.100126
_cell_length_b 11.393639
_cell_length_c 11.960145
_cell_angle_alpha 45.577618
_cell_angle_beta 35.095806
_cell_angle_gamma 50.100364
_cell_volume 612.346743
_symmetry_space_group_name_H-M "P -1"
_symmetry_group_IT_number 2
_symmetry_cell_setting 'triclinic'
loop_
_space_group_symop_operation_xyz
x,y,z
-x,-y,-z
loop_
_atom_site_type_symbol
_atom_site_label
_atom_site_fract_x
_atom_site_fract_y
_atom_site_fract_z
Si Si1 0.143123 0.127438 0.197417
Si Si2 0.260593 0.720799 0.695670
Si Si3 0.532085 0.118040 0.754565
Si Si4 0.580170 0.805093 0.572934
Si Si5 0.029943 0.632015 0.292111
Si Si6 0.181214 0.437390 0.081391
Si Si7 0.452145 0.772983 0.935432
O O1 0.079316 0.274686 0.237496
O O2 0.938848 0.130377 0.272542
O O3 0.256516 0.960370 0.283673
O O4 0.336300 0.176310 0.945536
O O5 0.412975 0.741105 0.462953
O O6 0.399142 0.734647 0.690522
O O7 0.173884 0.553349 0.901075
O O8 0.466377 0.959247 0.843415
O O9 0.581953 0.747290 0.738065
O O10 0.806652 0.755666 0.376439
O O11 0.500000 0.000000 0.500000
O O12 0.078107 0.540736 0.197376
O O13 0.000000 0.500000 0.500000
O O14 0.220391 0.730440 0.115616
O O15 0.422401 0.357379 0.985777
#
# Coordination Sequence:
#
# PCOD9048783 Si02
#       7
#     2   2   2   2   2   2   2
#     4  10  25  48  65  97 137 181 230 278 336 405
#     4  12  24  42  70  96 141 171 228 283 337 397
#     4  10  24  45  72  98 130 180 231 278 345 405
#     4  12  26  42  68 108 137 177 230 281 345 411
#     4  12  25  44  72 101 140 186 222 274 357 404
#     4  11  24  46  69 101 139 179 230 283 331 421
#     4  11  23  46  70 101 141 173 229 284 341 409
#
# _framework density 22.862863999999998
#
# number of rings (size 3 to 8) (size 9 to 14) (size 15 to 20)
#    0.000    0.857    4.286    2.143    4.000    1.143 
#   10.286    0.000    0.000    0.000    0.000    0.000 
#    0.000    0.000    0.000    0.000    0.000    0.000 
#
# Total GULP energy -78293.669612 kJ/mol
# GULP energy per Si atom -5592.404972 kJ/mol
# Density = 2.281083 g / cm^3
# Si number density = 22.862864 Si / 1000 Ang^3
#
#
#
# Elastic Constant Matrix: (Units=GPa)
#
#
# Indices 1 2 3 4 5 6 
#
# 1 93.8182 29.2561 38.8366 12.2912 -4.3091 2.6524
# 2 29.2561 76.0271 45.8205 18.9322 -6.5217 0.5717
# 3 38.8366 45.8205 113.1584 -4.0940 8.9844 3.5156
# 4 12.2912 18.9322 -4.0940 32.7494 -13.0362 4.4309
# 5 -4.3091 -6.5217 8.9844 -13.0362 47.1911 -4.4362
# 6 2.6524 0.5717 3.5156 4.4309 -4.4362 23.5309
#
#
#
# Elastic Compliance Matrix: (Units=1/GPa)
#
#
# Indices 1 2 3 4 5 6 
#
# 1 0.013492 -0.001442 -0.004262 -0.004540 0.000601 0.000119
# 2 -0.001442 0.023041 -0.009572 -0.013953 0.001389 0.003922
# 3 -0.004262 -0.009572 0.014794 0.008459 -0.002527 -0.003566
# 4 -0.004540 -0.013953 0.008459 0.045529 0.007919 -0.007493
# 5 0.000601 0.001389 -0.002527 0.007919 0.024425 0.003389
# 6 0.000119 0.003922 -0.003566 -0.007493 0.003389 0.044971
#
#
# Mechanical properties :
#
#
# Convention : Reuss Voigt Hill
#
# Bulk Modulus (GPa) = 48.13668 56.75890 52.44779
# Shear Modulus (GPa) = 24.54243 31.96696 28.25470
#
# Velocity S-wave (km/s) = 3.27993 3.74331 3.51926
# Velocity P-wave (km/s) = 5.95350 6.60022 6.28518
#
# Compressibility (1/GPa) = 0.02077418
#
# Stress axis : x y z
#
# Youngs Moduli (GPa) = 74.11808 43.40040 67.59718
#
# Poissons Ratio (x) = 0.06257 0.28813
# Poissons Ratio (y) = 0.10686 0.64705
# Poissons Ratio (z) = 0.31592 0.41543
#
# Static dielectric constant tensor:
#      x y z
#    x 2.188790 0.190310 -0.243280 
#    y 0.190310 1.983660 -0.176260 
#    z -0.243280 -0.176260 2.027970 
# 
# From -- ./inp_files/61052.got.cif
#   From: 2010.05.17/outbox.cif.g08.bks.cpg/sg2_31_cif.got.tgz:61052.got - 2010.06.03 11:33:40.
