data_PCOD9048426
_publ_section_title
;
Structure prediction by ZEFSAII (Michael W. Deem and Ramdas Pophale) SiO2 
 PCOD9048426
Probable space group: P -1
;
_chemical_formula_sum "Si O2"
_cell_formula_units_Z 16
_cell_length_a 9.128633
_cell_length_b 10.520804
_cell_length_c 15.114107
_cell_angle_alpha 118.957985
_cell_angle_beta 141.754890
_cell_angle_gamma 65.327507
_cell_volume 784.362331
_symmetry_space_group_name_H-M "P -1"
_symmetry_group_IT_number 2
_symmetry_cell_setting 'triclinic'
loop_
_space_group_symop_operation_xyz
x,y,z
-x,-y,-z
loop_
_atom_site_type_symbol
_atom_site_label
_atom_site_fract_x
_atom_site_fract_y
_atom_site_fract_z
Si Si1 0.077417 0.183813 0.397507
Si Si2 0.156625 0.137699 0.613968
Si Si3 0.649084 0.591817 0.509236
Si Si4 0.562548 0.296405 0.261871
Si Si5 0.382136 0.014558 0.165738
Si Si6 0.912176 0.654558 0.050109
Si Si7 0.136987 0.627873 0.336203
Si Si8 0.940861 0.041983 0.840854
O O1 0.215448 0.156550 0.545528
O O2 0.196744 0.307001 0.440893
O O3 0.810643 0.236578 0.317286
O O4 0.079749 0.042680 0.289133
O O5 0.393104 0.101057 0.769605
O O6 0.994684 0.273572 0.618907
O O7 0.000000 0.000000 0.500000
O O8 0.589505 0.448679 0.376295
O O9 0.398480 0.671474 0.446109
O O10 0.798319 0.530938 0.644464
O O11 0.474946 0.173924 0.245960
O O12 0.361090 0.316119 0.097746
O O13 0.256600 0.997656 0.195214
O O14 0.188592 0.992891 0.990817
O O15 0.970875 0.641740 0.176898
O O16 0.049393 0.786857 0.117671
O O17 0.000000 0.500000 0.000000
#
# Coordination Sequence:
#
# PCOD9048426 Si02
#       8
#     2   2   2   2   2   2   2   2
#     4  12  26  41  70 101 134 173 225 276 326 396
#     4  12  24  41  66 100 135 169 221 274 332 389
#     4  11  25  45  68  93 141 175 225 268 335 395
#     4  11  23  45  68  96 136 180 216 276 335 386
#     4  10  24  45  68  94 139 172 223 273 330 395
#     4  11  24  44  72  96 132 173 228 271 328 401
#     4  11  25  42  68  97 128 182 219 268 338 388
#     4  10  26  44  69 100 131 179 222 268 338 391
#
# _framework density 20.398734999999999
#
# number of rings (size 3 to 8) (size 9 to 14) (size 15 to 20)
#    0.000    1.000    3.750    1.125    8.750    2.500 
#    0.000    0.625    0.000    0.000    0.000    0.000 
#    0.000    0.000    0.000    0.000    0.000    0.000 
#
# Total GULP energy -89466.970735 kJ/mol
# GULP energy per Si atom -5591.685671 kJ/mol
# Density = 2.035231 g / cm^3
# Si number density = 20.398735 Si / 1000 Ang^3
#
#
#
# Elastic Constant Matrix: (Units=GPa)
#
#
# Indices 1 2 3 4 5 6 
#
# 1 88.0626 50.3212 39.5096 8.2841 -4.5630 12.6113
# 2 50.3212 100.2168 54.7146 -2.2474 3.8747 8.8272
# 3 39.5096 54.7146 88.8171 -19.0750 -5.9070 5.9954
# 4 8.2841 -2.2474 -19.0750 39.5131 1.7773 -0.3206
# 5 -4.5630 3.8747 -5.9070 1.7773 38.6337 0.1446
# 6 12.6113 8.8272 5.9954 -0.3206 0.1446 43.6215
#
#
#
# Elastic Compliance Matrix: (Units=1/GPa)
#
#
# Indices 1 2 3 4 5 6 
#
# 1 0.018756 -0.006307 -0.005602 -0.007128 0.002332 -0.003437
# 2 -0.006307 0.018247 -0.009045 -0.001837 -0.003871 -0.000627
# 3 -0.005602 -0.009045 0.021874 0.011086 0.003078 0.000515
# 4 -0.007128 -0.001837 0.011086 0.032079 -0.000443 0.001146
# 5 0.002332 -0.003871 0.003078 -0.000443 0.027040 -0.000407
# 6 -0.003437 -0.000627 0.000515 0.001146 -0.000407 0.023984
#
#
# Mechanical properties :
#
#
# Convention : Reuss Voigt Hill
#
# Bulk Modulus (GPa) = 58.93011 62.90970 60.91991
# Shear Modulus (GPa) = 26.37885 33.19039 29.78462
#
# Velocity S-wave (km/s) = 3.59996 4.03808 3.82530
# Velocity P-wave (km/s) = 6.79937 7.25593 7.03135
#
# Compressibility (1/GPa) = 0.01696926
#
# Stress axis : x y z
#
# Youngs Moduli (GPa) = 53.31503 54.80327 45.71587
#
# Poissons Ratio (x) = 0.34563 0.25612
# Poissons Ratio (y) = 0.33624 0.41351
# Poissons Ratio (z) = 0.29869 0.49571
#
# Static dielectric constant tensor:
#      x y z
#    x 1.712170 0.003110 -0.019210 
#    y 0.003110 1.709490 -0.013010 
#    z -0.019210 -0.013010 1.746360 
# 
# From -- ./inp_files/273589.got.cif
#   From: 2010.05.17/outbox.cif.g08.bks.cpg/sg2_137_cif.got.tgz:273589.got - 2010.06.03 11:33:40.
