data_PCOD9048161
_publ_section_title
;
Structure prediction by ZEFSAII (Michael W. Deem and Ramdas Pophale) SiO2 
 PCOD9048161
Probable space group: P -1
;
_chemical_formula_sum "Si O2"
_cell_formula_units_Z 16
_cell_length_a 10.662321
_cell_length_b 23.227350
_cell_length_c 8.588803
_cell_angle_alpha 56.875181
_cell_angle_beta 57.647333
_cell_angle_gamma 22.621065
_cell_volume 682.065571
_symmetry_space_group_name_H-M "P -1"
_symmetry_group_IT_number 2
_symmetry_cell_setting 'triclinic'
loop_
_space_group_symop_operation_xyz
x,y,z
-x,-y,-z
loop_
_atom_site_type_symbol
_atom_site_label
_atom_site_fract_x
_atom_site_fract_y
_atom_site_fract_z
Si Si1 0.715559 0.970197 0.975437
Si Si2 0.204425 0.955059 0.792115
Si Si3 0.372106 0.898657 0.429443
Si Si4 0.621853 0.433375 0.189622
Si Si5 0.223992 0.274159 0.046704
Si Si6 0.167521 0.758741 0.465579
Si Si7 0.703327 0.645699 0.375355
Si Si8 0.993795 0.267109 0.671403
O O1 0.819587 0.975127 0.755111
O O2 0.473207 0.117105 0.026557
O O3 0.972704 0.818367 0.125583
O O4 0.500000 0.000000 0.000000
O O5 0.100484 0.077755 0.665195
O O6 0.184650 0.947465 0.633073
O O7 0.577464 0.789696 0.837327
O O8 0.000000 0.000000 0.000000
O O9 0.506624 0.778965 0.420530
O O10 0.671932 0.825807 0.397780
O O11 0.832825 0.277506 0.311175
O O12 0.294048 0.568081 0.309626
O O13 0.500000 0.500000 0.000000
O O14 0.870161 0.390010 0.137769
O O15 0.182551 0.355027 0.842155
O O16 0.485009 0.676065 0.397523
O O17 0.122326 0.712708 0.448522
O O18 0.000000 0.500000 0.500000
#
# Coordination Sequence:
#
# PCOD9048161 Si02
#       8
#     2   2   2   2   2   2   2   2
#     4   9  19  39  68 101 137 182 236 286 350 428
#     4  12  26  48  69 105 144 189 250 306 359 429
#     4  10  24  44  75 100 146 193 239 298 368 427
#     4  12  26  43  71 111 150 189 242 300 365 441
#     4  11  23  45  68 102 148 187 233 303 358 427
#     4  12  26  44  74 102 147 187 245 301 361 425
#     4  11  24  49  70 102 146 193 238 294 366 443
#     4  11  23  45  73 110 146 185 243 299 366 437
#
# _framework density 23.458154
#
# number of rings (size 3 to 8) (size 9 to 14) (size 15 to 20)
#    0.000    1.000    2.500    4.875    5.250    2.500 
#    4.500    1.250    0.000    0.000    0.000    0.000 
#    0.000    0.000    0.000    0.000    0.000    0.000 
#
# Total GULP energy -89272.921560 kJ/mol
# GULP energy per Si atom -5579.557598 kJ/mol
# Density = 2.340476 g / cm^3
# Si number density = 23.458154 Si / 1000 Ang^3
#
#
#
# Elastic Constant Matrix: (Units=GPa)
#
#
# Indices 1 2 3 4 5 6 
#
# 1 95.0801 24.4391 35.3167 2.4855 -15.3193 -13.7512
# 2 24.4391 64.6251 42.2765 -19.8262 2.2823 -16.6013
# 3 35.3167 42.2765 184.8485 -28.0373 2.5291 -11.9696
# 4 2.4855 -19.8262 -28.0373 47.0228 -6.6392 3.5955
# 5 -15.3193 2.2823 2.5291 -6.6392 33.6311 4.3344
# 6 -13.7512 -16.6013 -11.9696 3.5955 4.3344 40.3374
#
#
#
# Elastic Compliance Matrix: (Units=1/GPa)
#
#
# Indices 1 2 3 4 5 6 
#
# 1 0.013739 -0.004580 -0.002019 -0.003176 0.005855 0.001854
# 2 -0.004580 0.023167 -0.002822 0.007405 -0.002858 0.006783
# 3 -0.002019 -0.002822 0.006896 0.002933 -0.000669 0.000007
# 4 -0.003176 0.007405 0.002933 0.026733 0.003092 0.000120
# 5 0.005855 -0.002858 -0.000669 0.003092 0.033678 -0.003273
# 6 0.001854 0.006783 0.000007 0.000120 -0.003273 0.028558
#
#
# Mechanical properties :
#
#
# Convention : Reuss Voigt Hill
#
# Bulk Modulus (GPa) = 40.06455 60.95758 50.51106
# Shear Modulus (GPa) = 31.26325 40.36635 35.81480
#
# Velocity S-wave (km/s) = 3.65461 4.15273 3.91161
# Velocity P-wave (km/s) = 5.90969 7.00254 6.47920
#
# Compressibility (1/GPa) = 0.02495972
#
# Stress axis : x y z
#
# Youngs Moduli (GPa) = 72.78469 43.16461 145.02001
#
# Poissons Ratio (x) = 0.19768 0.29285
# Poissons Ratio (y) = 0.33333 0.40925
# Poissons Ratio (z) = 0.14698 0.12181
#
# Static dielectric constant tensor:
#      x y z
#    x 1.940750 0.041370 0.009100 
#    y 0.041370 1.877900 0.010050 
#    z 0.009100 0.010050 1.934970 
# 
# From -- ./inp_files/285809.got.cif
#   From: 2010.05.17/outbox.cif.g08.bks.cpg/sg2_143_cif.got.tgz:285809.got - 2010.06.03 11:33:40.
