data_PCOD9048702
_publ_section_title
;
Structure prediction by ZEFSAII (Michael W. Deem and Ramdas Pophale) SiO2 
 PCOD9048702
Probable space group: P -1
;
_chemical_formula_sum "Si O2"
_cell_formula_units_Z 16
_cell_length_a 9.062945
_cell_length_b 10.809234
_cell_length_c 9.534629
_cell_angle_alpha 108.663138
_cell_angle_beta 88.547372
_cell_angle_gamma 130.536028
_cell_volume 650.551771
_symmetry_space_group_name_H-M "P -1"
_symmetry_group_IT_number 2
_symmetry_cell_setting 'triclinic'
loop_
_space_group_symop_operation_xyz
x,y,z
-x,-y,-z
loop_
_atom_site_type_symbol
_atom_site_label
_atom_site_fract_x
_atom_site_fract_y
_atom_site_fract_z
Si Si1 0.653112 0.078430 0.193295
Si Si2 0.343739 0.319351 0.027451
Si Si3 0.401289 0.640705 0.708218
Si Si4 0.977661 0.436676 0.635478
Si Si5 0.978583 0.289984 0.062611
Si Si6 0.152542 0.014277 0.693264
Si Si7 0.245284 0.829011 0.240196
Si Si8 0.719998 0.847623 0.565058
O O1 0.623609 0.216255 0.240222
O O2 0.763664 0.105620 0.056354
O O3 0.801117 0.108155 0.317341
O O4 0.439743 0.892473 0.177114
O O5 0.464173 0.327236 0.155498
O O6 0.160426 0.299828 0.076248
O O7 0.500000 0.500000 0.000000
O O8 0.240274 0.150289 0.868783
O O9 0.514993 0.672472 0.573487
O O10 0.170879 0.458375 0.661055
O O11 0.986596 0.566748 0.786075
O O12 0.782530 0.250009 0.635310
O O13 0.000000 0.500000 0.500000
O O14 0.942334 0.306275 0.908099
O O15 0.263648 0.133304 0.595104
O O16 0.916634 0.892522 0.633074
O O17 0.259203 0.991558 0.322076
#
# Coordination Sequence:
#
# PCOD9048702 Si02
#       8
#     2   2   2   2   2   2   2   2
#     4  10  25  40  74 101 133 181 234 296 346 403
#     4  12  27  45  72 103 144 194 233 286 354 427
#     4  10  25  46  67 104 138 179 242 286 354 417
#     4  11  27  45  70 101 143 186 234 292 357 424
#     4  11  24  45  66 102 139 183 234 288 352 415
#     4  11  25  43  72 102 145 181 241 281 360 404
#     4  11  23  43  72 101 139 182 236 293 355 418
#     4  10  24  45  71 106 140 183 233 301 346 416
#
# _framework density 24.594507
#
# number of rings (size 3 to 8) (size 9 to 14) (size 15 to 20)
#    0.000    1.250    1.250    2.250   14.000    2.000 
#    0.000    1.250    0.000    0.000    0.000    0.000 
#    0.000    0.000    0.000    0.000    0.000    0.000 
#
# Total GULP energy -89550.363277 kJ/mol
# GULP energy per Si atom -5596.897705 kJ/mol
# Density = 2.453853 g / cm^3
# Si number density = 24.594507 Si / 1000 Ang^3
#
#
#
# Elastic Constant Matrix: (Units=GPa)
#
#
# Indices 1 2 3 4 5 6 
#
# 1 156.8367 42.1898 31.0122 -30.3235 1.4054 19.0024
# 2 42.1898 83.6287 10.9347 -32.7394 -9.2304 8.6778
# 3 31.0122 10.9347 78.0526 -24.7165 -11.2927 4.6776
# 4 -30.3235 -32.7394 -24.7165 41.2074 -5.3124 -11.0189
# 5 1.4054 -9.2304 -11.2927 -5.3124 28.9390 -8.3072
# 6 19.0024 8.6778 4.6776 -11.0189 -8.3072 39.5399
#
#
#
# Elastic Compliance Matrix: (Units=1/GPa)
#
#
# Indices 1 2 3 4 5 6 
#
# 1 0.008565 -0.004233 -0.003437 -0.000726 -0.004360 -0.003899
# 2 -0.004233 0.024073 0.008400 0.025039 0.017605 0.006434
# 3 -0.003437 0.008400 0.021815 0.021256 0.017203 0.006766
# 4 -0.000726 0.025039 0.021256 0.065374 0.033360 0.017566
# 5 -0.004360 0.017605 0.017203 0.033360 0.058313 0.017744
# 6 -0.003899 0.006434 0.006766 0.017566 0.017744 0.033576
#
#
# Mechanical properties :
#
#
# Convention : Reuss Voigt Hill
#
# Bulk Modulus (GPa) = 17.88481 54.08794 35.98637
# Shear Modulus (GPa) = 21.84405 37.56269 29.70337
#
# Velocity S-wave (km/s) = 2.98345 3.91228 3.47900
# Velocity P-wave (km/s) = 4.37671 6.51518 5.54992
#
# Compressibility (1/GPa) = 0.05591338
#
# Stress axis : x y z
#
# Youngs Moduli (GPa) = 116.74814 41.54078 45.83900
#
# Poissons Ratio (x) = 0.17583 0.15757
# Poissons Ratio (y) = 0.49416 -0.38505
# Poissons Ratio (z) = 0.40131 -0.34894
#
# Static dielectric constant tensor:
#      x y z
#    x 1.927310 0.004560 0.009260 
#    y 0.004560 2.055050 0.051170 
#    z 0.009260 0.051170 1.962330 
# 
# From -- ./inp_files/188586.got.cif
#   From: 2010.05.17/outbox.cif.g08.bks.cpg/sg2_95_cif.got.tgz:188586.got - 2010.06.03 11:33:40.
