data_PCOD9048267
_publ_section_title
;
Structure prediction by ZEFSAII (Michael W. Deem and Ramdas Pophale) SiO2 
 PCOD9048267
Probable space group: P -1
;
_chemical_formula_sum "Si O2"
_cell_formula_units_Z 16
_cell_length_a 23.140990
_cell_length_b 26.030745
_cell_length_c 6.363154
_cell_angle_alpha 49.240762
_cell_angle_beta 136.633999
_cell_angle_gamma 163.705955
_cell_volume 718.106883
_symmetry_space_group_name_H-M "P -1"
_symmetry_group_IT_number 2
_symmetry_cell_setting 'triclinic'
loop_
_space_group_symop_operation_xyz
x,y,z
-x,-y,-z
loop_
_atom_site_type_symbol
_atom_site_label
_atom_site_fract_x
_atom_site_fract_y
_atom_site_fract_z
Si Si1 0.312548 0.597094 0.167603
Si Si2 0.573494 0.054710 0.812282
Si Si3 0.549029 0.436297 0.140788
Si Si4 0.217385 0.997422 0.880439
Si Si5 0.017638 0.539894 0.188581
Si Si6 0.813333 0.906357 0.139541
Si Si7 0.872049 0.792964 0.169265
Si Si8 0.148116 0.794149 0.178193
O O1 0.374283 0.572782 0.506714
O O2 0.542886 0.806157 0.132302
O O3 0.177285 0.547522 0.092018
O O4 0.115943 0.429377 0.922897
O O5 0.723420 0.235479 0.709203
O O6 0.744209 0.123617 0.994867
O O7 0.324624 0.870900 0.530021
O O8 0.500000 0.000000 0.000000
O O9 0.759105 0.648004 0.116911
O O10 0.424341 0.314512 0.927781
O O11 0.341068 0.319294 0.025206
O O12 0.224313 0.052338 0.948825
O O13 0.997467 0.853750 0.538335
O O14 0.186836 0.895145 0.116933
O O15 0.000000 0.500000 0.500000
O O16 0.000000 0.500000 0.000000
O O17 0.000000 0.000000 0.500000
O O18 0.932395 0.016805 0.940567
#
# Coordination Sequence:
#
# PCOD9048267 Si02
#       8
#     2   2   2   2   2   2   2   2
#     4  11  24  43  74 102 138 183 239 295 355 441
#     4  10  24  45  75  97 141 190 232 307 374 443
#     4  11  23  45  69  99 139 182 234 294 355 429
#     4  12  24  43  71 100 139 184 235 290 354 428
#     4  11  27  48  75 108 149 195 250 309 383 457
#     4  12  25  42  67 101 133 185 235 291 357 428
#     4  11  24  45  69  93 142 186 226 289 357 423
#     4  10  24  45  65 105 138 178 241 290 370 435
#
# _framework density 22.280806999999999
#
# number of rings (size 3 to 8) (size 9 to 14) (size 15 to 20)
#    0.000    1.000    3.750    1.875    7.000    4.500 
#    2.250    0.000    0.000    0.000    0.000    0.000 
#    0.000    0.000    0.000    0.000    0.000    0.000 
#
# Total GULP energy -89207.963577 kJ/mol
# GULP energy per Si atom -5575.497724 kJ/mol
# Density = 2.223010 g / cm^3
# Si number density = 22.280807 Si / 1000 Ang^3
#
#
#
# Elastic Constant Matrix: (Units=GPa)
#
#
# Indices 1 2 3 4 5 6 
#
# 1 122.4174 26.5655 13.8207 6.2540 -0.1686 -25.4561
# 2 26.5655 95.4381 23.7720 14.2565 -7.9795 -18.5243
# 3 13.8207 23.7720 63.0264 25.8245 1.5187 -3.5022
# 4 6.2540 14.2565 25.8245 35.5927 1.1776 -7.4132
# 5 -0.1686 -7.9795 1.5187 1.1776 33.6588 7.7390
# 6 -25.4561 -18.5243 -3.5022 -7.4132 7.7390 43.0095
#
#
#
# Elastic Compliance Matrix: (Units=1/GPa)
#
#
# Indices 1 2 3 4 5 6 
#
# 1 0.009775 -0.001547 -0.001789 0.001396 -0.001549 0.005493
# 2 -0.001547 0.012998 -0.003809 -0.001486 0.002453 0.003675
# 3 -0.001789 -0.003809 0.024264 -0.016462 -0.000639 -0.003446
# 4 0.001396 -0.001486 -0.016462 0.041832 -0.002565 0.006517
# 5 -0.001549 0.002453 -0.000639 -0.002565 0.031799 -0.006076
# 6 0.005493 0.003675 -0.003446 0.006517 -0.006076 0.030021
#
#
# Mechanical properties :
#
#
# Convention : Reuss Voigt Hill
#
# Bulk Modulus (GPa) = 30.53762 45.46649 38.00205
# Shear Modulus (GPa) = 28.42595 36.90043 32.66319
#
# Velocity S-wave (km/s) = 3.57572 4.07400 3.83296
# Velocity P-wave (km/s) = 5.54826 6.52537 6.05655
#
# Compressibility (1/GPa) = 0.03274650
#
# Stress axis : x y z
#
# Youngs Moduli (GPa) = 102.29848 76.93620 41.21276
#
# Poissons Ratio (x) = 0.11903 0.07374
# Poissons Ratio (y) = 0.15827 0.15698
# Poissons Ratio (z) = 0.18305 0.29305
#
# Static dielectric constant tensor:
#      x y z
#    x 1.919540 0.005080 -0.093060 
#    y 0.005080 1.811210 -0.025030 
#    z -0.093060 -0.025030 1.917910 
# 
# From -- ./inp_files/120641.got.cif
#   From: 2010.05.17/outbox.cif.g08.bks.cpg/sg2_61_cif.got.tgz:120641.got - 2010.06.03 11:33:40.
