data_PCOD9048435
_publ_section_title
;
Structure prediction by ZEFSAII (Michael W. Deem and Ramdas Pophale) SiO2 
 PCOD9048435
Probable space group: P -1
;
_chemical_formula_sum "Si O2"
_cell_formula_units_Z 15
_cell_length_a 13.698206
_cell_length_b 7.359176
_cell_length_c 8.434928
_cell_angle_alpha 139.895666
_cell_angle_beta 89.974064
_cell_angle_gamma 87.176805
_cell_volume 546.123979
_symmetry_space_group_name_H-M "P -1"
_symmetry_group_IT_number 2
_symmetry_cell_setting 'triclinic'
loop_
_space_group_symop_operation_xyz
x,y,z
-x,-y,-z
loop_
_atom_site_type_symbol
_atom_site_label
_atom_site_fract_x
_atom_site_fract_y
_atom_site_fract_z
Si Si1 0.000000 0.000000 0.000000
Si Si2 0.097606 0.756612 0.520824
Si Si3 0.635374 0.374649 0.272064
Si Si4 0.646354 0.959649 0.571090
Si Si5 0.804037 0.134358 0.940725
Si Si6 0.931460 0.637747 0.229003
Si Si7 0.316092 0.538035 0.316917
Si Si8 0.479541 0.246117 0.950817
O O1 0.923241 0.127385 0.226071
O O2 0.905586 0.956696 0.853350
O O3 0.199051 0.571526 0.364036
O O4 0.004932 0.596370 0.350728
O O5 0.097885 0.038255 0.596843
O O6 0.727602 0.153056 0.096705
O O7 0.638461 0.481630 0.521093
O O8 0.537937 0.266502 0.129777
O O9 0.654297 0.629433 0.321613
O O10 0.652736 0.168258 0.563728
O O11 0.737090 0.030980 0.730329
O O12 0.542088 0.001272 0.691894
O O13 0.843566 0.441108 0.112301
O O14 0.000000 0.500000 0.000000
O O15 0.366862 0.300756 0.040303
O O16 0.500000 0.500000 0.000000
#
# Coordination Sequence:
#
# PCOD9048435 Si02
#       8
#     1   2   2   2   2   2   2   2
#     4  12  24  42  62  96 138 176 228 280 330 398
#     4  11  25  42  65  99 133 178 230 275 334 406
#     4  11  23  43  69  97 130 177 215 276 337 397
#     4  10  24  45  68  96 134 172 222 274 340 405
#     4  11  24  43  61  94 134 175 222 280 328 396
#     4  11  23  43  67  90 134 182 226 278 336 394
#     4  11  22  43  68  99 129 172 221 274 330 403
#     4   9  22  44  69  99 136 166 217 276 338 408
#
# _framework density 27.466290999999998
#
# number of rings (size 3 to 8) (size 9 to 14) (size 15 to 20)
#    0.000    1.333    2.667    2.000    3.733    4.267 
#    2.400    9.333    0.000    0.000    0.000    0.000 
#    0.000    0.000    0.000    0.000    0.000    0.000 
#
# Total GULP energy -83816.323184 kJ/mol
# GULP energy per Si atom -5587.754879 kJ/mol
# Density = 2.740378 g / cm^3
# Si number density = 27.466291 Si / 1000 Ang^3
#
#
#
# Elastic Constant Matrix: (Units=GPa)
#
#
# Indices 1 2 3 4 5 6 
#
# 1 202.3316 54.9962 79.5335 7.6894 -25.8610 -9.6229
# 2 54.9962 109.8634 5.1809 3.2477 4.8798 7.1378
# 3 79.5335 5.1809 83.8371 -28.4664 -25.7478 -10.2801
# 4 7.6894 3.2477 -28.4664 42.2062 -1.0063 2.3049
# 5 -25.8610 4.8798 -25.7478 -1.0063 73.4616 4.6689
# 6 -9.6229 7.1378 -10.2801 2.3049 4.6689 54.1432
#
#
#
# Elastic Compliance Matrix: (Units=1/GPa)
#
#
# Indices 1 2 3 4 5 6 
#
# 1 0.014106 -0.005745 -0.018292 -0.014525 -0.001296 0.000521
# 2 -0.005745 0.011721 0.005716 0.004072 -0.000640 -0.001599
# 3 -0.018292 0.005716 0.042490 0.031642 0.008380 0.001993
# 4 -0.014525 0.004072 0.031642 0.047501 0.006337 0.000321
# 5 -0.001296 -0.000640 0.008380 0.006337 0.016237 -0.000225
# 6 0.000521 -0.001599 0.001993 0.000321 -0.000225 0.019157
#
#
# Mechanical properties :
#
#
# Convention : Reuss Voigt Hill
#
# Bulk Modulus (GPa) = 31.57281 75.05035 53.31158
# Shear Modulus (GPa) = 25.20007 51.05028 38.12518
#
# Velocity S-wave (km/s) = 3.03230 4.31589 3.72973
# Velocity P-wave (km/s) = 4.87646 7.22632 6.16439
#
# Compressibility (1/GPa) = 0.03167282
#
# Stress axis : x y z
#
# Youngs Moduli (GPa) = 70.89345 85.31923 23.53501
#
# Poissons Ratio (x) = 0.49019 0.43051
# Poissons Ratio (y) = 0.40731 -0.13453
# Poissons Ratio (z) = 1.29682 -0.48770
#
# Static dielectric constant tensor:
#      x y z
#    x 2.238640 0.046750 0.363240 
#    y 0.046750 2.245130 0.279450 
#    z 0.363240 0.279450 3.279900 
# 
# From -- ./inp_files/45950.got.cif
#   From: 2010.05.17/outbox.cif.g08.bks.cpg/sg2_23_cif.got.tgz:45950.got - 2010.06.03 11:33:40.
