data_PCOD9048746
_publ_section_title
;
Structure prediction by ZEFSAII (Michael W. Deem and Ramdas Pophale) SiO2 
 PCOD9048746
Probable space group: P -1
;
_chemical_formula_sum "Si O2"
_cell_formula_units_Z 15
_cell_length_a 15.878915
_cell_length_b 5.805811
_cell_length_c 7.393592
_cell_angle_alpha 112.297537
_cell_angle_beta 111.691307
_cell_angle_gamma 97.600771
_cell_volume 555.774224
_symmetry_space_group_name_H-M "P -1"
_symmetry_group_IT_number 2
_symmetry_cell_setting 'triclinic'
loop_
_space_group_symop_operation_xyz
x,y,z
-x,-y,-z
loop_
_atom_site_type_symbol
_atom_site_label
_atom_site_fract_x
_atom_site_fract_y
_atom_site_fract_z
Si Si1 0.868647 0.982482 0.881342
Si Si2 0.303929 0.187989 0.700200
Si Si3 0.099006 0.959252 0.509339
Si Si4 0.653307 0.302219 0.304875
Si Si5 0.539081 0.584933 0.811758
Si Si6 0.500000 0.000000 0.500000
Si Si7 0.048126 0.419254 0.189658
Si Si8 0.675655 0.029206 0.864030
O O1 0.868329 0.690915 0.840052
O O2 0.780331 0.068188 0.893033
O O3 0.884762 0.004464 0.684287
O O4 0.960747 0.174272 0.115686
O O5 0.301265 0.384068 0.591665
O O6 0.203200 0.137615 0.714671
O O7 0.311738 0.893833 0.598118
O O8 0.401022 0.344806 0.933270
O O9 0.084242 0.650953 0.429147
O O10 0.000000 0.000000 0.500000
O O11 0.540461 0.263853 0.236108
O O12 0.669869 0.187200 0.088884
O O13 0.488905 0.283440 0.642438
O O14 0.622540 0.723971 0.778769
O O15 0.391141 0.895751 0.308248
O O16 0.000000 0.500000 0.000000
#
# Coordination Sequence:
#
# PCOD9048746 Si02
#       8
#     2   2   2   2   2   1   2   2
#     4  10  24  45  72 102 142 185 237 304 367 438
#     4  11  25  46  75 106 146 193 248 302 367 429
#     4  11  27  44  72 105 141 190 239 304 361 445
#     4  11  26  47  75 104 145 197 246 304 359 438
#     4  11  26  46  69 102 147 191 244 300 365 429
#     4  12  26  42  68 102 146 190 240 298 362 434
#     4   9  22  46  70 100 140 181 234 300 367 432
#     4  11  25  43  70 103 139 190 244 299 368 437
#
# _framework density 26.989374999999999
#
# number of rings (size 3 to 8) (size 9 to 14) (size 15 to 20)
#    0.000    1.333    1.333    2.400    7.467    9.067 
#    0.000    0.000    0.000    0.000    0.000    0.000 
#    0.000    0.000    0.000    0.000    0.000    0.000 
#
# Total GULP energy -83682.495249 kJ/mol
# GULP energy per Si atom -5578.833017 kJ/mol
# Density = 2.692795 g / cm^3
# Si number density = 26.989375 Si / 1000 Ang^3
#
#
#
# Elastic Constant Matrix: (Units=GPa)
#
#
# Indices 1 2 3 4 5 6 
#
# 1 171.0593 40.0126 37.9685 2.4384 7.8489 -11.7641
# 2 40.0126 128.5508 14.7218 21.6919 -0.6071 -25.8170
# 3 37.9685 14.7218 85.3058 11.0754 0.2486 0.6950
# 4 2.4384 21.6919 11.0754 49.1287 1.6049 3.6244
# 5 7.8489 -0.6071 0.2486 1.6049 43.1635 -2.5814
# 6 -11.7641 -25.8170 0.6950 3.6244 -2.5814 40.3166
#
#
#
# Elastic Compliance Matrix: (Units=1/GPa)
#
#
# Indices 1 2 3 4 5 6 
#
# 1 0.007040 -0.001914 -0.002955 0.001153 -0.001292 0.000693
# 2 -0.001914 0.010640 -0.000387 -0.005052 0.001094 0.006785
# 3 -0.002955 -0.000387 0.013456 -0.002653 0.000489 -0.001072
# 4 0.001153 -0.005052 -0.002653 0.023547 -0.001444 -0.005062
# 5 -0.001292 0.001094 0.000489 -0.001444 0.023586 0.001955
# 6 0.000693 0.006785 -0.001072 -0.005062 0.001955 0.029950
#
#
# Mechanical properties :
#
#
# Convention : Reuss Voigt Hill
#
# Bulk Modulus (GPa) = 48.48652 63.36908 55.92780
# Shear Modulus (GPa) = 39.80770 46.00260 42.90515
#
# Velocity S-wave (km/s) = 3.84466 4.13300 3.99144
# Velocity P-wave (km/s) = 6.14106 6.80484 6.48145
#
# Compressibility (1/GPa) = 0.02062429
#
# Stress axis : x y z
#
# Youngs Moduli (GPa) = 142.04521 93.98923 74.31589
#
# Poissons Ratio (x) = 0.17993 0.21957
# Poissons Ratio (y) = 0.27193 0.02873
# Poissons Ratio (z) = 0.41969 0.03634
#
# Static dielectric constant tensor:
#      x y z
#    x 2.158460 0.135270 -0.027380 
#    y 0.135270 2.330440 -0.036160 
#    z -0.027380 -0.036160 2.171100 
# 
# From -- ./inp_files/289306.got.cif
#   From: 2010.05.17/outbox.cif.g08.bks.cpg/sg2_145_cif.got.tgz:289306.got - 2010.06.03 11:33:40.
