data_PCOD9048891
_publ_section_title
;
Structure prediction by ZEFSAII (Michael W. Deem and Ramdas Pophale) SiO2 
 PCOD9048891
Probable space group: P -1
;
_chemical_formula_sum "Si O2"
_cell_formula_units_Z 13
_cell_length_a 7.805108
_cell_length_b 5.356105
_cell_length_c 14.202299
_cell_angle_alpha 122.040075
_cell_angle_beta 74.921560
_cell_angle_gamma 96.813986
_cell_volume 485.824775
_symmetry_space_group_name_H-M "P -1"
_symmetry_group_IT_number 2
_symmetry_cell_setting 'triclinic'
loop_
_space_group_symop_operation_xyz
x,y,z
-x,-y,-z
loop_
_atom_site_type_symbol
_atom_site_label
_atom_site_fract_x
_atom_site_fract_y
_atom_site_fract_z
Si Si1 0.078235 0.817126 0.576804
Si Si2 0.251871 0.838058 0.357435
Si Si3 0.678038 0.243549 0.951525
Si Si4 0.637293 0.189311 0.144658
Si Si5 0.578991 0.248150 0.369278
Si Si6 0.000000 0.000000 0.000000
Si Si7 0.171871 0.364693 0.147827
O O1 0.188617 0.908918 0.486402
O O2 0.221459 0.818642 0.638403
O O3 0.000000 0.500000 0.500000
O O4 0.904461 0.019319 0.656877
O O5 0.219240 0.498320 0.268150
O O6 0.439267 0.983838 0.341763
O O7 0.705563 0.452556 0.902616
O O8 0.525662 0.023157 0.899188
O O9 0.834387 0.999676 0.911883
O O10 0.641823 0.379932 0.086291
O O11 0.595034 0.349579 0.279687
O O12 0.808486 0.969612 0.080690
O O13 0.500000 0.500000 0.500000
O O14 0.004420 0.640031 0.889879
#
# Coordination Sequence:
#
# PCOD9048891 Si02
#       7
#     2   2   2   2   2   1   2
#     4  11  26  46  76 111 160 200 275 325 396 475
#     4  11  26  48  74 114 152 218 257 336 399 481
#     4  10  24  49  76 108 150 204 267 317 400 484
#     4  10  24  45  74 114 149 207 261 328 396 481
#     4  12  25  48  79 114 157 211 268 326 404 480
#     4  10  26  46  74 112 154 190 262 332 392 462
#     4  11  25  47  79 110 151 204 260 330 405 470
#
# _framework density 26.758620000000001
#
# number of rings (size 3 to 8) (size 9 to 14) (size 15 to 20)
#    0.000    1.231    3.077    0.462    6.462    9.231 
#    2.769    1.538    0.000    0.000    0.000    0.000 
#    0.000    0.000    0.000    0.000    0.000    0.000 
#
# Total GULP energy -72408.178770 kJ/mol
# GULP energy per Si atom -5569.859905 kJ/mol
# Density = 2.669772 g / cm^3
# Si number density = 26.758620 Si / 1000 Ang^3
#
#
#
# Elastic Constant Matrix: (Units=GPa)
#
#
# Indices 1 2 3 4 5 6 
#
# 1 168.1850 28.6503 20.5301 6.5741 27.8246 3.0965
# 2 28.6503 46.7617 5.5288 -0.3869 -1.7987 -9.7556
# 3 20.5301 5.5288 151.5900 -7.4520 19.7358 -10.2569
# 4 6.5741 -0.3869 -7.4520 45.1108 2.2985 10.2315
# 5 27.8246 -1.7987 19.7358 2.2985 40.0627 5.4809
# 6 3.0965 -9.7556 -10.2569 10.2315 5.4809 35.7641
#
#
#
# Elastic Compliance Matrix: (Units=1/GPa)
#
#
# Indices 1 2 3 4 5 6 
#
# 1 0.007791 -0.005192 -0.000288 -0.000694 -0.005304 -0.001162
# 2 -0.005192 0.026246 -0.000338 -0.000902 0.004024 0.007153
# 3 -0.000288 -0.000338 0.007349 0.000911 -0.003811 0.002364
# 4 -0.000694 -0.000902 0.000911 0.023956 -0.000464 -0.006707
# 5 -0.005304 0.004024 -0.003811 -0.000464 0.031304 -0.004201
# 6 -0.001162 0.007153 0.002364 -0.006707 -0.004201 0.033253
#
#
# Mechanical properties :
#
#
# Convention : Reuss Voigt Hill
#
# Bulk Modulus (GPa) = 33.61401 52.88389 43.24895
# Shear Modulus (GPa) = 33.01370 44.97603 38.99486
#
# Velocity S-wave (km/s) = 3.51630 4.10421 3.82158
# Velocity P-wave (km/s) = 5.39213 6.50120 5.97246
#
# Compressibility (1/GPa) = 0.02974950
#
# Stress axis : x y z
#
# Youngs Moduli (GPa) = 128.34678 38.10163 136.07317
#
# Poissons Ratio (x) = 0.19782 0.03920
# Poissons Ratio (y) = 0.66636 0.04604
# Poissons Ratio (z) = 0.03697 0.01289
#
# Static dielectric constant tensor:
#      x y z
#    x 4.657650 -0.620150 0.769410 
#    y -0.620150 2.326130 -0.087380 
#    z 0.769410 -0.087380 2.657480 
# 
# From -- ./inp_files/487386.got.cif
#   From: 2010.05.17/outbox.cif.g08.bks.cpg/sg2_244_cif.got.tgz:487386.got - 2010.06.03 11:33:40.
