data_PCOD9048434
_publ_section_title
;
Structure prediction by ZEFSAII (Michael W. Deem and Ramdas Pophale) SiO2 
 PCOD9048434
Probable space group: P -1
;
_chemical_formula_sum "Si O2"
_cell_formula_units_Z 16
_cell_length_a 10.943660
_cell_length_b 14.287170
_cell_length_c 9.591336
_cell_angle_alpha 112.641248
_cell_angle_beta 102.775363
_cell_angle_gamma 29.662745
_cell_volume 663.528006
_symmetry_space_group_name_H-M "P -1"
_symmetry_group_IT_number 2
_symmetry_cell_setting 'triclinic'
loop_
_space_group_symop_operation_xyz
x,y,z
-x,-y,-z
loop_
_atom_site_type_symbol
_atom_site_label
_atom_site_fract_x
_atom_site_fract_y
_atom_site_fract_z
Si Si1 0.585523 0.684381 0.948336
Si Si2 0.519445 0.868053 0.286986
Si Si3 0.060591 0.723087 0.673423
Si Si4 0.363869 0.351393 0.358480
Si Si5 0.667334 0.989414 0.384160
Si Si6 0.217632 0.669308 0.218899
Si Si7 0.203889 0.799073 0.536547
Si Si8 0.999960 0.109987 0.992831
O O1 0.742431 0.583591 0.786690
O O2 0.617469 0.542936 0.907987
O O3 0.648090 0.702938 0.113313
O O4 0.303659 0.916735 0.959963
O O5 0.444700 0.879854 0.428218
O O6 0.663162 0.872740 0.339536
O O7 0.238376 0.089675 0.285853
O O8 0.183671 0.537894 0.527320
O O9 0.098041 0.793043 0.617566
O O10 0.129215 0.715374 0.839547
O O11 0.463777 0.171791 0.325915
O O12 0.611735 0.251472 0.371356
O O13 0.947434 0.824385 0.309429
O O14 0.354252 0.629734 0.358723
O O15 0.134472 0.792807 0.135024
O O16 0.000000 0.000000 0.500000
O O17 0.000000 0.000000 0.000000
#
# Coordination Sequence:
#
# PCOD9048434 Si02
#       8
#     2   2   2   2   2   2   2   2
#     4  11  24  43  67  98 133 172 221 270 332 388
#     4  10  24  45  68  96 130 171 219 285 324 384
#     4  11  23  41  62  95 135 169 218 271 329 387
#     4  12  23  40  67  99 132 176 221 267 328 404
#     4  11  23  45  70  95 130 173 224 269 333 394
#     4  12  24  43  67  98 134 179 220 266 332 396
#     4  12  21  39  68  93 129 179 215 264 328 397
#     4  11  25  43  60  98 140 171 219 275 318 392
#
# _framework density 24.113526
#
# number of rings (size 3 to 8) (size 9 to 14) (size 15 to 20)
#    0.000    0.750    5.000    1.875    3.500    3.000 
#    0.000    0.000    0.000    0.000    0.000    0.000 
#    0.000    0.000    0.000    0.000    0.000    0.000 
#
# Total GULP energy -89404.203221 kJ/mol
# GULP energy per Si atom -5587.762701 kJ/mol
# Density = 2.405864 g / cm^3
# Si number density = 24.113526 Si / 1000 Ang^3
#
#
#
# Elastic Constant Matrix: (Units=GPa)
#
#
# Indices 1 2 3 4 5 6 
#
# 1 39.0170 5.4053 25.0388 2.5055 -11.2933 -2.2691
# 2 5.4053 66.9676 24.5205 9.0915 -9.1556 14.2892
# 3 25.0388 24.5205 182.7614 -0.2414 9.8218 3.9843
# 4 2.5055 9.0915 -0.2414 46.3673 7.8917 -0.6714
# 5 -11.2933 -9.1556 9.8218 7.8917 26.1157 1.0509
# 6 -2.2691 14.2892 3.9843 -0.6714 1.0509 24.8431
#
#
#
# Elastic Compliance Matrix: (Units=1/GPa)
#
#
# Indices 1 2 3 4 5 6 
#
# 1 0.035823 0.002729 -0.006426 -0.005987 0.020605 0.001700
# 2 0.002729 0.021229 -0.003638 -0.006628 0.012480 -0.012085
# 3 -0.006426 -0.003638 0.007232 0.002390 -0.007526 0.000729
# 4 -0.005987 -0.006628 0.002390 0.025597 -0.013713 0.004154
# 5 0.020605 0.012480 -0.007526 -0.013713 0.058830 -0.006948
# 6 0.001700 -0.012085 0.000729 0.004154 -0.006948 0.047648
#
#
# Mechanical properties :
#
#
# Convention : Reuss Voigt Hill
#
# Bulk Modulus (GPa) = 20.15609 44.29723 32.22666
# Shear Modulus (GPa) = 21.97144 35.05064 28.51104
#
# Velocity S-wave (km/s) = 3.02183 3.81670 3.44229
# Velocity P-wave (km/s) = 4.53346 6.15087 5.40303
#
# Compressibility (1/GPa) = 0.04961279
#
# Stress axis : x y z
#
# Youngs Moduli (GPa) = 27.91484 47.10532 138.27721
#
# Poissons Ratio (x) = -0.12854 0.88861
# Poissons Ratio (y) = -0.07617 0.50306
# Poissons Ratio (z) = 0.17939 0.17137
#
# Static dielectric constant tensor:
#      x y z
#    x 1.954050 -0.021900 -0.014640 
#    y -0.021900 1.944020 0.047080 
#    z -0.014640 0.047080 2.002490 
# 
# From -- ./inp_files/186395.got.cif
#   From: 2010.05.17/outbox.cif.g08.bks.cpg/sg2_94_cif.got.tgz:186395.got - 2010.06.03 11:33:40.
