data_PCOD9048755
_publ_section_title
;
Structure prediction by ZEFSAII (Michael W. Deem and Ramdas Pophale) SiO2 
 PCOD9048755
Probable space group: P -1
;
_chemical_formula_sum "Si O2"
_cell_formula_units_Z 16
_cell_length_a 15.027603
_cell_length_b 15.626148
_cell_length_c 10.859057
_cell_angle_alpha 38.341895
_cell_angle_beta 127.482949
_cell_angle_gamma 152.498035
_cell_volume 695.840343
_symmetry_space_group_name_H-M "P -1"
_symmetry_group_IT_number 2
_symmetry_cell_setting 'triclinic'
loop_
_space_group_symop_operation_xyz
x,y,z
-x,-y,-z
loop_
_atom_site_type_symbol
_atom_site_label
_atom_site_fract_x
_atom_site_fract_y
_atom_site_fract_z
Si Si1 0.203211 0.983865 0.847584
Si Si2 0.950644 0.899612 0.310005
Si Si3 0.364316 0.853844 0.169673
Si Si4 0.263249 0.492235 0.608862
Si Si5 0.650610 0.506137 0.718332
Si Si6 0.396223 0.808623 0.799548
Si Si7 0.797511 0.339177 0.441076
Si Si8 0.289887 0.154830 0.465842
O O1 0.061532 0.948628 0.839305
O O2 0.427491 0.274277 0.734381
O O3 0.179572 0.960614 0.705374
O O4 0.232105 0.857615 0.062528
O O5 0.876863 0.776121 0.253024
O O6 0.801834 0.679715 0.536139
O O7 0.162229 0.048105 0.356160
O O8 0.227716 0.581186 0.381067
O O9 0.538937 0.019280 0.234215
O O10 0.500000 0.000000 0.000000
O O11 0.242108 0.549731 0.656129
O O12 0.490355 0.674857 0.572489
O O13 0.685248 0.670032 0.650185
O O14 0.661497 0.384381 0.952895
O O15 0.224736 0.667094 0.716808
O O16 0.616046 0.041677 0.652309
O O17 0.000000 0.500000 0.500000
#
# Coordination Sequence:
#
# PCOD9048755 Si02
#       8
#     2   2   2   2   2   2   2   2
#     4  10  17  34  59  82 133 164 190 235 305 365
#     4  11  21  35  59  94 128 168 197 237 304 375
#     4  10  18  34  63  91 123 158 195 243 305 366
#     4  11  21  39  60  86 122 159 204 259 304 355
#     4  10  17  36  61  89 123 162 192 245 307 364
#     4   9  21  40  65  86 120 159 204 253 315 356
#     4  10  23  45  65  85 115 163 215 260 314 359
#     4  11  20  35  59  89 129 165 197 238 304 373
#
# _framework density 22.993780000000001
#
# number of rings (size 3 to 8) (size 9 to 14) (size 15 to 20)
#    0.000    1.750    3.750    3.000    0.000    3.000 
#   13.500    1.250    0.000    1.500    0.000    0.000 
#    0.000    0.000    0.000    0.000    0.000    0.000 
#
# Total GULP energy -89215.192704 kJ/mol
# GULP energy per Si atom -5575.949544 kJ/mol
# Density = 2.294145 g / cm^3
# Si number density = 22.993780 Si / 1000 Ang^3
#
#
#
# Elastic Constant Matrix: (Units=GPa)
#
#
# Indices 1 2 3 4 5 6 
#
# 1 53.7062 37.5420 13.0123 2.9908 12.5815 -23.3340
# 2 37.5420 111.4976 21.1380 22.8613 13.2374 5.4540
# 3 13.0123 21.1380 68.8965 3.2402 2.6120 0.6139
# 4 2.9908 22.8613 3.2402 27.5852 -4.2016 -4.5089
# 5 12.5815 13.2374 2.6120 -4.2016 28.3096 -0.1576
# 6 -23.3340 5.4540 0.6139 -4.5089 -0.1576 24.3137
#
#
#
# Elastic Compliance Matrix: (Units=1/GPa)
#
#
# Indices 1 2 3 4 5 6 
#
# 1 0.116926 -0.052482 -0.008871 0.050897 -0.018309 0.133532
# 2 -0.052482 0.036950 0.000822 -0.035652 0.000316 -0.065286
# 3 -0.008871 0.000822 0.016102 -0.002946 0.001582 -0.009641
# 4 0.050897 -0.035652 -0.002946 0.072993 0.005548 0.070490
# 5 -0.018309 0.000316 0.001582 0.005548 0.043899 -0.016369
# 6 0.133532 -0.065286 -0.009641 0.070490 -0.016369 0.197135
#
#
# Mechanical properties :
#
#
# Convention : Reuss Voigt Hill
#
# Bulk Modulus (GPa) = 20.44295 41.94278 31.19286
# Shear Modulus (GPa) = 8.04670 26.86892 17.45781
#
# Velocity S-wave (km/s) = 1.87273 3.42208 2.75842
# Velocity P-wave (km/s) = 3.68593 5.82192 4.87241
#
# Compressibility (1/GPa) = 0.04891662
#
# Stress axis : x y z
#
# Youngs Moduli (GPa) = 8.55238 27.06359 62.10317
#
# Poissons Ratio (x) = 1.42035 0.55092
# Poissons Ratio (y) = 0.44885 -0.05105
# Poissons Ratio (z) = 0.07587 -0.02225
#
# Static dielectric constant tensor:
#      x y z
#    x 1.907660 -0.002030 -0.043300 
#    y -0.002030 1.898620 -0.011240 
#    z -0.043300 -0.011240 1.995540 
# 
# From -- ./inp_files/422834.got.cif
#   From: 2010.05.17/outbox.cif.g08.bks.cpg/sg2_212_cif.got.tgz:422834.got - 2010.06.03 11:33:40.
