data_PCOD9048784
_publ_section_title
;
Structure prediction by ZEFSAII (Michael W. Deem and Ramdas Pophale) SiO2 
 PCOD9048784
Probable space group: P -1
;
_chemical_formula_sum "Si O2"
_cell_formula_units_Z 14
_cell_length_a 5.001573
_cell_length_b 18.489858
_cell_length_c 14.523295
_cell_angle_alpha 27.124682
_cell_angle_beta 72.029912
_cell_angle_gamma 63.555264
_cell_volume 535.437363
_symmetry_space_group_name_H-M "P -1"
_symmetry_group_IT_number 2
_symmetry_cell_setting 'triclinic'
loop_
_space_group_symop_operation_xyz
x,y,z
-x,-y,-z
loop_
_atom_site_type_symbol
_atom_site_label
_atom_site_fract_x
_atom_site_fract_y
_atom_site_fract_z
Si Si1 0.604476 0.289588 0.221800
Si Si2 0.588456 0.701367 0.499509
Si Si3 0.177971 0.421840 0.854671
Si Si4 0.189355 0.786529 0.917639
Si Si5 0.010697 0.699016 0.677809
Si Si6 0.753799 0.014885 0.146921
Si Si7 0.598552 0.161356 0.818252
O O1 0.902868 0.227156 0.323785
O O2 0.353360 0.233835 0.360131
O O3 0.500000 0.500000 0.000000
O O4 0.674099 0.218654 0.192031
O O5 0.275251 0.699467 0.577648
O O6 0.595589 0.690038 0.400048
O O7 0.909270 0.570052 0.657605
O O8 0.571653 0.892534 0.307115
O O9 0.542070 0.365117 0.881465
O O10 0.087859 0.492865 0.888296
O O11 0.104388 0.256956 0.021641
O O12 0.155069 0.943063 0.810187
O O13 0.602465 0.178785 0.908036
O O14 0.063034 0.900971 0.188406
O O15 0.500000 0.000000 0.000000
#
# Coordination Sequence:
#
# PCOD9048784 Si02
#       7
#     2   2   2   2   2   2   2
#     4  12  21  38  63  98 138 182 228 265 328 400
#     4  11  22  42  72  96 135 182 225 273 336 415
#     4  12  22  41  66  98 139 173 224 274 338 386
#     4  12  26  41  67 104 137 174 226 290 324 385
#     4  12  21  38  65  99 128 188 227 264 321 407
#     4  10  24  45  72  98 133 172 233 276 340 403
#     4   9  21  44  74  95 124 182 228 268 339 420
#
# _framework density 26.146847999999999
#
# number of rings (size 3 to 8) (size 9 to 14) (size 15 to 20)
#    0.000    0.857    5.714    2.143    4.000    0.000 
#    0.000    2.857    0.000    0.000    0.000    0.000 
#    0.000    0.000    0.000    0.000    0.000    0.000 
#
# Total GULP energy -78081.661331 kJ/mol
# GULP energy per Si atom -5577.261524 kJ/mol
# Density = 2.608734 g / cm^3
# Si number density = 26.146848 Si / 1000 Ang^3
#
#
#
# Elastic Constant Matrix: (Units=GPa)
#
#
# Indices 1 2 3 4 5 6 
#
# 1 159.2637 2.2592 26.8472 11.4366 -28.0823 13.8544
# 2 2.2592 91.0493 -1.6072 6.4405 -19.4764 18.3595
# 3 26.8472 -1.6072 55.0648 16.6788 -17.8806 -13.9660
# 4 11.4366 6.4405 16.6788 35.7922 -2.1917 -2.8662
# 5 -28.0823 -19.4764 -17.8806 -2.1917 54.5794 -0.3381
# 6 13.8544 18.3595 -13.9660 -2.8662 -0.3381 35.2780
#
#
#
# Elastic Compliance Matrix: (Units=1/GPa)
#
#
# Indices 1 2 3 4 5 6 
#
# 1 0.008089 0.001702 -0.003797 -0.001363 0.003436 -0.005644
# 2 0.001702 0.014082 0.000557 -0.003618 0.005888 -0.008014
# 3 -0.003797 0.000557 0.028651 -0.010853 0.007268 0.011732
# 4 -0.001363 -0.003618 -0.010853 0.033894 -0.004182 0.000835
# 5 0.003436 0.005888 0.007268 -0.004182 0.024394 -0.001642
# 6 -0.005644 -0.008014 0.011732 0.000835 -0.001642 0.039430
#
#
# Mechanical properties :
#
#
# Convention : Reuss Voigt Hill
#
# Bulk Modulus (GPa) = 20.94465 40.04180 30.49322
# Shear Modulus (GPa) = 29.84481 43.65516 36.74999
#
# Velocity S-wave (km/s) = 3.38217 4.09052 3.75310
# Velocity P-wave (km/s) = 4.82492 6.13655 5.51984
#
# Compressibility (1/GPa) = 0.04774489
#
# Stress axis : x y z
#
# Youngs Moduli (GPa) = 123.61734 71.01202 34.90263
#
# Poissons Ratio (x) = -0.12083 0.13253
# Poissons Ratio (y) = -0.21035 -0.01943
# Poissons Ratio (z) = 0.46941 -0.03954
#
# Static dielectric constant tensor:
#      x y z
#    x 2.101280 0.039120 0.074650 
#    y 0.039120 2.084770 -0.021290 
#    z 0.074650 -0.021290 2.289040 
# 
# From -- ./inp_files/485108.got.cif
#   From: 2010.05.17/outbox.cif.g08.bks.cpg/sg2_243_cif.got.tgz:485108.got - 2010.06.03 11:33:40.
