data_PCOD9048433
_publ_section_title
;
Structure prediction by ZEFSAII (Michael W. Deem and Ramdas Pophale) SiO2 
 PCOD9048433
Probable space group: P -1
;
_chemical_formula_sum "Si O2"
_cell_formula_units_Z 15
_cell_length_a 11.604605
_cell_length_b 10.999943
_cell_length_c 12.449844
_cell_angle_alpha 27.986562
_cell_angle_beta 51.298331
_cell_angle_gamma 58.924237
_cell_volume 579.189791
_symmetry_space_group_name_H-M "P -1"
_symmetry_group_IT_number 2
_symmetry_cell_setting 'triclinic'
loop_
_space_group_symop_operation_xyz
x,y,z
-x,-y,-z
loop_
_atom_site_type_symbol
_atom_site_label
_atom_site_fract_x
_atom_site_fract_y
_atom_site_fract_z
Si Si1 0.167752 0.094517 0.306517
Si Si2 0.507708 0.422967 0.285414
Si Si3 0.748675 0.878933 0.196730
Si Si4 0.947252 0.415402 0.933349
Si Si5 0.282965 0.000339 0.536091
Si Si6 0.725914 0.715362 0.101929
Si Si7 0.500000 0.500000 0.000000
Si Si8 0.947392 0.366983 0.744187
O O1 0.153098 0.405915 0.078466
O O2 0.250836 0.977624 0.446166
O O3 0.225871 0.043979 0.194483
O O4 0.000000 0.000000 0.500000
O O5 0.357792 0.273298 0.536495
O O6 0.598784 0.202264 0.349877
O O7 0.595458 0.555532 0.234433
O O8 0.504643 0.613117 0.036451
O O9 0.685207 0.818551 0.161835
O O10 0.911296 0.777258 0.187284
O O11 0.796859 0.180353 0.959169
O O12 0.929450 0.530438 0.734795
O O13 0.118927 0.417297 0.864889
O O14 0.865360 0.120955 0.220219
O O15 0.361490 0.287067 0.282421
O O16 0.000000 0.500000 0.500000
#
# Coordination Sequence:
#
# PCOD9048433 Si02
#       8
#     2   2   2   2   2   2   1   2
#     4  12  23  39  70 103 133 171 224 278 332 392
#     4  12  25  45  65  99 137 175 223 272 339 396
#     4  10  25  45  69  94 135 176 218 276 325 401
#     4  11  23  42  70 100 135 176 222 283 329 388
#     4  12  24  42  65  99 135 173 221 275 332 391
#     4  11  22  45  67  99 134 176 221 272 335 393
#     4  12  26  42  68  92 134 180 220 278 330 394
#     4  10  24  45  68  96 127 173 227 270 330 398
#
# _framework density 25.898246
#
# number of rings (size 3 to 8) (size 9 to 14) (size 15 to 20)
#    0.000    0.800    4.000    2.800    1.867    5.333 
#    0.000    0.667    0.000    0.000    0.000    0.000 
#    0.000    0.000    0.000    0.000    0.000    0.000 
#
# Total GULP energy -83592.719776 kJ/mol
# GULP energy per Si atom -5572.847985 kJ/mol
# Density = 2.583930 g / cm^3
# Si number density = 25.898246 Si / 1000 Ang^3
#
#
#
# Elastic Constant Matrix: (Units=GPa)
#
#
# Indices 1 2 3 4 5 6 
#
# 1 116.6128 25.5876 41.7631 10.9920 -16.8482 27.7146
# 2 25.5876 56.0769 21.4645 28.4380 -0.5153 32.0655
# 3 41.7631 21.4645 153.9469 37.7701 -34.1780 31.6953
# 4 10.9920 28.4380 37.7701 50.6069 14.1646 14.6221
# 5 -16.8482 -0.5153 -34.1780 14.1646 58.2474 8.4851
# 6 27.7146 32.0655 31.6953 14.6221 8.4851 54.4563
#
#
#
# Elastic Compliance Matrix: (Units=1/GPa)
#
#
# Indices 1 2 3 4 5 6 
#
# 1 0.010864 -0.002206 -0.001150 0.000062 0.003023 -0.004049
# 2 -0.002206 0.045627 0.011246 -0.030782 0.017753 -0.026790
# 3 -0.001150 0.011246 0.015805 -0.018514 0.015388 -0.012662
# 4 0.000062 -0.030782 -0.018514 0.052902 -0.026726 0.018829
# 5 0.003023 0.017753 0.015388 -0.026726 0.036564 -0.019469
# 6 -0.004049 -0.026790 -0.012662 0.018829 -0.019469 0.041546
#
#
# Mechanical properties :
#
#
# Convention : Reuss Voigt Hill
#
# Bulk Modulus (GPa) = 11.35380 56.02967 33.69174
# Shear Modulus (GPa) = 23.05337 48.51689 35.78513
#
# Velocity S-wave (km/s) = 2.98678 4.33294 3.72123
# Velocity P-wave (km/s) = 4.03584 6.83476 5.61257
#
# Compressibility (1/GPa) = 0.08807621
#
# Stress axis : x y z
#
# Youngs Moduli (GPa) = 92.04339 21.91692 63.26948
#
# Poissons Ratio (x) = 0.04834 0.07278
# Poissons Ratio (y) = 0.20302 -0.71152
# Poissons Ratio (z) = 0.10589 -0.24647
#
# Static dielectric constant tensor:
#      x y z
#    x 2.159150 0.025340 0.045930 
#    y 0.025340 2.097430 -0.152950 
#    z 0.045930 -0.152950 2.218250 
# 
# From -- ./inp_files/427112.got.cif
#   From: 2010.05.17/outbox.cif.g08.bks.cpg/sg2_214_cif.got.tgz:427112.got - 2010.06.03 11:33:40.
