data_PCOD9048123
_publ_section_title
;
Structure prediction by ZEFSAII (Michael W. Deem and Ramdas Pophale) SiO2 
 PCOD9048123
Probable space group: P -1
;
_chemical_formula_sum "Si O2"
_cell_formula_units_Z 14
_cell_length_a 5.503318
_cell_length_b 8.766800
_cell_length_c 15.241528
_cell_angle_alpha 49.592816
_cell_angle_beta 80.203720
_cell_angle_gamma 86.371810
_cell_volume 550.689195
_symmetry_space_group_name_H-M "P -1"
_symmetry_group_IT_number 2
_symmetry_cell_setting 'triclinic'
loop_
_space_group_symop_operation_xyz
x,y,z
-x,-y,-z
loop_
_atom_site_type_symbol
_atom_site_label
_atom_site_fract_x
_atom_site_fract_y
_atom_site_fract_z
Si Si1 0.332174 0.475592 0.185822
Si Si2 0.028515 0.613849 0.314419
Si Si3 0.827474 0.018260 0.113916
Si Si4 0.998430 0.784605 0.806100
Si Si5 0.691612 0.328075 0.542965
Si Si6 0.568006 0.060757 0.374897
Si Si7 0.654895 0.837200 0.959443
O O1 0.223767 0.578166 0.239836
O O2 0.101934 0.423428 0.153440
O O3 0.448515 0.269334 0.282481
O O4 0.541000 0.620223 0.074201
O O5 0.864431 0.795103 0.228876
O O6 0.157481 0.676920 0.374448
O O7 0.870508 0.407840 0.423086
O O8 0.424397 0.973551 0.925394
O O9 0.811188 0.175996 0.138948
O O10 0.093032 0.099778 0.028525
O O11 0.138618 0.909414 0.674003
O O12 0.758230 0.849618 0.848677
O O13 0.500000 0.500000 0.500000
O O14 0.548638 0.119982 0.608521
O O15 0.500000 0.000000 0.500000
#
# Coordination Sequence:
#
# PCOD9048123 Si02
#       7
#     2   2   2   2   2   2   2
#     4  12  26  45  70 110 150 193 249 308 377 445
#     4  11  26  44  72 105 150 200 246 313 370 449
#     4  10  24  47  76 109 144 204 248 305 376 443
#     4  10  24  44  74 101 150 193 246 305 376 435
#     4  11  25  47  72 105 148 200 254 300 380 444
#     4  12  26  45  74 112 149 195 249 314 370 448
#     4  10  26  46  80 107 150 198 253 307 376 445
#
# _framework density 25.422688000000001
#
# number of rings (size 3 to 8) (size 9 to 14) (size 15 to 20)
#    0.857    0.286    0.000    4.714    6.000    6.857 
#    0.000    0.000    0.000    0.857    0.000    0.000 
#    0.000    0.000    0.000    0.000    0.000    0.000 
#
# Total GULP energy -78390.800168 kJ/mol
# GULP energy per Si atom -5599.342869 kJ/mol
# Density = 2.536482 g / cm^3
# Si number density = 25.422688 Si / 1000 Ang^3
#
#
#
# Elastic Constant Matrix: (Units=GPa)
#
#
# Indices 1 2 3 4 5 6 
#
# 1 145.6332 58.7257 81.0473 -10.5044 -11.6376 1.8006
# 2 58.7257 105.3855 75.6983 -13.8774 1.0761 0.6293
# 3 81.0473 75.6983 182.8636 -13.2619 -33.7907 -3.0120
# 4 -10.5044 -13.8774 -13.2619 50.3649 -11.1343 -5.7088
# 5 -11.6376 1.0761 -33.7907 -11.1343 55.4482 -13.2636
# 6 1.8006 0.6293 -3.0120 -5.7088 -13.2636 43.8060
#
#
#
# Elastic Compliance Matrix: (Units=1/GPa)
#
#
# Indices 1 2 3 4 5 6 
#
# 1 0.009909 -0.003387 -0.002899 0.000406 0.000366 -0.000394
# 2 -0.003387 0.015793 -0.005919 0.000787 -0.004916 -0.001881
# 3 -0.002899 -0.005919 0.010845 0.002685 0.007509 0.003574
# 4 0.000406 0.000787 0.002685 0.023185 0.007679 0.005503
# 5 0.000366 -0.004916 0.007509 0.007679 0.026630 0.009636
# 6 -0.000394 -0.001881 0.003574 0.005503 0.009636 0.026752
#
#
# Mechanical properties :
#
#
# Convention : Reuss Voigt Hill
#
# Bulk Modulus (GPa) = 82.39457 96.09167 89.24312
# Shear Modulus (GPa) = 35.31820 44.48452 39.90136
#
# Velocity S-wave (km/s) = 3.73129 4.18759 3.96601
# Velocity P-wave (km/s) = 7.14448 7.82694 7.49348
#
# Compressibility (1/GPa) = 0.01213672
#
# Stress axis : x y z
#
# Youngs Moduli (GPa) = 100.91493 63.31889 92.20985
#
# Poissons Ratio (x) = 0.21449 0.26732
# Poissons Ratio (y) = 0.34184 0.54577
# Poissons Ratio (z) = 0.29256 0.37477
#
# Static dielectric constant tensor:
#      x y z
#    x 2.033580 0.022440 0.021690 
#    y 0.022440 2.004350 0.034130 
#    z 0.021690 0.034130 1.995630 
# 
# From -- ./inp_files/547864.got.cif
#   From: 2010.05.17/outbox.cif.g08.bks.cpg/sg2_274_cif.got.tgz:547864.got - 2010.06.03 11:33:40.
