data_PCOD9048764
_publ_section_title
;
Structure prediction by ZEFSAII (Michael W. Deem and Ramdas Pophale) SiO2 
 PCOD9048764
Probable space group: P -1
;
_chemical_formula_sum "Si O2"
_cell_formula_units_Z 13
_cell_length_a 8.442335
_cell_length_b 10.167719
_cell_length_c 11.973736
_cell_angle_alpha 53.770266
_cell_angle_beta 105.728544
_cell_angle_gamma 66.200801
_cell_volume 548.765259
_symmetry_space_group_name_H-M "P -1"
_symmetry_group_IT_number 2
_symmetry_cell_setting 'triclinic'
loop_
_space_group_symop_operation_xyz
x,y,z
-x,-y,-z
loop_
_atom_site_type_symbol
_atom_site_label
_atom_site_fract_x
_atom_site_fract_y
_atom_site_fract_z
Si Si1 0.778895 0.055542 0.978028
Si Si2 0.599968 0.114032 0.457093
Si Si3 0.335402 0.478085 0.816979
Si Si4 0.461047 0.887083 0.322482
Si Si5 0.000000 0.000000 0.500000
Si Si6 0.008825 0.440977 0.659471
Si Si7 0.739096 0.618240 0.920647
O O1 0.605479 0.261374 0.933658
O O2 0.612705 0.132691 0.800171
O O3 0.000000 0.000000 0.000000
O O4 0.887676 0.812579 0.172714
O O5 0.683564 0.085105 0.614629
O O6 0.379401 0.356156 0.229447
O O7 0.500000 0.000000 0.500000
O O8 0.831884 0.959543 0.501506
O O9 0.223127 0.729446 0.631125
O O10 0.182740 0.438068 0.758786
O O11 0.293872 0.494238 0.934607
O O12 0.729979 0.654011 0.529244
O O13 0.405766 0.119771 0.191704
O O14 0.000000 0.500000 0.500000
O O15 0.000000 0.500000 0.000000
#
# Coordination Sequence:
#
# PCOD9048764 Si02
#       7
#     2   2   2   2   1   2   2
#     4  12  29  47  74 117 157 202 254 321 392 467
#     4  10  24  45  72 107 148 200 250 314 382 456
#     4  12  25  48  74 113 152 198 260 316 384 464
#     4  11  23  45  76 107 151 197 251 312 392 457
#     4  12  28  46  74 110 154 202 264 316 378 464
#     4  12  24  47  80 107 148 203 254 315 387 461
#     4  11  22  43  77 110 149 200 257 313 386 464
#
# _framework density 23.689546
#
# number of rings (size 3 to 8) (size 9 to 14) (size 15 to 20)
#    0.000    0.615    3.077    6.000    2.154    3.692 
#    0.000    0.000    0.000    0.000    0.000    0.000 
#    0.000    0.000    0.000    0.000    0.000    0.000 
#
# Total GULP energy -72442.940629 kJ/mol
# GULP energy per Si atom -5572.533895 kJ/mol
# Density = 2.363563 g / cm^3
# Si number density = 23.689546 Si / 1000 Ang^3
#
#
#
# Elastic Constant Matrix: (Units=GPa)
#
#
# Indices 1 2 3 4 5 6 
#
# 1 122.8247 26.0471 30.5939 -15.4882 16.6234 -12.5027
# 2 26.0471 73.3785 41.5316 -22.5756 -10.1926 -8.0421
# 3 30.5939 41.5316 107.3228 -8.8620 -4.5055 -5.5059
# 4 -15.4882 -22.5756 -8.8620 67.9714 -10.5154 -7.1702
# 5 16.6234 -10.1926 -4.5055 -10.5154 40.3715 -10.9232
# 6 -12.5027 -8.0421 -5.5059 -7.1702 -10.9232 29.5295
#
#
#
# Elastic Compliance Matrix: (Units=1/GPa)
#
#
# Indices 1 2 3 4 5 6 
#
# 1 0.010032 -0.002758 -0.001841 0.000622 -0.004419 0.001669
# 2 -0.002758 0.024196 -0.006732 0.009523 0.011919 0.010888
# 3 -0.001841 -0.006732 0.012324 -0.001113 -0.000016 -0.000591
# 4 0.000622 0.009523 -0.001113 0.020727 0.010558 0.011587
# 5 -0.004419 0.011919 -0.000016 0.010558 0.037128 0.017670
# 6 0.001669 0.010888 -0.000591 0.011587 0.017670 0.046776
#
#
# Mechanical properties :
#
#
# Convention : Reuss Voigt Hill
#
# Bulk Modulus (GPa) = 41.85794 55.54125 48.69960
# Shear Modulus (GPa) = 27.50157 41.26473 34.38315
#
# Velocity S-wave (km/s) = 3.41092 4.17813 3.81387
# Velocity P-wave (km/s) = 5.76370 6.83901 6.32425
#
# Compressibility (1/GPa) = 0.02389033
#
# Stress axis : x y z
#
# Youngs Moduli (GPa) = 99.68509 41.32940 81.13933
#
# Poissons Ratio (x) = 0.11401 0.14935
# Poissons Ratio (y) = 0.27498 0.54620
# Poissons Ratio (z) = 0.18349 0.27822
#
# Static dielectric constant tensor:
#      x y z
#    x 2.095630 -0.070110 0.063920 
#    y -0.070110 1.984980 -0.021870 
#    z 0.063920 -0.021870 1.945650 
# 
# From -- ./inp_files/362833.got.cif
#   From: 2010.05.17/outbox.cif.g08.bks.cpg/sg2_182_cif.got.tgz:362833.got - 2010.06.03 11:33:40.
