data_PCOD9048931
_publ_section_title
;
Structure prediction by ZEFSAII (Michael W. Deem and Ramdas Pophale) SiO2 
 PCOD9048931
Probable space group: P -1
;
_chemical_formula_sum "Si O2"
_cell_formula_units_Z 12
_cell_length_a 9.282195
_cell_length_b 5.043634
_cell_length_c 15.003162
_cell_angle_alpha 66.668704
_cell_angle_beta 90.815030
_cell_angle_gamma 130.993844
_cell_volume 455.214739
_symmetry_space_group_name_H-M "P -1"
_symmetry_group_IT_number 2
_symmetry_cell_setting 'triclinic'
loop_
_space_group_symop_operation_xyz
x,y,z
-x,-y,-z
loop_
_atom_site_type_symbol
_atom_site_label
_atom_site_fract_x
_atom_site_fract_y
_atom_site_fract_z
Si Si1 0.129008 0.398757 0.512440
Si Si2 0.111260 0.940855 0.727702
Si Si3 0.489236 0.236427 0.610600
Si Si4 0.366444 0.767811 0.213698
Si Si5 0.582817 0.532167 0.899414
Si Si6 0.996553 0.831667 0.928641
O O1 0.360339 0.784082 0.430079
O O2 0.000000 0.500000 0.500000
O O3 0.143441 0.271651 0.625522
O O4 0.000000 0.000000 0.500000
O O5 0.873122 0.524707 0.769728
O O6 0.152559 0.054525 0.816857
O O7 0.257325 0.910278 0.687088
O O8 0.500000 0.500000 0.500000
O O9 0.604502 0.421423 0.682532
O O10 0.489427 0.823033 0.120999
O O11 0.435014 0.184242 0.186553
O O12 0.805662 0.724300 0.896415
O O13 0.500000 0.500000 0.000000
O O14 0.000000 0.500000 0.000000
O O15 0.000000 0.000000 0.000000
#
# Coordination Sequence:
#
# PCOD9048931 Si02
#       6
#     2   2   2   2   2   2
#     4  11  24  45  73 100 143 182 230 294 349 417
#     4  10  24  46  73 104 143 191 239 289 361 422
#     4  10  24  45  76 108 140 192 239 291 361 422
#     4  11  24  46  73 103 146 184 236 299 351 422
#     4  11  26  45  73 101 140 192 236 289 364 417
#     4  11  25  43  67 102 139 178 233 296 345 411
#
# _framework density 26.361183
#
# number of rings (size 3 to 8) (size 9 to 14) (size 15 to 20)
#    0.000    1.333    1.667    2.500    9.333    1.333 
#    0.000   20.000    0.000    0.000    0.000    0.000 
#    0.000    0.000    0.000    0.000    0.000    0.000 
#
# Total GULP energy -66962.148945 kJ/mol
# GULP energy per Si atom -5580.179079 kJ/mol
# Density = 2.630118 g / cm^3
# Si number density = 26.361183 Si / 1000 Ang^3
#
#
#
# Elastic Constant Matrix: (Units=GPa)
#
#
# Indices 1 2 3 4 5 6 
#
# 1 223.9331 63.8319 66.5270 -0.4630 -19.5106 -21.8667
# 2 63.8319 92.8492 36.5229 19.3685 1.4468 -26.0354
# 3 66.5270 36.5229 188.7773 23.0019 -9.1143 -22.6509
# 4 -0.4630 19.3685 23.0019 25.2095 6.9254 -0.7781
# 5 -19.5106 1.4468 -9.1143 6.9254 50.5835 -3.6258
# 6 -21.8667 -26.0354 -22.6509 -0.7781 -3.6258 57.5934
#
#
#
# Elastic Compliance Matrix: (Units=1/GPa)
#
#
# Indices 1 2 3 4 5 6 
#
# 1 0.006584 -0.004982 -0.001969 0.005302 0.001576 -0.000356
# 2 -0.004982 0.018971 0.000768 -0.015226 0.000246 0.006796
# 3 -0.001969 0.000768 0.007131 -0.007528 0.001707 0.002410
# 4 0.005302 -0.015226 -0.007528 0.060203 -0.007656 -0.007499
# 5 0.001576 0.000246 0.001707 -0.007656 0.021916 0.002657
# 6 -0.000356 0.006796 0.002410 -0.007499 0.002657 0.021314
#
#
# Mechanical properties :
#
#
# Convention : Reuss Voigt Hill
#
# Bulk Modulus (GPa) = 49.21227 93.25812 71.23520
# Shear Modulus (GPa) = 32.20393 49.25579 40.72986
#
# Velocity S-wave (km/s) = 3.49899 4.32730 3.93500
# Velocity P-wave (km/s) = 5.91886 7.77311 6.90848
#
# Compressibility (1/GPa) = 0.02032013
#
# Stress axis : x y z
#
# Youngs Moduli (GPa) = 151.87631 52.71129 140.22547
#
# Poissons Ratio (x) = 0.26262 0.27611
# Poissons Ratio (y) = 0.75670 -0.10769
# Poissons Ratio (z) = 0.29905 -0.04048
#
# Static dielectric constant tensor:
#      x y z
#    x 2.351540 -3.171460 0.471370 
#    y -3.171460 31.255850 -4.744530 
#    z 0.471370 -4.744530 2.912900 
# 
# From -- ./inp_files/40847.got.cif
#   From: 2010.05.17/outbox.cif.g08.bks.cpg/sg2_21_cif.got.tgz:40847.got - 2010.06.03 11:33:40.
