data_PCOD9048930
_publ_section_title
;
Structure prediction by ZEFSAII (Michael W. Deem and Ramdas Pophale) SiO2 
 PCOD9048930
Probable space group: P -1
;
_chemical_formula_sum "Si O2"
_cell_formula_units_Z 12
_cell_length_a 5.515498
_cell_length_b 22.057153
_cell_length_c 8.929399
_cell_angle_alpha 41.058735
_cell_angle_beta 98.597619
_cell_angle_gamma 70.487099
_cell_volume 512.077490
_symmetry_space_group_name_H-M "P -1"
_symmetry_group_IT_number 2
_symmetry_cell_setting 'triclinic'
loop_
_space_group_symop_operation_xyz
x,y,z
-x,-y,-z
loop_
_atom_site_type_symbol
_atom_site_label
_atom_site_fract_x
_atom_site_fract_y
_atom_site_fract_z
Si Si1 0.251002 0.711387 0.738142
Si Si2 0.731347 0.775720 0.185072
Si Si3 0.681801 0.627700 0.652523
Si Si4 0.331752 0.844928 0.723270
Si Si5 0.628275 0.945737 0.395708
Si Si6 0.514531 0.466539 0.393165
O O1 0.374646 0.686758 0.626240
O O2 0.442793 0.737114 0.814393
O O3 0.857895 0.838595 0.488459
O O4 0.353567 0.586981 0.049024
O O5 0.685519 0.733347 0.414499
O O6 0.103288 0.655982 0.385786
O O7 0.490573 0.799226 0.986669
O O8 0.640517 0.907073 0.946985
O O9 0.673607 0.578209 0.584742
O O10 0.000000 0.500000 0.000000
O O11 0.454653 0.909246 0.541358
O O12 0.932237 0.923776 0.548516
O O13 0.500000 0.500000 0.500000
#
# Coordination Sequence:
#
# PCOD9048930 Si02
#       6
#     2   2   2   2   2   2
#     4  10  25  45  71 101 150 194 238 302 370 434
#     4  12  26  43  75 106 143 195 249 304 364 443
#     4  12  28  46  70 108 153 191 246 303 377 439
#     4  10  24  45  76 107 148 191 247 303 372 432
#     4  10  25  45  77 108 150 190 247 306 371 434
#     4  12  27  44  75 106 142 195 255 304 364 440
#
# _framework density 23.433954
#
# number of rings (size 3 to 8) (size 9 to 14) (size 15 to 20)
#    1.000    0.000    1.667    3.500    9.333    2.000 
#    0.000    1.667    0.000    0.000    0.000    0.000 
#    0.000    0.000    0.000    0.000    0.000    0.000 
#
# Total GULP energy -67071.716967 kJ/mol
# GULP energy per Si atom -5589.309747 kJ/mol
# Density = 2.338062 g / cm^3
# Si number density = 23.433954 Si / 1000 Ang^3
#
#
#
# Elastic Constant Matrix: (Units=GPa)
#
#
# Indices 1 2 3 4 5 6 
#
# 1 102.8581 16.5386 41.2332 -13.0157 -25.7866 8.1992
# 2 16.5386 41.1667 108.5494 -50.1057 58.5211 -3.1768
# 3 41.2332 108.5494 88.7240 -8.0641 -82.8411 1.0965
# 4 -13.0157 -50.1057 -8.0641 28.7391 18.9842 9.9390
# 5 -25.7866 58.5211 -82.8411 18.9842 2.2212 4.1684
# 6 8.1992 -3.1768 1.0965 9.9390 4.1684 34.0423
#
#
#
# Elastic Compliance Matrix: (Units=1/GPa)
#
#
# Indices 1 2 3 4 5 6 
#
# 1 0.012675 0.000825 -0.002263 0.005386 0.004375 -0.005011
# 2 0.000825 0.004306 0.003685 0.003244 0.009657 -0.002045
# 3 -0.002263 0.003685 0.005388 0.009876 -0.003584 -0.001729
# 4 0.005386 0.003244 0.009876 0.042220 0.013197 -0.015255
# 5 0.004375 0.009657 -0.003584 0.013197 0.009642 -0.005071
# 6 -0.005011 -0.002045 -0.001729 -0.015255 -0.005071 0.035522
#
#
# Mechanical properties :
#
#
# Convention : Reuss Voigt Hill
#
# Bulk Modulus (GPa) = 37.22752 62.82124 50.02438
# Shear Modulus (GPa) = 43.77790 17.42902 30.60346
#
# Velocity S-wave (km/s) = 4.32689 2.73014 3.61771
# Velocity P-wave (km/s) = 6.39400 6.06665 6.23247
#
# Compressibility (1/GPa) = 0.02686185
#
# Stress axis : x y z
#
# Youngs Moduli (GPa) = 78.89793 232.21411 185.61137
#
# Poissons Ratio (x) = -0.19156 0.42004
# Poissons Ratio (y) = -0.06509 -0.68393
# Poissons Ratio (z) = 0.17855 -0.85564
#
# Static dielectric constant tensor:
#      x y z
#    x 1.914670 0.037740 0.058150 
#    y 0.037740 1.901950 -0.030850 
#    z 0.058150 -0.030850 1.850010 
# 
# From -- ./inp_files/142483.got.cif
#   From: 2010.05.17/outbox.cif.g08.bks.cpg/sg2_72_cif.got.tgz:142483.got - 2010.06.03 11:33:40.
