data_PCOD9048180
_publ_section_title
;
Structure prediction by ZEFSAII (Michael W. Deem and Ramdas Pophale) SiO2 
 PCOD9048180
Probable space group: P -1
;
_chemical_formula_sum "Si O2"
_cell_formula_units_Z 12
_cell_length_a 8.724576
_cell_length_b 8.523846
_cell_length_c 10.880195
_cell_angle_alpha 116.625757
_cell_angle_beta 137.697628
_cell_angle_gamma 56.695879
_cell_volume 453.866224
_symmetry_space_group_name_H-M "P -1"
_symmetry_group_IT_number 2
_symmetry_cell_setting 'triclinic'
loop_
_space_group_symop_operation_xyz
x,y,z
-x,-y,-z
loop_
_atom_site_type_symbol
_atom_site_label
_atom_site_fract_x
_atom_site_fract_y
_atom_site_fract_z
Si Si1 0.833388 0.373884 0.349588
Si Si2 0.817966 0.041823 0.640663
Si Si3 0.769318 0.675633 0.874404
Si Si4 0.408814 0.330168 0.975358
Si Si5 0.865143 0.384287 0.650378
Si Si6 0.620100 0.033808 0.781815
O O1 0.785988 0.353578 0.457595
O O2 0.000000 0.500000 0.500000
O O3 0.579409 0.449605 0.151280
O O4 0.981988 0.168038 0.311442
O O5 0.907904 0.197124 0.689216
O O6 0.606972 0.020681 0.420289
O O7 0.712933 0.097831 0.734806
O O8 0.686883 0.566681 0.679131
O O9 0.812315 0.845294 0.889657
O O10 0.604425 0.753074 0.923834
O O11 0.000000 0.500000 0.000000
O O12 0.123067 0.418644 0.802617
O O13 0.531394 0.179021 0.890757
#
# Coordination Sequence:
#
# PCOD9048180 Si02
#       6
#     2   2   2   2   2   2
#     4  12  27  47  76 110 148 197 252 313 375 438
#     4  11  26  46  77 112 153 197 248 309 373 444
#     4  10  24  44  75 112 148 193 249 305 370 438
#     4  11  26  46  79 105 146 200 250 304 372 441
#     4  11  25  50  73 110 152 191 252 310 370 446
#     4  11  24  48  76 110 152 201 248 302 375 449
#
# _framework density 26.439512000000001
#
# number of rings (size 3 to 8) (size 9 to 14) (size 15 to 20)
#    0.000    1.000    1.667    3.000    7.000    6.667 
#    9.000    0.000    0.000    0.000    0.000    0.000 
#    0.000    0.000    0.000    0.000    0.000    0.000 
#
# Total GULP energy -67203.773803 kJ/mol
# GULP energy per Si atom -5600.314484 kJ/mol
# Density = 2.637933 g / cm^3
# Si number density = 26.439512 Si / 1000 Ang^3
#
#
#
# Elastic Constant Matrix: (Units=GPa)
#
#
# Indices 1 2 3 4 5 6 
#
# 1 165.1975 58.0150 78.5968 27.0257 -26.3533 -10.3434
# 2 58.0150 124.9547 29.3221 11.7005 -6.4571 2.1611
# 3 78.5968 29.3221 192.5801 4.5819 -4.3113 -3.0934
# 4 27.0257 11.7005 4.5819 39.6687 -2.3985 -9.7354
# 5 -26.3533 -6.4571 -4.3113 -2.3985 65.9884 15.9125
# 6 -10.3434 2.1611 -3.0934 -9.7354 15.9125 45.5711
#
#
#
# Elastic Compliance Matrix: (Units=1/GPa)
#
#
# Indices 1 2 3 4 5 6 
#
# 1 0.010295 -0.003270 -0.003499 -0.005464 0.003387 -0.000096
# 2 -0.003270 0.009663 -0.000138 -0.000951 -0.000069 -0.001389
# 3 -0.003499 -0.000138 0.006585 0.001695 -0.001009 0.000374
# 4 -0.005464 -0.000951 0.001695 0.030410 -0.002583 0.006318
# 5 0.003387 -0.000069 -0.001009 -0.002583 0.017803 -0.006064
# 6 -0.000096 -0.001389 0.000374 0.006318 -0.006064 0.025481
#
#
# Mechanical properties :
#
#
# Convention : Reuss Voigt Hill
#
# Bulk Modulus (GPa) = 78.56763 90.51111 84.53937
# Shear Modulus (GPa) = 42.26729 51.36553 46.81641
#
# Velocity S-wave (km/s) = 4.00264 4.41245 4.21253
# Velocity P-wave (km/s) = 7.15136 7.76320 7.46355
#
# Compressibility (1/GPa) = 0.01272789
#
# Stress axis : x y z
#
# Youngs Moduli (GPa) = 97.13442 103.48587 151.86230
#
# Poissons Ratio (x) = 0.33844 0.53143
# Poissons Ratio (y) = 0.31766 0.02093
# Poissons Ratio (z) = 0.33991 0.01426
#
# Static dielectric constant tensor:
#      x y z
#    x 2.114300 0.025840 0.047740 
#    y 0.025840 2.011660 -0.058280 
#    z 0.047740 -0.058280 2.168390 
# 
# From -- ./inp_files/383422.got.cif
#   From: 2010.05.17/outbox.cif.g08.bks.cpg/sg2_192_cif.got.tgz:383422.got - 2010.06.03 11:33:40.
