data_PCOD9048411
_publ_section_title
;
Structure prediction by ZEFSAII (Michael W. Deem and Ramdas Pophale) SiO2 
 PCOD9048411
Probable space group: P -1
;
_chemical_formula_sum "Si O2"
_cell_formula_units_Z 16
_cell_length_a 9.158249
_cell_length_b 9.997187
_cell_length_c 11.599394
_cell_angle_alpha 41.686191
_cell_angle_beta 78.238927
_cell_angle_gamma 74.232464
_cell_volume 679.708521
_symmetry_space_group_name_H-M "P -1"
_symmetry_group_IT_number 2
_symmetry_cell_setting 'triclinic'
loop_
_space_group_symop_operation_xyz
x,y,z
-x,-y,-z
loop_
_atom_site_type_symbol
_atom_site_label
_atom_site_fract_x
_atom_site_fract_y
_atom_site_fract_z
Si Si1 0.309510 0.487699 0.694520
Si Si2 0.659129 0.074702 0.665995
Si Si3 0.872307 0.078786 0.062530
Si Si4 0.604480 0.171667 0.868316
Si Si5 0.128837 0.129402 0.410676
Si Si6 0.831640 0.639932 0.436407
Si Si7 0.621167 0.901995 0.443547
Si Si8 0.021499 0.437751 0.904309
O O1 0.310279 0.728324 0.537736
O O2 0.481240 0.377118 0.754112
O O3 0.251814 0.428672 0.617232
O O4 0.196736 0.409272 0.854043
O O5 0.686206 0.125854 0.760801
O O6 0.487281 0.045231 0.684897
O O7 0.772382 0.888429 0.710956
O O8 0.850621 0.874664 0.263365
O O9 0.721076 0.161516 0.960435
O O10 0.936661 0.250310 0.013075
O O11 0.000000 0.000000 0.000000
O O12 0.500000 0.000000 0.000000
O O13 0.234297 0.031593 0.561284
O O14 0.055643 0.365946 0.285842
O O15 0.000000 0.000000 0.500000
O O16 0.710237 0.670350 0.542513
O O17 0.000000 0.500000 0.500000
O O18 0.500000 0.000000 0.500000
O O19 0.000000 0.500000 0.000000
#
# Coordination Sequence:
#
# PCOD9048411 Si02
#       8
#     2   2   2   2   2   2   2   2
#     4  12  25  46  71 114 142 197 254 308 369 457
#     4  11  25  43  76 105 147 201 243 315 371 449
#     4  12  28  48  75 110 151 196 250 316 383 452
#     4  12  25  47  74 108 154 190 252 307 384 445
#     4  11  25  45  71 102 150 196 252 309 366 456
#     4  12  26  44  80 112 146 195 260 315 373 454
#     4  10  24  45  68 106 151 190 252 306 380 445
#     4  12  29  49  72 110 152 198 251 312 391 449
#
# _framework density 23.539503
#
# number of rings (size 3 to 8) (size 9 to 14) (size 15 to 20)
#    0.000    0.500    5.000    1.125    8.750    0.000 
#    0.000    0.625    0.000    0.000    0.000    0.000 
#    0.000    0.000    0.000    0.000    0.000    0.000 
#
# Total GULP energy -89306.249944 kJ/mol
# GULP energy per Si atom -5581.640622 kJ/mol
# Density = 2.348593 g / cm^3
# Si number density = 23.539503 Si / 1000 Ang^3
#
#
#
# Elastic Constant Matrix: (Units=GPa)
#
#
# Indices 1 2 3 4 5 6 
#
# 1 162.0572 59.1690 37.4127 -2.3460 18.6889 11.8441
# 2 59.1690 152.0120 25.7527 9.1946 8.8671 2.7126
# 3 37.4127 25.7527 66.9437 -11.8601 1.1153 14.9181
# 4 -2.3460 9.1946 -11.8601 44.2569 0.1783 -3.6518
# 5 18.6889 8.8671 1.1153 0.1783 36.6056 -12.4430
# 6 11.8441 2.7126 14.9181 -3.6518 -12.4430 55.9796
#
#
#
# Elastic Compliance Matrix: (Units=1/GPa)
#
#
# Indices 1 2 3 4 5 6 
#
# 1 0.008441 -0.002441 -0.003338 -0.000065 -0.004200 -0.001716
# 2 -0.002441 0.008074 -0.002258 -0.002371 -0.000470 0.000468
# 3 -0.003338 -0.002258 0.019470 0.005181 0.000282 -0.003972
# 4 -0.000065 -0.002371 0.005181 0.024509 0.000485 0.000454
# 5 -0.004200 -0.000470 0.000282 0.000485 0.032301 0.008047
# 6 -0.001716 0.000468 -0.003972 0.000454 0.008047 0.021081
#
#
# Mechanical properties :
#
#
# Convention : Reuss Voigt Hill
#
# Bulk Modulus (GPa) = 50.22162 69.52018 59.87090
# Shear Modulus (GPa) = 36.60696 44.61366 40.61031
#
# Velocity S-wave (km/s) = 3.94779 4.35819 4.15806
# Velocity P-wave (km/s) = 6.49318 7.41098 6.96721
#
# Compressibility (1/GPa) = 0.01991174
#
# Stress axis : x y z
#
# Youngs Moduli (GPa) = 118.46798 123.86139 51.35994
#
# Poissons Ratio (x) = 0.30230 0.17142
# Poissons Ratio (y) = 0.28914 0.11599
# Poissons Ratio (z) = 0.39540 0.27972
#
# Static dielectric constant tensor:
#      x y z
#    x 1.875850 -0.087740 0.045560 
#    y -0.087740 1.974170 0.039090 
#    z 0.045560 0.039090 1.855260 
# 
# From -- ./inp_files/381027.got.cif
#   From: 2010.05.17/outbox.cif.g08.bks.cpg/sg2_191_cif.got.tgz:381027.got - 2010.06.03 11:33:40.
