data_PCOD9048580
_publ_section_title
;
Structure prediction by ZEFSAII (Michael W. Deem and Ramdas Pophale) SiO2 
 PCOD9048580
Probable space group: P -1
;
_chemical_formula_sum "Si O2"
_cell_formula_units_Z 16
_cell_length_a 8.966139
_cell_length_b 7.358105
_cell_length_c 18.570669
_cell_angle_alpha 52.975984
_cell_angle_beta 110.245753
_cell_angle_gamma 126.081548
_cell_volume 790.459924
_symmetry_space_group_name_H-M "P -1"
_symmetry_group_IT_number 2
_symmetry_cell_setting 'triclinic'
loop_
_space_group_symop_operation_xyz
x,y,z
-x,-y,-z
loop_
_atom_site_type_symbol
_atom_site_label
_atom_site_fract_x
_atom_site_fract_y
_atom_site_fract_z
Si Si1 0.081385 0.408906 0.394990
Si Si2 0.964477 0.582812 0.191038
Si Si3 0.287267 0.087066 0.486973
Si Si4 0.628783 0.890197 0.070750
Si Si5 0.476407 0.671147 0.810958
Si Si6 0.628609 0.078504 0.609391
Si Si7 0.129675 0.605097 0.928494
Si Si8 0.246204 0.164367 0.053658
O O1 0.183419 0.653588 0.407110
O O2 0.045220 0.510124 0.289664
O O3 0.887590 0.185033 0.448701
O O4 0.217998 0.294545 0.433378
O O5 0.743310 0.443381 0.196581
O O6 0.981897 0.458765 0.148864
O O7 0.072546 0.899592 0.120885
O O8 0.339581 0.060792 0.420347
O O9 0.465904 0.139459 0.549534
O O10 0.513635 0.586782 0.146837
O O11 0.747177 0.084025 0.108890
O O12 0.728792 0.894651 0.010981
O O13 0.500000 0.000000 0.000000
O O14 0.580917 0.771395 0.881136
O O15 0.569567 0.896351 0.713510
O O16 0.222954 0.420946 0.988085
O O17 0.000000 0.500000 0.000000
#
# Coordination Sequence:
#
# PCOD9048580 Si02
#       8
#     2   2   2   2   2   2   2   2
#     4  11  23  45  71  97 134 168 214 272 334 395
#     4  12  24  43  67  98 133 176 223 271 327 389
#     4  10  24  45  70 102 126 168 216 265 338 410
#     4  12  24  42  66  93 130 181 227 268 325 383
#     4  12  24  43  67  98 133 176 223 271 327 389
#     4  11  23  45  71  97 134 168 214 272 334 395
#     4  12  24  42  66  93 130 181 227 268 325 383
#     4  12  24  45  66  90 140 176 224 281 318 382
#
# _framework density 20.241379999999999
#
# number of rings (size 3 to 8) (size 9 to 14) (size 15 to 20)
#    0.000    0.500    6.250    3.000    0.000    2.000 
#    4.500    1.250    0.000    0.000    0.000    0.000 
#    0.000    0.000    0.000    0.000    0.000    0.000 
#
# Total GULP energy -89405.936960 kJ/mol
# GULP energy per Si atom -5587.871060 kJ/mol
# Density = 2.019531 g / cm^3
# Si number density = 20.241380 Si / 1000 Ang^3
#
#
#
# Elastic Constant Matrix: (Units=GPa)
#
#
# Indices 1 2 3 4 5 6 
#
# 1 63.9577 2.3281 15.0213 2.6476 0.0431 -6.9838
# 2 2.3281 103.3139 20.3621 5.9538 2.8243 9.9032
# 3 15.0213 20.3621 93.1196 4.0188 1.3819 -2.7204
# 4 2.6476 5.9538 4.0188 23.8981 2.2823 2.6418
# 5 0.0431 2.8243 1.3819 2.2823 23.0503 2.0237
# 6 -6.9838 9.9032 -2.7204 2.6418 2.0237 31.5874
#
#
#
# Elastic Compliance Matrix: (Units=1/GPa)
#
#
# Indices 1 2 3 4 5 6 
#
# 1 0.016698 -0.000136 -0.002479 -0.001804 -0.000010 0.003672
# 2 -0.000136 0.010579 -0.002302 -0.001798 -0.000686 -0.003351
# 3 -0.002479 -0.002302 0.011740 -0.001232 -0.000411 0.001314
# 4 -0.001804 -0.001798 -0.001232 0.043422 -0.003709 -0.003335
# 5 -0.000010 -0.000686 -0.000411 -0.003709 0.044064 -0.002335
# 6 0.003672 -0.003351 0.001314 -0.003335 -0.002335 0.034062
#
#
# Mechanical properties :
#
#
# Convention : Reuss Voigt Hill
#
# Bulk Modulus (GPa) = 34.26350 37.31269 35.78809
# Shear Modulus (GPa) = 27.75829 30.55247 29.15538
#
# Velocity S-wave (km/s) = 3.70721 3.88932 3.79936
# Velocity P-wave (km/s) = 5.94043 6.21635 6.07996
#
# Compressibility (1/GPa) = 0.02918558
#
# Stress axis : x y z
#
# Youngs Moduli (GPa) = 59.88703 94.52287 85.18134
#
# Poissons Ratio (x) = 0.01281 0.21114
# Poissons Ratio (y) = 0.00812 0.19606
# Poissons Ratio (z) = 0.14844 0.21756
#
# Static dielectric constant tensor:
#      x y z
#    x 1.747130 0.022010 0.010080 
#    y 0.022010 1.744500 0.001180 
#    z 0.010080 0.001180 1.686580 
# 
# From -- ./inp_files/120676.got.cif
#   From: 2010.05.17/outbox.cif.g08.bks.cpg/sg2_61_cif.got.tgz:120676.got - 2010.06.03 11:33:40.
