data_PCOD9048734
_publ_section_title
;
Structure prediction by ZEFSAII (Michael W. Deem and Ramdas Pophale) SiO2 
 PCOD9048734
Probable space group: P -1
;
_chemical_formula_sum "Si O2"
_cell_formula_units_Z 13
_cell_length_a 8.685072
_cell_length_b 6.464183
_cell_length_c 11.366941
_cell_angle_alpha 104.669179
_cell_angle_beta 113.579345
_cell_angle_gamma 113.292672
_cell_volume 468.681341
_symmetry_space_group_name_H-M "P -1"
_symmetry_group_IT_number 2
_symmetry_cell_setting 'triclinic'
loop_
_space_group_symop_operation_xyz
x,y,z
-x,-y,-z
loop_
_atom_site_type_symbol
_atom_site_label
_atom_site_fract_x
_atom_site_fract_y
_atom_site_fract_z
Si Si1 0.707833 0.631088 0.230312
Si Si2 0.980581 0.725267 0.981658
Si Si3 0.516356 0.933602 0.273947
Si Si4 0.500000 0.000000 0.500000
Si Si5 0.335388 0.137924 0.063333
Si Si6 0.866903 0.969241 0.693333
Si Si7 0.809192 0.494794 0.488710
O O1 0.532593 0.356624 0.081783
O O2 0.722937 0.556647 0.357728
O O3 0.928451 0.783814 0.263420
O O4 0.645404 0.834308 0.248790
O O5 0.115673 0.952307 0.154302
O O6 0.766315 0.696016 0.920580
O O7 0.126210 0.862221 0.932032
O O8 0.000000 0.500000 0.000000
O O9 0.438919 0.030512 0.162790
O O10 0.650213 0.196917 0.438412
O O11 0.378890 0.772525 0.317914
O O12 0.331438 0.080039 0.436018
O O13 0.858920 0.711539 0.627238
O O14 0.000000 0.500000 0.500000
#
# Coordination Sequence:
#
# PCOD9048734 Si02
#       7
#     2   2   2   1   2   2   2
#     4  11  23  44  70 104 147 181 232 292 358 411
#     4  11  25  50  72 100 143 186 237 296 350 413
#     4  11  22  41  70 101 144 188 224 293 348 422
#     4  12  24  40  70 106 144 182 234 288 362 420
#     4  10  24  45  72 100 136 190 233 289 350 414
#     4  12  25  43  72 108 138 189 235 289 352 416
#     4  11  22  41  68 103 145 180 227 281 355 423
#
# _framework density 27.737397999999999
#
# number of rings (size 3 to 8) (size 9 to 14) (size 15 to 20)
#    0.000    0.923    4.615    2.308    0.000    2.462 
#    8.308    1.538    0.000    0.000    0.000    0.000 
#    0.000    0.000    0.000    0.000    0.000    0.000 
#
# Total GULP energy -72416.921812 kJ/mol
# GULP energy per Si atom -5570.532447 kJ/mol
# Density = 2.767427 g / cm^3
# Si number density = 27.737398 Si / 1000 Ang^3
#
#
#
# Elastic Constant Matrix: (Units=GPa)
#
#
# Indices 1 2 3 4 5 6 
#
# 1 144.5710 59.8007 25.9854 6.1780 35.4984 -24.8191
# 2 59.8007 146.6424 47.7203 -4.9292 18.4615 -25.0098
# 3 25.9854 47.7203 94.8840 -21.3919 -1.0457 -25.2026
# 4 6.1780 -4.9292 -21.3919 65.7507 0.1006 19.3522
# 5 35.4984 18.4615 -1.0457 0.1006 44.8443 4.9490
# 6 -24.8191 -25.0098 -25.2026 19.3522 4.9490 66.0380
#
#
#
# Elastic Compliance Matrix: (Units=1/GPa)
#
#
# Indices 1 2 3 4 5 6 
#
# 1 0.011019 -0.002369 -0.001468 -0.002900 -0.008233 0.004150
# 2 -0.002369 0.009629 -0.003966 -0.000832 -0.002363 0.001664
# 3 -0.001468 -0.003966 0.014402 0.003910 0.002892 0.002080
# 4 -0.002900 -0.000832 0.003910 0.018313 0.003298 -0.005526
# 5 -0.008233 -0.002363 0.002892 0.003298 0.030527 -0.006139
# 6 0.004150 0.001664 0.002080 -0.005526 -0.006139 0.020206
#
#
# Mechanical properties :
#
#
# Convention : Reuss Voigt Hill
#
# Bulk Modulus (GPa) = 51.43036 72.56781 61.99909
# Shear Modulus (GPa) = 39.62522 52.16600 45.89561
#
# Velocity S-wave (km/s) = 3.78376 4.34142 4.07215
# Velocity P-wave (km/s) = 6.13769 7.16588 6.67162
#
# Compressibility (1/GPa) = 0.01944377
#
# Stress axis : x y z
#
# Youngs Moduli (GPa) = 90.75458 103.85124 69.43663
#
# Poissons Ratio (x) = 0.24599 0.10196
# Poissons Ratio (y) = 0.21497 0.27537
# Poissons Ratio (z) = 0.13326 0.41185
#
# Static dielectric constant tensor:
#      x y z
#    x 2.326920 0.211340 -0.083250 
#    y 0.211340 2.319000 -0.036850 
#    z -0.083250 -0.036850 2.351600 
# 
# From -- ./inp_files/75896.got.cif
#   From: 2010.05.17/outbox.cif.g08.bks.cpg/sg2_38_cif.got.tgz:75896.got - 2010.06.03 11:33:40.
