data_PCOD9048318
_publ_section_title
;
Structure prediction by ZEFSAII (Michael W. Deem and Ramdas Pophale) SiO2 
 PCOD9048318
Probable space group: P -1
;
_chemical_formula_sum "Si O2"
_cell_formula_units_Z 12
_cell_length_a 14.576025
_cell_length_b 6.623855
_cell_length_c 7.958479
_cell_angle_alpha 53.367588
_cell_angle_beta 65.647593
_cell_angle_gamma 87.352455
_cell_volume 540.356849
_symmetry_space_group_name_H-M "P -1"
_symmetry_group_IT_number 2
_symmetry_cell_setting 'triclinic'
loop_
_space_group_symop_operation_xyz
x,y,z
-x,-y,-z
loop_
_atom_site_type_symbol
_atom_site_label
_atom_site_fract_x
_atom_site_fract_y
_atom_site_fract_z
Si Si1 0.801997 0.689119 0.174149
Si Si2 0.543650 0.772721 0.741274
Si Si3 0.913879 0.161454 0.997886
Si Si4 0.426633 0.669114 0.540247
Si Si5 0.080952 0.280706 0.267409
Si Si6 0.782458 0.790811 0.502107
O O1 0.690844 0.509064 0.292819
O O2 0.807197 0.631148 0.399881
O O3 0.821973 0.006269 0.016914
O O4 0.884045 0.675175 0.974725
O O5 0.461377 0.742700 0.667384
O O6 0.661917 0.787221 0.587284
O O7 0.554248 0.043194 0.699051
O O8 0.500000 0.500000 0.000000
O O9 0.855864 0.082819 0.259269
O O10 0.956483 0.465150 0.783019
O O11 0.000000 0.000000 0.000000
O O12 0.500000 0.500000 0.500000
O O13 0.180124 0.293164 0.308082
O O14 0.000000 0.000000 0.500000
#
# Coordination Sequence:
#
# PCOD9048318 Si02
#       6
#     2   2   2   2   2   2
#     4  10  24  45  67 100 139 182 219 286 341 399
#     4  11  24  42  69 101 134 173 233 280 329 414
#     4  10  24  47  69 101 139 176 231 282 336 416
#     4  11  22  44  69  96 136 181 220 280 345 393
#     4  12  26  45  74 101 135 185 228 281 348 403
#     4  10  24  46  65 103 139 176 229 282 334 414
#
# _framework density 22.207545
#
# number of rings (size 3 to 8) (size 9 to 14) (size 15 to 20)
#    1.000    0.333    1.667    3.000    0.000   10.000 
#    9.000    0.000    0.000    0.000    0.000    0.000 
#    0.000    0.000    0.000    0.000    0.000    0.000 
#
# Total GULP energy -66821.939095 kJ/mol
# GULP energy per Si atom -5568.494925 kJ/mol
# Density = 2.215700 g / cm^3
# Si number density = 22.207545 Si / 1000 Ang^3
#
#
#
# Elastic Constant Matrix: (Units=GPa)
#
#
# Indices 1 2 3 4 5 6 
#
# 1 92.2081 32.1533 25.4383 -16.6337 -16.7532 22.5197
# 2 32.1533 126.0312 60.9667 -36.5183 -15.6711 12.3235
# 3 25.4383 60.9667 93.3115 -34.3134 -27.7905 4.6306
# 4 -16.6337 -36.5183 -34.3134 46.3404 9.9876 -1.0622
# 5 -16.7532 -15.6711 -27.7905 9.9876 40.9712 6.1174
# 6 22.5197 12.3235 4.6306 -1.0622 6.1174 30.2354
#
#
#
# Elastic Compliance Matrix: (Units=1/GPa)
#
#
# Indices 1 2 3 4 5 6 
#
# 1 0.016359 -0.001199 0.000511 0.003334 0.007738 -0.013222
# 2 -0.001199 0.013033 -0.006271 0.005246 -0.000566 -0.003159
# 3 0.000511 -0.006271 0.021061 0.008519 0.010447 -0.002865
# 4 0.003334 0.005246 0.008519 0.032679 0.001955 -0.005174
# 5 0.007738 -0.000566 0.010447 0.001955 0.036110 -0.014370
# 6 -0.013222 -0.003159 -0.002865 -0.005174 -0.014370 0.047374
#
#
# Mechanical properties :
#
#
# Convention : Reuss Voigt Hill
#
# Bulk Modulus (GPa) = 27.37189 60.96302 44.16746
# Shear Modulus (GPa) = 25.94540 36.37556 31.16048
#
# Velocity S-wave (km/s) = 3.42177 4.05159 3.74993
# Velocity P-wave (km/s) = 5.28806 7.02839 6.21940
#
# Compressibility (1/GPa) = 0.03653383
#
# Stress axis : x y z
#
# Youngs Moduli (GPa) = 61.12828 76.73067 47.48116
#
# Poissons Ratio (x) = 0.09204 -0.02426
# Poissons Ratio (y) = 0.07332 0.29774
# Poissons Ratio (z) = -0.03123 0.48116
#
# Static dielectric constant tensor:
#      x y z
#    x 1.874180 0.012930 0.018580 
#    y 0.012930 1.891900 -0.041620 
#    z 0.018580 -0.041620 1.901370 
# 
# From -- ./inp_files/323168.got.cif
#   From: 2010.05.17/outbox.cif.g08.bks.cpg/sg2_162_cif.got.tgz:323168.got - 2010.06.03 11:33:40.
