data_PCOD9048592
_publ_section_title
;
Structure prediction by ZEFSAII (Michael W. Deem and Ramdas Pophale) SiO2 
 PCOD9048592
Probable space group: P -1
;
_chemical_formula_sum "Si O2"
_cell_formula_units_Z 12
_cell_length_a 24.394463
_cell_length_b 5.014761
_cell_length_c 5.457364
_cell_angle_alpha 96.371897
_cell_angle_beta 111.919323
_cell_angle_gamma 56.519262
_cell_volume 512.678706
_symmetry_space_group_name_H-M "P -1"
_symmetry_group_IT_number 2
_symmetry_cell_setting 'triclinic'
loop_
_space_group_symop_operation_xyz
x,y,z
-x,-y,-z
loop_
_atom_site_type_symbol
_atom_site_label
_atom_site_fract_x
_atom_site_fract_y
_atom_site_fract_z
Si Si1 0.404443 0.639972 0.109331
Si Si2 0.104267 0.283622 0.558857
Si Si3 0.544008 0.072610 0.392681
Si Si4 0.821425 0.434639 0.491566
Si Si5 0.937855 0.369331 0.972758
Si Si6 0.661434 0.691624 0.207006
O O1 0.481957 0.329038 0.134053
O O2 0.421963 0.756508 0.398419
O O3 0.351928 0.518949 0.023542
O O4 0.370021 0.951534 0.912404
O O5 0.171546 0.312751 0.630450
O O6 0.063893 0.491002 0.750803
O O7 0.063598 0.430407 0.246861
O O8 0.130360 0.916007 0.587983
O O9 0.500000 0.000000 0.500000
O O10 0.609499 0.754463 0.350930
O O11 0.742364 0.531107 0.395702
O O12 0.862410 0.404428 0.808030
O O13 0.000000 0.000000 0.000000
#
# Coordination Sequence:
#
# PCOD9048592 Si02
#       6
#     2   2   2   2   2   2
#     4  11  25  42  66  92 127 172 223 281 335 398
#     4  10  24  45  70 102 142 179 233 282 340 407
#     4  11  25  43  65  99 125 175 228 284 334 402
#     4  10  26  43  65 102 139 187 226 287 343 419
#     4  10  24  46  75 105 140 185 232 283 339 408
#     4  12  25  43  66  94 133 178 219 278 347 400
#
# _framework density 23.406472999999998
#
# number of rings (size 3 to 8) (size 9 to 14) (size 15 to 20)
#    1.000    0.333    1.667    2.500    7.000    4.000 
#    0.000    0.000    0.000    0.000    0.000    0.000 
#    0.000    0.000    0.000    0.000    0.000    0.000 
#
# Total GULP energy -67048.888096 kJ/mol
# GULP energy per Si atom -5587.407341 kJ/mol
# Density = 2.335320 g / cm^3
# Si number density = 23.406473 Si / 1000 Ang^3
#
#
#
# Elastic Constant Matrix: (Units=GPa)
#
#
# Indices 1 2 3 4 5 6 
#
# 1 94.4887 13.4946 44.3002 -8.1346 18.2184 1.0111
# 2 13.4946 75.7466 32.1549 -4.4887 -0.2368 8.6356
# 3 44.3002 32.1549 116.2025 2.5861 11.9007 -15.0770
# 4 -8.1346 -4.4887 2.5861 39.8686 -3.0820 5.9249
# 5 18.2184 -0.2368 11.9007 -3.0820 40.5283 -0.7558
# 6 1.0111 8.6356 -15.0770 5.9249 -0.7558 40.5660
#
#
#
# Elastic Compliance Matrix: (Units=1/GPa)
#
#
# Indices 1 2 3 4 5 6 
#
# 1 0.014368 0.000351 -0.005580 0.003436 -0.004615 -0.003095
# 2 0.000351 0.016476 -0.005740 0.003343 0.001764 -0.006105
# 3 -0.005580 -0.005740 0.013469 -0.003810 -0.001641 0.006893
# 4 0.003436 0.003343 -0.003810 0.027448 0.001565 -0.006193
# 5 -0.004615 0.001764 -0.001641 0.001565 0.027349 -0.000590
# 6 -0.003095 -0.006105 0.006893 -0.006193 -0.000590 0.029483
#
#
# Mechanical properties :
#
#
# Convention : Reuss Voigt Hill
#
# Bulk Modulus (GPa) = 44.69474 51.81524 48.25499
# Shear Modulus (GPa) = 31.64788 37.29179 34.46983
#
# Velocity S-wave (km/s) = 3.68108 3.99585 3.84169
# Velocity P-wave (km/s) = 6.09948 6.59351 6.35130
#
# Compressibility (1/GPa) = 0.02237400
#
# Stress axis : x y z
#
# Youngs Moduli (GPa) = 69.59914 60.69572 74.24730
#
# Poissons Ratio (x) = -0.02131 0.41431
# Poissons Ratio (y) = -0.02444 0.42618
# Poissons Ratio (z) = 0.38837 0.34840
#
# Static dielectric constant tensor:
#      x y z
#    x 1.923070 0.023300 -0.003440 
#    y 0.023300 1.866370 0.014450 
#    z -0.003440 0.014450 1.917170 
# 
# From -- ./inp_files/6671.got.cif
#   From: 2010.05.17/outbox.cif.g08.bks.cpg/sg2_4_cif.got.tgz:6671.got - 2010.06.03 11:33:40.
