data_PCOD9048356
_publ_section_title
;
Structure prediction by ZEFSAII (Michael W. Deem and Ramdas Pophale) SiO2 
 PCOD9048356
Probable space group: P -1
;
_chemical_formula_sum "Si O2"
_cell_formula_units_Z 16
_cell_length_a 7.103982
_cell_length_b 16.048604
_cell_length_c 10.939088
_cell_angle_alpha 73.947093
_cell_angle_beta 88.829816
_cell_angle_gamma 40.068678
_cell_volume 733.722143
_symmetry_space_group_name_H-M "P -1"
_symmetry_group_IT_number 2
_symmetry_cell_setting 'triclinic'
loop_
_space_group_symop_operation_xyz
x,y,z
-x,-y,-z
loop_
_atom_site_type_symbol
_atom_site_label
_atom_site_fract_x
_atom_site_fract_y
_atom_site_fract_z
Si Si1 0.288659 0.104753 0.847440
Si Si2 0.731992 0.588262 0.368298
Si Si3 0.038658 0.602253 0.180816
Si Si4 0.286250 0.591316 0.664423
Si Si5 0.074321 0.907140 0.271240
Si Si6 0.142998 0.635948 0.918777
Si Si7 0.881624 0.917231 0.779019
Si Si8 0.151253 0.098896 0.490096
O O1 0.113329 0.256411 0.817645
O O2 0.061045 0.109775 0.818274
O O3 0.519209 0.036090 0.759253
O O4 0.500000 0.000000 0.000000
O O5 0.655911 0.515644 0.371624
O O6 0.431177 0.751462 0.345593
O O7 0.000000 0.500000 0.500000
O O8 0.868356 0.582194 0.246798
O O9 0.395882 0.478492 0.268954
O O10 0.994594 0.627822 0.025097
O O11 0.110365 0.630042 0.777822
O O12 0.065106 0.740147 0.540452
O O13 0.896054 0.952513 0.381381
O O14 0.035080 0.021205 0.188793
O O15 0.037084 0.773590 0.885655
O O16 0.500000 0.500000 0.000000
O O17 0.958646 0.894018 0.644072
O O18 0.500000 0.000000 0.500000
#
# Coordination Sequence:
#
# PCOD9048356 Si02
#       8
#     2   2   2   2   2   2   2   2
#     4  12  24  43  70  98 139 177 221 280 342 404
#     4  12  27  41  70 105 135 176 230 276 334 411
#     4  11  22  45  68  97 137 177 222 280 338 397
#     4  10  24  45  67  98 134 179 223 279 342 390
#     4  12  26  44  70 101 134 182 222 284 342 398
#     4   9  21  45  69  92 134 177 221 279 329 394
#     4  11  23  45  67 102 131 174 232 276 337 404
#     4  11  24  44  70  93 139 180 225 281 336 401
#
# _framework density 21.806618
#
# number of rings (size 3 to 8) (size 9 to 14) (size 15 to 20)
#    0.000    1.000    5.000    1.125    3.500    2.000 
#   11.250    0.000    0.000    0.000    0.000    0.000 
#    0.000    0.000    0.000    0.000    0.000    0.000 
#
# Total GULP energy -89456.165783 kJ/mol
# GULP energy per Si atom -5591.010361 kJ/mol
# Density = 2.175699 g / cm^3
# Si number density = 21.806618 Si / 1000 Ang^3
#
#
#
# Elastic Constant Matrix: (Units=GPa)
#
#
# Indices 1 2 3 4 5 6 
#
# 1 62.5106 4.1566 2.2637 -6.7588 -5.7664 -6.5794
# 2 4.1566 85.9576 -5.3862 -14.3504 -2.3896 -9.4904
# 3 2.2637 -5.3862 53.9555 -4.7309 -8.0188 -12.2380
# 4 -6.7588 -14.3504 -4.7309 34.3745 -7.3585 -2.1833
# 5 -5.7664 -2.3896 -8.0188 -7.3585 29.1039 5.0812
# 6 -6.5794 -9.4904 -12.2380 -2.1833 5.0812 34.6181
#
#
#
# Elastic Compliance Matrix: (Units=1/GPa)
#
#
# Indices 1 2 3 4 5 6 
#
# 1 0.017234 0.000589 0.001235 0.004981 0.004445 0.003535
# 2 0.000589 0.013719 0.003635 0.007357 0.003205 0.005151
# 3 0.001235 0.003635 0.022428 0.006883 0.006966 0.008571
# 4 0.004981 0.007357 0.006883 0.036995 0.011793 0.005999
# 5 0.004445 0.003205 0.006966 0.011793 0.040584 -0.001027
# 6 0.003535 0.005151 0.008571 0.005999 -0.001027 0.034530
#
#
# Mechanical properties :
#
#
# Convention : Reuss Voigt Hill
#
# Bulk Modulus (GPa) = 15.55232 22.72131 19.13682
# Shear Modulus (GPa) = 28.40841 33.04527 30.72684
#
# Velocity S-wave (km/s) = 3.61327 3.89701 3.75782
# Velocity P-wave (km/s) = 4.95530 5.53994 5.25576
#
# Compressibility (1/GPa) = 0.06429909
#
# Stress axis : x y z
#
# Youngs Moduli (GPa) = 58.02452 72.89190 44.58766
#
# Poissons Ratio (x) = -0.04297 -0.05507
# Poissons Ratio (y) = -0.03420 -0.16206
# Poissons Ratio (z) = -0.07166 -0.26494
#
# Static dielectric constant tensor:
#      x y z
#    x 1.754310 -0.017710 -0.011810 
#    y -0.017710 1.794000 0.045240 
#    z -0.011810 0.045240 1.828840 
# 
# From -- ./inp_files/367677.got.cif
#   From: 2010.05.17/outbox.cif.g08.bks.cpg/sg2_184_cif.got.tgz:367677.got - 2010.06.03 11:33:40.
