data_PCOD9048841
_publ_section_title
;
Structure prediction by ZEFSAII (Michael W. Deem and Ramdas Pophale) SiO2 
 PCOD9048841
Probable space group: P -1
;
_chemical_formula_sum "Si O2"
_cell_formula_units_Z 16
_cell_length_a 15.109345
_cell_length_b 11.716335
_cell_length_c 16.158808
_cell_angle_alpha 43.185705
_cell_angle_beta 152.126293
_cell_angle_gamma 113.570735
_cell_volume 589.798634
_symmetry_space_group_name_H-M "P -1"
_symmetry_group_IT_number 2
_symmetry_cell_setting 'triclinic'
loop_
_space_group_symop_operation_xyz
x,y,z
-x,-y,-z
loop_
_atom_site_type_symbol
_atom_site_label
_atom_site_fract_x
_atom_site_fract_y
_atom_site_fract_z
Si Si1 0.319468 0.777967 0.165935
Si Si2 0.278636 0.937345 0.212788
Si Si3 0.687708 0.403953 0.915084
Si Si4 0.266761 0.153213 0.303306
Si Si5 0.206352 0.309395 0.440299
Si Si6 0.542325 0.611870 0.103332
Si Si7 0.970227 0.491749 0.637414
Si Si8 0.401719 0.769551 0.732707
O O1 0.500000 0.500000 0.500000
O O2 0.149879 0.938905 0.024921
O O3 0.256557 0.752276 0.035200
O O4 0.468693 0.861628 0.228929
O O5 0.387661 0.717936 0.482211
O O6 0.602984 0.804381 0.544617
O O7 0.082384 0.236292 0.901065
O O8 0.628815 0.341520 0.983083
O O9 0.962129 0.342046 0.190607
O O10 0.500000 0.000000 0.500000
O O11 0.250530 0.997518 0.424188
O O12 0.960223 0.411845 0.876933
O O13 0.205864 0.304353 0.541716
O O14 0.665045 0.368976 0.283151
O O15 0.779767 0.577896 0.354502
O O16 0.351547 0.820957 0.761817
O O17 0.255060 0.411779 0.898444
#
# Coordination Sequence:
#
# PCOD9048841 Si02
#       8
#     2   2   2   2   2   2   2   2
#     4  10  22  38  51  87 118 149 185 229 280 342
#     4   9  20  34  56  85 118 141 190 231 280 332
#     4  10  20  35  56  80 117 150 186 226 281 334
#     4  10  17  34  59  84 113 145 180 236 285 323
#     4  11  20  35  62  83 113 150 186 227 288 336
#     4  11  21  33  55  86 115 152 180 234 279 334
#     4  11  20  36  59  86 111 147 187 233 282 330
#     4  10  21  35  51  86 122 139 188 233 282 329
#
# _framework density 27.127901999999999
#
# number of rings (size 3 to 8) (size 9 to 14) (size 15 to 20)
#    0.000    1.750    5.000    1.125    0.000    7.000 
#    0.000    1.250    0.000    3.000    0.000   12.250 
#    0.000    0.000    0.000    0.000    0.000    0.000 
#
# Total GULP energy -89344.589400 kJ/mol
# GULP energy per Si atom -5584.036838 kJ/mol
# Density = 2.706616 g / cm^3
# Si number density = 27.127902 Si / 1000 Ang^3
#
#
#
# Elastic Constant Matrix: (Units=GPa)
#
#
# Indices 1 2 3 4 5 6 
#
# 1 147.0062 52.0915 41.8995 14.8992 -23.7558 -5.1124
# 2 52.0915 62.1658 29.5568 41.1490 -14.1115 -19.9813
# 3 41.8995 29.5568 84.8853 30.2182 -32.3418 -8.6182
# 4 14.8992 41.1490 30.2182 58.8177 -4.6482 -12.0652
# 5 -23.7558 -14.1115 -32.3418 -4.6482 42.2300 15.9203
# 6 -5.1124 -19.9813 -8.6182 -12.0652 15.9203 46.2794
#
#
#
# Elastic Compliance Matrix: (Units=1/GPa)
#
#
# Indices 1 2 3 4 5 6 
#
# 1 0.012697 -0.015881 -0.003831 0.009096 0.001533 -0.004323
# 2 -0.015881 0.054439 0.003070 -0.032787 0.003226 0.012664
# 3 -0.003831 0.003070 0.022914 -0.012414 0.016459 -0.003729
# 4 0.009096 -0.032787 -0.012414 0.043056 -0.010352 -0.000677
# 5 0.001533 0.003226 0.016459 -0.010352 0.041777 -0.012443
# 6 -0.004323 0.012664 -0.003729 -0.000677 -0.012443 0.030008
#
#
# Mechanical properties :
#
#
# Convention : Reuss Voigt Hill
#
# Bulk Modulus (GPa) = 17.61567 60.12812 38.87189
# Shear Modulus (GPa) = 19.44796 40.83273 30.14035
#
# Velocity S-wave (km/s) = 2.68040 3.88389 3.33685
# Velocity P-wave (km/s) = 4.01087 6.50581 5.40429
#
# Compressibility (1/GPa) = 0.05676765
#
# Stress axis : x y z
#
# Youngs Moduli (GPa) = 78.75855 18.36921 43.64122
#
# Poissons Ratio (x) = 0.29172 0.16717
# Poissons Ratio (y) = 1.25074 -0.13398
# Poissons Ratio (z) = 0.30169 -0.05639
#
# Static dielectric constant tensor:
#      x y z
#    x 2.122890 0.020610 0.018220 
#    y 0.020610 2.226850 -0.066420 
#    z 0.018220 -0.066420 2.341940 
# 
# From -- ./inp_files/326238.got.cif
#   From: 2010.05.17/outbox.cif.g08.bks.cpg/sg2_164_cif.got.tgz:326238.got - 2010.06.03 11:33:40.
