data_PCOD9048726
_publ_section_title
;
Structure prediction by ZEFSAII (Michael W. Deem and Ramdas Pophale) SiO2 
 PCOD9048726
Probable space group: P -1
;
_chemical_formula_sum "Si O2"
_cell_formula_units_Z 16
_cell_length_a 11.860433
_cell_length_b 17.866845
_cell_length_c 11.128484
_cell_angle_alpha 29.294154
_cell_angle_beta 141.606266
_cell_angle_gamma 131.391697
_cell_volume 714.682457
_symmetry_space_group_name_H-M "P -1"
_symmetry_group_IT_number 2
_symmetry_cell_setting 'triclinic'
loop_
_space_group_symop_operation_xyz
x,y,z
-x,-y,-z
loop_
_atom_site_type_symbol
_atom_site_label
_atom_site_fract_x
_atom_site_fract_y
_atom_site_fract_z
Si Si1 0.007033 0.669279 0.827833
Si Si2 0.583225 0.324918 0.815417
Si Si3 0.662656 0.107450 0.985206
Si Si4 0.903039 0.097834 0.979579
Si Si5 0.306824 0.418915 0.954124
Si Si6 0.226942 0.208452 0.745410
Si Si7 0.950049 0.623635 0.426039
Si Si8 0.156332 0.152308 0.334412
O O1 0.848543 0.764824 0.489066
O O2 0.965125 0.727469 0.848441
O O3 0.214968 0.699192 0.930261
O O4 0.000000 0.500000 0.000000
O O5 0.500000 0.500000 0.500000
O O6 0.441424 0.220703 0.907116
O O7 0.603631 0.265349 0.780021
O O8 0.732371 0.138659 0.867271
O O9 0.794639 0.997887 0.333891
O O10 0.500000 0.000000 0.000000
O O11 0.057585 0.086670 0.227363
O O12 0.848926 0.952881 0.061639
O O13 0.966534 0.226578 0.766573
O O14 0.215022 0.411012 0.754479
O O15 0.131592 0.510989 0.740897
O O16 0.500000 0.500000 0.000000
O O17 0.309234 0.255741 0.256651
O O18 0.137649 0.341623 0.567704
#
# Coordination Sequence:
#
# PCOD9048726 Si02
#       8
#     2   2   2   2   2   2   2   2
#     4  12  23  40  65  97 138 176 219 284 346 394
#     4  12  26  40  65 102 137 177 225 285 345 406
#     4  12  23  41  69 102 131 175 231 286 339 406
#     4  11  22  43  69  92 131 181 226 280 335 402
#     4  10  24  45  71  98 130 183 230 279 335 404
#     4  12  24  44  63 100 138 178 226 274 352 407
#     4  10  25  44  66  99 137 179 225 277 339 412
#     4  11  23  43  69  98 131 177 236 283 337 406
#
# _framework density 22.387564999999999
#
# number of rings (size 3 to 8) (size 9 to 14) (size 15 to 20)
#    0.000    0.750    5.000    2.250    1.750    3.000 
#    0.000    0.000    0.000    5.250    0.000    0.000 
#    0.000    0.000    0.000    0.000    0.000    0.000 
#
# Total GULP energy -89188.414639 kJ/mol
# GULP energy per Si atom -5574.275915 kJ/mol
# Density = 2.233661 g / cm^3
# Si number density = 22.387565 Si / 1000 Ang^3
#
#
#
# Elastic Constant Matrix: (Units=GPa)
#
#
# Indices 1 2 3 4 5 6 
#
# 1 96.2361 47.9638 16.1545 8.3592 11.5519 6.4379
# 2 47.9638 142.2122 30.9842 -4.1168 18.5824 30.8840
# 3 16.1545 30.9842 61.6836 -3.0128 7.5127 6.1250
# 4 8.3592 -4.1168 -3.0128 31.8764 0.7553 15.8205
# 5 11.5519 18.5824 7.5127 0.7553 23.8069 -13.9293
# 6 6.4379 30.8840 6.1250 15.8205 -13.9293 45.3173
#
#
#
# Elastic Compliance Matrix: (Units=1/GPa)
#
#
# Indices 1 2 3 4 5 6 
#
# 1 0.013635 -0.005828 -0.001750 -0.007192 0.001842 0.005348
# 2 -0.005828 0.019502 -0.001149 0.018272 -0.028708 -0.027511
# 3 -0.001750 -0.001149 0.019010 0.005125 -0.007757 -0.005711
# 4 -0.007192 0.018272 0.005125 0.059670 -0.040925 -0.045534
# 5 0.001842 -0.028708 -0.007757 -0.040925 0.106726 0.067443
# 6 0.005348 -0.027511 -0.005711 -0.045534 0.067443 0.077454
#
#
# Mechanical properties :
#
#
# Convention : Reuss Voigt Hill
#
# Bulk Modulus (GPa) = 28.82465 54.48187 41.65326
# Shear Modulus (GPa) = 15.38391 33.86876 24.62633
#
# Velocity S-wave (km/s) = 2.62422 3.89374 3.32022
# Velocity P-wave (km/s) = 4.69950 6.67859 5.77446
#
# Compressibility (1/GPa) = 0.03469252
#
# Stress axis : x y z
#
# Youngs Moduli (GPa) = 73.33948 51.27632 52.60515
#
# Poissons Ratio (x) = 0.29882 0.09208
# Poissons Ratio (y) = 0.42740 0.06045
# Poissons Ratio (z) = 0.12837 0.05893
#
# Static dielectric constant tensor:
#      x y z
#    x 1.808760 0.027330 0.009520 
#    y 0.027330 1.890570 -0.013260 
#    z 0.009520 -0.013260 1.936240 
# 
# From -- ./inp_files/436452.got.cif
#   From: 2010.05.17/outbox.cif.g08.bks.cpg/sg2_219_cif.got.tgz:436452.got - 2010.06.03 11:33:40.
