data_PCOD9048308
_publ_section_title
;
Structure prediction by ZEFSAII (Michael W. Deem and Ramdas Pophale) SiO2 
 PCOD9048308
Probable space group: P -1
;
_chemical_formula_sum "Si O2"
_cell_formula_units_Z 14
_cell_length_a 11.786406
_cell_length_b 18.639084
_cell_length_c 9.069638
_cell_angle_alpha 129.615012
_cell_angle_beta 42.188195
_cell_angle_gamma 152.399784
_cell_volume 618.780161
_symmetry_space_group_name_H-M "P -1"
_symmetry_group_IT_number 2
_symmetry_cell_setting 'triclinic'
loop_
_space_group_symop_operation_xyz
x,y,z
-x,-y,-z
loop_
_atom_site_type_symbol
_atom_site_label
_atom_site_fract_x
_atom_site_fract_y
_atom_site_fract_z
Si Si1 0.662351 0.141944 0.637480
Si Si2 0.363828 0.183840 0.585760
Si Si3 0.577977 0.621849 0.413739
Si Si4 0.813994 0.380802 0.656408
Si Si5 0.437618 0.592390 0.836268
Si Si6 0.827606 0.931180 0.926605
Si Si7 0.244737 0.929225 0.251124
O O1 0.877207 0.305556 0.559821
O O2 0.767922 0.131585 0.661313
O O3 0.500000 0.000000 0.500000
O O4 0.433305 0.115269 0.879107
O O5 0.496783 0.326614 0.554310
O O6 0.519281 0.240628 0.666900
O O7 0.348805 0.080150 0.379446
O O8 0.039212 0.061265 0.771233
O O9 0.398913 0.556466 0.651921
O O10 0.528459 0.494560 0.240733
O O11 0.920408 0.780115 0.312700
O O12 0.000000 0.500000 0.500000
O O13 0.777784 0.440400 0.901431
O O14 0.715151 0.778146 0.808352
O O15 0.000000 0.000000 0.000000
O O16 0.500000 0.000000 0.000000
#
# Coordination Sequence:
#
# PCOD9048308 Si02
#       7
#     2   2   2   2   2   2   2
#     4  11  23  43  70 101 132 174 225 279 337 391
#     4  12  24  45  69 100 131 179 234 272 336 407
#     4  11  26  44  69  99 138 182 222 277 339 415
#     4  11  26  44  67 101 138 173 226 289 341 393
#     4  10  24  45  66  98 133 179 230 270 343 399
#     4  11  20  43  72  96 128 173 225 276 322 405
#     4  12  26  42  69 105 139 174 225 281 339 406
#
# _framework density 22.625160000000001
#
# number of rings (size 3 to 8) (size 9 to 14) (size 15 to 20)
#    0.000    0.857    5.714    1.286    6.000    4.000 
#    0.000    3.571    0.000    0.000    0.000    0.000 
#    0.000    0.000    0.000    0.000    0.000    0.000 
#
# Total GULP energy -78191.483936 kJ/mol
# GULP energy per Si atom -5585.105995 kJ/mol
# Density = 2.257366 g / cm^3
# Si number density = 22.625160 Si / 1000 Ang^3
#
#
#
# Elastic Constant Matrix: (Units=GPa)
#
#
# Indices 1 2 3 4 5 6 
#
# 1 95.7812 15.6251 -2.2176 7.0473 -0.4349 -28.4836
# 2 15.6251 107.4770 26.9036 8.6000 -2.7808 -38.5712
# 3 -2.2176 26.9036 98.2754 -0.9355 4.5548 -15.0300
# 4 7.0473 8.6000 -0.9355 50.0167 -9.8146 -2.6792
# 5 -0.4349 -2.7808 4.5548 -9.8146 22.1682 -4.5424
# 6 -28.4836 -38.5712 -15.0300 -2.6792 -4.5424 52.7884
#
#
#
# Elastic Compliance Matrix: (Units=1/GPa)
#
#
# Indices 1 2 3 4 5 6 
#
# 1 0.012771 0.000787 0.001207 -0.001267 0.001148 0.007845
# 2 0.000787 0.013521 -0.002354 -0.001229 0.003677 0.009889
# 3 0.001207 -0.002354 0.011246 0.000133 -0.002122 0.001958
# 4 -0.001267 -0.001229 0.000133 0.022325 0.009766 0.000430
# 5 0.001148 0.003677 -0.002122 0.009766 0.051924 0.007666
# 6 0.007845 0.009889 0.001958 0.000430 0.007666 0.031641
#
#
# Mechanical properties :
#
#
# Convention : Reuss Voigt Hill
#
# Bulk Modulus (GPa) = 27.15876 42.46177 34.81026
# Shear Modulus (GPa) = 31.96535 42.40947 37.18741
#
# Velocity S-wave (km/s) = 3.76283 4.33418 4.05857
# Velocity P-wave (km/s) = 5.55953 6.62231 6.11406
#
# Compressibility (1/GPa) = 0.03682054
#
# Stress axis : x y z
#
# Youngs Moduli (GPa) = 78.30104 73.95791 88.91992
#
# Poissons Ratio (x) = -0.05824 -0.10733
# Poissons Ratio (y) = -0.06166 0.20928
# Poissons Ratio (z) = -0.09452 0.17406
#
# Static dielectric constant tensor:
#      x y z
#    x 1.754100 -0.089850 -0.019680 
#    y -0.089850 1.804280 -0.098430 
#    z -0.019680 -0.098430 1.898600 
# 
# From -- ./inp_files/154198.got.cif
#   From: 2010.05.17/outbox.cif.g08.bks.cpg/sg2_78_cif.got.tgz:154198.got - 2010.06.03 11:33:40.
