data_PCOD9048993
_publ_section_title
;
Structure prediction by ZEFSAII (Michael W. Deem and Ramdas Pophale) SiO2 
 PCOD9048993
Probable space group: P -1
;
_chemical_formula_sum "Si O2"
_cell_formula_units_Z 13
_cell_length_a 12.974027
_cell_length_b 10.380884
_cell_length_c 11.038140
_cell_angle_alpha 153.329024
_cell_angle_beta 68.823097
_cell_angle_gamma 110.885489
_cell_volume 620.219362
_symmetry_space_group_name_H-M "P -1"
_symmetry_group_IT_number 2
_symmetry_cell_setting 'triclinic'
loop_
_space_group_symop_operation_xyz
x,y,z
-x,-y,-z
loop_
_atom_site_type_symbol
_atom_site_label
_atom_site_fract_x
_atom_site_fract_y
_atom_site_fract_z
Si Si1 0.934194 0.369900 0.575139
Si Si2 0.441682 0.819574 0.981415
Si Si3 0.057265 0.314292 0.718167
Si Si4 0.298494 0.952349 0.567614
Si Si5 0.411789 0.402698 0.059600
Si Si6 0.685229 0.783207 0.475020
Si Si7 0.000000 0.000000 0.000000
O O1 0.822954 0.200775 0.531472
O O2 0.025926 0.400282 0.667779
O O3 0.966170 0.169054 0.281603
O O4 0.924145 0.698866 0.817106
O O5 0.393321 0.500174 0.699130
O O6 0.530237 0.774780 0.012124
O O7 0.500000 0.000000 0.000000
O O8 0.340168 0.981792 0.216784
O O9 0.189221 0.303394 0.661345
O O10 0.000000 0.000000 0.500000
O O11 0.000000 0.500000 0.000000
O O12 0.313641 0.208890 0.872578
O O13 0.342576 0.082435 0.530454
O O14 0.368623 0.698074 0.372939
O O15 0.500000 0.500000 0.000000
#
# Coordination Sequence:
#
# PCOD9048993 Si02
#       7
#     2   2   2   2   2   2   1
#     4  11  24  46  68  98 145 176 234 282 346 424
#     4  12  27  48  67  98 145 183 231 294 354 422
#     4  12  25  42  74 106 138 178 225 292 357 413
#     4  12  23  41  74 102 126 176 232 292 340 410
#     4  12  23  42  71  99 131 173 229 287 346 400
#     4  12  24  45  72 101 136 182 231 289 356 411
#     4  10  24  46  64  90 140 190 214 286 338 412
#
# _framework density 20.960325999999998
#
# number of rings (size 3 to 8) (size 9 to 14) (size 15 to 20)
#    0.000    0.308    4.615    4.615    2.154    0.000 
#   16.615    0.000    0.000    0.000    0.000    0.000 
#    0.000    0.000    0.000    0.000    0.000    0.000 
#
# Total GULP energy -72397.755623 kJ/mol
# GULP energy per Si atom -5569.058125 kJ/mol
# Density = 2.091262 g / cm^3
# Si number density = 20.960326 Si / 1000 Ang^3
#
#
#
# Elastic Constant Matrix: (Units=GPa)
#
#
# Indices 1 2 3 4 5 6 
#
# 1 70.8540 25.3162 11.7075 -0.4032 -3.8723 -4.0236
# 2 25.3162 125.3334 25.8195 14.8084 0.7447 9.6109
# 3 11.7075 25.8195 141.0295 4.9178 -1.5184 2.1602
# 4 -0.4032 14.8084 4.9178 35.9571 12.2762 7.2587
# 5 -3.8723 0.7447 -1.5184 12.2762 32.0830 4.4634
# 6 -4.0236 9.6109 2.1602 7.2587 4.4634 10.7139
#
#
#
# Elastic Compliance Matrix: (Units=1/GPa)
#
#
# Indices 1 2 3 4 5 6 
#
# 1 0.016185 -0.003806 -0.000772 -0.000350 0.000811 0.009547
# 2 -0.003806 0.010006 -0.001268 -0.002704 0.001529 -0.008954
# 3 -0.000772 -0.001268 0.007422 -0.000604 0.000586 -0.000484
# 4 -0.000350 -0.002704 -0.000604 0.036470 -0.011530 -0.017489
# 5 0.000811 0.001529 0.000586 -0.011530 0.036887 -0.008741
# 6 0.009547 -0.008954 -0.000484 -0.017489 -0.008741 0.120543
#
#
# Mechanical properties :
#
#
# Convention : Reuss Voigt Hill
#
# Bulk Modulus (GPa) = 45.61856 51.43370 48.52613
# Shear Modulus (GPa) = 20.28300 34.04239 27.16269
#
# Velocity S-wave (km/s) = 3.11414 4.03443 3.60378
# Velocity P-wave (km/s) = 5.89423 6.80397 6.36537
#
# Compressibility (1/GPa) = 0.02192090
#
# Stress axis : x y z
#
# Youngs Moduli (GPa) = 61.78393 99.94278 134.73944
#
# Poissons Ratio (x) = 0.38037 0.10404
# Poissons Ratio (y) = 0.23514 0.17085
# Poissons Ratio (z) = 0.04771 0.12673
#
# Static dielectric constant tensor:
#      x y z
#    x 1.804120 -0.032260 -0.037600 
#    y -0.032260 1.740860 0.009050 
#    z -0.037600 0.009050 1.720950 
# 
# From -- ./inp_files/297156.got.cif
#   From: 2010.05.17/outbox.cif.g08.bks.cpg/sg2_149_cif.got.tgz:297156.got - 2010.06.03 11:33:40.
