data_PCOD9048261
_publ_section_title
;
Structure prediction by ZEFSAII (Michael W. Deem and Ramdas Pophale) SiO2 
 PCOD9048261
Probable space group: P -1
;
_chemical_formula_sum "Si O2"
_cell_formula_units_Z 16
_cell_length_a 13.695782
_cell_length_b 7.459583
_cell_length_c 8.519020
_cell_angle_alpha 68.477617
_cell_angle_beta 87.268665
_cell_angle_gamma 127.066921
_cell_volume 602.213072
_symmetry_space_group_name_H-M "P -1"
_symmetry_group_IT_number 2
_symmetry_cell_setting 'triclinic'
loop_
_space_group_symop_operation_xyz
x,y,z
-x,-y,-z
loop_
_atom_site_type_symbol
_atom_site_label
_atom_site_fract_x
_atom_site_fract_y
_atom_site_fract_z
Si Si1 0.850667 0.760503 0.302494
Si Si2 0.314679 0.443553 0.932769
Si Si3 0.841082 0.143629 0.376559
Si Si4 0.215191 0.538541 0.304177
Si Si5 0.775311 0.256495 0.050168
Si Si6 0.122444 0.038625 0.288273
Si Si7 0.552331 0.756421 0.616345
Si Si8 0.514746 0.258699 0.710548
O O1 0.763483 0.676220 0.185000
O O2 0.831540 0.929147 0.351206
O O3 0.810322 0.526471 0.489387
O O4 0.005452 0.930365 0.212597
O O5 0.267884 0.583254 0.961341
O O6 0.467265 0.663728 0.808898
O O7 0.259950 0.207802 0.129623
O O8 0.915166 0.181768 0.518316
O O9 0.700587 0.017170 0.501055
O O10 0.865945 0.316104 0.171567
O O11 0.142877 0.256725 0.323564
O O12 0.374424 0.725104 0.222432
O O13 0.171970 0.660172 0.158958
O O14 0.637387 0.961082 0.159795
O O15 0.553925 0.529915 0.654682
O O16 0.480959 0.762299 0.471222
#
# Coordination Sequence:
#
# PCOD9048261 Si02
#       8
#     2   2   2   2   2   2   2   2
#     4  11  20  41  66  79 109 155 204 236 269 333
#     4  11  22  38  55  90 122 146 183 237 298 335
#     4  10  20  40  61  85 112 151 198 233 277 338
#     4  10  18  37  57  85 111 148 195 231 277 334
#     4  10  23  34  55  89 125 146 178 235 299 346
#     4  10  22  38  61  86 108 154 201 237 274 332
#     4  10  18  34  62  86 114 149 190 236 275 345
#     4  10  17  34  58  86 113 151 190 226 279 343
#
# _framework density 26.568669
#
# number of rings (size 3 to 8) (size 9 to 14) (size 15 to 20)
#    0.000    1.750    3.750    3.750    0.000    2.500 
#    0.000    8.750    0.000    0.000    0.000    0.000 
#    0.000    0.000    0.000    0.000    0.000    0.000 
#
# Total GULP energy -89397.446309 kJ/mol
# GULP energy per Si atom -5587.340394 kJ/mol
# Density = 2.650820 g / cm^3
# Si number density = 26.568669 Si / 1000 Ang^3
#
#
#
# Elastic Constant Matrix: (Units=GPa)
#
#
# Indices 1 2 3 4 5 6 
#
# 1 86.9973 10.5468 36.9054 0.4333 12.2582 22.4854
# 2 10.5468 2.0206 -36.5936 21.4371 -4.3398 1.2466
# 3 36.9054 -36.5936 144.9412 2.1495 3.2080 3.0286
# 4 0.4333 21.4371 2.1495 17.9596 11.2242 5.9905
# 5 12.2582 -4.3398 3.2080 11.2242 39.7282 4.2095
# 6 22.4854 1.2466 3.0286 5.9905 4.2095 31.3515
#
#
#
# Elastic Compliance Matrix: (Units=1/GPa)
#
#
# Indices 1 2 3 4 5 6 
#
# 1 0.012862 0.008685 -0.000800 -0.008017 0.000155 -0.007982
# 2 0.008685 -0.016800 -0.006459 0.031086 -0.011791 -0.009294
# 3 -0.000800 -0.006459 0.005429 0.009623 -0.003503 -0.001062
# 4 -0.008017 0.031086 0.009623 0.017455 0.000136 0.000230
# 5 0.000155 -0.011791 -0.003503 0.000136 0.024355 -0.002600
# 6 -0.007982 -0.009294 -0.001062 0.000230 -0.002600 0.038398
#
#
# Mechanical properties :
#
#
# Convention : Reuss Voigt Hill
#
# Bulk Modulus (GPa) = 230.19758 28.40850 129.30304
# Shear Modulus (GPa) = 62.27132 32.68121 47.47627
#
# Velocity S-wave (km/s) = 4.84652 3.51103 4.23179
# Velocity P-wave (km/s) = 10.86963 5.21077 8.52353
#
# Compressibility (1/GPa) = 0.00434409
#
# Stress axis : x y z
#
# Youngs Moduli (GPa) = 77.74816 -59.52252 184.18432
#
# Poissons Ratio (x) = 0.51698 0.14733
# Poissons Ratio (y) = -0.67528 1.18964
# Poissons Ratio (z) = 0.06219 -0.38445
#
# Static dielectric constant tensor:
#      x y z
#    x 2.104250 0.004300 -0.006780 
#    y 0.004300 2.094710 -0.007170 
#    z -0.006780 -0.007170 2.195630 
# 
# From -- ./inp_files/179327.got.cif
#   From: 2010.05.17/outbox.cif.g08.bks.cpg/sg2_90_cif.got.tgz:179327.got - 2010.06.03 11:33:40.
