data_PCOD9048621
_publ_section_title
;
Structure prediction by ZEFSAII (Michael W. Deem and Ramdas Pophale) SiO2 
 PCOD9048621
Probable space group: P -1
;
_chemical_formula_sum "Si O2"
_cell_formula_units_Z 14
_cell_length_a 8.151412
_cell_length_b 13.545484
_cell_length_c 19.138680
_cell_angle_alpha 160.095113
_cell_angle_beta 132.236923
_cell_angle_gamma 47.246140
_cell_volume 523.400413
_symmetry_space_group_name_H-M "P -1"
_symmetry_group_IT_number 2
_symmetry_cell_setting 'triclinic'
loop_
_space_group_symop_operation_xyz
x,y,z
-x,-y,-z
loop_
_atom_site_type_symbol
_atom_site_label
_atom_site_fract_x
_atom_site_fract_y
_atom_site_fract_z
Si Si1 0.024731 0.346733 0.296282
Si Si2 0.151281 0.142537 0.745042
Si Si3 0.739319 0.346680 0.654961
Si Si4 0.696747 0.902287 0.915056
Si Si5 0.834633 0.070831 0.234413
Si Si6 0.624056 0.764744 0.432758
Si Si7 0.720321 0.314892 0.902203
O O1 0.846488 0.550485 0.328281
O O2 0.226579 0.161081 0.186142
O O3 0.120016 0.591375 0.532566
O O4 0.859783 0.135063 0.138694
O O5 0.931605 0.225468 0.687055
O O6 0.298851 0.915234 0.582972
O O7 0.134054 0.998820 0.719242
O O8 0.243083 0.444596 0.985200
O O9 0.763804 0.598436 0.774712
O O10 0.528356 0.428926 0.700661
O O11 0.422282 0.955200 0.874935
O O12 0.023562 0.808119 0.081087
O O13 0.500000 0.000000 0.500000
O O14 0.678277 0.996253 0.658395
O O15 0.500000 0.500000 0.000000
#
# Coordination Sequence:
#
# PCOD9048621 Si02
#       7
#     2   2   2   2   2   2   2
#     4  10  24  45  70 107 148 196 248 308 370 456
#     4  11  24  44  72 108 146 194 248 317 372 445
#     4  11  24  45  72 107 153 190 252 315 380 441
#     4  11  25  47  75 106 150 206 248 303 384 460
#     4  11  24  48  77 106 150 201 251 303 385 456
#     4  11  25  45  74 107 148 196 250 314 380 447
#     4  11  24  45  70 112 145 190 250 315 373 444
#
# _framework density 26.748163000000002
#
# number of rings (size 3 to 8) (size 9 to 14) (size 15 to 20)
#    0.000    1.143    2.857    2.571    6.000    0.571 
#    5.143    1.429    0.000    0.000    0.000    0.000 
#    0.000    0.000    0.000    0.000    0.000    0.000 
#
# Total GULP energy -78063.754188 kJ/mol
# GULP energy per Si atom -5575.982442 kJ/mol
# Density = 2.668728 g / cm^3
# Si number density = 26.748163 Si / 1000 Ang^3
#
#
#
# Elastic Constant Matrix: (Units=GPa)
#
#
# Indices 1 2 3 4 5 6 
#
# 1 149.0627 45.5731 34.5889 6.1973 20.6041 -31.7253
# 2 45.5731 100.2423 16.9347 0.3887 6.6077 6.5043
# 3 34.5889 16.9347 139.3770 2.1581 31.3633 -3.3604
# 4 6.1973 0.3887 2.1581 25.5682 7.8229 3.1574
# 5 20.6041 6.6077 31.3633 7.8229 58.8981 20.5851
# 6 -31.7253 6.5043 -3.3604 3.1574 20.5851 39.1559
#
#
#
# Elastic Compliance Matrix: (Units=1/GPa)
#
#
# Indices 1 2 3 4 5 6 
#
# 1 0.014274 -0.007011 0.000126 -0.002461 -0.010376 0.018394
# 2 -0.007011 0.013760 -0.001417 0.001337 0.005329 -0.010997
# 3 0.000126 -0.001417 0.008791 0.000600 -0.006138 0.004270
# 4 -0.002461 0.001337 0.000600 0.041250 -0.003882 -0.003450
# 5 -0.010376 0.005329 -0.006138 -0.003882 0.033221 -0.026971
# 6 0.018394 -0.010997 0.004270 -0.003450 -0.026971 0.057093
#
#
# Mechanical properties :
#
#
# Convention : Reuss Voigt Hill
#
# Bulk Modulus (GPa) = 49.45486 64.76392 57.10939
# Shear Modulus (GPa) = 26.07801 44.16346 35.12073
#
# Velocity S-wave (km/s) = 3.12580 4.06776 3.62749
# Velocity P-wave (km/s) = 5.61754 6.80641 6.24035
#
# Compressibility (1/GPa) = 0.02022046
#
# Stress axis : x y z
#
# Youngs Moduli (GPa) = 70.05708 72.67668 113.75686
#
# Poissons Ratio (x) = 0.50951 -0.01432
# Poissons Ratio (y) = 0.49115 0.16120
# Poissons Ratio (z) = -0.00882 0.10299
#
# Static dielectric constant tensor:
#      x y z
#    x 2.153130 -0.110440 0.073110 
#    y -0.110440 2.181210 -0.023490 
#    z 0.073110 -0.023490 1.990050 
# 
# From -- ./inp_files/590566.got.cif
#   From: 2010.05.17/outbox.cif.g08.bks.cpg/sg2_296_cif.got.tgz:590566.got - 2010.06.03 11:33:40.
