data_PCOD9048274
_publ_section_title
;
Structure prediction by ZEFSAII (Michael W. Deem and Ramdas Pophale) SiO2 
 PCOD9048274
Probable space group: P -1
;
_chemical_formula_sum "Si O2"
_cell_formula_units_Z 16
_cell_length_a 9.086822
_cell_length_b 18.748720
_cell_length_c 12.324563
_cell_angle_alpha 155.135471
_cell_angle_beta 130.014136
_cell_angle_gamma 50.428527
_cell_volume 666.719462
_symmetry_space_group_name_H-M "P -1"
_symmetry_group_IT_number 2
_symmetry_cell_setting 'triclinic'
loop_
_space_group_symop_operation_xyz
x,y,z
-x,-y,-z
loop_
_atom_site_type_symbol
_atom_site_label
_atom_site_fract_x
_atom_site_fract_y
_atom_site_fract_z
Si Si1 0.384144 0.615097 0.732538
Si Si2 0.210089 0.324502 0.473686
Si Si3 0.386262 0.855982 0.513348
Si Si4 0.740475 0.753211 0.052060
Si Si5 0.359676 0.858676 0.265241
Si Si6 0.013221 0.864026 0.501181
Si Si7 0.097782 0.344985 0.229493
Si Si8 0.061243 0.824338 0.719175
O O1 0.283961 0.447809 0.468501
O O2 0.250191 0.727310 0.735465
O O3 0.606869 0.606535 0.790230
O O4 0.378365 0.724229 0.991402
O O5 0.436162 0.250551 0.483393
O O6 0.122386 0.241345 0.210691
O O7 0.102753 0.521025 0.681641
O O8 0.119207 0.271185 0.468881
O O9 0.400004 0.775926 0.288785
O O10 0.189550 0.862513 0.498330
O O11 0.392439 0.057844 0.767375
O O12 0.871197 0.749356 0.216138
O O13 0.874707 0.737757 0.988519
O O14 0.500000 0.000000 0.500000
O O15 0.139247 0.959152 0.311739
O O16 0.086818 0.821836 0.599227
O O17 0.000000 0.000000 0.000000
#
# Coordination Sequence:
#
# PCOD9048274 Si02
#       8
#     2   2   2   2   2   2   2   2
#     4  11  22  40  70  95 131 184 222 266 334 412
#     4  10  24  45  65  96 132 182 224 274 333 398
#     4  11  24  39  71 103 132 168 229 285 332 384
#     4  11  23  43  68  99 138 172 219 284 334 393
#     4  11  19  40  68  99 136 174 220 276 341 387
#     4  11  24  39  64 106 137 169 216 285 341 384
#     4  10  25  44  67  92 140 182 222 265 343 407
#     4  11  22  38  67 101 132 169 225 278 332 390
#
# _framework density 23.998097999999999
#
# number of rings (size 3 to 8) (size 9 to 14) (size 15 to 20)
#    0.000    1.250    3.750    3.375    3.500    4.500 
#    0.000    5.000    0.000    0.000    0.000    0.000 
#    0.000    0.000    0.000    0.000    0.000    0.000 
#
# Total GULP energy -89384.651551 kJ/mol
# GULP energy per Si atom -5586.540722 kJ/mol
# Density = 2.394348 g / cm^3
# Si number density = 23.998098 Si / 1000 Ang^3
#
#
#
# Elastic Constant Matrix: (Units=GPa)
#
#
# Indices 1 2 3 4 5 6 
#
# 1 151.9722 37.5540 29.8954 -11.7502 -6.3252 5.1809
# 2 37.5540 120.5557 27.0289 -23.3969 -12.8315 5.9173
# 3 29.8954 27.0289 70.4455 -19.9314 -7.1739 4.4809
# 4 -11.7502 -23.3969 -19.9314 21.6852 10.0382 -6.8478
# 5 -6.3252 -12.8315 -7.1739 10.0382 55.8547 -12.1822
# 6 5.1809 5.9173 4.4809 -6.8478 -12.1822 42.4309
#
#
#
# Elastic Compliance Matrix: (Units=1/GPa)
#
#
# Indices 1 2 3 4 5 6 
#
# 1 0.007522 -0.001819 -0.002581 -0.000437 0.000085 -0.000438
# 2 -0.001819 0.011015 -0.000502 0.010375 0.000518 0.000562
# 3 -0.002581 -0.000502 0.020241 0.017261 -0.000731 0.000824
# 4 -0.000437 0.010375 0.017261 0.078947 -0.008065 0.007209
# 5 0.000085 0.000518 -0.000731 -0.008065 0.020379 0.004544
# 6 -0.000438 0.000562 0.000824 0.007209 0.004544 0.025924
#
#
# Mechanical properties :
#
#
# Convention : Reuss Voigt Hill
#
# Bulk Modulus (GPa) = 34.51419 59.10334 46.80876
# Shear Modulus (GPa) = 27.24949 40.56050 33.90500
#
# Velocity S-wave (km/s) = 3.37335 4.11561 3.76283
# Velocity P-wave (km/s) = 5.43930 6.87504 6.19887
#
# Compressibility (1/GPa) = 0.02897359
#
# Stress axis : x y z
#
# Youngs Moduli (GPa) = 132.94199 90.78410 49.40586
#
# Poissons Ratio (x) = 0.16510 0.12754
# Poissons Ratio (y) = 0.24177 0.02480
# Poissons Ratio (z) = 0.34318 0.04558
#
# Static dielectric constant tensor:
#      x y z
#    x 1.943930 0.043680 0.034960 
#    y 0.043680 1.831710 -0.001720 
#    z 0.034960 -0.001720 2.065250 
# 
# From -- ./inp_files/403638.got.cif
#   From: 2010.05.17/outbox.cif.g08.bks.cpg/sg2_202_cif.got.tgz:403638.got - 2010.06.03 11:33:40.
