data_PCOD9048936
_publ_section_title
;
Structure prediction by ZEFSAII (Michael W. Deem and Ramdas Pophale) SiO2 
 PCOD9048936
Probable space group: P -1
;
_chemical_formula_sum "Si O2"
_cell_formula_units_Z 14
_cell_length_a 22.107554
_cell_length_b 5.484753
_cell_length_c 5.041551
_cell_angle_alpha 86.937530
_cell_angle_beta 73.141390
_cell_angle_gamma 74.345247
_cell_volume 563.132037
_symmetry_space_group_name_H-M "P -1"
_symmetry_group_IT_number 2
_symmetry_cell_setting 'triclinic'
loop_
_space_group_symop_operation_xyz
x,y,z
-x,-y,-z
loop_
_atom_site_type_symbol
_atom_site_label
_atom_site_fract_x
_atom_site_fract_y
_atom_site_fract_z
Si Si1 0.363178 0.439732 0.062994
Si Si2 0.031907 0.767176 0.161959
Si Si3 0.203057 0.859913 0.740403
Si Si4 0.673848 0.037411 0.643429
Si Si5 0.839419 0.370815 0.714146
Si Si6 0.429810 0.534379 0.459754
Si Si7 0.900761 0.679083 0.296898
O O1 0.425305 0.403427 0.189595
O O2 0.327511 0.226382 0.205944
O O3 0.326359 0.732327 0.163589
O O4 0.385692 0.429764 0.732620
O O5 0.084721 0.783708 0.314401
O O6 0.966574 0.702865 0.351695
O O7 0.074119 0.552236 0.924124
O O8 0.000000 0.000000 0.000000
O O9 0.137954 0.087719 0.844058
O O10 0.265448 0.969553 0.626389
O O11 0.190030 0.741990 0.486810
O O12 0.203668 0.653320 0.976721
O O13 0.606900 0.169462 0.562048
O O14 0.849474 0.634775 0.582828
O O15 0.500000 0.500000 0.500000
#
# Coordination Sequence:
#
# PCOD9048936 Si02
#       7
#     2   2   2   2   2   2   2
#     4  10  25  44  73 105 148 190 237 297 351 418
#     4  11  23  47  69  99 134 169 228 287 359 423
#     4  12  29  44  70  97 137 180 235 284 348 422
#     4  10  28  46  72 105 147 194 242 294 355 421
#     4  12  26  47  65 100 129 175 226 289 344 424
#     4  10  24  45  76 112 147 193 240 295 354 418
#     4  11  25  43  72  98 131 180 221 291 361 423
#
# _framework density 24.860955000000001
#
# number of rings (size 3 to 8) (size 9 to 14) (size 15 to 20)
#    0.857    0.286    2.857    0.857    8.000    3.429 
#    0.000    0.000    0.000    0.000    0.000    0.000 
#    0.000    0.000    0.000    0.000    0.000    0.000 
#
# Total GULP energy -78263.579444 kJ/mol
# GULP energy per Si atom -5590.255675 kJ/mol
# Density = 2.480437 g / cm^3
# Si number density = 24.860955 Si / 1000 Ang^3
#
#
#
# Elastic Constant Matrix: (Units=GPa)
#
#
# Indices 1 2 3 4 5 6 
#
# 1 50.7466 5.4400 0.6827 0.7861 -1.2356 1.5115
# 2 5.4400 55.4499 37.8362 -24.9378 -3.9120 9.8737
# 3 0.6827 37.8362 88.6131 -12.7464 1.7732 10.3398
# 4 0.7861 -24.9378 -12.7464 32.0087 11.0879 -7.6899
# 5 -1.2356 -3.9120 1.7732 11.0879 44.5323 -5.8814
# 6 1.5115 9.8737 10.3398 -7.6899 -5.8814 27.4565
#
#
#
# Elastic Compliance Matrix: (Units=1/GPa)
#
#
# Indices 1 2 3 4 5 6 
#
# 1 0.020273 -0.004394 0.001231 -0.003996 0.001003 -0.000904
# 2 -0.004394 0.038822 -0.012486 0.025828 -0.002965 -0.002418
# 3 0.001231 -0.012486 0.016484 -0.003489 -0.001251 -0.003030
# 4 -0.003996 0.025828 -0.003489 0.055073 -0.010705 0.005377
# 5 0.001003 -0.002965 -0.001251 -0.010705 0.025458 0.003937
# 6 -0.000904 -0.002418 -0.003030 0.005377 0.003937 0.040831
#
#
# Mechanical properties :
#
#
# Convention : Reuss Voigt Hill
#
# Bulk Modulus (GPa) = 22.58322 31.41417 26.99870
# Shear Modulus (GPa) = 20.57607 30.85622 25.71615
#
# Velocity S-wave (km/s) = 2.88000 3.52682 3.21970
# Velocity P-wave (km/s) = 4.49030 5.40814 4.97045
#
# Compressibility (1/GPa) = 0.04428066
#
# Stress axis : x y z
#
# Youngs Moduli (GPa) = 49.32554 25.75833 60.66651
#
# Poissons Ratio (x) = 0.11318 -0.07465
# Poissons Ratio (y) = 0.21674 0.75748
# Poissons Ratio (z) = -0.06070 0.32162
#
# Static dielectric constant tensor:
#      x y z
#    x 2.004670 0.040350 -0.008800 
#    y 0.040350 2.010140 -0.001630 
#    z -0.008800 -0.001630 1.979430 
# 
# From -- ./inp_files/121430.got.cif
#   From: 2010.05.17/outbox.cif.g08.bks.cpg/sg2_61_cif.got.tgz:121430.got - 2010.06.03 11:33:40.
