data_PCOD9048359
_publ_section_title
;
Structure prediction by ZEFSAII (Michael W. Deem and Ramdas Pophale) SiO2 
 PCOD9048359
Probable space group: P -1
;
_chemical_formula_sum "Si O2"
_cell_formula_units_Z 16
_cell_length_a 14.620284
_cell_length_b 13.803421
_cell_length_c 8.751668
_cell_angle_alpha 135.636903
_cell_angle_beta 132.212246
_cell_angle_gamma 38.858461
_cell_volume 747.605405
_symmetry_space_group_name_H-M "P -1"
_symmetry_group_IT_number 2
_symmetry_cell_setting 'triclinic'
loop_
_space_group_symop_operation_xyz
x,y,z
-x,-y,-z
loop_
_atom_site_type_symbol
_atom_site_label
_atom_site_fract_x
_atom_site_fract_y
_atom_site_fract_z
Si Si1 0.068417 0.033759 0.965535
Si Si2 0.478633 0.100420 0.839735
Si Si3 0.161962 0.178729 0.008534
Si Si4 0.591551 0.276918 0.990340
Si Si5 0.845701 0.044602 0.495096
Si Si6 0.293563 0.331509 0.175356
Si Si7 0.332968 0.608982 0.506815
Si Si8 0.434704 0.825155 0.456856
O O1 0.071536 0.189794 0.072335
O O2 0.989063 0.005082 0.704805
O O3 0.245060 0.899934 0.036271
O O4 0.000000 0.000000 0.000000
O O5 0.476931 0.244476 0.906831
O O6 0.438206 0.982396 0.577657
O O7 0.366852 0.195487 0.965396
O O8 0.655849 0.970326 0.939016
O O9 0.114713 0.111979 0.740022
O O10 0.164239 0.333927 0.125208
O O11 0.543381 0.307688 0.795051
O O12 0.631869 0.375244 0.259811
O O13 0.763874 0.210277 0.481581
O O14 0.720733 0.092258 0.535779
O O15 0.254546 0.511843 0.285007
O O16 0.432709 0.264614 0.372227
O O17 0.500000 0.500000 0.500000
#
# Coordination Sequence:
#
# PCOD9048359 Si02
#       8
#     2   2   2   2   2   2   2   2
#     4  11  23  38  61  88 115 149 204 255 282 334
#     4  10  17  34  58  87 121 149 191 243 296 351
#     4  10  19  36  61  85 111 155 200 243 286 335
#     4  11  22  36  57  91 122 153 193 246 296 341
#     4  12  20  37  63  86 112 158 202 240 286 345
#     4  11  20  37  59  87 126 153 190 238 294 363
#     4  12  22  38  58  88 125 158 191 236 294 365
#     4  11  19  32  58  91 118 152 190 248 301 335
#
# _framework density 21.401664
#
# number of rings (size 3 to 8) (size 9 to 14) (size 15 to 20)
#    0.000    1.000    8.750    1.500    0.000    0.500 
#    0.000    0.625    0.000    0.750    0.000    0.000 
#    0.000    0.000    0.000    0.000    0.000    0.000 
#
# Total GULP energy -89135.524827 kJ/mol
# GULP energy per Si atom -5570.970302 kJ/mol
# Density = 2.135295 g / cm^3
# Si number density = 21.401664 Si / 1000 Ang^3
#
#
#
# Elastic Constant Matrix: (Units=GPa)
#
#
# Indices 1 2 3 4 5 6 
#
# 1 157.9342 1.9907 20.4725 5.9538 8.5693 14.2848
# 2 1.9907 24.9254 3.2159 -9.5019 -0.3992 9.7083
# 3 20.4725 3.2159 87.8696 -3.9393 -4.6252 4.8693
# 4 5.9538 -9.5019 -3.9393 30.0942 5.7075 8.8042
# 5 8.5693 -0.3992 -4.6252 5.7075 36.3306 3.0234
# 6 14.2848 9.7083 4.8693 8.8042 3.0234 17.3335
#
#
#
# Elastic Compliance Matrix: (Units=1/GPa)
#
#
# Indices 1 2 3 4 5 6 
#
# 1 0.007237 0.003971 -0.001307 0.002520 -0.001490 -0.008841
# 2 0.003971 0.091126 0.002543 0.052342 -0.001058 -0.081427
# 3 -0.001307 0.002543 0.012213 0.004137 0.001756 -0.006185
# 4 0.002520 0.052342 0.004137 0.070482 -0.004949 -0.067491
# 5 -0.001490 -0.001058 0.001756 -0.004949 0.028967 -0.001212
# 6 -0.008841 -0.081427 -0.006185 -0.067491 -0.001212 0.146813
#
#
# Mechanical properties :
#
#
# Convention : Reuss Voigt Hill
#
# Bulk Modulus (GPa) = 8.26524 35.78750 22.02637
# Shear Modulus (GPa) = 12.92817 33.08833 23.00825
#
# Velocity S-wave (km/s) = 2.46046 3.93627 3.28238
# Velocity P-wave (km/s) = 3.45574 6.11695 4.96786
#
# Compressibility (1/GPa) = 0.12098869
#
# Stress axis : x y z
#
# Youngs Moduli (GPa) = 138.18710 10.97382 81.88303
#
# Poissons Ratio (x) = -0.04358 0.10701
# Poissons Ratio (y) = -0.54872 -0.20822
# Poissons Ratio (z) = 0.18060 -0.02790
#
# Static dielectric constant tensor:
#      x y z
#    x 1.884620 0.084690 0.003820 
#    y 0.084690 1.820530 0.013970 
#    z 0.003820 0.013970 1.787190 
# 
# From -- ./inp_files/271143.got.cif
#   From: 2010.05.17/outbox.cif.g08.bks.cpg/sg2_136_cif.got.tgz:271143.got - 2010.06.03 11:33:40.
