data_PCOD9048849
_publ_section_title
;
Structure prediction by ZEFSAII (Michael W. Deem and Ramdas Pophale) SiO2 
 PCOD9048849
Probable space group: P -1
;
_chemical_formula_sum "Si O2"
_cell_formula_units_Z 12
_cell_length_a 17.656094
_cell_length_b 15.875435
_cell_length_c 12.920956
_cell_angle_alpha 143.986875
_cell_angle_beta 21.771793
_cell_angle_gamma 155.810897
_cell_volume 532.715695
_symmetry_space_group_name_H-M "P -1"
_symmetry_group_IT_number 2
_symmetry_cell_setting 'triclinic'
loop_
_space_group_symop_operation_xyz
x,y,z
-x,-y,-z
loop_
_atom_site_type_symbol
_atom_site_label
_atom_site_fract_x
_atom_site_fract_y
_atom_site_fract_z
Si Si1 0.368395 0.116714 0.703855
Si Si2 0.724429 0.784222 0.269902
Si Si3 0.324658 0.095961 0.157611
Si Si4 0.300683 0.754680 0.377974
Si Si5 0.233971 0.734215 0.892121
Si Si6 0.261512 0.460990 0.836620
O O1 0.447804 0.283371 0.688113
O O2 0.599294 0.213602 0.598787
O O3 0.286317 0.922764 0.557437
O O4 0.062776 0.005000 0.037367
O O5 0.546283 0.810959 0.585437
O O6 0.741646 0.639831 0.157471
O O7 0.586087 0.310720 0.102399
O O8 0.455069 0.163905 0.940298
O O9 0.000000 0.000000 0.500000
O O10 0.274956 0.906900 0.064389
O O11 0.000000 0.500000 0.500000
O O12 0.000000 0.500000 0.000000
O O13 0.065288 0.689614 0.952298
O O14 0.500000 0.500000 0.500000
#
# Coordination Sequence:
#
# PCOD9048849 Si02
#       6
#     2   2   2   2   2   2
#     4  10  24  45  73  98 149 189 237 306 357 433
#     4  11  23  46  72 105 139 195 242 291 370 428
#     4  12  25  44  73 109 143 191 243 296 368 436
#     4  11  24  44  75 108 142 191 246 298 368 434
#     4  12  25  46  72 105 145 190 240 296 367 434
#     4  12  25  45  72 101 151 189 236 307 361 426
#
# _framework density 22.526087
#
# number of rings (size 3 to 8) (size 9 to 14) (size 15 to 20)
#    0.000    0.667    5.000    2.000    4.667    0.667 
#    0.000   12.500    0.000    0.000    0.000    0.000 
#    0.000    0.000    0.000    0.000    0.000    0.000 
#
# Total GULP energy -66930.306320 kJ/mol
# GULP energy per Si atom -5577.525527 kJ/mol
# Density = 2.247482 g / cm^3
# Si number density = 22.526087 Si / 1000 Ang^3
#
#
#
# Elastic Constant Matrix: (Units=GPa)
#
#
# Indices 1 2 3 4 5 6 
#
# 1 100.4292 51.0998 7.4694 8.5365 -7.4924 -20.2278
# 2 51.0998 154.5042 42.9195 21.0762 -9.1780 -4.1791
# 3 7.4694 42.9195 122.8409 9.5776 -6.4601 -6.6840
# 4 8.5365 21.0762 9.5776 26.3303 -5.6802 4.9343
# 5 -7.4924 -9.1780 -6.4601 -5.6802 40.8411 -2.7521
# 6 -20.2278 -4.1791 -6.6840 4.9343 -2.7521 41.6100
#
#
#
# Elastic Compliance Matrix: (Units=1/GPa)
#
#
# Indices 1 2 3 4 5 6 
#
# 1 0.013779 -0.004300 0.001326 -0.002388 0.001903 0.006889
# 2 -0.004300 0.009272 -0.002648 -0.004848 0.000134 -0.001001
# 3 0.001326 -0.002648 0.009302 -0.001883 0.001003 0.002162
# 4 -0.002388 -0.004848 -0.001883 0.045515 0.004028 -0.007081
# 5 0.001903 0.000134 0.001003 0.004028 0.025740 0.002325
# 6 0.006889 -0.001001 0.002162 -0.007081 0.002325 0.028622
#
#
# Mechanical properties :
#
#
# Convention : Reuss Voigt Hill
#
# Bulk Modulus (GPa) = 47.37255 64.52796 55.95026
# Shear Modulus (GPa) = 33.22011 40.17531 36.69771
#
# Velocity S-wave (km/s) = 3.84440 4.22773 4.04062
# Velocity P-wave (km/s) = 6.38605 7.24843 6.83086
#
# Compressibility (1/GPa) = 0.02110927
#
# Stress axis : x y z
#
# Youngs Moduli (GPa) = 72.57330 107.84748 107.50043
#
# Poissons Ratio (x) = 0.46379 -0.14252
# Poissons Ratio (y) = 0.31210 0.28462
# Poissons Ratio (z) = -0.09621 0.28553
#
# Static dielectric constant tensor:
#      x y z
#    x 1.983290 -0.004180 0.110830 
#    y -0.004180 1.818670 0.008570 
#    z 0.110830 0.008570 1.958720 
# 
# From -- ./inp_files/541546.got.cif
#   From: 2010.05.17/outbox.cif.g08.bks.cpg/sg2_271_cif.got.tgz:541546.got - 2010.06.03 11:33:40.
