data_PCOD9048515
_publ_section_title
;
Structure prediction by ZEFSAII (Michael W. Deem and Ramdas Pophale) SiO2 
 PCOD9048515
Probable space group: P -1
;
_chemical_formula_sum "Si O2"
_cell_formula_units_Z 14
_cell_length_a 11.437036
_cell_length_b 8.863018
_cell_length_c 11.017600
_cell_angle_alpha 99.774122
_cell_angle_beta 41.948792
_cell_angle_gamma 117.565803
_cell_volume 632.490015
_symmetry_space_group_name_H-M "P -1"
_symmetry_group_IT_number 2
_symmetry_cell_setting 'triclinic'
loop_
_space_group_symop_operation_xyz
x,y,z
-x,-y,-z
loop_
_atom_site_type_symbol
_atom_site_label
_atom_site_fract_x
_atom_site_fract_y
_atom_site_fract_z
Si Si1 0.358350 0.290022 0.092347
Si Si2 0.872971 0.385678 0.249509
Si Si3 0.913327 0.705392 0.141665
Si Si4 0.681043 0.968742 0.118421
Si Si5 0.600596 0.816778 0.425208
Si Si6 0.885199 0.157296 0.419082
Si Si7 0.425519 0.057489 0.182298
O O1 0.398548 0.216732 0.176874
O O2 0.120190 0.221508 0.259371
O O3 0.500000 0.500000 0.000000
O O4 0.398568 0.196660 0.933466
O O5 0.637579 0.287083 0.374430
O O6 0.874861 0.308722 0.369403
O O7 0.938959 0.590851 0.211434
O O8 0.017070 0.348596 0.044055
O O9 0.696072 0.690886 0.312047
O O10 0.077059 0.913361 0.058304
O O11 0.617745 0.909564 0.295605
O O12 0.595877 0.092087 0.153727
O O13 0.747262 0.972535 0.426089
O O14 0.778720 0.105584 0.625502
O O15 0.500000 0.000000 0.000000
#
# Coordination Sequence:
#
# PCOD9048515 Si02
#       7
#     2   2   2   2   2   2   2
#     4  11  26  46  69  99 130 186 241 288 335 409
#     4  11  24  39  67 109 146 178 221 277 353 431
#     4  11  23  40  65 106 150 178 216 277 355 422
#     4  11  21  45  70  95 141 179 225 284 353 416
#     4  12  22  44  70 109 138 182 221 286 369 415
#     4  12  22  45  72  99 142 180 233 290 349 421
#     4  10  24  45  69  92 134 188 236 279 342 408
#
# _framework density 22.134736
#
# number of rings (size 3 to 8) (size 9 to 14) (size 15 to 20)
#    0.000    0.857    4.286    3.429    2.000    0.000 
#    5.143    2.857    0.000    0.000    0.000    0.000 
#    0.000    0.000    0.000    0.000    0.000    0.000 
#
# Total GULP energy -78223.890996 kJ/mol
# GULP energy per Si atom -5587.420785 kJ/mol
# Density = 2.208436 g / cm^3
# Si number density = 22.134736 Si / 1000 Ang^3
#
#
#
# Elastic Constant Matrix: (Units=GPa)
#
#
# Indices 1 2 3 4 5 6 
#
# 1 85.7217 35.0317 44.6571 11.1696 -4.3665 -25.1442
# 2 35.0317 64.8880 37.7185 -5.9191 17.1531 -14.1893
# 3 44.6571 37.7185 134.2039 1.0979 -1.1282 -9.0405
# 4 11.1696 -5.9191 1.0979 27.5877 -8.7577 0.1726
# 5 -4.3665 17.1531 -1.1282 -8.7577 40.9233 -2.2436
# 6 -25.1442 -14.1893 -9.0405 0.1726 -2.2436 38.9357
#
#
#
# Elastic Compliance Matrix: (Units=1/GPa)
#
#
# Indices 1 2 3 4 5 6 
#
# 1 0.022013 -0.009554 -0.003838 -0.009348 0.004804 0.010161
# 2 -0.009554 0.027083 -0.004442 0.006343 -0.011027 0.002005
# 3 -0.003838 -0.004442 0.009871 0.000790 0.001800 -0.001706
# 4 -0.009348 0.006343 0.000790 0.043098 0.005401 -0.003422
# 5 0.004804 -0.011027 0.001800 0.005401 0.030845 0.001255
# 6 0.010161 0.002005 -0.001706 -0.003422 0.001255 0.032667
#
#
# Mechanical properties :
#
#
# Convention : Reuss Voigt Hill
#
# Bulk Modulus (GPa) = 42.92213 57.73648 50.32931
# Shear Modulus (GPa) = 23.92199 32.64975 28.28587
#
# Velocity S-wave (km/s) = 3.29103 3.84480 3.57864
# Velocity P-wave (km/s) = 5.82019 6.77131 6.31369
#
# Compressibility (1/GPa) = 0.02329801
#
# Stress axis : x y z
#
# Youngs Moduli (GPa) = 45.42794 36.92316 101.30792
#
# Poissons Ratio (x) = 0.35276 0.38886
# Poissons Ratio (y) = 0.43401 0.45004
# Poissons Ratio (z) = 0.17437 0.16402
#
# Static dielectric constant tensor:
#      x y z
#    x 1.834940 -0.022660 -0.008680 
#    y -0.022660 1.822450 0.029240 
#    z -0.008680 0.029240 1.849770 
# 
# From -- ./inp_files/199852.got.cif
#   From: 2010.05.17/outbox.cif.g08.bks.cpg/sg2_100_cif.got.tgz:199852.got - 2010.06.03 11:33:40.
