data_PCOD9048611
_publ_section_title
;
Structure prediction by ZEFSAII (Michael W. Deem and Ramdas Pophale) SiO2 
 PCOD9048611
Probable space group: P -1
;
_chemical_formula_sum "Si O2"
_cell_formula_units_Z 14
_cell_length_a 10.749016
_cell_length_b 9.612799
_cell_length_c 7.566960
_cell_angle_alpha 132.511888
_cell_angle_beta 111.448786
_cell_angle_gamma 60.597418
_cell_volume 501.412822
_symmetry_space_group_name_H-M "P -1"
_symmetry_group_IT_number 2
_symmetry_cell_setting 'triclinic'
loop_
_space_group_symop_operation_xyz
x,y,z
-x,-y,-z
loop_
_atom_site_type_symbol
_atom_site_label
_atom_site_fract_x
_atom_site_fract_y
_atom_site_fract_z
Si Si1 0.321300 0.805412 0.878534
Si Si2 0.873412 0.932651 0.693918
Si Si3 0.690189 0.721523 0.233462
Si Si4 0.126461 0.598463 0.439960
Si Si5 0.516435 0.355184 0.660737
Si Si6 0.363587 0.209277 0.154953
Si Si7 0.153249 0.690412 0.154675
O O1 0.205897 0.930328 0.068657
O O2 0.381000 0.979187 0.001482
O O3 0.238747 0.714375 0.620576
O O4 0.435078 0.597443 0.834324
O O5 0.998004 0.719230 0.603284
O O6 0.936281 0.084875 0.758462
O O7 0.756799 0.881812 0.472514
O O8 0.683739 0.312383 0.732392
O O9 0.659297 0.747398 0.029527
O O10 0.810488 0.496748 0.121716
O O11 0.214904 0.361599 0.297175
O O12 0.082001 0.640129 0.248453
O O13 0.474829 0.280178 0.387677
O O14 0.558168 0.735858 0.305570
#
# Coordination Sequence:
#
# PCOD9048611 Si02
#       7
#     2   2   2   2   2   2   2
#     4  11  23  44  71 103 138 184 225 290 348 406
#     4  12  24  42  71 102 138 183 232 281 346 412
#     4  11  24  43  71 103 137 182 227 286 346 406
#     4  10  25  44  67 102 137 183 235 278 343 414
#     4  11  24  48  70 102 142 176 236 282 347 414
#     4  10  24  45  70 106 138 182 228 287 347 405
#     4  11  25  45  70  98 139 185 227 290 341 406
#
# _framework density 27.921105000000001
#
# number of rings (size 3 to 8) (size 9 to 14) (size 15 to 20)
#    0.000    1.143    2.857    2.143    0.000   10.857 
#    0.000    4.286    0.000    0.000    0.000    0.000 
#    0.000    0.000    0.000    0.000    0.000    0.000 
#
# Total GULP energy -78490.294131 kJ/mol
# GULP energy per Si atom -5606.449581 kJ/mol
# Density = 2.785756 g / cm^3
# Si number density = 27.921105 Si / 1000 Ang^3
#
#
#
# Elastic Constant Matrix: (Units=GPa)
#
#
# Indices 1 2 3 4 5 6 
#
# 1 76.8451 22.2614 27.2416 9.2213 -10.6653 -0.1104
# 2 22.2614 123.0708 49.7447 37.9906 -1.4846 -12.6208
# 3 27.2416 49.7447 182.8587 26.1498 -5.6911 3.9476
# 4 9.2213 37.9906 26.1498 55.7945 -2.8875 -5.8668
# 5 -10.6653 -1.4846 -5.6911 -2.8875 47.6617 18.9320
# 6 -0.1104 -12.6208 3.9476 -5.8668 18.9320 37.0599
#
#
#
# Elastic Compliance Matrix: (Units=1/GPa)
#
#
# Indices 1 2 3 4 5 6 
#
# 1 0.014755 -0.002248 -0.001348 -0.000351 0.004142 -0.002749
# 2 -0.002248 0.011780 -0.002148 -0.006298 -0.002584 0.004557
# 3 -0.001348 -0.002148 0.006567 -0.001572 0.001241 -0.002318
# 4 -0.000351 -0.006298 -0.001572 0.023183 0.000339 0.001519
# 5 0.004142 -0.002584 0.001241 0.000339 0.028067 -0.015284
# 6 -0.002749 0.004557 -0.002318 0.001519 -0.015284 0.036822
#
#
# Mechanical properties :
#
#
# Convention : Reuss Voigt Hill
#
# Bulk Modulus (GPa) = 46.26403 64.58554 55.42479
# Shear Modulus (GPa) = 35.74780 47.00504 41.37642
#
# Velocity S-wave (km/s) = 3.58203 4.10749 3.85373
# Velocity P-wave (km/s) = 5.80633 6.75848 6.30041
#
# Compressibility (1/GPa) = 0.02161506
#
# Stress axis : x y z
#
# Youngs Moduli (GPa) = 67.77247 84.88711 152.26705
#
# Poissons Ratio (x) = 0.19079 0.20530
# Poissons Ratio (y) = 0.15232 0.32708
# Poissons Ratio (z) = 0.09138 0.18235
#
# Static dielectric constant tensor:
#      x y z
#    x 2.278620 -0.003800 -0.025310 
#    y -0.003800 2.203430 -0.061020 
#    z -0.025310 -0.061020 2.083550 
# 
# From -- ./inp_files/261171.got.cif
#   From: 2010.05.17/outbox.cif.g08.bks.cpg/sg2_131_cif.got.tgz:261171.got - 2010.06.03 11:33:40.
