data_PCOD9048724
_publ_section_title
;
Structure prediction by ZEFSAII (Michael W. Deem and Ramdas Pophale) SiO2 
 PCOD9048724
Probable space group: P -1
;
_chemical_formula_sum "Si O2"
_cell_formula_units_Z 16
_cell_length_a 11.344628
_cell_length_b 16.038693
_cell_length_c 8.827478
_cell_angle_alpha 69.247934
_cell_angle_beta 41.553687
_cell_angle_gamma 44.584495
_cell_volume 690.642903
_symmetry_space_group_name_H-M "P -1"
_symmetry_group_IT_number 2
_symmetry_cell_setting 'triclinic'
loop_
_space_group_symop_operation_xyz
x,y,z
-x,-y,-z
loop_
_atom_site_type_symbol
_atom_site_label
_atom_site_fract_x
_atom_site_fract_y
_atom_site_fract_z
Si Si1 0.681649 0.347456 0.248451
Si Si2 0.924510 0.751951 0.618328
Si Si3 0.196247 0.107694 0.069668
Si Si4 0.117107 0.574347 0.141885
Si Si5 0.403422 0.127895 0.583996
Si Si6 0.110639 0.506566 0.741875
Si Si7 0.435131 0.851926 0.862024
Si Si8 0.615611 0.335881 0.966742
O O1 0.413463 0.406689 0.521718
O O2 0.910634 0.229038 0.205192
O O3 0.711837 0.444366 0.146872
O O4 0.694070 0.316052 0.079041
O O5 0.003492 0.642526 0.722252
O O6 0.167838 0.699815 0.325719
O O7 0.802242 0.870804 0.768647
O O8 0.713782 0.787075 0.686820
O O9 0.378338 0.110380 0.795995
O O10 0.257914 0.985284 0.036499
O O11 0.878438 0.729508 0.271876
O O12 0.984091 0.527545 0.274632
O O13 0.333591 0.481620 0.121018
O O14 0.584837 0.129782 0.314073
O O15 0.500000 0.000000 0.500000
O O16 0.000000 0.500000 0.000000
O O17 0.403650 0.761223 0.992515
#
# Coordination Sequence:
#
# PCOD9048724 Si02
#       8
#     2   2   2   2   2   2   2   2
#     4  11  25  44  67  99 140 173 230 281 339 406
#     4  12  25  44  69 101 140 178 228 283 342 403
#     4  10  24  45  71  97 139 188 223 282 342 403
#     4  11  22  42  67 101 136 175 227 277 340 398
#     4   9  20  41  68  95 130 176 223 272 329 394
#     4  12  26  40  69 103 136 180 222 282 345 406
#     4  11  24  46  71 101 136 180 235 278 338 408
#     4  12  26  42  70 106 135 181 226 287 342 400
#
# _framework density 23.166820999999999
#
# number of rings (size 3 to 8) (size 9 to 14) (size 15 to 20)
#    0.000    1.000    2.500    4.500    3.500    3.000 
#    0.000    6.250    0.000    0.000    0.000    0.000 
#    0.000    0.000    0.000    0.000    0.000    0.000 
#
# Total GULP energy -89363.386361 kJ/mol
# GULP energy per Si atom -5585.211648 kJ/mol
# Density = 2.311409 g / cm^3
# Si number density = 23.166821 Si / 1000 Ang^3
#
#
#
# Elastic Constant Matrix: (Units=GPa)
#
#
# Indices 1 2 3 4 5 6 
#
# 1 79.4308 33.4356 32.0314 0.4998 0.9020 9.0655
# 2 33.4356 109.8819 29.7602 -1.8901 -9.5519 14.7708
# 3 32.0314 29.7602 134.2519 -6.5299 5.1098 21.1189
# 4 0.4998 -1.8901 -6.5299 22.1085 5.0079 0.3548
# 5 0.9020 -9.5519 5.1098 5.0079 39.6145 -4.7074
# 6 9.0655 14.7708 21.1189 0.3548 -4.7074 27.6540
#
#
#
# Elastic Compliance Matrix: (Units=1/GPa)
#
#
# Indices 1 2 3 4 5 6 
#
# 1 0.015467 -0.003941 -0.002675 -0.001250 -0.000926 -0.001064
# 2 -0.003941 0.011287 -0.001101 0.000215 0.002514 -0.003471
# 3 -0.002675 -0.001101 0.009603 0.003503 -0.002642 -0.006363
# 4 -0.001250 0.000215 0.003503 0.047949 -0.006929 -0.004175
# 5 -0.000926 0.002514 -0.002642 -0.006929 0.027776 0.005796
# 6 -0.001064 -0.003471 -0.006363 -0.004175 0.005796 0.044264
#
#
# Mechanical properties :
#
#
# Convention : Reuss Voigt Hill
#
# Bulk Modulus (GPa) = 47.79348 57.11320 52.45334
# Shear Modulus (GPa) = 27.97149 33.09790 30.53470
#
# Velocity S-wave (km/s) = 3.47853 3.78388 3.63441
# Velocity P-wave (km/s) = 6.06700 6.61792 6.34844
#
# Compressibility (1/GPa) = 0.02092336
#
# Stress axis : x y z
#
# Youngs Moduli (GPa) = 64.65402 88.59931 104.13512
#
# Poissons Ratio (x) = 0.34916 0.27854
# Poissons Ratio (y) = 0.25479 0.11465
# Poissons Ratio (z) = 0.17294 0.09754
#
# Static dielectric constant tensor:
#      x y z
#    x 1.921310 0.016940 0.031800 
#    y 0.016940 1.883700 0.013820 
#    z 0.031800 0.013820 1.908730 
# 
# From -- ./inp_files/272327.got.cif
#   From: 2010.05.17/outbox.cif.g08.bks.cpg/sg2_137_cif.got.tgz:272327.got - 2010.06.03 11:33:40.
