data_PCOD9048523
_publ_section_title
;
Structure prediction by ZEFSAII (Michael W. Deem and Ramdas Pophale) SiO2 
 PCOD9048523
Probable space group: P -1
;
_chemical_formula_sum "Si O2"
_cell_formula_units_Z 16
_cell_length_a 8.223475
_cell_length_b 9.141683
_cell_length_c 10.884128
_cell_angle_alpha 118.309811
_cell_angle_beta 109.224308
_cell_angle_gamma 83.199607
_cell_volume 679.494890
_symmetry_space_group_name_H-M "P -1"
_symmetry_group_IT_number 2
_symmetry_cell_setting 'triclinic'
loop_
_space_group_symop_operation_xyz
x,y,z
-x,-y,-z
loop_
_atom_site_type_symbol
_atom_site_label
_atom_site_fract_x
_atom_site_fract_y
_atom_site_fract_z
Si Si1 0.305003 0.765441 0.831349
Si Si2 0.749123 0.997182 0.297597
Si Si3 0.104389 0.299779 0.291792
Si Si4 0.626786 0.157765 0.573994
Si Si5 0.909147 0.063174 0.784892
Si Si6 0.109786 0.368711 0.052118
Si Si7 0.439988 0.313501 0.946740
Si Si8 0.601751 0.546101 0.420652
O O1 0.330891 0.925789 0.815458
O O2 0.388635 0.611965 0.724714
O O3 0.101774 0.719407 0.762164
O O4 0.395737 0.773235 0.988436
O O5 0.719285 0.122113 0.452058
O O6 0.653790 0.816814 0.223290
O O7 0.948512 0.979619 0.301576
O O8 0.144095 0.401329 0.216991
O O9 0.207028 0.387540 0.464337
O O10 0.159154 0.107380 0.236199
O O11 0.764002 0.158885 0.716923
O O12 0.509948 0.313678 0.609459
O O13 0.500000 0.000000 0.500000
O O14 0.004240 0.190795 0.951619
O O15 0.287106 0.338769 0.016063
O O16 0.000000 0.500000 0.000000
O O17 0.500000 0.500000 0.000000
O O18 0.500000 0.500000 0.500000
#
# Coordination Sequence:
#
# PCOD9048523 Si02
#       8
#     2   2   2   2   2   2   2   2
#     4  11  24  44  70  96 133 179 221 276 334 400
#     4  10  24  46  67  96 135 178 220 271 335 400
#     4  11  24  46  67  97 135 177 224 272 336 400
#     4  12  25  42  69 100 134 173 224 277 329 399
#     4  10  24  45  69  96 133 179 220 272 336 398
#     4  11  25  42  68 100 135 173 221 278 333 396
#     4  11  25  43  67 100 135 174 223 274 332 399
#     4  12  25  44  67 101 134 176 223 277 335 395
#
# _framework density 23.546901999999999
#
# number of rings (size 3 to 8) (size 9 to 14) (size 15 to 20)
#    0.000    1.000    2.500    3.000    5.250    1.000 
#    0.000    0.000    0.000    0.000    0.000    0.000 
#    0.000    0.000    0.000    0.000    0.000    0.000 
#
# Total GULP energy -89552.589808 kJ/mol
# GULP energy per Si atom -5597.036863 kJ/mol
# Density = 2.349331 g / cm^3
# Si number density = 23.546902 Si / 1000 Ang^3
#
#
#
# Elastic Constant Matrix: (Units=GPa)
#
#
# Indices 1 2 3 4 5 6 
#
# 1 70.3619 18.6390 15.0628 -9.0406 9.0083 -14.2120
# 2 18.6390 113.3872 0.9121 -12.3423 7.2770 -4.2144
# 3 15.0628 0.9121 55.9674 -8.6954 14.1728 -2.4987
# 4 -9.0406 -12.3423 -8.6954 41.7968 -3.9879 10.0719
# 5 9.0083 7.2770 14.1728 -3.9879 39.9916 -0.0229
# 6 -14.2120 -4.2144 -2.4987 10.0719 -0.0229 37.6314
#
#
#
# Elastic Compliance Matrix: (Units=1/GPa)
#
#
# Indices 1 2 3 4 5 6 
#
# 1 0.017148 -0.002372 -0.003697 0.000648 -0.002053 0.005790
# 2 -0.002372 0.009547 0.001206 0.002528 -0.001378 -0.000424
# 3 -0.003697 0.001206 0.020991 0.003500 -0.006477 -0.000808
# 4 0.000648 0.002528 0.003500 0.027193 0.000862 -0.006517
# 5 -0.002053 -0.001378 -0.006477 0.000862 0.028099 -0.001573
# 6 0.005790 -0.000424 -0.000808 -0.006517 -0.001573 0.030403
#
#
# Mechanical properties :
#
#
# Convention : Reuss Voigt Hill
#
# Bulk Modulus (GPa) = 26.34406 34.32716 30.33561
# Shear Modulus (GPa) = 32.10074 37.55744 34.82909
#
# Velocity S-wave (km/s) = 3.69625 3.99808 3.85013
# Velocity P-wave (km/s) = 5.42481 5.99356 5.71626
#
# Compressibility (1/GPa) = 0.03795922
#
# Stress axis : x y z
#
# Youngs Moduli (GPa) = 58.31712 104.74126 47.63978
#
# Poissons Ratio (x) = 0.24840 0.17614
# Poissons Ratio (y) = 0.13830 -0.05743
# Poissons Ratio (z) = 0.21562 -0.12627
#
# Static dielectric constant tensor:
#      x y z
#    x 1.882000 0.015560 -0.016890 
#    y 0.015560 1.914290 0.001360 
#    z -0.016890 0.001360 1.800400 
# 
# From -- ./inp_files/185039.got.cif
#   From: 2010.05.17/outbox.cif.g08.bks.cpg/sg2_93_cif.got.tgz:185039.got - 2010.06.03 11:33:40.
