data_PCOD9048716
_publ_section_title
;
Structure prediction by ZEFSAII (Michael W. Deem and Ramdas Pophale) SiO2 
 PCOD9048716
Probable space group: P -1
;
_chemical_formula_sum "Si O2"
_cell_formula_units_Z 16
_cell_length_a 14.223247
_cell_length_b 8.867948
_cell_length_c 19.104536
_cell_angle_alpha 122.984121
_cell_angle_beta 21.155110
_cell_angle_gamma 124.814687
_cell_volume 713.392768
_symmetry_space_group_name_H-M "P -1"
_symmetry_group_IT_number 2
_symmetry_cell_setting 'triclinic'
loop_
_space_group_symop_operation_xyz
x,y,z
-x,-y,-z
loop_
_atom_site_type_symbol
_atom_site_label
_atom_site_fract_x
_atom_site_fract_y
_atom_site_fract_z
Si Si1 0.671739 0.505387 0.952230
Si Si2 0.422214 0.491255 0.819539
Si Si3 0.217629 0.849212 0.039774
Si Si4 0.542447 0.920157 0.339110
Si Si5 0.925066 0.109168 0.228143
Si Si6 0.044432 0.329564 0.468912
Si Si7 0.105401 0.020669 0.579835
Si Si8 0.769813 0.141418 0.737433
O O1 0.744515 0.307656 0.847565
O O2 0.900105 0.687946 0.835405
O O3 0.500000 0.500000 0.000000
O O4 0.562538 0.514579 0.108215
O O5 0.381379 0.279426 0.771449
O O6 0.721051 0.597028 0.620932
O O7 0.240037 0.636101 0.961102
O O8 0.093367 0.954254 0.090834
O O9 0.019681 0.869799 0.246633
O O10 0.513522 0.974918 0.879609
O O11 0.309461 0.902113 0.554771
O O12 0.397983 0.993005 0.391288
O O13 0.791008 0.064374 0.234200
O O14 0.079548 0.183752 0.348273
O O15 0.801161 0.228159 0.660230
O O16 0.000000 0.500000 0.500000
O O17 0.040988 0.090175 0.565494
#
# Coordination Sequence:
#
# PCOD9048716 Si02
#       8
#     2   2   2   2   2   2   2   2
#     4  12  24  39  68  99 132 168 220 273 335 390
#     4  12  24  41  65 100 133 169 218 279 327 388
#     4  11  23  40  66  97 136 168 216 278 330 386
#     4  10  24  45  71  91 134 181 221 265 320 403
#     4  10  24  47  69  93 129 183 223 260 332 397
#     4  12  24  37  62  98 138 168 222 271 328 394
#     4  11  22  41  63  94 135 174 212 272 325 392
#     4  12  23  39  63 102 132 174 213 277 336 386
#
# _framework density 22.428038999999998
#
# number of rings (size 3 to 8) (size 9 to 14) (size 15 to 20)
#    0.000    0.750    5.000    3.000    3.500    1.000 
#    0.000    0.625    2.750    0.000    0.000    0.000 
#    0.000    0.000    0.000    0.000    0.000    0.000 
#
# Total GULP energy -89264.672858 kJ/mol
# GULP energy per Si atom -5579.042054 kJ/mol
# Density = 2.237699 g / cm^3
# Si number density = 22.428039 Si / 1000 Ang^3
#
#
#
# Elastic Constant Matrix: (Units=GPa)
#
#
# Indices 1 2 3 4 5 6 
#
# 1 103.7295 39.0098 23.6088 -1.9046 -25.0108 0.5110
# 2 39.0098 109.7018 41.4710 23.6594 -20.0140 6.4687
# 3 23.6088 41.4710 54.4260 15.9632 -7.5632 3.1609
# 4 -1.9046 23.6594 15.9632 43.6057 0.1127 -2.5098
# 5 -25.0108 -20.0140 -7.5632 0.1127 33.4677 -1.2849
# 6 0.5110 6.4687 3.1609 -2.5098 -1.2849 44.4666
#
#
#
# Elastic Compliance Matrix: (Units=1/GPa)
#
#
# Indices 1 2 3 4 5 6 
#
# 1 0.013417 -0.002800 -0.003720 0.003501 0.007535 0.000933
# 2 -0.002800 0.015449 -0.008055 -0.005674 0.005276 -0.001810
# 3 -0.003720 -0.008055 0.027770 -0.006020 -0.001345 -0.001138
# 4 0.003501 -0.005674 -0.006020 0.028532 -0.002127 0.002762
# 5 0.007535 0.005276 -0.001345 -0.002127 0.038378 0.000230
# 6 0.000933 -0.001810 -0.001138 0.002762 0.000230 0.022985
#
#
# Mechanical properties :
#
#
# Convention : Reuss Voigt Hill
#
# Bulk Modulus (GPa) = 36.38299 52.89294 44.63796
# Shear Modulus (GPa) = 27.04991 35.22584 31.13787
#
# Velocity S-wave (km/s) = 3.47663 3.96740 3.73009
# Velocity P-wave (km/s) = 5.68975 6.67994 6.20463
#
# Compressibility (1/GPa) = 0.02748537
#
# Stress axis : x y z
#
# Youngs Moduli (GPa) = 74.53346 64.72822 36.01020
#
# Poissons Ratio (x) = 0.18123 0.13397
# Poissons Ratio (y) = 0.20869 0.29006
# Poissons Ratio (z) = 0.27730 0.52138
#
# Static dielectric constant tensor:
#      x y z
#    x 1.855360 0.004940 0.014920 
#    y 0.004940 1.906580 0.098830 
#    z 0.014920 0.098830 2.018880 
# 
# From -- ./inp_files/597409.got.cif
#   From: 2010.05.17/outbox.cif.g08.bks.cpg/sg2_299_cif.got.tgz:597409.got - 2010.06.03 11:33:40.
