data_PCOD9048303
_publ_section_title
;
Structure prediction by ZEFSAII (Michael W. Deem and Ramdas Pophale) SiO2 
 PCOD9048303
Probable space group: P -1
;
_chemical_formula_sum "Si O2"
_cell_formula_units_Z 12
_cell_length_a 9.199616
_cell_length_b 15.096301
_cell_length_c 14.795720
_cell_angle_alpha 150.636121
_cell_angle_beta 129.956668
_cell_angle_gamma 38.083468
_cell_volume 614.949033
_symmetry_space_group_name_H-M "P -1"
_symmetry_group_IT_number 2
_symmetry_cell_setting 'triclinic'
loop_
_space_group_symop_operation_xyz
x,y,z
-x,-y,-z
loop_
_atom_site_type_symbol
_atom_site_label
_atom_site_fract_x
_atom_site_fract_y
_atom_site_fract_z
Si Si1 0.776546 0.279711 0.402721
Si Si2 0.276392 0.300218 0.915903
Si Si3 0.654995 0.342988 0.709562
Si Si4 0.775176 0.525348 0.469727
Si Si5 0.435904 0.955546 0.837945
Si Si6 0.906585 0.861228 0.439239
O O1 0.500000 0.500000 0.500000
O O2 0.835850 0.300726 0.343229
O O3 0.766801 0.077707 0.251452
O O4 0.966187 0.269054 0.533515
O O5 0.269053 0.177144 0.715435
O O6 0.363356 0.142556 0.899251
O O7 0.393057 0.429918 0.069275
O O8 0.000000 0.500000 0.000000
O O9 0.424338 0.398483 0.616954
O O10 0.864377 0.241490 0.626924
O O11 0.762843 0.131074 0.630681
O O12 0.654507 0.722148 0.672500
O O13 0.000000 0.500000 0.500000
O O14 0.500000 0.000000 0.000000
#
# Coordination Sequence:
#
# PCOD9048303 Si02
#       6
#     2   2   2   2   2   2
#     4  10  19  35  57  84 116 154 201 248 288 347
#     4  10  20  30  59  95 116 146 194 261 304 332
#     4  10  18  35  57  87 120 154 198 245 302 350
#     4  11  23  40  59  84 128 166 191 242 313 362
#     4  11  21  36  60  92 118 148 212 252 282 353
#     4  10  17  34  58  86 119 149 203 254 295 345
#
# _framework density 19.513812000000001
#
# number of rings (size 3 to 8) (size 9 to 14) (size 15 to 20)
#    0.000    1.667    5.000    3.000    7.000    0.000 
#    0.000    4.167    0.000    1.000    0.000    0.000 
#    0.000    0.000    0.000    0.000    0.000    0.000 
#
# Total GULP energy -66857.580392 kJ/mol
# GULP energy per Si atom -5571.465033 kJ/mol
# Density = 1.946940 g / cm^3
# Si number density = 19.513812 Si / 1000 Ang^3
#
#
#
# Elastic Constant Matrix: (Units=GPa)
#
#
# Indices 1 2 3 4 5 6 
#
# 1 71.1570 27.9211 30.9323 -4.0369 16.5268 -9.6915
# 2 27.9211 141.4982 59.0745 -20.8547 13.3195 16.7553
# 3 30.9323 59.0745 97.7332 -11.7536 27.6847 -3.3370
# 4 -4.0369 -20.8547 -11.7536 34.6582 1.7261 11.7865
# 5 16.5268 13.3195 27.6847 1.7261 17.7753 -1.7817
# 6 -9.6915 16.7553 -3.3370 11.7865 -1.7817 20.0985
#
#
#
# Elastic Compliance Matrix: (Units=1/GPa)
#
#
# Indices 1 2 3 4 5 6 
#
# 1 0.021692 -0.006576 0.000946 -0.006811 -0.014165 0.018838
# 2 -0.006576 0.017342 -0.007356 0.016965 0.000043 -0.028795
# 3 0.000946 -0.007356 0.024432 0.003755 -0.033234 0.005497
# 4 -0.006811 0.016965 0.003755 0.058857 -0.023295 -0.053384
# 5 -0.014165 0.000043 -0.033234 -0.023295 0.124655 0.012327
# 6 0.018838 -0.028795 0.005497 -0.053384 0.012327 0.116155
#
#
# Mechanical properties :
#
#
# Convention : Reuss Voigt Hill
#
# Bulk Modulus (GPa) = 26.67119 60.69379 43.68249
# Shear Modulus (GPa) = 12.45010 27.33710 19.89360
#
# Velocity S-wave (km/s) = 2.52864 3.74693 3.19637
# Velocity P-wave (km/s) = 4.71411 7.06328 6.00469
#
# Compressibility (1/GPa) = 0.03749363
#
# Stress axis : x y z
#
# Youngs Moduli (GPa) = 46.10043 57.66348 40.92940
#
# Poissons Ratio (x) = 0.37922 -0.03873
# Poissons Ratio (y) = 0.30318 0.30108
# Poissons Ratio (z) = -0.04362 0.42417
#
# Static dielectric constant tensor:
#      x y z
#    x 1.692450 0.021750 0.043380 
#    y 0.021750 1.696560 -0.003600 
#    z 0.043380 -0.003600 1.780940 
# 
# From -- ./inp_files/149535.got.cif
#   From: 2010.05.17/outbox.cif.g08.bks.cpg/sg2_75_cif.got.tgz:149535.got - 2010.06.03 11:33:40.
