data_PCOD9048476
_publ_section_title
;
Structure prediction by ZEFSAII (Michael W. Deem and Ramdas Pophale) SiO2 
 PCOD9048476
Probable space group: P -1
;
_chemical_formula_sum "Si O2"
_cell_formula_units_Z 16
_cell_length_a 14.187422
_cell_length_b 11.601842
_cell_length_c 15.132359
_cell_angle_alpha 118.110376
_cell_angle_beta 28.502509
_cell_angle_gamma 137.118649
_cell_volume 684.823655
_symmetry_space_group_name_H-M "P -1"
_symmetry_group_IT_number 2
_symmetry_cell_setting 'triclinic'
loop_
_space_group_symop_operation_xyz
x,y,z
-x,-y,-z
loop_
_atom_site_type_symbol
_atom_site_label
_atom_site_fract_x
_atom_site_fract_y
_atom_site_fract_z
Si Si1 0.175722 0.404279 0.959411
Si Si2 0.798007 0.870305 0.205588
Si Si3 0.496320 0.681791 0.634559
Si Si4 0.199155 0.671526 0.471778
Si Si5 0.777077 0.369692 0.852405
Si Si6 0.701260 0.945382 0.014436
Si Si7 0.542350 0.935055 0.564121
Si Si8 0.025376 0.298246 0.763331
O O1 0.270920 0.521513 0.013655
O O2 0.813646 0.204276 0.189538
O O3 0.316988 0.334208 0.793026
O O4 0.282967 0.558232 0.850672
O O5 0.581998 0.879066 0.417465
O O6 0.000000 0.000000 0.000000
O O7 0.987171 0.958036 0.172882
O O8 0.575607 0.863213 0.598912
O O9 0.292626 0.520176 0.664163
O O10 0.794085 0.742671 0.428972
O O11 0.512516 0.831520 0.218433
O O12 0.000000 0.500000 0.500000
O O13 0.082813 0.535581 0.603171
O O14 0.202143 0.824979 0.552878
O O15 0.498008 0.210191 0.957742
O O16 0.841066 0.282866 0.835371
O O17 0.799956 0.137359 0.968068
#
# Coordination Sequence:
#
# PCOD9048476 Si02
#       8
#     2   2   2   2   2   2   2   2
#     4  12  25  43  71 109 145 184 246 294 364 420
#     4  12  26  43  75 107 140 188 243 299 352 429
#     4  11  22  40  70 108 136 184 246 303 349 420
#     4  10  24  45  69 102 139 189 238 288 369 430
#     4  11  26  42  70 105 146 197 236 294 360 436
#     4  11  23  47  69 102 148 186 241 289 362 429
#     4  12  23  45  75 101 146 182 242 304 359 420
#     4  11  21  44  71 104 145 187 241 298 355 424
#
# _framework density 23.363676999999999
#
# number of rings (size 3 to 8) (size 9 to 14) (size 15 to 20)
#    0.000    0.750    5.000    2.250    3.500    1.000 
#    0.000    8.750    0.000    0.000    0.000    0.000 
#    0.000    0.000    0.000    0.000    0.000    0.000 
#
# Total GULP energy -89253.774434 kJ/mol
# GULP energy per Si atom -5578.360902 kJ/mol
# Density = 2.331050 g / cm^3
# Si number density = 23.363677 Si / 1000 Ang^3
#
#
#
# Elastic Constant Matrix: (Units=GPa)
#
#
# Indices 1 2 3 4 5 6 
#
# 1 114.0362 50.4308 21.0999 -4.8994 5.3052 13.1892
# 2 50.4308 103.8517 33.7510 -1.0560 -12.1842 7.4942
# 3 21.0999 33.7510 93.1551 8.1925 24.5477 -1.6282
# 4 -4.8994 -1.0560 8.1925 40.5604 -6.6283 14.3714
# 5 5.3052 -12.1842 24.5477 -6.6283 36.9119 -12.0706
# 6 13.1892 7.4942 -1.6282 14.3714 -12.0706 41.8666
#
#
#
# Elastic Compliance Matrix: (Units=1/GPa)
#
#
# Indices 1 2 3 4 5 6 
#
# 1 0.012499 -0.006649 0.000858 0.002010 -0.005867 -0.005096
# 2 -0.006649 0.017047 -0.008375 0.002953 0.013174 0.001502
# 3 0.000858 -0.008375 0.018472 -0.006315 -0.016518 -0.000647
# 4 0.002010 0.002953 -0.006315 0.030954 0.007187 -0.009961
# 5 -0.005867 0.013174 -0.016518 0.007187 0.047891 0.010188
# 6 -0.005096 0.001502 -0.000647 -0.009961 0.010188 0.031553
#
#
# Mechanical properties :
#
#
# Convention : Reuss Voigt Hill
#
# Bulk Modulus (GPa) = 50.79771 57.95629 54.37700
# Shear Modulus (GPa) = 25.86525 37.58520 31.72523
#
# Velocity S-wave (km/s) = 3.33088 4.01521 3.68895
# Velocity P-wave (km/s) = 6.04834 6.80852 6.43965
#
# Compressibility (1/GPa) = 0.01968593
#
# Stress axis : x y z
#
# Youngs Moduli (GPa) = 80.00388 58.66149 54.13685
#
# Poissons Ratio (x) = 0.39003 -0.04645
# Poissons Ratio (y) = 0.53193 0.45341
# Poissons Ratio (z) = -0.06864 0.49131
#
# Static dielectric constant tensor:
#      x y z
#    x 1.955160 -0.019400 -0.020930 
#    y -0.019400 1.976130 0.067510 
#    z -0.020930 0.067510 1.979670 
# 
# From -- ./inp_files/532583.got.cif
#   From: 2010.05.17/outbox.cif.g08.bks.cpg/sg2_267_cif.got.tgz:532583.got - 2010.06.03 11:33:40.
