data_PCOD9048412
_publ_section_title
;
Structure prediction by ZEFSAII (Michael W. Deem and Ramdas Pophale) SiO2 
 PCOD9048412
Probable space group: P -1
;
_chemical_formula_sum "Si O2"
_cell_formula_units_Z 16
_cell_length_a 16.521532
_cell_length_b 5.271850
_cell_length_c 8.670194
_cell_angle_alpha 94.026765
_cell_angle_beta 121.752869
_cell_angle_gamma 76.225593
_cell_volume 622.280898
_symmetry_space_group_name_H-M "P -1"
_symmetry_group_IT_number 2
_symmetry_cell_setting 'triclinic'
loop_
_space_group_symop_operation_xyz
x,y,z
-x,-y,-z
loop_
_atom_site_type_symbol
_atom_site_label
_atom_site_fract_x
_atom_site_fract_y
_atom_site_fract_z
Si Si1 0.019623 0.154281 0.180421
Si Si2 0.395012 0.319204 0.265338
Si Si3 0.266291 0.019115 0.995907
Si Si4 0.517571 0.232912 0.919538
Si Si5 0.895957 0.176969 0.340382
Si Si6 0.864243 0.408796 0.629992
Si Si7 0.273824 0.775066 0.314013
Si Si8 0.405839 0.022395 0.576341
O O1 0.071645 0.395861 0.236130
O O2 0.928414 0.261428 0.208103
O O3 0.091420 0.902981 0.318487
O O4 0.000000 0.000000 0.000000
O O5 0.373048 0.596340 0.334163
O O6 0.502726 0.219173 0.302280
O O7 0.302911 0.288621 0.066889
O O8 0.399607 0.107773 0.396346
O O9 0.372141 0.837624 0.041384
O O10 0.229730 0.940034 0.125258
O O11 0.184702 0.986722 0.789800
O O12 0.433164 0.251783 0.708271
O O13 0.500000 0.500000 0.000000
O O14 0.500000 0.000000 0.000000
O O15 0.855855 0.408708 0.434778
O O16 0.000000 0.000000 0.500000
O O17 0.776732 0.433522 0.665499
O O18 0.303358 0.946130 0.488942
#
# Coordination Sequence:
#
# PCOD9048412 Si02
#       8
#     2   2   2   2   2   2   2   2
#     4  11  24  47  73 100 138 181 238 295 363 427
#     4   9  20  39  66  98 135 183 238 294 350 419
#     4  10  24  45  68 107 137 196 243 297 361 437
#     4  11  27  45  68 106 152 195 239 296 364 438
#     4  10  24  49  73 100 149 188 242 303 375 432
#     4  11  26  43  69 107 136 182 230 299 366 429
#     4  11  23  39  72 101 142 180 247 296 358 431
#     4   9  21  39  65  94 141 186 238 285 358 419
#
# _framework density 25.711863000000001
#
# number of rings (size 3 to 8) (size 9 to 14) (size 15 to 20)
#    0.000    1.750    0.000    2.625   12.250    0.000 
#    6.750    0.000    0.000    0.000    0.000    0.000 
#    0.000    0.000    0.000    0.000    0.000    0.000 
#
# Total GULP energy -89199.839563 kJ/mol
# GULP energy per Si atom -5574.989973 kJ/mol
# Density = 2.565334 g / cm^3
# Si number density = 25.711863 Si / 1000 Ang^3
#
#
#
# Elastic Constant Matrix: (Units=GPa)
#
#
# Indices 1 2 3 4 5 6 
#
# 1 111.8522 38.6892 65.0254 15.9666 -12.8477 24.9395
# 2 38.6892 109.7066 38.1514 34.2688 4.9684 21.8961
# 3 65.0254 38.1514 156.1135 53.2822 13.2540 21.9804
# 4 15.9666 34.2688 53.2822 46.4446 3.7689 5.9445
# 5 -12.8477 4.9684 13.2540 3.7689 40.1302 12.6315
# 6 24.9395 21.8961 21.9804 5.9445 12.6315 45.8410
#
#
#
# Elastic Compliance Matrix: (Units=1/GPa)
#
#
# Indices 1 2 3 4 5 6 
#
# 1 0.016980 -0.004358 -0.008262 0.006911 0.010230 -0.006910
# 2 -0.004358 0.014116 0.003098 -0.011833 -0.001855 -0.003811
# 3 -0.008262 0.003098 0.015299 -0.016422 -0.006405 -0.000426
# 4 0.006911 -0.011833 -0.016422 0.046061 0.003921 0.002713
# 5 0.010230 -0.001855 -0.006405 0.003921 0.033766 -0.011421
# 6 -0.006910 -0.003811 -0.000426 0.002713 -0.011421 0.030394
#
#
# Mechanical properties :
#
#
# Convention : Reuss Voigt Hill
#
# Bulk Modulus (GPa) = 36.56113 73.48936 55.02525
# Shear Modulus (GPa) = 27.05988 42.20358 34.63173
#
# Velocity S-wave (km/s) = 3.24763 4.05582 3.67402
# Velocity P-wave (km/s) = 5.32102 7.11174 6.28053
#
# Compressibility (1/GPa) = 0.02735145
#
# Stress axis : x y z
#
# Youngs Moduli (GPa) = 58.89207 70.84360 65.36573
#
# Poissons Ratio (x) = 0.30873 0.54005
# Poissons Ratio (y) = 0.25664 -0.20253
# Poissons Ratio (z) = 0.48656 -0.21950
#
# Static dielectric constant tensor:
#      x y z
#    x 2.357730 0.028220 -0.171100 
#    y 0.028220 2.047850 -0.089970 
#    z -0.171100 -0.089970 2.282290 
# 
# From -- ./inp_files/323735.got.cif
#   From: 2010.05.17/outbox.cif.g08.bks.cpg/sg2_162_cif.got.tgz:323735.got - 2010.06.03 11:33:40.
