data_PCOD9048998
_publ_section_title
;
Structure prediction by ZEFSAII (Michael W. Deem and Ramdas Pophale) SiO2 
 PCOD9048998
Probable space group: P -1
;
_chemical_formula_sum "Si O2"
_cell_formula_units_Z 16
_cell_length_a 16.448532
_cell_length_b 8.942458
_cell_length_c 8.028560
_cell_angle_alpha 58.614880
_cell_angle_beta 47.942367
_cell_angle_gamma 87.874531
_cell_volume 651.700081
_symmetry_space_group_name_H-M "P -1"
_symmetry_group_IT_number 2
_symmetry_cell_setting 'triclinic'
loop_
_space_group_symop_operation_xyz
x,y,z
-x,-y,-z
loop_
_atom_site_type_symbol
_atom_site_label
_atom_site_fract_x
_atom_site_fract_y
_atom_site_fract_z
Si Si1 0.617116 0.484399 0.269847
Si Si2 0.048711 0.735034 0.293054
Si Si3 0.083544 0.773751 0.592600
Si Si4 0.704195 0.650689 0.513092
Si Si5 0.428472 0.755382 0.877113
Si Si6 0.172402 0.172103 0.426035
Si Si7 0.687243 0.011085 0.259937
Si Si8 0.188703 0.528287 0.753945
O O1 0.500000 0.500000 0.500000
O O2 0.584645 0.353459 0.220919
O O3 0.685001 0.408038 0.352495
O O4 0.733958 0.697003 0.926282
O O5 0.104596 0.836786 0.336050
O O6 0.000000 0.500000 0.500000
O O7 0.929675 0.763889 0.415429
O O8 0.172826 0.843985 0.946890
O O9 0.177454 0.699935 0.572209
O O10 0.098488 0.948041 0.591945
O O11 0.940296 0.589393 0.898147
O O12 0.741442 0.772848 0.562421
O O13 0.813334 0.628210 0.288457
O O14 0.676934 0.796811 0.350134
O O15 0.607318 0.419850 0.835105
O O16 0.343005 0.861103 0.908981
O O17 0.570650 0.934607 0.592223
#
# Coordination Sequence:
#
# PCOD9048998 Si02
#       8
#     2   2   2   2   2   2   2   2
#     4  11  24  43  69  94 138 183 226 282 350 406
#     4  12  24  43  72 104 141 182 228 293 350 415
#     4  11  25  41  69 100 143 175 230 291 342 414
#     4  11  24  45  69 102 140 181 231 288 345 414
#     4  10  24  46  65 104 138 180 236 286 339 419
#     4  11  25  43  66 101 138 173 232 283 343 412
#     4  11  24  40  77  96 136 187 232 279 352 414
#     4  11  24  43  68 100 138 184 226 287 351 404
#
# _framework density 24.551171
#
# number of rings (size 3 to 8) (size 9 to 14) (size 15 to 20)
#    0.000    1.000    1.250    5.250    5.250    4.000 
#    0.000    0.625    0.000    0.000    0.000    0.000 
#    0.000    0.000    0.000    0.000    0.000    0.000 
#
# Total GULP energy -89408.705482 kJ/mol
# GULP energy per Si atom -5588.044093 kJ/mol
# Density = 2.449529 g / cm^3
# Si number density = 24.551171 Si / 1000 Ang^3
#
#
#
# Elastic Constant Matrix: (Units=GPa)
#
#
# Indices 1 2 3 4 5 6 
#
# 1 89.0337 30.1444 37.1963 7.5806 -10.6522 -16.5803
# 2 30.1444 107.2240 17.8728 -8.2454 2.4804 -26.5847
# 3 37.1963 17.8728 135.1695 -13.6400 -18.4840 -17.9429
# 4 7.5806 -8.2454 -13.6400 42.4456 -4.2312 1.9270
# 5 -10.6522 2.4804 -18.4840 -4.2312 34.8377 10.6503
# 6 -16.5803 -26.5847 -17.9429 1.9270 10.6503 52.0613
#
#
#
# Elastic Compliance Matrix: (Units=1/GPa)
#
#
# Indices 1 2 3 4 5 6 
#
# 1 0.014815 -0.003596 -0.003593 -0.004372 0.001917 0.001413
# 2 -0.003596 0.011990 -0.000087 0.002351 -0.003413 0.005558
# 3 -0.003593 -0.000087 0.009514 0.004042 0.004110 0.001100
# 4 -0.004372 0.002351 0.004042 0.026527 0.004048 -0.000609
# 5 0.001917 -0.003413 0.004110 0.004048 0.034311 -0.006885
# 6 0.001413 0.005558 0.001100 -0.000609 -0.006885 0.024307
#
#
# Mechanical properties :
#
#
# Convention : Reuss Voigt Hill
#
# Bulk Modulus (GPa) = 45.94328 55.76156 50.85242
# Shear Modulus (GPa) = 34.89861 42.28317 38.59089
#
# Velocity S-wave (km/s) = 3.77432 4.15450 3.96896
# Velocity P-wave (km/s) = 6.14393 6.76571 6.46230
#
# Compressibility (1/GPa) = 0.02176597
#
# Stress axis : x y z
#
# Youngs Moduli (GPa) = 67.49878 83.40477 105.10488
#
# Poissons Ratio (x) = 0.29995 0.37762
# Poissons Ratio (y) = 0.24275 0.00919
# Poissons Ratio (z) = 0.24251 0.00729
#
# Static dielectric constant tensor:
#      x y z
#    x 1.980880 -0.018060 0.010830 
#    y -0.018060 1.914350 -0.043770 
#    z 0.010830 -0.043770 2.007630 
# 
# From -- ./inp_files/188211.got.cif
#   From: 2010.05.17/outbox.cif.g08.bks.cpg/sg2_95_cif.got.tgz:188211.got - 2010.06.03 11:33:40.
