data_PCOD9048768
_publ_section_title
;
Structure prediction by ZEFSAII (Michael W. Deem and Ramdas Pophale) SiO2 
 PCOD9048768
Probable space group: P -1
;
_chemical_formula_sum "Si O2"
_cell_formula_units_Z 14
_cell_length_a 6.568856
_cell_length_b 10.591121
_cell_length_c 20.273009
_cell_angle_alpha 35.665109
_cell_angle_beta 123.539199
_cell_angle_gamma 137.196439
_cell_volume 555.382189
_symmetry_space_group_name_H-M "P -1"
_symmetry_group_IT_number 2
_symmetry_cell_setting 'triclinic'
loop_
_space_group_symop_operation_xyz
x,y,z
-x,-y,-z
loop_
_atom_site_type_symbol
_atom_site_label
_atom_site_fract_x
_atom_site_fract_y
_atom_site_fract_z
Si Si1 0.751235 0.488692 0.230650
Si Si2 0.587120 0.763764 0.946694
Si Si3 0.247883 0.989764 0.999733
Si Si4 0.466450 0.682798 0.465818
Si Si5 0.155755 0.219756 0.179721
Si Si6 0.868460 0.629971 0.340574
Si Si7 0.192210 0.760849 0.768846
O O1 0.714332 0.728940 0.115469
O O2 0.419704 0.229752 0.262327
O O3 0.831399 0.514337 0.309832
O O4 0.935505 0.466758 0.213870
O O5 0.681193 0.524930 0.949229
O O6 0.663067 0.994710 0.913719
O O7 0.907016 0.800552 0.990457
O O8 0.065795 0.076481 0.765254
O O9 0.500000 0.000000 0.000000
O O10 0.500000 0.500000 0.500000
O O11 0.416254 0.573570 0.577548
O O12 0.163676 0.659769 0.406227
O O13 0.731736 0.983905 0.366331
O O14 0.518208 0.190748 0.160668
O O15 0.005348 0.281180 0.185208
#
# Coordination Sequence:
#
# PCOD9048768 Si02
#       7
#     2   2   2   2   2   2   2
#     4  11  27  47  71 110 149 193 252 312 368 454
#     4  10  25  46  74 106 153 198 248 303 374 452
#     4  10  24  45  72 108 150 200 251 303 374 448
#     4  11  24  47  80 106 142 199 251 315 380 439
#     4  11  25  47  75 111 150 200 246 308 377 447
#     4  11  25  50  77 105 150 190 257 316 373 442
#     4  12  25  48  74 110 154 197 251 307 379 448
#
# _framework density 25.207865000000002
#
# number of rings (size 3 to 8) (size 9 to 14) (size 15 to 20)
#    0.000    1.143    2.857    1.286    2.000   10.857 
#    5.143    2.143    0.000    0.000    0.000    0.000 
#    0.000    0.000    0.000    0.000    0.000    0.000 
#
# Total GULP energy -78155.141134 kJ/mol
# GULP energy per Si atom -5582.510081 kJ/mol
# Density = 2.515049 g / cm^3
# Si number density = 25.207865 Si / 1000 Ang^3
#
#
#
# Elastic Constant Matrix: (Units=GPa)
#
#
# Indices 1 2 3 4 5 6 
#
# 1 123.6011 50.8143 30.7489 0.4170 -25.3782 -36.2001
# 2 50.8143 224.3271 76.7810 10.1140 -20.0236 -30.9818
# 3 30.7489 76.7810 126.5302 -6.1773 -31.0955 -3.6573
# 4 0.4170 10.1140 -6.1773 46.1673 -8.9259 -1.4068
# 5 -25.3782 -20.0236 -31.0955 -8.9259 27.6441 -0.4515
# 6 -36.2001 -30.9818 -3.6573 -1.4068 -0.4515 45.5781
#
#
#
# Elastic Compliance Matrix: (Units=1/GPa)
#
#
# Indices 1 2 3 4 5 6 
#
# 1 0.014699 -0.001002 0.001406 0.003660 0.015718 0.011375
# 2 -0.001002 0.006483 -0.004049 -0.002129 -0.001414 0.003207
# 3 0.001406 -0.004049 0.014338 0.005961 0.016409 -0.000139
# 4 0.003660 -0.002129 0.005961 0.026278 0.017056 0.002919
# 5 0.015718 -0.001414 0.016409 0.017056 0.073775 0.014097
# 6 0.011375 0.003207 -0.000139 0.002919 0.014097 0.033373
#
#
# Mechanical properties :
#
#
# Convention : Reuss Voigt Hill
#
# Bulk Modulus (GPa) = 35.42280 87.90521 61.66400
# Shear Modulus (GPa) = 26.93280 44.95216 35.94248
#
# Velocity S-wave (km/s) = 3.27223 4.22745 3.78013
# Velocity P-wave (km/s) = 5.32536 7.66657 6.60059
#
# Compressibility (1/GPa) = 0.02823041
#
# Stress axis : x y z
#
# Youngs Moduli (GPa) = 68.03156 154.23990 69.74303
#
# Poissons Ratio (x) = 0.15453 -0.09807
# Poissons Ratio (y) = 0.06816 0.28242
# Poissons Ratio (z) = -0.09566 0.62458
#
# Static dielectric constant tensor:
#      x y z
#    x 2.127650 -0.002280 -0.073500 
#    y -0.002280 2.140380 -0.006950 
#    z -0.073500 -0.006950 2.116240 
# 
# From -- ./inp_files/546897.got.cif
#   From: 2010.05.17/outbox.cif.g08.bks.cpg/sg2_274_cif.got.tgz:546897.got - 2010.06.03 11:33:40.
