data_PCOD9048786
_publ_section_title
;
Structure prediction by ZEFSAII (Michael W. Deem and Ramdas Pophale) SiO2 
 PCOD9048786
Probable space group: P -1
;
_chemical_formula_sum "Si O2"
_cell_formula_units_Z 16
_cell_length_a 10.893852
_cell_length_b 14.811064
_cell_length_c 6.649262
_cell_angle_alpha 64.127959
_cell_angle_beta 91.865405
_cell_angle_gamma 127.600273
_cell_volume 722.550149
_symmetry_space_group_name_H-M "P -1"
_symmetry_group_IT_number 2
_symmetry_cell_setting 'triclinic'
loop_
_space_group_symop_operation_xyz
x,y,z
-x,-y,-z
loop_
_atom_site_type_symbol
_atom_site_label
_atom_site_fract_x
_atom_site_fract_y
_atom_site_fract_z
Si Si1 0.480441 0.882383 0.508067
Si Si2 0.154097 0.788518 0.448104
Si Si3 0.785699 0.787297 0.618683
Si Si4 0.037163 0.615862 0.247366
Si Si5 0.855198 0.991118 0.756516
Si Si6 0.369504 0.170765 0.739087
Si Si7 0.359361 0.686132 0.044238
Si Si8 0.841009 0.591900 0.901487
O O1 0.305912 0.796153 0.469245
O O2 0.611133 0.916879 0.316795
O O3 0.500000 0.000000 0.500000
O O4 0.462107 0.790823 0.769258
O O5 0.076182 0.731080 0.280662
O O6 0.013191 0.686686 0.698100
O O7 0.213699 0.933686 0.348035
O O8 0.797994 0.876154 0.708403
O O9 0.645858 0.744028 0.496385
O O10 0.780397 0.673828 0.823055
O O11 0.953639 0.888345 0.399917
O O12 0.203430 0.674065 0.086166
O O13 0.000000 0.500000 0.500000
O O14 0.890083 0.565232 0.139173
O O15 0.790471 0.924618 0.036111
O O16 0.525064 0.261344 0.806953
O O17 0.285737 0.542343 0.101622
#
# Coordination Sequence:
#
# PCOD9048786 Si02
#       8
#     2   2   2   2   2   2   2   2
#     4  12  26  42  65 100 145 180 216 274 350 404
#     4  11  22  41  68 104 130 178 226 274 342 401
#     4  10  24  48  70  98 134 181 228 282 334 397
#     4  12  23  41  69 102 134 173 227 279 337 404
#     4  10  24  45  72  99 134 180 230 284 329 396
#     4  12  25  43  67 100 138 179 227 273 338 405
#     4  12  25  42  66 101 140 176 218 286 339 400
#     4  11  25  44  72  97 135 179 228 278 337 394
#
# _framework density 22.143792000000001
#
# number of rings (size 3 to 8) (size 9 to 14) (size 15 to 20)
#    0.000    0.750    3.750    3.750    1.750    6.500 
#    0.000    2.500    0.000    0.000    0.000    0.000 
#    0.000    0.000    0.000    0.000    0.000    0.000 
#
# Total GULP energy -89479.589772 kJ/mol
# GULP energy per Si atom -5592.474361 kJ/mol
# Density = 2.209339 g / cm^3
# Si number density = 22.143792 Si / 1000 Ang^3
#
#
#
# Elastic Constant Matrix: (Units=GPa)
#
#
# Indices 1 2 3 4 5 6 
#
# 1 98.2198 30.5091 43.8610 16.1055 18.2823 -22.1288
# 2 30.5091 91.7463 39.0558 11.6775 16.5955 -31.2646
# 3 43.8610 39.0558 104.6580 9.8226 9.9732 -16.5459
# 4 16.1055 11.6775 9.8226 33.7960 3.2881 4.6005
# 5 18.2823 16.5955 9.9732 3.2881 45.4436 5.9971
# 6 -22.1288 -31.2646 -16.5459 4.6005 5.9971 24.0057
#
#
#
# Elastic Compliance Matrix: (Units=1/GPa)
#
#
# Indices 1 2 3 4 5 6 
#
# 1 0.028433 0.021283 -0.005538 -0.025241 -0.024219 0.060999
# 2 0.021283 0.050354 -0.005573 -0.035649 -0.035972 0.097175
# 3 -0.005538 -0.005573 0.013027 0.001152 0.001858 -0.004069
# 4 -0.025241 -0.035649 0.001152 0.062715 0.030053 -0.088429
# 5 -0.024219 -0.035972 0.001858 0.030053 0.053797 -0.087093
# 6 0.060999 0.097175 -0.004069 -0.088429 -0.087093 0.260346
#
#
# Mechanical properties :
#
#
# Convention : Reuss Voigt Hill
#
# Bulk Modulus (GPa) = 8.91605 57.94177 33.42891
# Shear Modulus (GPa) = 10.29412 32.72894 21.51153
#
# Velocity S-wave (km/s) = 2.15844 3.84867 3.12019
# Velocity P-wave (km/s) = 3.20109 6.78031 5.30187
#
# Compressibility (1/GPa) = 0.11215733
#
# Stress axis : x y z
#
# Youngs Moduli (GPa) = 35.16997 19.85944 76.76313
#
# Poissons Ratio (x) = -0.42266 0.42509
# Poissons Ratio (y) = -0.74851 0.42784
# Poissons Ratio (z) = 0.19476 0.11069
#
# Static dielectric constant tensor:
#      x y z
#    x 1.835530 0.023310 -0.001460 
#    y 0.023310 1.813320 0.016930 
#    z -0.001460 0.016930 1.818670 
# 
# From -- ./inp_files/77167.got.cif
#   From: 2010.05.17/outbox.cif.g08.bks.cpg/sg2_39_cif.got.tgz:77167.got - 2010.06.03 11:33:40.
