data_PCOD9048469
_publ_section_title
;
Structure prediction by ZEFSAII (Michael W. Deem and Ramdas Pophale) SiO2 
 PCOD9048469
Probable space group: P -1
;
_chemical_formula_sum "Si O2"
_cell_formula_units_Z 16
_cell_length_a 9.229296
_cell_length_b 28.204525
_cell_length_c 9.617958
_cell_angle_alpha 145.226073
_cell_angle_beta 117.642525
_cell_angle_gamma 35.545679
_cell_volume 653.649673
_symmetry_space_group_name_H-M "P -1"
_symmetry_group_IT_number 2
_symmetry_cell_setting 'triclinic'
loop_
_space_group_symop_operation_xyz
x,y,z
-x,-y,-z
loop_
_atom_site_type_symbol
_atom_site_label
_atom_site_fract_x
_atom_site_fract_y
_atom_site_fract_z
Si Si1 0.683603 0.726663 0.188810
Si Si2 0.244315 0.066527 0.869751
Si Si3 0.733268 0.297000 0.439939
Si Si4 0.722012 0.194893 0.456582
Si Si5 0.114755 0.876851 0.357972
Si Si6 0.993319 0.404075 0.259993
Si Si7 0.773240 0.465983 0.860207
Si Si8 0.252629 0.248348 0.301240
O O1 0.485101 0.729640 0.132395
O O2 0.017339 0.568281 0.028231
O O3 0.502887 0.881553 0.556193
O O4 0.759265 0.723385 0.059915
O O5 0.059474 0.127798 0.790324
O O6 0.388609 0.095659 0.007646
O O7 0.976066 0.177250 0.134363
O O8 0.799447 0.200540 0.356213
O O9 0.370004 0.457220 0.608746
O O10 0.777813 0.371248 0.694373
O O11 0.960848 0.068256 0.383073
O O12 0.498990 0.212814 0.369516
O O13 0.560165 0.344087 0.824119
O O14 0.000000 0.000000 0.500000
O O15 0.000000 0.500000 0.500000
O O16 0.119513 0.316380 0.250793
O O17 0.952121 0.383193 0.595180
#
# Coordination Sequence:
#
# PCOD9048469 Si02
#       8
#     2   2   2   2   2   2   2   2
#     4  11  23  46  71  97 146 190 227 290 360 421
#     4  10  26  47  71 100 145 192 231 286 359 424
#     4  11  25  42  69 112 141 182 237 304 341 415
#     4  12  23  43  74 106 140 182 243 291 355 415
#     4  10  24  45  69 101 139 190 232 284 354 422
#     4  12  24  41  71 104 148 176 241 297 352 406
#     4  11  24  42  72 107 140 186 237 292 360 412
#     4  11  25  41  68 109 135 191 234 293 348 428
#
# _framework density 24.477943
#
# number of rings (size 3 to 8) (size 9 to 14) (size 15 to 20)
#    0.000    1.000    3.750    1.500    5.250    3.500 
#    0.000    6.250    0.000    0.000    0.000    0.000 
#    0.000    0.000    0.000    0.000    0.000    0.000 
#
# Total GULP energy -89491.764577 kJ/mol
# GULP energy per Si atom -5593.235286 kJ/mol
# Density = 2.442223 g / cm^3
# Si number density = 24.477943 Si / 1000 Ang^3
#
#
#
# Elastic Constant Matrix: (Units=GPa)
#
#
# Indices 1 2 3 4 5 6 
#
# 1 116.4389 33.4581 33.9415 -12.5959 7.5279 9.4512
# 2 33.4581 103.1655 5.9948 -26.0154 -9.1018 13.8222
# 3 33.9415 5.9948 92.9265 -11.3611 3.8930 7.9665
# 4 -12.5959 -26.0154 -11.3611 33.0679 9.6233 -6.7631
# 5 7.5279 -9.1018 3.8930 9.6233 37.7230 -12.8990
# 6 9.4512 13.8222 7.9665 -6.7631 -12.8990 48.0523
#
#
#
# Elastic Compliance Matrix: (Units=1/GPa)
#
#
# Indices 1 2 3 4 5 6 
#
# 1 0.010948 -0.003154 -0.003381 0.001224 -0.003396 -0.001425
# 2 -0.003154 0.013262 0.001561 0.009173 0.000648 -0.001988
# 3 -0.003381 0.001561 0.012687 0.004522 -0.002025 -0.001795
# 4 0.001224 0.009173 0.004522 0.042148 -0.009318 -0.000198
# 5 -0.003396 0.000648 -0.002025 -0.009318 0.032768 0.008302
# 6 -0.001425 -0.001988 -0.001795 -0.000198 0.008302 0.024161
#
#
# Mechanical properties :
#
#
# Convention : Reuss Voigt Hill
#
# Bulk Modulus (GPa) = 37.10710 51.03551 44.07130
# Shear Modulus (GPa) = 32.27785 39.71109 35.99447
#
# Velocity S-wave (km/s) = 3.63526 4.03217 3.83885
# Velocity P-wave (km/s) = 5.72822 6.52478 6.13943
#
# Compressibility (1/GPa) = 0.02694902
#
# Stress axis : x y z
#
# Youngs Moduli (GPa) = 91.34315 75.40221 78.82133
#
# Poissons Ratio (x) = 0.23783 0.26651
# Poissons Ratio (y) = 0.28811 -0.12307
# Poissons Ratio (z) = 0.30884 -0.11773
#
# Static dielectric constant tensor:
#      x y z
#    x 2.010860 -0.028740 -0.082540 
#    y -0.028740 2.424730 0.032820 
#    z -0.082540 0.032820 2.046850 
# 
# From -- ./inp_files/227767.got.cif
#   From: 2010.05.17/outbox.cif.g08.bks.cpg/sg2_114_cif.got.tgz:227767.got - 2010.06.03 11:33:40.
