data_PCOD9048350
_publ_section_title
;
Structure prediction by ZEFSAII (Michael W. Deem and Ramdas Pophale) SiO2 
 PCOD9048350
Probable space group: P -1
;
_chemical_formula_sum "Si O2"
_cell_formula_units_Z 16
_cell_length_a 19.645302
_cell_length_b 7.870591
_cell_length_c 10.366409
_cell_angle_alpha 129.688912
_cell_angle_beta 56.177227
_cell_angle_gamma 147.490344
_cell_volume 662.265568
_symmetry_space_group_name_H-M "P -1"
_symmetry_group_IT_number 2
_symmetry_cell_setting 'triclinic'
loop_
_space_group_symop_operation_xyz
x,y,z
-x,-y,-z
loop_
_atom_site_type_symbol
_atom_site_label
_atom_site_fract_x
_atom_site_fract_y
_atom_site_fract_z
Si Si1 0.378163 0.733695 0.911084
Si Si2 0.689543 0.525449 0.680422
Si Si3 0.568454 0.834858 0.167209
Si Si4 0.256931 0.699662 0.260851
Si Si5 0.803094 0.380358 0.344678
Si Si6 0.997587 0.201723 0.197614
Si Si7 0.946950 0.297556 0.822879
Si Si8 0.252219 0.083153 0.604659
O O1 0.354290 0.435677 0.745672
O O2 0.393930 0.903947 0.848567
O O3 0.278223 0.646342 0.069238
O O4 0.500000 0.000000 0.000000
O O5 0.549251 0.322901 0.698569
O O6 0.679620 0.337919 0.722958
O O7 0.746134 0.502169 0.491768
O O8 0.800761 0.924239 0.795708
O O9 0.701250 0.052672 0.199635
O O10 0.500000 0.500000 0.000000
O O11 0.105099 0.385261 0.278959
O O12 0.294687 0.033932 0.409275
O O13 0.949765 0.683214 0.300145
O O14 0.790602 0.207473 0.401537
O O15 0.033149 0.482004 0.204160
O O16 0.866763 0.993145 0.306936
O O17 0.000000 0.000000 0.000000
O O18 0.000000 0.500000 0.000000
#
# Coordination Sequence:
#
# PCOD9048350 Si02
#       8
#     2   2   2   2   2   2   2   2
#     4  12  25  44  67  95 131 177 221 267 328 391
#     4  11  24  45  65  97 135 172 216 275 327 390
#     4  12  26  43  68  96 133 173 220 270 329 392
#     4  11  24  43  69  97 133 172 217 273 330 389
#     4  10  24  45  67  97 131 173 218 273 326 392
#     4  11  22  40  69  99 132 171 218 273 328 393
#     4  11  24  39  68  98 129 174 220 265 332 390
#     4  10  24  45  68  98 133 170 220 272 328 391
#
# _framework density 24.159492
#
# number of rings (size 3 to 8) (size 9 to 14) (size 15 to 20)
#    0.000    1.000    2.500    3.375    5.250    2.500 
#    2.250    0.000    0.000    0.000    0.000    0.000 
#    0.000    0.000    0.000    0.000    0.000    0.000 
#
# Total GULP energy -89407.144493 kJ/mol
# GULP energy per Si atom -5587.946531 kJ/mol
# Density = 2.410450 g / cm^3
# Si number density = 24.159492 Si / 1000 Ang^3
#
#
#
# Elastic Constant Matrix: (Units=GPa)
#
#
# Indices 1 2 3 4 5 6 
#
# 1 43.2331 6.5099 -12.2683 -1.5616 3.8329 15.8958
# 2 6.5099 71.6506 16.6829 5.1122 -2.7245 7.1803
# 3 -12.2683 16.6829 122.8282 23.6389 -9.5641 -6.6302
# 4 -1.5616 5.1122 23.6389 35.3588 9.3849 5.3877
# 5 3.8329 -2.7245 -9.5641 9.3849 36.0737 4.3076
# 6 15.8958 7.1803 -6.6302 5.3877 4.3076 35.8994
#
#
#
# Elastic Compliance Matrix: (Units=1/GPa)
#
#
# Indices 1 2 3 4 5 6 
#
# 1 0.028692 -0.002085 0.001814 0.002730 -0.001988 -0.012124
# 2 -0.002085 0.014998 -0.002125 -0.000803 0.001299 -0.002505
# 3 0.001814 -0.002125 0.010660 -0.008244 0.004342 0.002307
# 4 0.002730 -0.000803 -0.008244 0.038171 -0.011643 -0.006903
# 5 -0.001988 0.001299 0.004342 -0.011643 0.032295 -0.000705
# 6 -0.012124 -0.002505 0.002307 -0.006903 -0.000705 0.035271
#
#
# Mechanical properties :
#
#
# Convention : Reuss Voigt Hill
#
# Bulk Modulus (GPa) = 20.17767 28.84012 24.50889
# Shear Modulus (GPa) = 27.56362 36.58553 32.07458
#
# Velocity S-wave (km/s) = 3.38139 3.89567 3.64760
# Velocity P-wave (km/s) = 4.85953 5.67435 5.28267
#
# Compressibility (1/GPa) = 0.04955973
#
# Stress axis : x y z
#
# Youngs Moduli (GPa) = 34.85351 66.67359 93.80488
#
# Poissons Ratio (x) = 0.13899 -0.17018
# Poissons Ratio (y) = 0.07266 0.19932
# Poissons Ratio (z) = -0.06323 0.14167
#
# Static dielectric constant tensor:
#      x y z
#    x 1.919090 0.045020 0.000070 
#    y 0.045020 2.007680 -0.062960 
#    z 0.000070 -0.062960 1.965630 
# 
# From -- ./inp_files/319329.got.cif
#   From: 2010.05.17/outbox.cif.g08.bks.cpg/sg2_160_cif.got.tgz:319329.got - 2010.06.03 11:33:40.
