data_PCOD9048251
_publ_section_title
;
Structure prediction by ZEFSAII (Michael W. Deem and Ramdas Pophale) SiO2 
 PCOD9048251
Probable space group: P -1
;
_chemical_formula_sum "Si O2"
_cell_formula_units_Z 14
_cell_length_a 15.292473
_cell_length_b 9.534987
_cell_length_c 12.705150
_cell_angle_alpha 55.033252
_cell_angle_beta 28.174432
_cell_angle_gamma 43.764465
_cell_volume 593.479641
_symmetry_space_group_name_H-M "P -1"
_symmetry_group_IT_number 2
_symmetry_cell_setting 'triclinic'
loop_
_space_group_symop_operation_xyz
x,y,z
-x,-y,-z
loop_
_atom_site_type_symbol
_atom_site_label
_atom_site_fract_x
_atom_site_fract_y
_atom_site_fract_z
Si Si1 0.180306 0.815576 0.812752
Si Si2 0.131873 0.415096 0.288307
Si Si3 0.497524 0.425317 0.789673
Si Si4 0.117777 0.020398 0.468927
Si Si5 0.448883 0.112953 0.617569
Si Si6 0.116498 0.102705 0.099038
Si Si7 0.129500 0.509215 0.661150
O O1 0.331981 0.605484 0.807287
O O2 0.344000 0.880125 0.569830
O O3 0.051077 0.790867 0.867070
O O4 0.000000 0.000000 0.000000
O O5 0.168328 0.192840 0.332224
O O6 0.000000 0.500000 0.500000
O O7 0.982135 0.542301 0.290244
O O8 0.356660 0.408702 0.038326
O O9 0.677445 0.477686 0.605450
O O10 0.650341 0.202429 0.667539
O O11 0.000000 0.000000 0.500000
O O12 0.940830 0.057472 0.730586
O O13 0.247656 0.344844 0.699914
O O14 0.500000 0.000000 0.500000
O O15 0.361201 0.019826 0.833175
O O16 0.046369 0.273148 0.190016
#
# Coordination Sequence:
#
# PCOD9048251 Si02
#       7
#     2   2   2   2   2   2   2
#     4  11  24  43  69 105 140 169 232 291 348 411
#     4  12  26  44  72 103 137 185 240 288 343 406
#     4  10  24  46  73  95 140 184 230 287 349 414
#     4  11  24  50  68 100 142 185 236 285 334 421
#     4  11  23  40  69 103 135 178 220 284 362 404
#     4  11  23  43  71  95 138 184 224 285 344 415
#     4  10  24  45  64 100 140 175 233 283 345 420
#
# _framework density 23.589687999999999
#
# number of rings (size 3 to 8) (size 9 to 14) (size 15 to 20)
#    0.000    1.143    4.286    1.714    2.000    8.000 
#    5.143    0.000    0.000    0.000    0.000    0.000 
#    0.000    0.000    0.000    0.000    0.000    0.000 
#
# Total GULP energy -78319.797849 kJ/mol
# GULP energy per Si atom -5594.271275 kJ/mol
# Density = 2.353600 g / cm^3
# Si number density = 23.589688 Si / 1000 Ang^3
#
#
#
# Elastic Constant Matrix: (Units=GPa)
#
#
# Indices 1 2 3 4 5 6 
#
# 1 67.9423 5.7675 29.1094 17.4426 0.3467 15.0969
# 2 5.7675 69.0354 14.7811 0.3246 -1.5094 -5.6726
# 3 29.1094 14.7811 208.4901 -30.6418 -6.3295 12.3265
# 4 17.4426 0.3246 -30.6418 28.5288 8.7511 -1.9941
# 5 0.3467 -1.5094 -6.3295 8.7511 31.3175 0.1133
# 6 15.0969 -5.6726 12.3265 -1.9941 0.1133 26.5169
#
#
#
# Elastic Compliance Matrix: (Units=1/GPa)
#
#
# Indices 1 2 3 4 5 6 
#
# 1 0.028162 -0.001922 -0.006719 -0.027306 0.005924 -0.015400
# 2 -0.001922 0.015289 -0.001085 0.000017 0.000516 0.004868
# 3 -0.006719 -0.001085 0.007595 0.012988 -0.002076 0.001048
# 4 -0.027306 0.000017 0.012988 0.072039 -0.017256 0.015003
# 5 0.005924 0.000516 -0.002076 -0.017256 0.036306 -0.003750
# 6 -0.015400 0.004868 0.001048 0.015003 -0.003750 0.048178
#
#
# Mechanical properties :
#
#
# Convention : Reuss Voigt Hill
#
# Bulk Modulus (GPa) = 31.65015 49.42043 40.53529
# Shear Modulus (GPa) = 21.04796 36.99329 29.02062
#
# Velocity S-wave (km/s) = 2.99030 3.96434 3.51126
# Velocity P-wave (km/s) = 5.03672 6.47690 5.80167
#
# Compressibility (1/GPa) = 0.03159543
#
# Stress axis : x y z
#
# Youngs Moduli (GPa) = 35.50903 65.40439 131.66129
#
# Poissons Ratio (x) = 0.12569 0.88457
# Poissons Ratio (y) = 0.06824 0.14289
# Poissons Ratio (z) = 0.23857 0.07098
#
# Static dielectric constant tensor:
#      x y z
#    x 1.889840 -0.052020 0.007700 
#    y -0.052020 1.944320 -0.021480 
#    z 0.007700 -0.021480 1.930670 
# 
# From -- ./inp_files/446894.got.cif
#   From: 2010.05.17/outbox.cif.g08.bks.cpg/sg2_224_cif.got.tgz:446894.got - 2010.06.03 11:33:40.
