data_PCOD9048692
_publ_section_title
;
Structure prediction by ZEFSAII (Michael W. Deem and Ramdas Pophale) SiO2 
 PCOD9048692
Probable space group: P -1
;
_chemical_formula_sum "Si O2"
_cell_formula_units_Z 16
_cell_length_a 27.856304
_cell_length_b 5.200158
_cell_length_c 7.434046
_cell_angle_alpha 101.576077
_cell_angle_beta 41.019698
_cell_angle_gamma 117.148603
_cell_volume 609.596135
_symmetry_space_group_name_H-M "P -1"
_symmetry_group_IT_number 2
_symmetry_cell_setting 'triclinic'
loop_
_space_group_symop_operation_xyz
x,y,z
-x,-y,-z
loop_
_atom_site_type_symbol
_atom_site_label
_atom_site_fract_x
_atom_site_fract_y
_atom_site_fract_z
Si Si1 0.080488 0.464870 0.277962
Si Si2 0.546978 0.215604 0.664664
Si Si3 0.206288 0.502026 0.153924
Si Si4 0.798331 0.180123 0.477358
Si Si5 0.257850 0.863279 0.745479
Si Si6 0.332174 0.345788 0.884236
Si Si7 0.435383 0.536345 0.973235
Si Si8 0.912593 0.858319 0.124391
O O1 0.110180 0.397162 0.374203
O O2 0.000000 0.500000 0.500000
O O3 0.071525 0.209204 0.132508
O O4 0.160401 0.781892 0.038729
O O5 0.606236 0.339079 0.343105
O O6 0.477511 0.326253 0.857592
O O7 0.503939 0.860233 0.751365
O O8 0.590511 0.366998 0.753124
O O9 0.238204 0.803268 0.222869
O O10 0.240708 0.315585 0.133115
O O11 0.244149 0.566181 0.852074
O O12 0.856179 0.528990 0.317460
O O13 0.732055 0.080397 0.486660
O O14 0.858170 0.030818 0.298785
O O15 0.325699 0.117921 0.712207
O O16 0.367035 0.385064 0.991009
O O17 0.000000 0.000000 0.000000
#
# Coordination Sequence:
#
# PCOD9048692 Si02
#       8
#     2   2   2   2   2   2   2   2
#     4   9  20  43  67  97 136 179 233 296 342 407
#     4  10  24  45  71 105 143 179 228 279 336 416
#     4  10  25  41  66 100 133 182 236 279 350 410
#     4  11  24  46  63  90 139 171 221 289 338 414
#     4   9  25  42  64  98 137 176 237 277 350 408
#     4  12  24  41  71 101 139 187 226 290 344 406
#     4  10  24  45  71 106 140 182 229 272 345 412
#     4  11  23  41  68  96 125 173 226 284 357 409
#
# _framework density 26.246884000000001
#
# number of rings (size 3 to 8) (size 9 to 14) (size 15 to 20)
#    0.750    1.000    0.000    2.625    5.250    3.000 
#    2.250    3.750    0.000    0.000    0.000    0.000 
#    0.000    0.000    0.000    0.000    0.000    0.000 
#
# Total GULP energy -89392.542932 kJ/mol
# GULP energy per Si atom -5587.033933 kJ/mol
# Density = 2.618714 g / cm^3
# Si number density = 26.246884 Si / 1000 Ang^3
#
#
#
# Elastic Constant Matrix: (Units=GPa)
#
#
# Indices 1 2 3 4 5 6 
#
# 1 245.4205 48.8307 40.5328 12.3748 1.4308 35.3369
# 2 48.8307 112.3862 4.1403 1.3402 -10.9783 6.9482
# 3 40.5328 4.1403 54.2476 7.4602 0.0624 -0.8791
# 4 12.3748 1.3402 7.4602 34.7136 -6.2962 0.6792
# 5 1.4308 -10.9783 0.0624 -6.2962 42.1292 3.5828
# 6 35.3369 6.9482 -0.8791 0.6792 3.5828 57.4842
#
#
#
# Elastic Compliance Matrix: (Units=1/GPa)
#
#
# Indices 1 2 3 4 5 6 
#
# 1 0.005694 -0.002177 -0.003983 -0.001144 -0.000650 -0.003244
# 2 -0.002177 0.010085 0.000751 0.000737 0.002816 -0.000054
# 3 -0.003983 0.000751 0.021872 -0.003445 -0.000451 0.002761
# 4 -0.001144 0.000737 -0.003445 0.030809 0.004849 -0.000105
# 5 -0.000650 0.002816 -0.000451 0.004849 0.025352 -0.001585
# 6 -0.003244 -0.000054 0.002761 -0.000105 -0.001585 0.019539
#
#
# Mechanical properties :
#
#
# Convention : Reuss Voigt Hill
#
# Bulk Modulus (GPa) = 37.26535 66.56243 51.91389
# Shear Modulus (GPa) = 37.56209 48.10210 42.83210
#
# Velocity S-wave (km/s) = 3.78710 4.28562 4.04405
# Velocity P-wave (km/s) = 5.77509 7.06427 6.45196
#
# Compressibility (1/GPa) = 0.02683458
#
# Stress axis : x y z
#
# Youngs Moduli (GPa) = 175.62092 99.15229 45.72128
#
# Poissons Ratio (x) = 0.21581 0.18210
# Poissons Ratio (y) = 0.38225 -0.03434
# Poissons Ratio (z) = 0.69947 -0.07447
#
# Static dielectric constant tensor:
#      x y z
#    x 2.189890 -0.071820 0.121990 
#    y -0.071820 2.199360 -0.063460 
#    z 0.121990 -0.063460 2.199620 
# 
# From -- ./inp_files/356013.got.cif
#   From: 2010.05.17/outbox.cif.g08.bks.cpg/sg2_179_cif.got.tgz:356013.got - 2010.06.03 11:33:40.
