data_PCOD9048864
_publ_section_title
;
Structure prediction by ZEFSAII (Michael W. Deem and Ramdas Pophale) SiO2 
 PCOD9048864
Probable space group: P -1
;
_chemical_formula_sum "Si O2"
_cell_formula_units_Z 16
_cell_length_a 9.386375
_cell_length_b 10.772214
_cell_length_c 14.389813
_cell_angle_alpha 149.289575
_cell_angle_beta 109.672794
_cell_angle_gamma 79.355202
_cell_volume 682.896893
_symmetry_space_group_name_H-M "P -1"
_symmetry_group_IT_number 2
_symmetry_cell_setting 'triclinic'
loop_
_space_group_symop_operation_xyz
x,y,z
-x,-y,-z
loop_
_atom_site_type_symbol
_atom_site_label
_atom_site_fract_x
_atom_site_fract_y
_atom_site_fract_z
Si Si1 0.349313 0.114774 0.539145
Si Si2 0.671262 0.530324 0.518673
Si Si3 0.931457 0.305428 0.443398
Si Si4 0.818409 0.989896 0.936491
Si Si5 0.913471 0.742370 0.362205
Si Si6 0.629445 0.362782 0.197487
Si Si7 0.883450 0.404744 0.831267
Si Si8 0.283448 0.184404 0.999019
O O1 0.383021 0.349763 0.629967
O O2 0.268218 0.258071 0.693988
O O3 0.500000 0.000000 0.500000
O O4 0.211718 0.871286 0.340901
O O5 0.500000 0.500000 0.500000
O O6 0.793152 0.413275 0.529058
O O7 0.754132 0.824344 0.725840
O O8 0.662122 0.369369 0.318728
O O9 0.049128 0.272576 0.529540
O O10 0.000000 0.500000 0.500000
O O11 0.849322 0.038272 0.213390
O O12 0.731643 0.838714 0.908268
O O13 0.759517 0.248372 0.098695
O O14 0.000000 0.000000 0.000000
O O15 0.002122 0.562245 0.211593
O O16 0.000000 0.000000 0.500000
O O17 0.463356 0.195529 0.024393
O O18 0.758381 0.567598 0.889534
O O19 0.000000 0.500000 0.000000
#
# Coordination Sequence:
#
# PCOD9048864 Si02
#       8
#     2   2   2   2   2   2   2   2
#     4  11  24  48  74 103 145 194 249 316 376 441
#     4  12  25  43  70 105 151 200 240 308 391 456
#     4  12  25  45  73 115 153 199 253 320 388 452
#     4  12  27  44  72 111 145 194 255 308 384 460
#     4  10  24  45  74 104 147 201 254 307 379 459
#     4  12  26  49  72 109 156 195 255 317 387 466
#     4  11  25  48  75 108 145 203 260 312 377 458
#     4  12  23  44  74 102 155 194 247 314 385 464
#
# _framework density 23.429599
#
# number of rings (size 3 to 8) (size 9 to 14) (size 15 to 20)
#    0.000    0.500    3.750    4.875    3.500    1.000 
#    0.000    1.875    0.000    0.000    0.000    0.000 
#    0.000    0.000    0.000    0.000    0.000    0.000 
#
# Total GULP energy -89214.621068 kJ/mol
# GULP energy per Si atom -5575.913817 kJ/mol
# Density = 2.337627 g / cm^3
# Si number density = 23.429599 Si / 1000 Ang^3
#
#
#
# Elastic Constant Matrix: (Units=GPa)
#
#
# Indices 1 2 3 4 5 6 
#
# 1 182.4971 28.1549 35.5986 -3.1524 10.9064 -38.5982
# 2 28.1549 107.6275 31.0690 20.5071 3.5204 -18.9195
# 3 35.5986 31.0690 135.6139 6.5432 10.3889 -8.4485
# 4 -3.1524 20.5071 6.5432 38.7790 0.0737 -8.2486
# 5 10.9064 3.5204 10.3889 0.0737 38.4287 9.5146
# 6 -38.5982 -18.9195 -8.4485 -8.2486 9.5146 40.4021
#
#
#
# Elastic Compliance Matrix: (Units=1/GPa)
#
#
# Indices 1 2 3 4 5 6 
#
# 1 0.007922 -0.000658 -0.001237 0.003028 -0.003978 0.008557
# 2 -0.000658 0.011687 -0.001931 -0.005120 -0.001267 0.003693
# 3 -0.001237 -0.001931 0.008291 -0.000486 -0.001700 -0.000051
# 4 0.003028 -0.005120 -0.000486 0.030331 -0.002069 0.007074
# 5 -0.003978 -0.001267 -0.001700 -0.002069 0.030807 -0.012426
# 6 0.008557 0.003693 -0.000051 0.007074 -0.012426 0.039015
#
#
# Mechanical properties :
#
#
# Convention : Reuss Voigt Hill
#
# Bulk Modulus (GPa) = 49.38488 68.37593 58.88041
# Shear Modulus (GPa) = 35.09855 45.58303 40.34079
#
# Velocity S-wave (km/s) = 3.87466 4.41560 4.15394
# Velocity P-wave (km/s) = 6.41413 7.43261 6.94207
#
# Compressibility (1/GPa) = 0.02024911
#
# Stress axis : x y z
#
# Youngs Moduli (GPa) = 126.22798 85.56530 120.60652
#
# Poissons Ratio (x) = 0.05630 0.14920
# Poissons Ratio (y) = 0.08306 0.23284
# Poissons Ratio (z) = 0.15616 0.16519
#
# Static dielectric constant tensor:
#      x y z
#    x 1.811470 0.067910 -0.005890 
#    y 0.067910 2.103100 -0.030110 
#    z -0.005890 -0.030110 2.024250 
# 
# From -- ./inp_files/501277.got.cif
#   From: 2010.05.17/outbox.cif.g08.bks.cpg/sg2_251_cif.got.tgz:501277.got - 2010.06.03 11:33:40.
