data_PCOD9048829
_publ_section_title
;
Structure prediction by ZEFSAII (Michael W. Deem and Ramdas Pophale) SiO2 
 PCOD9048829
Probable space group: P -1
;
_chemical_formula_sum "Si O2"
_cell_formula_units_Z 10
_cell_length_a 11.638107
_cell_length_b 6.718632
_cell_length_c 8.054698
_cell_angle_alpha 61.457309
_cell_angle_beta 129.527799
_cell_angle_gamma 86.811340
_cell_volume 361.634816
_symmetry_space_group_name_H-M "P -1"
_symmetry_group_IT_number 2
_symmetry_cell_setting 'triclinic'
loop_
_space_group_symop_operation_xyz
x,y,z
-x,-y,-z
loop_
_atom_site_type_symbol
_atom_site_label
_atom_site_fract_x
_atom_site_fract_y
_atom_site_fract_z
Si Si1 0.230187 0.833426 0.859129
Si Si2 0.337368 0.786501 0.303239
Si Si3 0.398128 0.441012 0.787154
Si Si4 0.846754 0.671001 0.569358
Si Si5 0.239786 0.306173 0.140923
O O1 0.125676 0.082109 0.541697
O O2 0.183192 0.890111 0.986486
O O3 0.424352 0.792757 0.043582
O O4 0.259039 0.540843 0.985529
O O5 0.500000 0.500000 0.500000
O O6 0.303098 0.707645 0.481777
O O7 0.360871 0.030280 0.266515
O O8 0.253536 0.360859 0.666935
O O9 0.500000 0.500000 0.000000
O O10 0.747060 0.713263 0.637429
O O11 0.037082 0.409675 0.876078
#
# Coordination Sequence:
#
# PCOD9048829 Si02
#       5
#     2   2   2   2   2
#     4  11  24  46  73 107 143 192 247 293 365 435
#     4  10  24  45  73 106 144 191 245 296 360 429
#     4  11  24  45  71 106 144 195 244 299 355 434
#     4  11  25  47  72 111 149 190 241 298 374 431
#     4  11  25  48  75 105 152 190 237 306 363 438
#
# _framework density 27.652204999999999
#
# number of rings (size 3 to 8) (size 9 to 14) (size 15 to 20)
#    0.000    1.200    2.000    2.400    2.800    4.800 
#    3.600    0.000    0.000    0.000    0.000    0.000 
#    0.000    0.000    0.000    0.000    0.000    0.000 
#
# Total GULP energy -55761.348563 kJ/mol
# GULP energy per Si atom -5576.134856 kJ/mol
# Density = 2.758927 g / cm^3
# Si number density = 27.652205 Si / 1000 Ang^3
#
#
#
# Elastic Constant Matrix: (Units=GPa)
#
#
# Indices 1 2 3 4 5 6 
#
# 1 82.1076 56.5082 32.2754 -0.9585 -8.9240 8.8375
# 2 56.5082 205.5879 73.0778 3.1661 -11.2500 16.7886
# 3 32.2754 73.0778 104.3325 10.9167 -34.1760 -1.5685
# 4 -0.9585 3.1661 10.9167 51.7680 6.6691 -7.4559
# 5 -8.9240 -11.2500 -34.1760 6.6691 37.6038 -6.9780
# 6 8.8375 16.7886 -1.5685 -7.4559 -6.9780 39.6092
#
#
#
# Elastic Compliance Matrix: (Units=1/GPa)
#
#
# Indices 1 2 3 4 5 6 
#
# 1 0.015681 -0.003128 -0.002920 0.000834 -0.000425 -0.002206
# 2 -0.003128 0.008034 -0.006475 0.000940 -0.005073 -0.003681
# 3 -0.002920 -0.006475 0.022265 -0.005957 0.019898 0.006662
# 4 0.000834 0.000940 -0.005957 0.021884 -0.008481 0.001805
# 5 -0.000425 -0.005073 0.019898 -0.008481 0.046344 0.009601
# 6 -0.002206 -0.003681 0.006662 0.001805 0.009601 0.029594
#
#
# Mechanical properties :
#
#
# Convention : Reuss Voigt Hill
#
# Bulk Modulus (GPa) = 47.77021 79.52788 63.64904
# Shear Modulus (GPa) = 28.43748 41.14064 34.78906
#
# Velocity S-wave (km/s) = 3.21034 3.86137 3.55081
# Velocity P-wave (km/s) = 5.57267 6.97873 6.31496
#
# Compressibility (1/GPa) = 0.02093355
#
# Stress axis : x y z
#
# Youngs Moduli (GPa) = 63.77288 124.47095 44.91449
#
# Poissons Ratio (x) = 0.38937 0.13113
# Poissons Ratio (y) = 0.19949 0.29082
# Poissons Ratio (z) = 0.18619 0.80596
#
# Static dielectric constant tensor:
#      x y z
#    x 2.556720 -0.184570 -0.143090 
#    y -0.184570 2.306950 0.098100 
#    z -0.143090 0.098100 2.299410 
# 
# From -- ./inp_files/143861.got.cif
#   From: 2010.05.17/outbox.cif.g08.bks.cpg/sg2_72_cif.got.tgz:143861.got - 2010.06.03 11:33:40.
