data_PCOD9048740
_publ_section_title
;
Structure prediction by ZEFSAII (Michael W. Deem and Ramdas Pophale) SiO2 
 PCOD9048740
Probable space group: P -1
;
_chemical_formula_sum "Si O2"
_cell_formula_units_Z 12
_cell_length_a 5.108183
_cell_length_b 11.282055
_cell_length_c 9.216258
_cell_angle_alpha 74.913779
_cell_angle_beta 61.281758
_cell_angle_gamma 88.570522
_cell_volume 446.598008
_symmetry_space_group_name_H-M "P -1"
_symmetry_group_IT_number 2
_symmetry_cell_setting 'triclinic'
loop_
_space_group_symop_operation_xyz
x,y,z
-x,-y,-z
loop_
_atom_site_type_symbol
_atom_site_label
_atom_site_fract_x
_atom_site_fract_y
_atom_site_fract_z
Si Si1 0.394726 0.891197 0.873167
Si Si2 0.919240 0.281483 0.172557
Si Si3 0.112176 0.755536 0.484791
Si Si4 0.401758 0.329123 0.798990
Si Si5 0.023189 0.942465 0.234600
Si Si6 0.041188 0.503291 0.271752
O O1 0.371506 0.760005 0.836684
O O2 0.718502 0.960776 0.794866
O O3 0.227751 0.981510 0.786458
O O4 0.196156 0.881562 0.075993
O O5 0.870832 0.212766 0.360984
O O6 0.006184 0.421676 0.159075
O O7 0.183729 0.259379 0.998361
O O8 0.428921 0.761762 0.315382
O O9 0.007779 0.607990 0.562622
O O10 0.920733 0.839874 0.414645
O O11 0.647702 0.417909 0.796273
O O12 0.213210 0.406792 0.715483
#
# Coordination Sequence:
#
# PCOD9048740 Si02
#       6
#     2   2   2   2   2   2
#     4  10  24  45  72 101 139 183 230 288 357 416
#     4  10  26  45  74 108 137 189 236 289 346 420
#     4  10  26  45  74 108 137 189 236 289 346 420
#     4  12  24  48  70 100 150 188 226 292 344 416
#     4  10  24  45  72 101 139 183 230 288 357 416
#     4  10  26  46  68 106 142 188 234 284 348 412
#
# _framework density 26.869803000000001
#
# number of rings (size 3 to 8) (size 9 to 14) (size 15 to 20)
#    1.000    0.667    0.000    2.000    9.333    4.000 
#    0.000    0.000    0.000    0.000    0.000    0.000 
#    0.000    0.000    0.000    0.000    0.000    0.000 
#
# Total GULP energy -67225.703695 kJ/mol
# GULP energy per Si atom -5602.141975 kJ/mol
# Density = 2.680865 g / cm^3
# Si number density = 26.869803 Si / 1000 Ang^3
#
#
#
# Elastic Constant Matrix: (Units=GPa)
#
#
# Indices 1 2 3 4 5 6 
#
# 1 150.5310 48.9336 33.6220 -20.1907 27.1557 21.6568
# 2 48.9336 103.1235 43.0709 1.2910 5.9944 43.8091
# 3 33.6220 43.0709 152.5823 -2.8683 33.1332 -8.1529
# 4 -20.1907 1.2910 -2.8683 44.6002 -15.5094 14.7690
# 5 27.1557 5.9944 33.1332 -15.5094 42.5088 0.2329
# 6 21.6568 43.8091 -8.1529 14.7690 0.2329 57.3541
#
#
#
# Elastic Compliance Matrix: (Units=1/GPa)
#
#
# Indices 1 2 3 4 5 6 
#
# 1 0.009222 -0.003234 -0.000313 0.003543 -0.003888 -0.001953
# 2 -0.003234 0.021652 -0.007856 0.005935 0.007400 -0.017993
# 3 -0.000313 -0.007856 0.011310 -0.005568 -0.009589 0.009199
# 4 0.003543 0.005935 -0.005568 0.033229 0.013447 -0.015274
# 5 -0.003888 0.007400 -0.009589 0.013447 0.037396 -0.009162
# 6 -0.001953 -0.017993 0.009199 -0.015274 -0.009162 0.037194
#
#
# Mechanical properties :
#
#
# Convention : Reuss Voigt Hill
#
# Bulk Modulus (GPa) = 51.60500 73.05443 62.32971
# Shear Modulus (GPa) = 27.89121 47.59997 37.74559
#
# Velocity S-wave (km/s) = 3.22532 4.21349 3.75208
# Velocity P-wave (km/s) = 5.75478 7.13573 6.48213
#
# Compressibility (1/GPa) = 0.01937797
#
# Stress axis : x y z
#
# Youngs Moduli (GPa) = 108.43807 46.18477 88.42081
#
# Poissons Ratio (x) = 0.14937 0.02764
# Poissons Ratio (y) = 0.35070 0.69464
# Poissons Ratio (z) = 0.03390 0.36283
#
# Static dielectric constant tensor:
#      x y z
#    x 2.106610 -0.001850 -0.002050 
#    y -0.001850 2.101150 0.015320 
#    z -0.002050 0.015320 2.078600 
# 
# From -- ./inp_files/131401.got.cif
#   From: 2010.05.17/outbox.cif.g08.bks.cpg/sg2_66_cif.got.tgz:131401.got - 2010.06.03 11:33:40.
