data_PCOD9048991
_publ_section_title
;
Structure prediction by ZEFSAII (Michael W. Deem and Ramdas Pophale) SiO2 
 PCOD9048991
Probable space group: P -1
;
_chemical_formula_sum "Si O2"
_cell_formula_units_Z 16
_cell_length_a 8.485578
_cell_length_b 11.506033
_cell_length_c 9.955230
_cell_angle_alpha 123.244809
_cell_angle_beta 94.290206
_cell_angle_gamma 103.480754
_cell_volume 765.584007
_symmetry_space_group_name_H-M "P -1"
_symmetry_group_IT_number 2
_symmetry_cell_setting 'triclinic'
loop_
_space_group_symop_operation_xyz
x,y,z
-x,-y,-z
loop_
_atom_site_type_symbol
_atom_site_label
_atom_site_fract_x
_atom_site_fract_y
_atom_site_fract_z
Si Si1 0.654867 0.604632 0.992045
Si Si2 0.898348 0.193639 0.939385
Si Si3 0.238500 0.213125 0.114534
Si Si4 0.822517 0.856238 0.631431
Si Si5 0.817670 0.161458 0.439607
Si Si6 0.243644 0.669887 0.213782
Si Si7 0.360578 0.163484 0.664502
Si Si8 0.690121 0.084576 0.099403
O O1 0.617315 0.670305 0.889420
O O2 0.758928 0.496149 0.902752
O O3 0.500000 0.500000 0.000000
O O4 0.720604 0.746755 0.182422
O O5 0.871397 0.292825 0.881704
O O6 0.857758 0.028784 0.773617
O O7 0.073892 0.232198 0.050645
O O8 0.768132 0.188536 0.046473
O O9 0.239378 0.225303 0.282583
O O10 0.228461 0.046186 0.975279
O O11 0.690052 0.812505 0.474791
O O12 0.994905 0.834921 0.580775
O O13 0.812282 0.289261 0.619811
O O14 0.718278 0.006962 0.408653
O O15 0.723721 0.161748 0.293564
O O16 0.438110 0.774739 0.269182
O O17 0.500000 0.000000 0.000000
#
# Coordination Sequence:
#
# PCOD9048991 Si02
#       8
#     2   2   2   2   2   2   2   2
#     4  10  24  46  64  86 126 173 212 253 315 381
#     4  11  21  40  61  96 132 161 205 261 317 372
#     4  11  22  43  63  88 131 172 202 251 325 378
#     4  11  22  38  63  96 126 165 203 260 322 370
#     4  12  21  39  62 100 126 157 212 262 311 362
#     4  11  26  39  62  96 126 162 218 261 306 366
#     4  11  22  41  65  91 125 168 209 259 314 370
#     4  11  22  35  66  97 129 161 209 260 314 371
#
# _framework density 20.899077999999999
#
# number of rings (size 3 to 8) (size 9 to 14) (size 15 to 20)
#    0.000    1.000    5.000    2.250    7.000    0.500 
#    0.000    4.375    0.000    0.000    0.000    0.000 
#    0.000    0.000    0.000    0.000    0.000    0.000 
#
# Total GULP energy -89416.913145 kJ/mol
# GULP energy per Si atom -5588.557072 kJ/mol
# Density = 2.085151 g / cm^3
# Si number density = 20.899078 Si / 1000 Ang^3
#
#
#
# Elastic Constant Matrix: (Units=GPa)
#
#
# Indices 1 2 3 4 5 6 
#
# 1 42.4430 9.3542 35.3064 -7.1651 6.6913 -0.3618
# 2 9.3542 39.6113 36.3251 0.1835 -23.9442 2.4688
# 3 35.3064 36.3251 133.5970 -24.0825 -22.5758 -19.0438
# 4 -7.1651 0.1835 -24.0825 28.9305 -0.9092 -7.6360
# 5 6.6913 -23.9442 -22.5758 -0.9092 32.6631 0.8994
# 6 -0.3618 2.4688 -19.0438 -7.6360 0.8994 29.4314
#
#
#
# Elastic Compliance Matrix: (Units=1/GPa)
#
#
# Indices 1 2 3 4 5 6 
#
# 1 0.041764 -0.013611 -0.013846 -0.003949 -0.028008 -0.007473
# 2 -0.013611 0.070473 -0.015152 -0.021036 0.044016 -0.022686
# 3 -0.013846 -0.015152 0.023925 0.022708 0.008286 0.022220
# 4 -0.003949 -0.021036 0.022708 0.061190 0.001900 0.032227
# 5 -0.028008 0.044016 0.008286 0.001900 0.074412 -0.000456
# 6 -0.007473 -0.022686 0.022220 0.032227 -0.000456 0.058542
#
#
# Mechanical properties :
#
#
# Convention : Reuss Voigt Hill
#
# Bulk Modulus (GPa) = 19.62975 41.95808 30.79391
# Shear Modulus (GPa) = 11.56053 27.18270 19.37162
#
# Velocity S-wave (km/s) = 2.35449 3.61039 3.04783
# Velocity P-wave (km/s) = 4.09933 6.12372 5.21078
#
# Compressibility (1/GPa) = 0.05094309
#
# Stress axis : x y z
#
# Youngs Moduli (GPa) = 23.94402 14.18987 41.79666
#
# Poissons Ratio (x) = 0.19314 0.57873
# Poissons Ratio (y) = 0.32590 0.63331
# Poissons Ratio (z) = 0.33154 0.21501
#
# Static dielectric constant tensor:
#      x y z
#    x 1.838070 0.046590 -0.029500 
#    y 0.046590 1.760750 -0.008920 
#    z -0.029500 -0.008920 1.736470 
# 
# From -- ./inp_files/175012.got.cif
#   From: 2010.05.17/outbox.cif.g08.bks.cpg/sg2_88_cif.got.tgz:175012.got - 2010.06.03 11:33:40.
