data_PCOD9048798
_publ_section_title
;
Structure prediction by ZEFSAII (Michael W. Deem and Ramdas Pophale) SiO2 
 PCOD9048798
Probable space group: P -1
;
_chemical_formula_sum "Si O2"
_cell_formula_units_Z 16
_cell_length_a 5.414254
_cell_length_b 9.480712
_cell_length_c 21.060358
_cell_angle_alpha 130.093905
_cell_angle_beta 66.760663
_cell_angle_gamma 98.663077
_cell_volume 751.611092
_symmetry_space_group_name_H-M "P -1"
_symmetry_group_IT_number 2
_symmetry_cell_setting 'triclinic'
loop_
_space_group_symop_operation_xyz
x,y,z
-x,-y,-z
loop_
_atom_site_type_symbol
_atom_site_label
_atom_site_fract_x
_atom_site_fract_y
_atom_site_fract_z
Si Si1 0.896164 0.441873 0.304217
Si Si2 0.069197 0.794311 0.249800
Si Si3 0.772622 0.297901 0.069559
Si Si4 0.125054 0.065880 0.210584
Si Si5 0.733159 0.119944 0.153064
Si Si6 0.612767 0.379391 0.735144
Si Si7 0.668620 0.586790 0.953765
Si Si8 0.402196 0.199358 0.596502
O O1 0.010584 0.284972 0.297545
O O2 0.157951 0.482839 0.249418
O O3 0.709104 0.330348 0.246291
O O4 0.737245 0.645054 0.393559
O O5 0.310281 0.797537 0.277563
O O6 0.177850 0.594293 0.150230
O O7 0.809614 0.810657 0.326749
O O8 0.039144 0.940270 0.238814
O O9 0.775362 0.148093 0.082232
O O10 0.650009 0.494451 0.173358
O O11 0.551304 0.292757 0.034890
O O12 0.082281 0.307707 0.019937
O O13 0.451048 0.042406 0.168371
O O14 0.984086 0.029409 0.146319
O O15 0.624261 0.295465 0.639314
O O16 0.500000 0.500000 0.000000
O O17 0.500000 0.000000 0.500000
#
# Coordination Sequence:
#
# PCOD9048798 Si02
#       8
#     2   2   2   2   2   2   2   2
#     4   9  18  33  56  85 112 154 199 238 282 349
#     4  10  23  36  57  88 119 158 188 249 299 348
#     4  11  17  36  61  87 112 154 207 235 287 348
#     4  10  20  33  58  87 116 154 199 235 296 349
#     4  10  18  33  60  88 110 157 205 235 282 357
#     4  10  17  34  59  83 114 152 197 239 293 345
#     4  11  23  36  60  90 122 153 196 247 296 344
#     4  11  21  36  60  90 117 151 201 249 291 350
#
# _framework density 21.287604999999999
#
# number of rings (size 3 to 8) (size 9 to 14) (size 15 to 20)
#    0.750    1.000    3.750    2.625    1.750    2.000 
#    0.000    0.625    0.000    6.750    0.000    0.000 
#    0.000    0.000    0.000    0.000    0.000    0.000 
#
# Total GULP energy -89097.155096 kJ/mol
# GULP energy per Si atom -5568.572193 kJ/mol
# Density = 2.123915 g / cm^3
# Si number density = 21.287605 Si / 1000 Ang^3
#
#
#
# Elastic Constant Matrix: (Units=GPa)
#
#
# Indices 1 2 3 4 5 6 
#
# 1 122.7978 33.2698 22.8612 -1.0322 -3.7177 -3.0709
# 2 33.2698 107.1030 18.3762 -2.2490 -2.4821 -25.0792
# 3 22.8612 18.3762 77.9110 22.2382 -6.1599 1.4732
# 4 -1.0322 -2.2490 22.2382 32.0443 -2.2748 -5.6553
# 5 -3.7177 -2.4821 -6.1599 -2.2748 16.9941 1.9768
# 6 -3.0709 -25.0792 1.4732 -5.6553 1.9768 38.5249
#
#
#
# Elastic Compliance Matrix: (Units=1/GPa)
#
#
# Indices 1 2 3 4 5 6 
#
# 1 0.009345 -0.002529 -0.002592 0.001895 0.001056 -0.000579
# 2 -0.002529 0.013089 -0.004059 0.005256 -0.000488 0.009271
# 3 -0.002592 -0.004059 0.019123 -0.014362 0.004538 -0.005921
# 4 0.001895 0.005256 -0.014362 0.043494 0.000580 0.010477
# 5 0.001056 -0.000488 0.004538 0.000580 0.061129 -0.003458
# 6 -0.000579 0.009271 -0.005921 0.010477 -0.003458 0.033888
#
#
# Mechanical properties :
#
#
# Convention : Reuss Voigt Hill
#
# Bulk Modulus (GPa) = 43.10980 50.75848 46.93414
# Shear Modulus (GPa) = 24.25300 33.06629 28.65965
#
# Velocity S-wave (km/s) = 3.37902 3.94548 3.67319
# Velocity P-wave (km/s) = 5.95976 6.68219 6.33129
#
# Compressibility (1/GPa) = 0.02319658
#
# Stress axis : x y z
#
# Youngs Moduli (GPa) = 107.01250 76.40128 52.29231
#
# Poissons Ratio (x) = 0.19324 0.13554
# Poissons Ratio (y) = 0.27066 0.21225
# Poissons Ratio (z) = 0.27737 0.31011
#
# Static dielectric constant tensor:
#      x y z
#    x 1.960900 -0.027660 0.032280 
#    y -0.027660 1.789210 0.038750 
#    z 0.032280 0.038750 1.768860 
# 
# From -- ./inp_files/108865.got.cif
#   From: 2010.05.17/outbox.cif.g08.bks.cpg/sg2_55_cif.got.tgz:108865.got - 2010.06.03 11:33:40.
