data_PCOD9048429
_publ_section_title
;
Structure prediction by ZEFSAII (Michael W. Deem and Ramdas Pophale) SiO2 
 PCOD9048429
Probable space group: P -1
;
_chemical_formula_sum "Si O2"
_cell_formula_units_Z 14
_cell_length_a 5.166162
_cell_length_b 24.320531
_cell_length_c 23.793317
_cell_angle_alpha 168.482351
_cell_angle_beta 77.903708
_cell_angle_gamma 103.685467
_cell_volume 576.127938
_symmetry_space_group_name_H-M "P -1"
_symmetry_group_IT_number 2
_symmetry_cell_setting 'triclinic'
loop_
_space_group_symop_operation_xyz
x,y,z
-x,-y,-z
loop_
_atom_site_type_symbol
_atom_site_label
_atom_site_fract_x
_atom_site_fract_y
_atom_site_fract_z
Si Si1 0.890029 0.693349 0.814529
Si Si2 0.637160 0.405543 0.153092
Si Si3 0.476669 0.747865 0.791207
Si Si4 0.218929 0.378254 0.052172
Si Si5 0.196808 0.780737 0.268135
Si Si6 0.621094 0.108964 0.295160
Si Si7 0.379251 0.932558 0.533047
O O1 0.713538 0.786979 0.865191
O O2 0.750359 0.376826 0.518979
O O3 0.191554 0.699638 0.787039
O O4 0.869435 0.928629 0.099217
O O5 0.426074 0.279166 0.987936
O O6 0.535031 0.698320 0.464141
O O7 0.942812 0.436204 0.150213
O O8 0.593978 0.182576 0.982879
O O9 0.500000 0.500000 0.500000
O O10 0.500000 0.000000 0.000000
O O11 0.362148 0.669011 0.310075
O O12 0.165890 0.124197 0.755489
O O13 0.357245 0.801925 0.340687
O O14 0.362848 0.833248 0.255934
O O15 0.000000 0.000000 0.500000
O O16 0.000000 0.500000 0.000000
#
# Coordination Sequence:
#
# PCOD9048429 Si02
#       7
#     2   2   2   2   2   2   2
#     4  11  24  41  68  96 128 185 220 271 330 391
#     4  11  26  44  68  98 130 173 216 290 334 395
#     4  12  24  41  64  99 140 174 220 272 328 391
#     4  12  26  44  70  98 134 173 220 271 356 397
#     4  11  24  43  68  95 133 174 220 271 330 389
#     4  10  24  45  68  95 132 169 234 274 330 396
#     4  11  26  42  66 101 130 175 222 273 326 427
#
# _framework density 24.300156999999999
#
# number of rings (size 3 to 8) (size 9 to 14) (size 15 to 20)
#    0.000    0.857    0.000    6.000    6.000    9.143 
#    0.000    0.000    0.000    0.000    0.000    0.000 
#    0.000    0.000    0.000    0.000    0.000    0.000 
#
# Total GULP energy -77984.977451 kJ/mol
# GULP energy per Si atom -5570.355532 kJ/mol
# Density = 2.424485 g / cm^3
# Si number density = 24.300157 Si / 1000 Ang^3
#
#
#
# Elastic Constant Matrix: (Units=GPa)
#
#
# Indices 1 2 3 4 5 6 
#
# 1 114.2390 48.9748 8.7845 2.8599 -15.4572 10.0112
# 2 48.9748 119.4731 48.2431 19.4076 -6.1517 23.0474
# 3 8.7845 48.2431 187.1413 14.2239 -15.1826 15.6978
# 4 2.8599 19.4076 14.2239 51.6536 10.8522 -6.5983
# 5 -15.4572 -6.1517 -15.1826 10.8522 25.3878 -6.8720
# 6 10.0112 23.0474 15.6978 -6.5983 -6.8720 39.7955
#
#
#
# Elastic Compliance Matrix: (Units=1/GPa)
#
#
# Indices 1 2 3 4 5 6 
#
# 1 0.011713 -0.004980 0.001305 -0.000556 0.007093 0.000555
# 2 -0.004980 0.013338 -0.002382 -0.004704 -0.000968 -0.006479
# 3 0.001305 -0.002382 0.006529 -0.002105 0.004736 -0.001055
# 4 -0.000556 -0.004704 -0.002105 0.024965 -0.011842 0.005789
# 5 0.007093 -0.000968 0.004736 -0.011842 0.052451 0.004002
# 6 0.000555 -0.006479 -0.001055 0.005789 0.004002 0.030808
#
#
# Mechanical properties :
#
#
# Convention : Reuss Voigt Hill
#
# Bulk Modulus (GPa) = 51.37191 70.31760 60.84475
# Shear Modulus (GPa) = 31.56440 44.35745 37.96093
#
# Velocity S-wave (km/s) = 3.60799 4.27710 3.95672
# Velocity P-wave (km/s) = 6.20832 7.30694 6.77992
#
# Compressibility (1/GPa) = 0.01946589
#
# Stress axis : x y z
#
# Youngs Moduli (GPa) = 85.37342 74.97629 153.15970
#
# Poissons Ratio (x) = 0.37339 -0.19990
# Poissons Ratio (y) = 0.42517 0.36483
# Poissons Ratio (z) = -0.11143 0.17860
#
# Static dielectric constant tensor:
#      x y z
#    x 2.059240 -0.038640 0.098580 
#    y -0.038640 2.145810 -0.045300 
#    z 0.098580 -0.045300 1.934130 
# 
# From -- ./inp_files/616002.got.cif
#   From: 2010.05.17/outbox.cif.g08.bks.cpg/sg2_309_cif.got.tgz:616002.got - 2010.06.03 11:33:40.
