data_PCOD9048685
_publ_section_title
;
Structure prediction by ZEFSAII (Michael W. Deem and Ramdas Pophale) SiO2 
 PCOD9048685
Probable space group: P -1
;
_chemical_formula_sum "Si O2"
_cell_formula_units_Z 14
_cell_length_a 6.719987
_cell_length_b 19.554630
_cell_length_c 10.014971
_cell_angle_alpha 141.566082
_cell_angle_beta 131.428512
_cell_angle_gamma 55.143007
_cell_volume 609.357719
_symmetry_space_group_name_H-M "P -1"
_symmetry_group_IT_number 2
_symmetry_cell_setting 'triclinic'
loop_
_space_group_symop_operation_xyz
x,y,z
-x,-y,-z
loop_
_atom_site_type_symbol
_atom_site_label
_atom_site_fract_x
_atom_site_fract_y
_atom_site_fract_z
Si Si1 0.406196 0.135435 0.311741
Si Si2 0.080509 0.368382 0.489299
Si Si3 0.600091 0.888419 0.448387
Si Si4 0.132957 0.426892 0.105063
Si Si5 0.210575 0.898863 0.819987
Si Si6 0.588740 0.458065 0.827392
Si Si7 0.579156 0.261555 0.088362
O O1 0.235770 0.254070 0.438223
O O2 0.557376 0.114066 0.485889
O O3 0.590898 0.138748 0.270606
O O4 0.240709 0.029428 0.055531
O O5 0.317999 0.416905 0.588775
O O6 0.963714 0.459103 0.685352
O O7 0.821128 0.327029 0.245927
O O8 0.911101 0.884845 0.620104
O O9 0.500000 0.000000 0.500000
O O10 0.541040 0.794573 0.177238
O O11 0.301472 0.457505 0.097710
O O12 0.332717 0.346810 0.160762
O O13 0.863410 0.378977 0.861010
O O14 0.310772 0.826109 0.882962
O O15 0.500000 0.500000 0.000000
#
# Coordination Sequence:
#
# PCOD9048685 Si02
#       7
#     2   2   2   2   2   2   2
#     4  11  25  47  76 102 146 193 237 301 368 428
#     4  11  24  45  70 104 144 196 236 297 364 426
#     4  12  25  47  76 108 145 190 244 298 367 437
#     4  10  24  45  71 103 146 194 246 293 364 435
#     4  11  26  51  71 108 150 188 240 308 366 430
#     4   9  22  43  68 102 141 191 243 301 355 423
#     4  12  26  46  74 109 149 192 242 304 364 432
#
# _framework density 22.975009
#
# number of rings (size 3 to 8) (size 9 to 14) (size 15 to 20)
#    0.000    1.143    2.857    1.714   10.000    1.143 
#    7.714    0.000    0.000    0.000    0.000    0.000 
#    0.000    0.000    0.000    0.000    0.000    0.000 
#
# Total GULP energy -78179.296878 kJ/mol
# GULP energy per Si atom -5584.235491 kJ/mol
# Density = 2.292272 g / cm^3
# Si number density = 22.975009 Si / 1000 Ang^3
#
#
#
# Elastic Constant Matrix: (Units=GPa)
#
#
# Indices 1 2 3 4 5 6 
#
# 1 122.8075 43.7286 73.4857 -0.0619 15.8357 6.7069
# 2 43.7286 84.6590 46.1966 -2.9707 -0.5931 -19.7673
# 3 73.4857 46.1966 146.9776 -3.8661 7.4533 0.9813
# 4 -0.0619 -2.9707 -3.8661 35.7753 -4.8151 -2.9727
# 5 15.8357 -0.5931 7.4533 -4.8151 49.2149 -1.0554
# 6 6.7069 -19.7673 0.9813 -2.9727 -1.0554 36.4953
#
#
#
# Elastic Compliance Matrix: (Units=1/GPa)
#
#
# Indices 1 2 3 4 5 6 
#
# 1 0.014170 -0.006140 -0.004955 -0.002095 -0.004218 -0.006089
# 2 -0.006140 0.019772 -0.003319 0.002727 0.003246 0.012243
# 3 -0.004955 -0.003319 0.010350 0.000747 0.000036 -0.001104
# 4 -0.002095 0.002727 0.000747 0.029090 0.003532 0.004313
# 5 -0.004218 0.003246 0.000036 0.003532 0.022130 0.003460
# 6 -0.006089 0.012243 -0.001104 0.004313 0.003460 0.035632
#
#
# Mechanical properties :
#
#
# Convention : Reuss Voigt Hill
#
# Bulk Modulus (GPa) = 64.67289 75.69622 70.18456
# Shear Modulus (GPa) = 30.28002 37.03263 33.65632
#
# Velocity S-wave (km/s) = 3.63430 4.01916 3.83157
# Velocity P-wave (km/s) = 6.76914 7.38627 7.08442
#
# Compressibility (1/GPa) = 0.01546243
#
# Stress axis : x y z
#
# Youngs Moduli (GPa) = 70.57366 50.57716 96.62075
#
# Poissons Ratio (x) = 0.31053 0.47878
# Poissons Ratio (y) = 0.43331 0.32072
# Poissons Ratio (z) = 0.34971 0.16788
#
# Static dielectric constant tensor:
#      x y z
#    x 1.906210 -0.013320 -0.009260 
#    y -0.013320 1.914460 0.025480 
#    z -0.009260 0.025480 1.924890 
# 
# From -- ./inp_files/138129.got.cif
#   From: 2010.05.17/outbox.cif.g08.bks.cpg/sg2_70_cif.got.tgz:138129.got - 2010.06.03 11:33:40.
