data_PCOD9048156
_publ_section_title
;
Structure prediction by ZEFSAII (Michael W. Deem and Ramdas Pophale) SiO2 
 PCOD9048156
Probable space group: P -1
;
_chemical_formula_sum "Si O2"
_cell_formula_units_Z 15
_cell_length_a 14.974165
_cell_length_b 11.016304
_cell_length_c 10.249243
_cell_angle_alpha 153.858174
_cell_angle_beta 125.909852
_cell_angle_gamma 51.984315
_cell_volume 584.117591
_symmetry_space_group_name_H-M "P -1"
_symmetry_group_IT_number 2
_symmetry_cell_setting 'triclinic'
loop_
_space_group_symop_operation_xyz
x,y,z
-x,-y,-z
loop_
_atom_site_type_symbol
_atom_site_label
_atom_site_fract_x
_atom_site_fract_y
_atom_site_fract_z
Si Si1 0.218336 0.622060 0.462782
Si Si2 0.300232 0.503744 0.802004
Si Si3 0.802603 0.837584 0.187067
Si Si4 0.979495 0.523198 0.712260
Si Si5 0.142660 0.110359 0.264589
Si Si6 0.557112 0.591790 0.414647
Si Si7 0.407022 0.219143 0.879846
Si Si8 0.000000 0.500000 0.000000
O O1 0.341976 0.426808 0.413891
O O2 0.131194 0.606731 0.487146
O O3 0.233981 0.922699 0.721202
O O4 0.164648 0.483047 0.160602
O O5 0.379366 0.559169 0.806162
O O6 0.370067 0.402548 0.895404
O O7 0.251871 0.239289 0.462151
O O8 0.196325 0.776517 0.002726
O O9 0.705144 0.840403 0.207937
O O10 0.930518 0.811721 0.310648
O O11 0.078733 0.283154 0.499772
O O12 0.939818 0.781158 0.823527
O O13 0.001952 0.641087 0.985343
O O14 0.491856 0.912572 0.636307
O O15 0.468149 0.411809 0.206820
#
# Coordination Sequence:
#
# PCOD9048156 Si02
#       8
#     2   2   2   2   2   2   2   1
#     4  11  25  44  70  97 142 181 238 273 362 410
#     4  12  25  46  72 104 139 189 229 301 347 427
#     4  11  26  45  69 102 135 188 223 292 342 435
#     4  10  24  45  71 112 140 193 227 303 342 443
#     4  11  25  43  76 105 148 180 245 281 367 413
#     4  12  25  44  71 100 139 188 230 299 341 416
#     4  12  26  44  69 102 141 177 243 284 354 402
#     4  10  24  44  74  98 148 174 234 278 368 406
#
# _framework density 25.679760000000002
#
# number of rings (size 3 to 8) (size 9 to 14) (size 15 to 20)
#    0.000    0.800    1.333    4.800    3.733   11.733 
#    0.000    0.000    0.000    0.000    0.000    0.000 
#    0.000    0.000    0.000    0.000    0.000    0.000 
#
# Total GULP energy -83818.044786 kJ/mol
# GULP energy per Si atom -5587.869652 kJ/mol
# Density = 2.562131 g / cm^3
# Si number density = 25.679760 Si / 1000 Ang^3
#
#
#
# Elastic Constant Matrix: (Units=GPa)
#
#
# Indices 1 2 3 4 5 6 
#
# 1 96.3347 51.9408 20.8181 -2.5993 -9.4229 0.6860
# 2 51.9408 136.0946 44.2031 10.4777 -12.1549 -5.9042
# 3 20.8181 44.2031 112.0318 11.9822 0.2116 -12.0840
# 4 -2.5993 10.4777 11.9822 29.1170 -6.2072 -8.5070
# 5 -9.4229 -12.1549 0.2116 -6.2072 40.0533 -0.6262
# 6 0.6860 -5.9042 -12.0840 -8.5070 -0.6262 41.3542
#
#
#
# Elastic Compliance Matrix: (Units=1/GPa)
#
#
# Indices 1 2 3 4 5 6 
#
# 1 0.013608 -0.004967 -0.001023 0.003787 0.002280 -0.000421
# 2 -0.004967 0.010557 -0.002942 -0.002617 0.001649 0.000217
# 3 -0.001023 -0.002942 0.010851 -0.003246 -0.001662 0.002075
# 4 0.003787 -0.002617 -0.003246 0.040394 0.006484 0.007023
# 5 0.002280 0.001649 -0.001662 0.006484 0.027040 0.001455
# 6 -0.000421 0.000217 0.002075 0.007023 0.001455 0.026292
#
#
# Mechanical properties :
#
#
# Convention : Reuss Voigt Hill
#
# Bulk Modulus (GPa) = 58.30732 64.26502 61.28617
# Shear Modulus (GPa) = 32.82454 37.27150 35.04802
#
# Velocity S-wave (km/s) = 3.57911 3.81385 3.69834
# Velocity P-wave (km/s) = 6.31149 6.66887 6.49264
#
# Compressibility (1/GPa) = 0.01715050
#
# Stress axis : x y z
#
# Youngs Moduli (GPa) = 73.48618 94.72054 92.15528
#
# Poissons Ratio (x) = 0.47050 0.09432
# Poissons Ratio (y) = 0.36503 0.27115
# Poissons Ratio (z) = 0.07521 0.27870
#
# Static dielectric constant tensor:
#      x y z
#    x 2.295360 -0.249940 0.217060 
#    y -0.249940 2.378290 -0.191660 
#    z 0.217060 -0.191660 2.123530 
# 
# From -- ./inp_files/452726.got.cif
#   From: 2010.05.17/outbox.cif.g08.bks.cpg/sg2_227_cif.got.tgz:452726.got - 2010.06.03 11:33:40.
