data_PCOD9048824
_publ_section_title
;
Structure prediction by ZEFSAII (Michael W. Deem and Ramdas Pophale) SiO2 
 PCOD9048824
Probable space group: P -1
;
_chemical_formula_sum "Si O2"
_cell_formula_units_Z 14
_cell_length_a 8.390018
_cell_length_b 7.771463
_cell_length_c 11.326297
_cell_angle_alpha 115.410436
_cell_angle_beta 106.212354
_cell_angle_gamma 107.003773
_cell_volume 563.559511
_symmetry_space_group_name_H-M "P -1"
_symmetry_group_IT_number 2
_symmetry_cell_setting 'triclinic'
loop_
_space_group_symop_operation_xyz
x,y,z
-x,-y,-z
loop_
_atom_site_type_symbol
_atom_site_label
_atom_site_fract_x
_atom_site_fract_y
_atom_site_fract_z
Si Si1 0.029154 0.792765 0.407970
Si Si2 0.015329 0.056944 0.798167
Si Si3 0.675047 0.967374 0.295087
Si Si4 0.302348 0.723938 0.044814
Si Si5 0.631107 0.502173 0.224610
Si Si6 0.351760 0.356938 0.329283
Si Si7 0.900004 0.620133 0.893462
O O1 0.010091 0.791255 0.261985
O O2 0.840198 0.583151 0.346632
O O3 0.226549 0.857341 0.529535
O O4 0.000000 0.000000 0.500000
O O5 0.160047 0.983598 0.751701
O O6 0.804663 0.870149 0.719697
O O7 0.103139 0.187467 0.973695
O O8 0.621698 0.725168 0.261869
O O9 0.483398 0.938395 0.190169
O O10 0.382463 0.614244 0.936124
O O11 0.122161 0.719801 0.944669
O O12 0.201230 0.578646 0.095818
O O13 0.473802 0.360489 0.242889
O O14 0.500000 0.500000 0.500000
O O15 0.216566 0.443590 0.269080
#
# Coordination Sequence:
#
# PCOD9048824 Si02
#       7
#     2   2   2   2   2   2   2
#     4   8  16  31  55  84 110 138 189 240 267 321
#     4  10  20  37  57  85 116 146 191 235 281 335
#     4  10  17  34  59  84 110 149 197 229 274 336
#     4  11  21  37  61  85 114 150 194 240 276 336
#     4  10  18  36  60  84 109 152 198 224 280 336
#     4  12  23  38  61  88 115 149 190 236 282 345
#     4  11  23  38  56  88 118 147 190 241 288 323
#
# _framework density 24.842096999999999
#
# number of rings (size 3 to 8) (size 9 to 14) (size 15 to 20)
#    0.000    2.000    4.286    4.286    0.000    0.000 
#    0.000    5.714    0.000    0.000    0.000    0.000 
#    0.000    0.000    0.000    0.000    0.000    0.000 
#
# Total GULP energy -78216.009779 kJ/mol
# GULP energy per Si atom -5586.857841 kJ/mol
# Density = 2.478556 g / cm^3
# Si number density = 24.842097 Si / 1000 Ang^3
#
#
#
# Elastic Constant Matrix: (Units=GPa)
#
#
# Indices 1 2 3 4 5 6 
#
# 1 116.7606 48.7871 68.5268 -3.4869 32.4980 38.5112
# 2 48.7871 54.3072 16.8570 4.6081 6.6912 28.5792
# 3 68.5268 16.8570 170.7312 2.5203 48.6944 3.0520
# 4 -3.4869 4.6081 2.5203 22.7040 8.0389 8.8182
# 5 32.4980 6.6912 48.6944 8.0389 51.2386 11.2752
# 6 38.5112 28.5792 3.0520 8.8182 11.2752 37.8921
#
#
#
# Elastic Compliance Matrix: (Units=1/GPa)
#
#
# Indices 1 2 3 4 5 6 
#
# 1 0.027061 -0.012186 -0.007654 0.017533 -0.006696 -0.019783
# 2 -0.012186 0.038372 -0.000870 -0.005654 0.008315 -0.017644
# 3 -0.007654 -0.000870 0.010918 -0.003785 -0.007138 0.010560
# 4 0.017533 -0.005654 -0.003785 0.061678 -0.011115 -0.024297
# 5 -0.006696 0.008315 -0.007138 -0.011115 0.032521 -0.005981
# 6 -0.019783 -0.017644 0.010560 -0.024297 -0.005981 0.066388
#
#
# Mechanical properties :
#
#
# Convention : Reuss Voigt Hill
#
# Bulk Modulus (GPa) = 28.62820 67.79343 48.21081
# Shear Modulus (GPa) = 17.24133 36.20883 26.72508
#
# Velocity S-wave (km/s) = 2.63732 3.82194 3.28349
# Velocity P-wave (km/s) = 4.56322 6.84290 5.81585
#
# Compressibility (1/GPa) = 0.03493060
#
# Stress axis : x y z
#
# Youngs Moduli (GPa) = 36.95396 26.06080 91.59250
#
# Poissons Ratio (x) = 0.31758 0.70102
# Poissons Ratio (y) = 0.45033 0.07968
# Poissons Ratio (z) = 0.28284 0.02267
#
# Static dielectric constant tensor:
#      x y z
#    x 2.042470 -0.094250 0.050510 
#    y -0.094250 2.006620 -0.043170 
#    z 0.050510 -0.043170 1.998660 
# 
# From -- ./inp_files/380092.got.cif
#   From: 2010.05.17/outbox.cif.g08.bks.cpg/sg2_191_cif.got.tgz:380092.got - 2010.06.03 11:33:40.
