data_PCOD9048254
_publ_section_title
;
Structure prediction by ZEFSAII (Michael W. Deem and Ramdas Pophale) SiO2 
 PCOD9048254
Probable space group: P -1
;
_chemical_formula_sum "Si O2"
_cell_formula_units_Z 16
_cell_length_a 8.004756
_cell_length_b 18.832704
_cell_length_c 23.941321
_cell_angle_alpha 156.938868
_cell_angle_beta 44.684560
_cell_angle_gamma 148.680126
_cell_volume 683.196430
_symmetry_space_group_name_H-M "P -1"
_symmetry_group_IT_number 2
_symmetry_cell_setting 'triclinic'
loop_
_space_group_symop_operation_xyz
x,y,z
-x,-y,-z
loop_
_atom_site_type_symbol
_atom_site_label
_atom_site_fract_x
_atom_site_fract_y
_atom_site_fract_z
Si Si1 0.583741 0.549334 0.081001
Si Si2 0.276435 0.730983 0.326222
Si Si3 0.684835 0.755012 0.964844
Si Si4 0.346104 0.924675 0.203135
Si Si5 0.246327 0.807900 0.872315
Si Si6 0.224717 0.305332 0.654844
Si Si7 0.376141 0.631844 0.617491
Si Si8 0.283553 0.679998 0.513369
O O1 0.545169 0.738720 0.241865
O O2 0.333930 0.313918 0.014852
O O3 0.951816 0.668077 0.096508
O O4 0.500000 0.500000 0.000000
O O5 0.042524 0.487855 0.248982
O O6 0.022033 0.685082 0.309125
O O7 0.500000 0.000000 0.500000
O O8 0.410118 0.495467 0.802871
O O9 0.056521 0.884873 0.951502
O O10 0.588224 0.912106 0.106077
O O11 0.419160 0.163437 0.333671
O O12 0.456094 0.018125 0.308941
O O13 0.448459 0.807207 0.777731
O O14 0.500000 0.000000 0.000000
O O15 0.513798 0.387995 0.602614
O O16 0.000000 0.000000 0.500000
O O17 0.500000 0.500000 0.500000
O O18 0.964555 0.404867 0.540148
O O19 0.000000 0.500000 0.500000
#
# Coordination Sequence:
#
# PCOD9048254 Si02
#       8
#     2   2   2   2   2   2   2   2
#     4  11  25  45  68 103 141 182 235 299 370 432
#     4  11  26  45  73 104 141 191 243 299 359 434
#     4  11  25  46  68 108 137 185 245 293 368 437
#     4  11  25  43  71 100 142 186 233 300 363 435
#     4  11  27  46  70 104 146 187 242 298 362 435
#     4  12  24  44  75 101 145 193 248 305 360 437
#     4  11  27  44  70 101 140 188 239 293 364 432
#     4  10  24  45  64 102 138 186 238 293 364 428
#
# _framework density 23.419325000000001
#
# number of rings (size 3 to 8) (size 9 to 14) (size 15 to 20)
#    0.000    1.000    1.250    4.125   12.250    2.500 
#    0.000    0.000    0.000    0.000    0.000    0.000 
#    0.000    0.000    0.000    0.000    0.000    0.000 
#
# Total GULP energy -89469.089530 kJ/mol
# GULP energy per Si atom -5591.818096 kJ/mol
# Density = 2.336602 g / cm^3
# Si number density = 23.419325 Si / 1000 Ang^3
#
#
#
# Elastic Constant Matrix: (Units=GPa)
#
#
# Indices 1 2 3 4 5 6 
#
# 1 107.0464 8.5509 30.6208 -18.3735 -5.2518 21.4903
# 2 8.5509 51.4677 3.3621 -15.8696 -1.0148 7.4675
# 3 30.6208 3.3621 108.4748 -26.5966 11.1221 6.9419
# 4 -18.3735 -15.8696 -26.5966 35.8425 5.3648 -0.7808
# 5 -5.2518 -1.0148 11.1221 5.3648 61.4457 -5.0893
# 6 21.4903 7.4675 6.9419 -0.7808 -5.0893 39.8963
#
#
#
# Elastic Compliance Matrix: (Units=1/GPa)
#
#
# Indices 1 2 3 4 5 6 
#
# 1 0.011877 0.000484 -0.001874 0.004714 0.000453 -0.006012
# 2 0.000484 0.023913 0.002826 0.013066 -0.001645 -0.005182
# 3 -0.001874 0.002826 0.012622 0.010130 -0.003445 -0.001957
# 4 0.004714 0.013066 0.010130 0.044317 -0.005631 -0.006598
# 5 0.000453 -0.001645 -0.003445 -0.005631 0.017633 0.002803
# 6 -0.006012 -0.005182 -0.001957 -0.006598 0.002803 0.029842
#
#
# Mechanical properties :
#
#
# Convention : Reuss Voigt Hill
#
# Bulk Modulus (GPa) = 19.49875 39.11736 29.30806
# Shear Modulus (GPa) = 32.37752 42.40059 37.38905
#
# Velocity S-wave (km/s) = 3.72225 4.25961 3.99996
# Velocity P-wave (km/s) = 5.17856 6.39778 5.82019
#
# Compressibility (1/GPa) = 0.05128533
#
# Stress axis : x y z
#
# Youngs Moduli (GPa) = 84.19380 41.81820 79.22512
#
# Poissons Ratio (x) = -0.02023 0.14845
# Poissons Ratio (y) = -0.04073 -0.22392
# Poissons Ratio (z) = 0.15776 -0.11819
#
# Static dielectric constant tensor:
#      x y z
#    x 1.908100 -0.033960 0.066340 
#    y -0.033960 1.987650 0.007770 
#    z 0.066340 0.007770 1.871750 
# 
# From -- ./inp_files/608666.got.cif
#   From: 2010.05.17/outbox.cif.g08.bks.cpg/sg2_305_cif.got.tgz:608666.got - 2010.06.03 11:33:40.
