data_PCOD9048152
_publ_section_title
;
Structure prediction by ZEFSAII (Michael W. Deem and Ramdas Pophale) SiO2 
 PCOD9048152
Probable space group: P -1
;
_chemical_formula_sum "Si O2"
_cell_formula_units_Z 13
_cell_length_a 14.013028
_cell_length_b 9.070454
_cell_length_c 10.595435
_cell_angle_alpha 93.462616
_cell_angle_beta 31.875207
_cell_angle_gamma 111.984116
_cell_volume 560.914608
_symmetry_space_group_name_H-M "P -1"
_symmetry_group_IT_number 2
_symmetry_cell_setting 'triclinic'
loop_
_space_group_symop_operation_xyz
x,y,z
-x,-y,-z
loop_
_atom_site_type_symbol
_atom_site_label
_atom_site_fract_x
_atom_site_fract_y
_atom_site_fract_z
Si Si1 0.645753 0.629467 0.225015
Si Si2 0.006181 0.899262 0.363709
Si Si3 0.000000 0.500000 0.000000
Si Si4 0.506523 0.830576 0.503936
Si Si5 0.486899 0.904205 0.140833
Si Si6 0.856813 0.057255 0.330778
Si Si7 0.300306 0.506496 0.417060
O O1 0.500000 0.500000 0.500000
O O2 0.607339 0.786676 0.274470
O O3 0.515543 0.522575 0.238035
O O4 0.913258 0.739350 0.957719
O O5 0.839877 0.676591 0.522302
O O6 0.937836 0.977041 0.333982
O O7 0.000000 0.000000 0.500000
O O8 0.261230 0.964632 0.077796
O O9 0.244421 0.652108 0.803598
O O10 0.145712 0.492574 0.708628
O O11 0.500000 0.000000 0.500000
O O12 0.701760 0.901652 0.392484
O O13 0.307053 0.903593 0.425180
O O14 0.398203 0.691192 0.233345
O O15 0.500000 0.000000 0.000000
#
# Coordination Sequence:
#
# PCOD9048152 Si02
#       7
#     2   2   1   2   2   2   2
#     4  11  25  44  70 115 156 200 259 314 404 481
#     4  12  27  54  76 112 154 208 276 332 383 470
#     4  10  24  44  74 118 158 194 250 316 402 480
#     4  11  25  42  73 110 159 203 250 317 397 478
#     4  12  27  52  74 112 153 208 269 324 394 464
#     4  12  25  48  77 108 161 208 264 326 392 472
#     4  11  26  47  79 110 160 204 259 329 400 472
#
# _framework density 23.176434
#
# number of rings (size 3 to 8) (size 9 to 14) (size 15 to 20)
#    0.000    0.615    3.077    4.154   10.769    1.231 
#    2.769    0.000    0.000    0.000    0.000    0.000 
#    0.000    0.000    0.000    0.000    0.000    0.000 
#
# Total GULP energy -72375.922002 kJ/mol
# GULP energy per Si atom -5567.378616 kJ/mol
# Density = 2.312368 g / cm^3
# Si number density = 23.176434 Si / 1000 Ang^3
#
#
#
# Elastic Constant Matrix: (Units=GPa)
#
#
# Indices 1 2 3 4 5 6 
#
# 1 148.6077 33.6551 64.9826 -38.1690 -29.3291 8.9929
# 2 33.6551 101.2251 43.9444 -37.9442 -9.9202 12.3689
# 3 64.9826 43.9444 167.5282 -23.3120 -50.3590 22.7386
# 4 -38.1690 -37.9442 -23.3120 48.5714 -1.7719 -6.6448
# 5 -29.3291 -9.9202 -50.3590 -1.7719 50.8703 -8.1212
# 6 8.9929 12.3689 22.7386 -6.6448 -8.1212 36.2649
#
#
#
# Elastic Compliance Matrix: (Units=1/GPa)
#
#
# Indices 1 2 3 4 5 6 
#
# 1 0.010302 0.000743 -0.001735 0.008132 0.004784 0.000842
# 2 0.000743 0.015054 -0.001995 0.011212 0.001512 -0.001675
# 3 -0.001735 -0.001995 0.010418 0.001955 0.008487 -0.003163
# 4 0.008132 0.011212 0.001955 0.037347 0.010450 0.002116
# 5 0.004784 0.001512 0.008487 0.010450 0.031798 0.002012
# 6 0.000842 -0.001675 -0.003163 0.002116 0.002012 0.030759
#
#
# Mechanical properties :
#
#
# Convention : Reuss Voigt Hill
#
# Bulk Modulus (GPa) = 33.55808 78.05835 55.80822
# Shear Modulus (GPa) = 32.98478 45.45994 39.22236
#
# Velocity S-wave (km/s) = 3.77663 4.43366 4.11827
# Velocity P-wave (km/s) = 5.79034 7.74357 6.83707
#
# Compressibility (1/GPa) = 0.02979908
#
# Stress axis : x y z
#
# Youngs Moduli (GPa) = 97.07108 66.42832 95.98750
#
# Poissons Ratio (x) = -0.04933 0.16656
# Poissons Ratio (y) = -0.07209 0.19146
# Poissons Ratio (z) = 0.16844 0.13250
#
# Static dielectric constant tensor:
#      x y z
#    x 2.011570 0.007020 -0.010930 
#    y 0.007020 1.999980 -0.040270 
#    z -0.010930 -0.040270 1.951360 
# 
# From -- ./inp_files/445962.got.cif
#   From: 2010.05.17/outbox.cif.g08.bks.cpg/sg2_223_cif.got.tgz:445962.got - 2010.06.03 11:33:40.
