data_PCOD9048004
_publ_section_title
;
Structure prediction by ZEFSAII (Michael W. Deem and Ramdas Pophale) SiO2 
 PCOD9048004
Probable space group: P -1
;
_chemical_formula_sum "Si O2"
_cell_formula_units_Z 14
_cell_length_a 22.136916
_cell_length_b 15.221618
_cell_length_c 12.700667
_cell_angle_alpha 140.594728
_cell_angle_beta 29.104874
_cell_angle_gamma 161.410846
_cell_volume 619.668400
_symmetry_space_group_name_H-M "P -1"
_symmetry_group_IT_number 2
_symmetry_cell_setting 'triclinic'
loop_
_space_group_symop_operation_xyz
x,y,z
-x,-y,-z
loop_
_atom_site_type_symbol
_atom_site_label
_atom_site_fract_x
_atom_site_fract_y
_atom_site_fract_z
Si Si1 0.943405 0.366804 0.852273
Si Si2 0.284766 0.265860 0.863456
Si Si3 0.619652 0.258119 0.602228
Si Si4 0.743070 0.346824 0.952763
Si Si5 0.265211 0.160110 0.023357
Si Si6 0.637939 0.331300 0.873757
Si Si7 0.336097 0.439770 0.616815
O O1 0.170655 0.488811 0.572959
O O2 0.932200 0.462058 0.858127
O O3 0.000000 0.500000 0.000000
O O4 0.660534 0.015548 0.971393
O O5 0.491930 0.390617 0.592151
O O6 0.245219 0.138058 0.908512
O O7 0.368683 0.508502 0.976767
O O8 0.000000 0.000000 0.000000
O O9 0.734567 0.367044 0.647097
O O10 0.500000 0.000000 0.500000
O O11 0.377454 0.126783 0.862167
O O12 0.670147 0.420524 0.185367
O O13 0.804140 0.443878 0.827393
O O14 0.500000 0.000000 0.000000
O O15 0.500000 0.500000 0.000000
O O16 0.963975 0.898189 0.270470
O O17 0.500000 0.500000 0.500000
#
# Coordination Sequence:
#
# PCOD9048004 Si02
#       7
#     2   2   2   2   2   2   2
#     4  11  25  45  71 103 150 190 243 302 373 438
#     4  12  26  45  73 105 147 194 247 301 368 442
#     4  12  26  45  73 104 149 190 243 308 366 439
#     4  10  24  44  72 106 138 194 252 294 368 442
#     4  12  28  45  70 114 144 191 253 297 373 441
#     4  11  24  45  70 106 145 188 250 302 367 441
#     4  12  25  47  76 103 150 193 242 310 368 436
#
# _framework density 22.592727
#
# number of rings (size 3 to 8) (size 9 to 14) (size 15 to 20)
#    0.000    0.571    5.714    0.857    4.000    3.429 
#    0.000    0.000    0.000    0.000    0.000    0.000 
#    0.000    0.000    0.000    0.000    0.000    0.000 
#
# Total GULP energy -78193.873550 kJ/mol
# GULP energy per Si atom -5585.276682 kJ/mol
# Density = 2.254130 g / cm^3
# Si number density = 22.592727 Si / 1000 Ang^3
#
#
#
# Elastic Constant Matrix: (Units=GPa)
#
#
# Indices 1 2 3 4 5 6 
#
# 1 122.6710 -0.5713 27.7778 3.7970 17.6112 17.6603
# 2 -0.5713 125.3013 42.0690 2.7573 -1.1301 14.6548
# 3 27.7778 42.0690 102.5967 -15.1569 21.7252 13.6952
# 4 3.7970 2.7573 -15.1569 48.8037 -3.7744 -2.7104
# 5 17.6112 -1.1301 21.7252 -3.7744 54.2661 3.2246
# 6 17.6603 14.6548 13.6952 -2.7104 3.2246 33.8160
#
#
#
# Elastic Compliance Matrix: (Units=1/GPa)
#
#
# Indices 1 2 3 4 5 6 
#
# 1 0.009746 0.001453 -0.002485 -0.002027 -0.002000 -0.004685
# 2 0.001453 0.010052 -0.004727 -0.002215 0.001687 -0.003539
# 3 -0.002485 -0.004727 0.014195 0.004426 -0.004571 -0.001612
# 4 -0.002027 -0.002215 0.004426 0.022279 0.000271 0.001986
# 5 -0.002000 0.001687 -0.004571 0.000271 0.020950 0.000189
# 6 -0.004685 -0.003539 -0.001612 0.001986 0.000189 0.034346
#
#
# Mechanical properties :
#
#
# Convention : Reuss Voigt Hill
#
# Bulk Modulus (GPa) = 44.49397 54.34668 49.42033
# Shear Modulus (GPa) = 38.29128 46.13007 42.21068
#
# Velocity S-wave (km/s) = 4.12132 4.52354 4.32711
# Velocity P-wave (km/s) = 6.51028 7.16871 6.84741
#
# Compressibility (1/GPa) = 0.02247495
#
# Stress axis : x y z
#
# Youngs Moduli (GPa) = 102.60914 99.47815 70.44674
#
# Poissons Ratio (x) = -0.14457 0.17506
# Poissons Ratio (y) = -0.14912 0.33303
# Poissons Ratio (z) = 0.25499 0.47027
#
# Static dielectric constant tensor:
#      x y z
#    x 5.656780 1.783550 -1.930120 
#    y 1.783550 2.651350 -0.897880 
#    z -1.930120 -0.897880 2.793630 
# 
# From -- ./inp_files/471953.got.cif
#   From: 2010.05.17/outbox.cif.g08.bks.cpg/sg2_236_cif.got.tgz:471953.got - 2010.06.03 11:33:40.
