data_PCOD9048212
_publ_section_title
;
Structure prediction by ZEFSAII (Michael W. Deem and Ramdas Pophale) SiO2 
 PCOD9048212
Probable space group: P -1
;
_chemical_formula_sum "Si O2"
_cell_formula_units_Z 12
_cell_length_a 4.946464
_cell_length_b 9.014521
_cell_length_c 10.825873
_cell_angle_alpha 94.053687
_cell_angle_beta 89.636375
_cell_angle_gamma 118.858482
_cell_volume 421.507343
_symmetry_space_group_name_H-M "P -1"
_symmetry_group_IT_number 2
_symmetry_cell_setting 'triclinic'
loop_
_space_group_symop_operation_xyz
x,y,z
-x,-y,-z
loop_
_atom_site_type_symbol
_atom_site_label
_atom_site_fract_x
_atom_site_fract_y
_atom_site_fract_z
Si Si1 0.260266 0.725953 0.219291
Si Si2 0.690993 0.134129 0.401681
Si Si3 0.264259 0.474857 0.389631
Si Si4 0.906983 0.626026 0.887114
Si Si5 0.404200 0.181105 0.014679
Si Si6 0.095856 0.005054 0.247125
O O1 0.331893 0.655376 0.340165
O O2 0.094193 0.553660 0.128468
O O3 0.060118 0.817329 0.253722
O O4 0.534234 0.843747 0.130380
O O5 0.131181 0.952595 0.672189
O O6 0.933118 0.332027 0.434998
O O7 0.500000 0.000000 0.500000
O O8 0.426817 0.127355 0.315445
O O9 0.500000 0.500000 0.500000
O O10 0.239765 0.382317 0.250112
O O11 0.698782 0.674027 0.976548
O O12 0.261190 0.761830 0.920314
O O13 0.161681 0.046985 0.104306
#
# Coordination Sequence:
#
# PCOD9048212 Si02
#       6
#     2   2   2   2   2   2
#     4  10  25  43  79 120 156 203 265 323 396 477
#     4  12  28  52  78 107 159 218 265 322 400 472
#     4  10  24  54  80 112 158 209 274 328 387 472
#     4  10  24  44  77 104 164 200 266 316 397 454
#     4  12  21  48  77 116 157 211 254 324 400 482
#     4  12  24  49  73 118 160 204 258 333 399 474
#
# _framework density 28.469256000000001
#
# number of rings (size 3 to 8) (size 9 to 14) (size 15 to 20)
#    1.000    0.000    3.333    2.000    0.000    5.333 
#    3.000    6.667    0.000    0.000    0.000    0.000 
#    0.000    0.000    0.000    0.000    0.000    0.000 
#
# Total GULP energy -67121.889213 kJ/mol
# GULP energy per Si atom -5593.490768 kJ/mol
# Density = 2.840446 g / cm^3
# Si number density = 28.469256 Si / 1000 Ang^3
#
#
#
# Elastic Constant Matrix: (Units=GPa)
#
#
# Indices 1 2 3 4 5 6 
#
# 1 221.1496 67.7410 78.1932 -2.1663 -15.9185 -13.0488
# 2 67.7410 165.6316 70.2379 -30.5066 0.0422 -15.0416
# 3 78.1932 70.2379 206.4016 -22.4653 13.6685 20.4296
# 4 -2.1663 -30.5066 -22.4653 46.5744 3.0816 14.9570
# 5 -15.9185 0.0422 13.6685 3.0816 55.8522 -6.3715
# 6 -13.0488 -15.0416 20.4296 14.9570 -6.3715 45.1081
#
#
#
# Elastic Compliance Matrix: (Units=1/GPa)
#
#
# Indices 1 2 3 4 5 6 
#
# 1 0.006574 -0.001743 -0.002985 -0.003923 0.003329 0.004443
# 2 -0.001743 0.008490 -0.001996 0.003895 -0.000008 0.001938
# 3 -0.002985 -0.001996 0.008237 0.005219 -0.004015 -0.007557
# 4 -0.003923 0.003895 0.005219 0.030991 -0.005622 -0.013270
# 5 0.003329 -0.000008 -0.004015 -0.005622 0.021014 0.007611
# 6 0.004443 0.001938 -0.007557 -0.013270 0.007611 0.032999
#
#
# Mechanical properties :
#
#
# Convention : Reuss Voigt Hill
#
# Bulk Modulus (GPa) = 101.48287 113.94745 107.71516
# Shear Modulus (GPa) = 39.98775 54.64098 47.31436
#
# Velocity S-wave (km/s) = 3.75186 4.38573 4.08112
# Velocity P-wave (km/s) = 7.38190 8.10912 7.75404
#
# Compressibility (1/GPa) = 0.00985388
#
# Stress axis : x y z
#
# Youngs Moduli (GPa) = 152.10475 117.78062 121.40344
#
# Poissons Ratio (x) = 0.20529 0.36236
# Poissons Ratio (y) = 0.26511 0.24235
# Poissons Ratio (z) = 0.45399 0.23512
#
# Static dielectric constant tensor:
#      x y z
#    x 2.217400 0.024820 0.050020 
#    y 0.024820 2.318590 -0.013360 
#    z 0.050020 -0.013360 2.323240 
# 
# From -- ./inp_files/362033.got.cif
#   From: 2010.05.17/outbox.cif.g08.bks.cpg/sg2_182_cif.got.tgz:362033.got - 2010.06.03 11:33:40.
