data_PCOD9048563
_publ_section_title
;
Structure prediction by ZEFSAII (Michael W. Deem and Ramdas Pophale) SiO2 
 PCOD9048563
Probable space group: P -1
;
_chemical_formula_sum "Si O2"
_cell_formula_units_Z 16
_cell_length_a 11.490327
_cell_length_b 13.500564
_cell_length_c 6.111965
_cell_angle_alpha 96.331538
_cell_angle_beta 124.535672
_cell_angle_gamma 106.227766
_cell_volume 705.318329
_symmetry_space_group_name_H-M "P -1"
_symmetry_group_IT_number 2
_symmetry_cell_setting 'triclinic'
loop_
_space_group_symop_operation_xyz
x,y,z
-x,-y,-z
loop_
_atom_site_type_symbol
_atom_site_label
_atom_site_fract_x
_atom_site_fract_y
_atom_site_fract_z
Si Si1 0.220602 0.731826 0.388311
Si Si2 0.683742 0.568156 0.884320
Si Si3 0.063818 0.418777 0.162897
Si Si4 0.573749 0.014818 0.329281
Si Si5 0.523434 0.340926 0.541962
Si Si6 0.253605 0.108186 0.324778
Si Si7 0.044404 0.935553 0.726906
Si Si8 0.997400 0.692237 0.500778
O O1 0.312062 0.859456 0.519995
O O2 0.335958 0.683649 0.405481
O O3 0.142207 0.686662 0.525290
O O4 0.067047 0.700558 0.071601
O O5 0.770327 0.562744 0.748050
O O6 0.595822 0.439540 0.820773
O O7 0.555899 0.613351 0.715214
O O8 0.831252 0.653088 0.191993
O O9 0.051681 0.405656 0.401198
O O10 0.000000 0.500000 0.000000
O O11 0.500000 0.000000 0.500000
O O12 0.668024 0.940397 0.425712
O O13 0.500000 0.000000 0.000000
O O14 0.383392 0.228380 0.439564
O O15 0.097296 0.106335 0.260492
O O16 0.195690 0.025209 0.034384
O O17 0.054422 0.822369 0.641129
O O18 0.000000 0.000000 0.500000
#
# Coordination Sequence:
#
# PCOD9048563 Si02
#       8
#     2   2   2   2   2   2   2   2
#     4  11  25  43  71 104 140 190 237 305 366 443
#     4  10  24  45  70 100 141 184 237 299 362 442
#     4  11  23  47  69  96 137 185 245 295 360 433
#     4  12  28  46  70 109 153 199 245 310 383 458
#     4  11  22  46  69 102 147 182 234 296 373 439
#     4  11  25  45  73 102 144 189 242 303 373 444
#     4  11  24  45  75 105 139 186 246 306 374 452
#     4  11  25  43  74 103 139 187 247 300 368 443
#
# _framework density 22.684792999999999
#
# number of rings (size 3 to 8) (size 9 to 14) (size 15 to 20)
#    0.000    1.000    2.500    3.000    5.250    7.000 
#    2.250    8.125    0.000    0.000    0.000    0.000 
#    0.000    0.000    0.000    0.000    0.000    0.000 
#
# Total GULP energy -89198.360694 kJ/mol
# GULP energy per Si atom -5574.897543 kJ/mol
# Density = 2.263316 g / cm^3
# Si number density = 22.684793 Si / 1000 Ang^3
#
#
#
# Elastic Constant Matrix: (Units=GPa)
#
#
# Indices 1 2 3 4 5 6 
#
# 1 55.0373 9.0783 11.6280 -1.7447 14.2945 6.9706
# 2 9.0783 127.8902 55.9993 20.7491 7.6842 -8.7703
# 3 11.6280 55.9993 81.8164 11.0851 14.7068 14.5804
# 4 -1.7447 20.7491 11.0851 50.2196 5.3128 3.6896
# 5 14.2945 7.6842 14.7068 5.3128 27.8718 4.8117
# 6 6.9706 -8.7703 14.5804 3.6896 4.8117 24.4960
#
#
#
# Elastic Compliance Matrix: (Units=1/GPa)
#
#
# Indices 1 2 3 4 5 6 
#
# 1 0.021974 -0.002270 0.001018 0.003054 -0.010723 -0.006025
# 2 -0.002270 0.014724 -0.011834 -0.004734 0.001957 0.013290
# 3 0.001018 -0.011834 0.024475 0.001619 -0.007395 -0.017886
# 4 0.003054 -0.004734 0.001619 0.022524 -0.004362 -0.006063
# 5 -0.010723 0.001957 -0.007395 -0.004362 0.045597 -0.000146
# 6 -0.006025 0.013290 -0.017886 -0.006063 -0.000146 0.058883
#
#
# Mechanical properties :
#
#
# Convention : Reuss Voigt Hill
#
# Bulk Modulus (GPa) = 28.57061 46.46168 37.51614
# Shear Modulus (GPa) = 22.12240 33.05336 27.58788
#
# Velocity S-wave (km/s) = 3.12622 3.82130 3.49110
# Velocity P-wave (km/s) = 5.06487 6.32421 5.72925
#
# Compressibility (1/GPa) = 0.03500100
#
# Stress axis : x y z
#
# Youngs Moduli (GPa) = 45.50896 67.91709 40.85823
#
# Poissons Ratio (x) = 0.15417 -0.04160
# Poissons Ratio (y) = 0.10331 0.48351
# Poissons Ratio (z) = -0.04634 0.80373
#
# Static dielectric constant tensor:
#      x y z
#    x 1.895260 -0.001560 -0.088690 
#    y -0.001560 1.838630 -0.007690 
#    z -0.088690 -0.007690 1.999590 
# 
# From -- ./inp_files/78054.got.cif
#   From: 2010.05.17/outbox.cif.g08.bks.cpg/sg2_40_cif.got.tgz:78054.got - 2010.06.03 11:33:40.
