data_PCOD9048015
_publ_section_title
;
Structure prediction by ZEFSAII (Michael W. Deem and Ramdas Pophale) SiO2 
 PCOD9048015
Probable space group: P -1
;
_chemical_formula_sum "Si O2"
_cell_formula_units_Z 16
_cell_length_a 13.499716
_cell_length_b 19.666534
_cell_length_c 8.092590
_cell_angle_alpha 58.920195
_cell_angle_beta 57.099908
_cell_angle_gamma 22.443695
_cell_volume 688.024121
_symmetry_space_group_name_H-M "P -1"
_symmetry_group_IT_number 2
_symmetry_cell_setting 'triclinic'
loop_
_space_group_symop_operation_xyz
x,y,z
-x,-y,-z
loop_
_atom_site_type_symbol
_atom_site_label
_atom_site_fract_x
_atom_site_fract_y
_atom_site_fract_z
Si Si1 0.625439 0.853816 0.464361
Si Si2 0.609179 0.649847 0.143461
Si Si3 0.743999 0.800705 0.084409
Si Si4 0.023920 0.508414 0.742420
Si Si5 0.953238 0.866860 0.368405
Si Si6 0.795625 0.292113 0.020489
Si Si7 0.822894 0.366891 0.245655
Si Si8 0.983043 0.998188 0.714441
O O1 0.777055 0.804737 0.238325
O O2 0.845402 0.662691 0.579819
O O3 0.500000 0.000000 0.500000
O O4 0.353834 0.970889 0.519153
O O5 0.581798 0.574794 0.199697
O O6 0.310631 0.859886 0.164337
O O7 0.772760 0.550475 0.290820
O O8 0.787395 0.606587 0.936626
O O9 0.775072 0.687203 0.218890
O O10 0.951839 0.701599 0.884861
O O11 0.500000 0.000000 0.000000
O O12 0.136514 0.708014 0.532747
O O13 0.979309 0.943249 0.294755
O O14 0.039367 0.796830 0.188927
O O15 0.868351 0.288947 0.135968
O O16 0.500000 0.500000 0.000000
O O17 0.807198 0.191888 0.174828
O O18 0.000000 0.000000 0.500000
#
# Coordination Sequence:
#
# PCOD9048015 Si02
#       8
#     2   2   2   2   2   2   2   2
#     4  12  25  44  72 111 146 187 248 303 367 434
#     4  10  24  44  75 102 150 185 251 290 376 432
#     4  11  24  42  69 101 140 184 240 290 364 432
#     4  10  24  44  72 108 142 195 237 314 359 430
#     4  12  26  47  77 103 154 193 240 303 372 434
#     4  12  28  47  73 106 142 186 250 299 359 435
#     4  11  24  47  71 109 138 197 235 304 364 429
#     4  12  27  47  73 108 144 201 240 300 369 438
#
# _framework density 23.254998000000001
#
# number of rings (size 3 to 8) (size 9 to 14) (size 15 to 20)
#    0.000    0.750    2.500    3.750    8.750    3.000 
#    0.000    0.000    0.000    0.000    0.000    0.000 
#    0.000    0.000    0.000    0.000    0.000    0.000 
#
# Total GULP energy -89165.464464 kJ/mol
# GULP energy per Si atom -5572.841529 kJ/mol
# Density = 2.320207 g / cm^3
# Si number density = 23.254998 Si / 1000 Ang^3
#
#
#
# Elastic Constant Matrix: (Units=GPa)
#
#
# Indices 1 2 3 4 5 6 
#
# 1 100.3124 27.4283 22.2207 -2.8035 -3.1369 21.7707
# 2 27.4283 127.1106 38.7656 -28.6141 -5.9829 15.3964
# 3 22.2207 38.7656 118.9038 -29.1718 9.5140 12.0898
# 4 -2.8035 -28.6141 -29.1718 45.5824 -0.1121 -0.8359
# 5 -3.1369 -5.9829 9.5140 -0.1121 30.1568 3.6317
# 6 21.7707 15.3964 12.0898 -0.8359 3.6317 42.2668
#
#
#
# Elastic Compliance Matrix: (Units=1/GPa)
#
#
# Indices 1 2 3 4 5 6 
#
# 1 0.011968 -0.001663 -0.001686 -0.001479 0.002078 -0.005284
# 2 -0.001663 0.010382 -0.001745 0.005258 0.002765 -0.002560
# 3 -0.001686 -0.001745 0.011185 0.005927 -0.003878 -0.001245
# 4 -0.001479 0.005258 0.005927 0.028899 -0.000605 -0.002225
# 5 0.002078 0.002765 -0.003878 -0.000605 0.035633 -0.004042
# 6 -0.005284 -0.002560 -0.001245 -0.002225 -0.004042 0.027973
#
#
# Mechanical properties :
#
#
# Convention : Reuss Voigt Hill
#
# Bulk Modulus (GPa) = 42.83362 58.12845 50.48104
# Shear Modulus (GPa) = 34.71996 40.79534 37.75765
#
# Velocity S-wave (km/s) = 3.86814 4.19293 4.03381
# Velocity P-wave (km/s) = 6.19751 6.96357 6.59168
#
# Compressibility (1/GPa) = 0.02334615
#
# Stress axis : x y z
#
# Youngs Moduli (GPa) = 83.55953 96.31970 89.40460
#
# Poissons Ratio (x) = 0.16021 0.15074
# Poissons Ratio (y) = 0.13899 0.15601
# Poissons Ratio (z) = 0.14088 0.16807
#
# Static dielectric constant tensor:
#      x y z
#    x 2.078960 0.270230 -0.014630 
#    y 0.270230 2.558610 -0.057610 
#    z -0.014630 -0.057610 1.844550 
# 
# From -- ./inp_files/319250.got.cif
#   From: 2010.05.17/outbox.cif.g08.bks.cpg/sg2_160_cif.got.tgz:319250.got - 2010.06.03 11:33:40.
