data_PCOD9048449
_publ_section_title
;
Structure prediction by ZEFSAII (Michael W. Deem and Ramdas Pophale) SiO2 
 PCOD9048449
Probable space group: P -1
;
_chemical_formula_sum "Si O2"
_cell_formula_units_Z 14
_cell_length_a 10.360225
_cell_length_b 9.927650
_cell_length_c 6.812182
_cell_angle_alpha 121.119454
_cell_angle_beta 95.340235
_cell_angle_gamma 59.292899
_cell_volume 501.635572
_symmetry_space_group_name_H-M "P -1"
_symmetry_group_IT_number 2
_symmetry_cell_setting 'triclinic'
loop_
_space_group_symop_operation_xyz
x,y,z
-x,-y,-z
loop_
_atom_site_type_symbol
_atom_site_label
_atom_site_fract_x
_atom_site_fract_y
_atom_site_fract_z
Si Si1 0.662639 0.441058 0.383130
Si Si2 0.352263 0.088955 0.904906
Si Si3 0.101441 0.082916 0.022300
Si Si4 0.955587 0.557982 0.757133
Si Si5 0.159320 0.648538 0.259889
Si Si6 0.402911 0.298977 0.761707
Si Si7 0.257668 0.847704 0.180744
O O1 0.500000 0.500000 0.500000
O O2 0.785957 0.362428 0.516209
O O3 0.351693 0.381903 0.599413
O O4 0.698493 0.289793 0.105369
O O5 0.382435 0.139673 0.732654
O O6 0.248927 0.998018 0.832095
O O7 0.226353 0.289874 0.131659
O O8 0.500000 0.000000 0.000000
O O9 0.990038 0.297494 0.096800
O O10 0.184046 0.050177 0.222551
O O11 0.000000 0.000000 0.000000
O O12 0.978593 0.390028 0.768655
O O13 0.000000 0.500000 0.500000
O O14 0.143367 0.828322 0.291900
O O15 0.300887 0.477168 0.026897
O O16 0.581462 0.225611 0.748112
#
# Coordination Sequence:
#
# PCOD9048449 Si02
#       7
#     2   2   2   2   2   2   2
#     4  11  19  29  59  98 130 161 217 275 325 400
#     4   9  18  36  67  92 128 178 218 271 344 388
#     4  10  23  40  65  91 130 179 223 267 338 401
#     4   9  21  40  66  87 132 177 219 274 335 396
#     4  10  20  36  59  95 130 169 217 276 332 397
#     4  10  17  34  58  97 128 173 214 272 342 391
#     4  11  20  35  63  92 132 173 217 272 344 391
#
# _framework density 27.908709000000002
#
# number of rings (size 3 to 8) (size 9 to 14) (size 15 to 20)
#    0.857    1.143    4.286    0.857    2.000    0.000 
#    0.000    2.857    3.143    5.143    0.000    0.000 
#    0.000    0.000    0.000    0.000    0.000    0.000 
#
# Total GULP energy -78243.475559 kJ/mol
# GULP energy per Si atom -5588.819683 kJ/mol
# Density = 2.784519 g / cm^3
# Si number density = 27.908709 Si / 1000 Ang^3
#
#
#
# Elastic Constant Matrix: (Units=GPa)
#
#
# Indices 1 2 3 4 5 6 
#
# 1 148.6557 51.8222 42.6431 -10.2801 -24.7499 35.9396
# 2 51.8222 157.6479 48.3830 -57.4801 -24.8162 46.5669
# 3 42.6431 48.3830 120.1283 -20.9251 -18.9884 12.6763
# 4 -10.2801 -57.4801 -20.9251 52.6976 4.2703 -23.5824
# 5 -24.7499 -24.8162 -18.9884 4.2703 41.9266 -15.0132
# 6 35.9396 46.5669 12.6763 -23.5824 -15.0132 75.1047
#
#
#
# Elastic Compliance Matrix: (Units=1/GPa)
#
#
# Indices 1 2 3 4 5 6 
#
# 1 0.009013 -0.002098 -0.002184 -0.002980 0.002274 -0.003125
# 2 -0.002098 0.013193 -0.001641 0.011953 0.003752 -0.002396
# 3 -0.002184 -0.001641 0.010458 0.002436 0.002809 0.001624
# 4 -0.002980 0.011953 0.002436 0.034414 0.004839 0.005377
# 5 0.002274 0.003752 0.002809 0.004839 0.029454 0.003519
# 6 -0.003125 -0.002396 0.001624 0.005377 0.003519 0.018413
#
#
# Mechanical properties :
#
#
# Convention : Reuss Voigt Hill
#
# Bulk Modulus (GPa) = 48.03710 79.12540 63.58125
# Shear Modulus (GPa) = 37.38875 52.85134 45.12005
#
# Velocity S-wave (km/s) = 3.66414 4.35641 4.02518
# Velocity P-wave (km/s) = 5.92881 7.32922 6.66589
#
# Compressibility (1/GPa) = 0.02081724
#
# Stress axis : x y z
#
# Youngs Moduli (GPa) = 110.95279 75.79666 95.62393
#
# Poissons Ratio (x) = 0.15902 0.20887
# Poissons Ratio (y) = 0.23278 0.15691
# Poissons Ratio (z) = 0.24236 0.12438
#
# Static dielectric constant tensor:
#      x y z
#    x 2.282450 0.104210 0.085790 
#    y 0.104210 2.405240 0.074620 
#    z 0.085790 0.074620 2.176550 
# 
# From -- ./inp_files/72182.got.cif
#   From: 2010.05.17/outbox.cif.g08.bks.cpg/sg2_37_cif.got.tgz:72182.got - 2010.06.03 11:33:40.
