data_PCOD9048620
_publ_section_title
;
Structure prediction by ZEFSAII (Michael W. Deem and Ramdas Pophale) SiO2 
 PCOD9048620
Probable space group: P -1
;
_chemical_formula_sum "Si O2"
_cell_formula_units_Z 16
_cell_length_a 21.043121
_cell_length_b 11.558489
_cell_length_c 18.015666
_cell_angle_alpha 30.918489
_cell_angle_beta 160.072962
_cell_angle_gamma 141.995964
_cell_volume 763.036542
_symmetry_space_group_name_H-M "P -1"
_symmetry_group_IT_number 2
_symmetry_cell_setting 'triclinic'
loop_
_space_group_symop_operation_xyz
x,y,z
-x,-y,-z
loop_
_atom_site_type_symbol
_atom_site_label
_atom_site_fract_x
_atom_site_fract_y
_atom_site_fract_z
Si Si1 0.379266 0.437118 0.070585
Si Si2 0.863118 0.305012 0.458019
Si Si3 0.106105 0.316748 0.956000
Si Si4 0.337998 0.456594 0.403853
Si Si5 0.568371 0.737588 0.231194
Si Si6 0.983762 0.181882 0.161056
Si Si7 0.999129 0.767410 0.672336
Si Si8 0.252567 0.834635 0.429694
O O1 0.209599 0.329867 0.983390
O O2 0.465562 0.584213 0.147592
O O3 0.538057 0.249721 0.318775
O O4 0.303645 0.606607 0.829292
O O5 0.786635 0.258806 0.480714
O O6 0.000000 0.500000 0.500000
O O7 0.974737 0.074992 0.676768
O O8 0.207265 0.105258 0.228350
O O9 0.112995 0.552822 0.876443
O O10 0.895441 0.263035 0.735578
O O11 0.500000 0.500000 0.500000
O O12 0.443127 0.337582 0.655107
O O13 0.172473 0.301900 0.282817
O O14 0.204497 0.685740 0.152717
O O15 0.787427 0.708278 0.470717
O O16 0.500000 0.000000 0.000000
O O17 0.954369 0.199790 0.208163
O O18 0.000000 0.000000 0.500000
#
# Coordination Sequence:
#
# PCOD9048620 Si02
#       8
#     2   2   2   2   2   2   2   2
#     4  12  24  47  68 103 138 183 241 283 353 417
#     4  12  26  49  70  98 144 191 238 291 351 420
#     4  11  24  45  72 104 137 182 234 285 356 413
#     4  10  24  45  70 107 139 179 226 286 359 422
#     4  11  24  42  68 106 141 176 232 288 342 428
#     4  10  25  45  70 101 142 181 233 286 352 418
#     4  11  23  43  74 102 143 184 223 290 352 418
#     4  11  26  45  72  99 142 184 234 292 342 416
#
# _framework density 20.968851000000001
#
# number of rings (size 3 to 8) (size 9 to 14) (size 15 to 20)
#    0.000    1.000    2.500    3.750    8.750    0.000 
#    6.750    0.000    0.000    0.000    0.000    0.000 
#    0.000    0.000    0.000    0.000    0.000    0.000 
#
# Total GULP energy -89505.158698 kJ/mol
# GULP energy per Si atom -5594.072419 kJ/mol
# Density = 2.092112 g / cm^3
# Si number density = 20.968851 Si / 1000 Ang^3
#
#
#
# Elastic Constant Matrix: (Units=GPa)
#
#
# Indices 1 2 3 4 5 6 
#
# 1 117.8694 40.9467 51.7688 -17.3336 6.5701 20.2269
# 2 40.9467 80.3993 35.5447 -28.0327 8.6822 1.6638
# 3 51.7688 35.5447 123.7159 -23.2948 3.1490 1.6305
# 4 -17.3336 -28.0327 -23.2948 35.4593 -2.0397 -2.7701
# 5 6.5701 8.6822 3.1490 -2.0397 41.5074 -8.2393
# 6 20.2269 1.6638 1.6305 -2.7701 -8.2393 29.3969
#
#
#
# Elastic Compliance Matrix: (Units=1/GPa)
#
#
# Indices 1 2 3 4 5 6 
#
# 1 0.013817 -0.004934 -0.004337 -0.000929 -0.002831 -0.009868
# 2 -0.004934 0.020147 -0.001305 0.012766 -0.002125 0.002934
# 3 -0.004337 -0.001305 0.011035 0.004397 0.000960 0.003129
# 4 -0.000929 0.012766 0.004397 0.040992 -0.000149 0.003494
# 5 -0.002831 -0.002125 0.000960 -0.000149 0.026792 0.009510
# 6 -0.009868 0.002934 0.003129 0.003494 0.009510 0.043462
#
#
# Mechanical properties :
#
#
# Convention : Reuss Voigt Hill
#
# Bulk Modulus (GPa) = 41.93186 64.27833 53.10510
# Shear Modulus (GPa) = 26.97638 34.18769 30.58203
#
# Velocity S-wave (km/s) = 3.59067 4.04221 3.82311
# Velocity P-wave (km/s) = 6.10173 7.24615 6.69843
#
# Compressibility (1/GPa) = 0.02384821
#
# Stress axis : x y z
#
# Youngs Moduli (GPa) = 72.37252 49.63488 90.61931
#
# Poissons Ratio (x) = 0.24488 0.39304
# Poissons Ratio (y) = 0.35706 0.11825
# Poissons Ratio (z) = 0.31390 0.06477
#
# Static dielectric constant tensor:
#      x y z
#    x 1.744850 -0.018020 0.020590 
#    y -0.018020 1.729290 0.028610 
#    z 0.020590 0.028610 1.737620 
# 
# From -- ./inp_files/577927.got.cif
#   From: 2010.05.17/outbox.cif.g08.bks.cpg/sg2_289_cif.got.tgz:577927.got - 2010.06.03 11:33:40.
