data_PCOD9048750
_publ_section_title
;
Structure prediction by ZEFSAII (Michael W. Deem and Ramdas Pophale) SiO2 
 PCOD9048750
Probable space group: P -1
;
_chemical_formula_sum "Si O2"
_cell_formula_units_Z 12
_cell_length_a 8.000948
_cell_length_b 7.449930
_cell_length_c 15.425454
_cell_angle_alpha 121.127318
_cell_angle_beta 56.958298
_cell_angle_gamma 76.418329
_cell_volume 457.838991
_symmetry_space_group_name_H-M "P -1"
_symmetry_group_IT_number 2
_symmetry_cell_setting 'triclinic'
loop_
_space_group_symop_operation_xyz
x,y,z
-x,-y,-z
loop_
_atom_site_type_symbol
_atom_site_label
_atom_site_fract_x
_atom_site_fract_y
_atom_site_fract_z
Si Si1 0.062025 0.281873 0.355722
Si Si2 0.322114 0.274608 0.029735
Si Si3 0.324199 0.820465 0.935059
Si Si4 0.449693 0.301986 0.502427
Si Si5 0.248074 0.780996 0.448578
Si Si6 0.956134 0.755473 0.121743
O O1 0.885591 0.479970 0.368965
O O2 0.933117 0.175987 0.410511
O O3 0.000000 0.500000 0.500000
O O4 0.390053 0.990987 0.172251
O O5 0.177295 0.153701 0.036258
O O6 0.440683 0.275565 0.086109
O O7 0.139948 0.591593 0.115985
O O8 0.511100 0.557942 0.744500
O O9 0.093882 0.840455 0.049176
O O10 0.500000 0.500000 0.500000
O O11 0.560542 0.197153 0.543972
O O12 0.632996 0.030005 0.313600
O O13 0.000000 0.000000 0.500000
O O14 0.000000 0.500000 0.000000
#
# Coordination Sequence:
#
# PCOD9048750 Si02
#       6
#     2   2   2   2   2   2
#     4  11  21  44  69  97 142 188 234 289 372 425
#     4  11  24  46  74 103 142 195 242 295 370 438
#     4  11  24  44  71 105 139 189 245 297 361 435
#     4  10  24  45  72 103 145 195 235 300 371 433
#     4  11  22  41  70 104 141 187 241 299 361 433
#     4  12  26  47  73 105 147 189 242 303 368 435
#
# _framework density 26.210084999999999
#
# number of rings (size 3 to 8) (size 9 to 14) (size 15 to 20)
#    0.000    1.000    1.667    5.500    2.333    0.667 
#    6.000    1.667    0.000    0.000    0.000    0.000 
#    0.000    0.000    0.000    0.000    0.000    0.000 
#
# Total GULP energy -67149.760200 kJ/mol
# GULP energy per Si atom -5595.813350 kJ/mol
# Density = 2.615043 g / cm^3
# Si number density = 26.210085 Si / 1000 Ang^3
#
#
#
# Elastic Constant Matrix: (Units=GPa)
#
#
# Indices 1 2 3 4 5 6 
#
# 1 121.2157 47.6174 9.9590 6.7415 17.7834 -16.8910
# 2 47.6174 88.4417 31.1820 -16.6964 -14.5508 -4.2578
# 3 9.9590 31.1820 140.9728 10.8384 22.1858 14.4893
# 4 6.7415 -16.6964 10.8384 23.1115 -1.3115 -6.9072
# 5 17.7834 -14.5508 22.1858 -1.3115 51.3983 4.2766
# 6 -16.8910 -4.2578 14.4893 -6.9072 4.2766 57.3988
#
#
#
# Elastic Compliance Matrix: (Units=1/GPa)
#
#
# Indices 1 2 3 4 5 6 
#
# 1 0.019753 -0.020876 0.007753 -0.025278 -0.016779 0.000515
# 2 -0.020876 0.041558 -0.015960 0.046478 0.026683 0.004573
# 3 0.007753 -0.015960 0.014394 -0.022582 -0.013638 -0.004237
# 4 -0.025278 0.046478 -0.022582 0.100066 0.033267 0.011273
# 5 -0.016779 0.026683 -0.013638 0.033267 0.039422 0.001550
# 6 0.000515 0.004573 -0.004237 0.011273 0.001550 0.020223
#
#
# Mechanical properties :
#
#
# Convention : Reuss Voigt Hill
#
# Bulk Modulus (GPa) = 57.01663 58.68301 57.84982
# Shear Modulus (GPa) = 16.69848 43.83984 30.26916
#
# Velocity S-wave (km/s) = 2.52682 4.09422 3.40202
# Velocity P-wave (km/s) = 5.50582 6.69240 6.12790
#
# Compressibility (1/GPa) = 0.01753874
#
# Stress axis : x y z
#
# Youngs Moduli (GPa) = 50.62540 24.06258 69.47338
#
# Poissons Ratio (x) = 0.50234 -0.53865
# Poissons Ratio (y) = 1.05688 1.10881
# Poissons Ratio (z) = -0.39251 0.38404
#
# Static dielectric constant tensor:
#      x y z
#    x 0.861970 -0.257730 0.331870 
#    y -0.257730 2.092360 0.058550 
#    z 0.331870 0.058550 1.852290 
# 
# From -- ./inp_files/555584.got.cif
#   From: 2010.05.17/outbox.cif.g08.bks.cpg/sg2_278_cif.got.tgz:555584.got - 2010.06.03 11:33:40.
