data_PCOD9048064
_publ_section_title
;
Structure prediction by ZEFSAII (Michael W. Deem and Ramdas Pophale) SiO2 
 PCOD9048064
Probable space group: P -1
;
_chemical_formula_sum "Si O2"
_cell_formula_units_Z 14
_cell_length_a 9.425697
_cell_length_b 9.617572
_cell_length_c 21.218479
_cell_angle_alpha 30.687578
_cell_angle_beta 123.271039
_cell_angle_gamma 135.319425
_cell_volume 679.592569
_symmetry_space_group_name_H-M "P -1"
_symmetry_group_IT_number 2
_symmetry_cell_setting 'triclinic'
loop_
_space_group_symop_operation_xyz
x,y,z
-x,-y,-z
loop_
_atom_site_type_symbol
_atom_site_label
_atom_site_fract_x
_atom_site_fract_y
_atom_site_fract_z
Si Si1 0.673111 0.297166 0.841581
Si Si2 0.264743 0.629083 0.713694
Si Si3 0.098927 0.350686 0.351546
Si Si4 0.529186 0.576446 0.051904
Si Si5 0.136023 0.381112 0.107183
Si Si6 0.726726 0.704910 0.282431
Si Si7 0.520748 0.591189 0.541664
O O1 0.865468 0.616471 0.727693
O O2 0.732575 0.384929 0.894217
O O3 0.449727 0.230952 0.801948
O O4 0.652467 0.968521 0.941730
O O5 0.358747 0.546802 0.827793
O O6 0.286836 0.503470 0.700553
O O7 0.028578 0.500311 0.718796
O O8 0.374342 0.019556 0.582743
O O9 0.335841 0.534671 0.354756
O O10 0.000000 0.000000 0.500000
O O11 0.300225 0.408459 0.088521
O O12 0.500000 0.500000 0.000000
O O13 0.960826 0.007853 0.227230
O O14 0.000000 0.500000 0.000000
O O15 0.658693 0.547817 0.396766
O O16 0.500000 0.500000 0.500000
#
# Coordination Sequence:
#
# PCOD9048064 Si02
#       7
#     2   2   2   2   2   2   2
#     4  11  24  47  68  97 144 183 223 284 345 410
#     4  11  24  45  68 100 145 178 229 289 342 406
#     4   9  23  42  70  96 134 177 228 273 354 396
#     4  12  28  44  68 104 141 179 235 289 339 408
#     4  12  25  43  71  98 136 185 233 270 349 411
#     4  11  24  45  72 100 139 182 227 283 344 411
#     4  10  24  44  73 100 138 179 229 287 346 410
#
# _framework density 20.600577999999999
#
# number of rings (size 3 to 8) (size 9 to 14) (size 15 to 20)
#    0.000    1.143    2.857    1.714   12.000    0.571 
#    0.000    1.429    0.000    0.000    0.000    0.000 
#    0.000    0.000    0.000    0.000    0.000    0.000 
#
# Total GULP energy -77990.941263 kJ/mol
# GULP energy per Si atom -5570.781519 kJ/mol
# Density = 2.055369 g / cm^3
# Si number density = 20.600578 Si / 1000 Ang^3
#
#
#
# Elastic Constant Matrix: (Units=GPa)
#
#
# Indices 1 2 3 4 5 6 
#
# 1 177.0857 66.8623 68.0115 13.7054 -13.0234 -15.8132
# 2 66.8623 125.5068 43.6465 -1.4792 -11.3405 -31.4636
# 3 68.0115 43.6465 86.2949 1.9560 -7.0652 -4.8954
# 4 13.7054 -1.4792 1.9560 30.4132 3.1912 -4.8421
# 5 -13.0234 -11.3405 -7.0652 3.1912 40.3096 6.8652
# 6 -15.8132 -31.4636 -4.8954 -4.8421 6.8652 37.1966
#
#
#
# Elastic Compliance Matrix: (Units=1/GPa)
#
#
# Indices 1 2 3 4 5 6 
#
# 1 0.009370 -0.002949 -0.005677 -0.004177 0.001548 -0.000088
# 2 -0.002949 0.013539 -0.004025 0.003850 0.000118 0.010148
# 3 -0.005677 -0.004025 0.017946 0.000571 0.000733 -0.003517
# 4 -0.004177 0.003850 0.000571 0.036490 -0.004263 0.007092
# 5 0.001548 0.000118 0.000733 -0.004263 0.026592 -0.004609
# 6 -0.000088 0.010148 -0.003517 0.007092 -0.004609 0.036742
#
#
# Mechanical properties :
#
#
# Convention : Reuss Voigt Hill
#
# Bulk Modulus (GPa) = 64.30016 82.88088 73.59052
# Shear Modulus (GPa) = 29.21175 35.60837 32.41006
#
# Velocity S-wave (km/s) = 3.76973 4.16205 3.97074
# Velocity P-wave (km/s) = 7.08720 7.96345 7.53807
#
# Compressibility (1/GPa) = 0.01555206
#
# Stress axis : x y z
#
# Youngs Moduli (GPa) = 106.72432 73.86313 55.72364
#
# Poissons Ratio (x) = 0.21781 0.31633
# Poissons Ratio (y) = 0.31471 0.22431
# Poissons Ratio (z) = 0.60585 0.29733
#
# Static dielectric constant tensor:
#      x y z
#    x 1.844280 -0.132360 -0.208360 
#    y -0.132360 1.796290 0.211510 
#    z -0.208360 0.211510 1.997790 
# 
# From -- ./inp_files/246242.got.cif
#   From: 2010.05.17/outbox.cif.g08.bks.cpg/sg2_124_cif.got.tgz:246242.got - 2010.06.03 11:33:40.
