data_PCOD9048684
_publ_section_title
;
Structure prediction by ZEFSAII (Michael W. Deem and Ramdas Pophale) SiO2 
 PCOD9048684
Probable space group: P -1
;
_chemical_formula_sum "Si O2"
_cell_formula_units_Z 12
_cell_length_a 5.048330
_cell_length_b 17.287560
_cell_length_c 18.384238
_cell_angle_alpha 163.462770
_cell_angle_beta 94.305616
_cell_angle_gamma 85.947088
_cell_volume 455.395265
_symmetry_space_group_name_H-M "P -1"
_symmetry_group_IT_number 2
_symmetry_cell_setting 'triclinic'
loop_
_space_group_symop_operation_xyz
x,y,z
-x,-y,-z
loop_
_atom_site_type_symbol
_atom_site_label
_atom_site_fract_x
_atom_site_fract_y
_atom_site_fract_z
Si Si1 0.492947 0.635335 0.973418
Si Si2 0.002359 0.315539 0.689514
Si Si3 0.036654 0.558791 0.436708
Si Si4 0.705214 0.001328 0.070807
Si Si5 0.508700 0.857216 0.660175
Si Si6 0.694497 0.824153 0.291873
O O1 0.273038 0.413365 0.746029
O O2 0.779968 0.534374 0.864092
O O3 0.521796 0.653672 0.077683
O O4 0.421071 0.929262 0.207400
O O5 0.089999 0.310242 0.771846
O O6 0.862684 0.023066 0.419996
O O7 0.088117 0.240795 0.152981
O O8 0.149566 0.713513 0.650596
O O9 0.231293 0.694233 0.501580
O O10 0.740666 0.649914 0.497168
O O11 0.540414 0.958385 0.102913
O O12 0.500000 0.000000 0.000000
O O13 0.500000 0.000000 0.500000
#
# Coordination Sequence:
#
# PCOD9048684 Si02
#       6
#     2   2   2   2   2   2
#     4  12  25  45  66  95 136 184 225 291 356 418
#     4  11  25  42  69  92 132 176 231 285 349 417
#     4  10  24  45  71 103 145 183 239 288 354 423
#     4  10  24  46  75 107 142 188 237 291 352 423
#     4  10  26  45  66 105 141 188 233 293 354 429
#     4  11  25  43  64 104 126 179 233 292 347 421
#
# _framework density 26.350736000000001
#
# number of rings (size 3 to 8) (size 9 to 14) (size 15 to 20)
#    1.000    0.333    1.667    2.500    7.000    2.667 
#    3.000    0.000    0.000    0.000    0.000    0.000 
#    0.000    0.000    0.000    0.000    0.000    0.000 
#
# Total GULP energy -67183.923464 kJ/mol
# GULP energy per Si atom -5598.660289 kJ/mol
# Density = 2.629076 g / cm^3
# Si number density = 26.350736 Si / 1000 Ang^3
#
#
#
# Elastic Constant Matrix: (Units=GPa)
#
#
# Indices 1 2 3 4 5 6 
#
# 1 128.5669 2.4478 31.6853 1.3042 -1.5196 -16.5737
# 2 2.4478 75.4464 34.5048 -8.5093 -12.4229 -0.5271
# 3 31.6853 34.5048 132.2726 3.9816 -14.2401 -20.0466
# 4 1.3042 -8.5093 3.9816 38.4242 -8.2386 -3.6866
# 5 -1.5196 -12.4229 -14.2401 -8.2386 48.7558 11.0502
# 6 -16.5737 -0.5271 -20.0466 -3.6866 11.0502 28.6635
#
#
#
# Elastic Compliance Matrix: (Units=1/GPa)
#
#
# Indices 1 2 3 4 5 6 
#
# 1 0.008721 0.000334 -0.001639 0.000132 -0.001082 0.004336
# 2 0.000334 0.016641 -0.004665 0.004764 0.004581 -0.003917
# 3 -0.001639 -0.004665 0.010107 -0.001435 0.000158 0.005790
# 4 0.000132 0.004764 -0.001435 0.028461 0.005444 0.000722
# 5 -0.001082 0.004581 0.000158 0.005444 0.024708 -0.009256
# 6 0.004336 -0.003917 0.005790 0.000722 -0.009256 0.045033
#
#
# Mechanical properties :
#
#
# Convention : Reuss Voigt Hill
#
# Bulk Modulus (GPa) = 42.50215 52.61799 47.56007
# Shear Modulus (GPa) = 32.58285 41.01190 36.79738
#
# Velocity S-wave (km/s) = 3.52021 3.94939 3.74096
# Velocity P-wave (km/s) = 5.71725 6.38816 6.06199
#
# Compressibility (1/GPa) = 0.02352822
#
# Stress axis : x y z
#
# Youngs Moduli (GPa) = 114.67135 60.09175 98.93770
#
# Poissons Ratio (x) = -0.02005 0.16219
# Poissons Ratio (y) = -0.03827 0.46153
# Poissons Ratio (z) = 0.18799 0.28032
#
# Static dielectric constant tensor:
#      x y z
#    x 2.061740 0.098630 0.022410 
#    y 0.098630 2.078230 -0.018280 
#    z 0.022410 -0.018280 2.041010 
# 
# From -- ./inp_files/550596.got.cif
#   From: 2010.05.17/outbox.cif.g08.bks.cpg/sg2_276_cif.got.tgz:550596.got - 2010.06.03 11:33:40.
