data_PCOD9048504
_publ_section_title
;
Structure prediction by ZEFSAII (Michael W. Deem and Ramdas Pophale) SiO2 
 PCOD9048504
Probable space group: P -1
;
_chemical_formula_sum "Si O2"
_cell_formula_units_Z 16
_cell_length_a 4.989428
_cell_length_b 11.552096
_cell_length_c 12.767679
_cell_angle_alpha 72.263323
_cell_angle_beta 89.824360
_cell_angle_gamma 73.872317
_cell_volume 670.662568
_symmetry_space_group_name_H-M "P -1"
_symmetry_group_IT_number 2
_symmetry_cell_setting 'triclinic'
loop_
_space_group_symop_operation_xyz
x,y,z
-x,-y,-z
loop_
_atom_site_type_symbol
_atom_site_label
_atom_site_fract_x
_atom_site_fract_y
_atom_site_fract_z
Si Si1 0.747504 0.599152 0.031769
Si Si2 0.445407 0.650049 0.592112
Si Si3 0.757340 0.572763 0.402348
Si Si4 0.923694 0.873293 0.740836
Si Si5 0.191168 0.230115 0.827043
Si Si6 0.626430 0.084654 0.401414
Si Si7 0.816856 0.054899 0.883478
Si Si8 0.446787 0.626656 0.820762
O O1 0.845463 0.686279 0.090159
O O2 0.583088 0.512190 0.114801
O O3 0.568405 0.670655 0.914169
O O4 0.000000 0.500000 0.000000
O O5 0.530956 0.634095 0.474681
O O6 0.288277 0.543146 0.631824
O O7 0.325747 0.799727 0.563478
O O8 0.614491 0.619459 0.712252
O O9 0.794736 0.678883 0.295251
O O10 0.000000 0.500000 0.500000
O O11 0.627139 0.873643 0.693288
O O12 0.082342 0.959023 0.649582
O O13 0.145765 0.732888 0.777873
O O14 0.873556 0.939634 0.834272
O O15 0.484154 0.119928 0.873651
O O16 0.944633 0.168657 0.820119
O O17 0.500000 0.000000 0.500000
O O18 0.000000 0.000000 0.000000
#
# Coordination Sequence:
#
# PCOD9048504 Si02
#       8
#     2   2   2   2   2   2   2   2
#     4  11  26  41  77 103 149 183 248 306 371 437
#     4  10  25  44  70 103 147 191 246 297 375 436
#     4  11  27  44  73 104 156 198 243 307 374 454
#     4  11  26  47  74 104 144 192 239 306 362 434
#     4  12  29  49  79 113 150 200 252 308 380 454
#     4  11  26  45  75 104 143 188 250 300 361 429
#     4  12  29  51  78 108 153 196 254 310 378 449
#     4  10  24  45  69 107 139 192 240 308 368 439
#
# _framework density 23.857005999999998
#
# number of rings (size 3 to 8) (size 9 to 14) (size 15 to 20)
#    0.000    1.000    1.250    2.250   21.000    0.000 
#    0.000    0.000    0.000    0.000    0.000    0.000 
#    0.000    0.000    0.000    0.000    0.000    0.000 
#
# Total GULP energy -89312.790512 kJ/mol
# GULP energy per Si atom -5582.049407 kJ/mol
# Density = 2.380271 g / cm^3
# Si number density = 23.857006 Si / 1000 Ang^3
#
#
#
# Elastic Constant Matrix: (Units=GPa)
#
#
# Indices 1 2 3 4 5 6 
#
# 1 61.2038 8.6668 6.1818 18.4012 4.8453 -2.0493
# 2 8.6668 100.4233 35.2330 29.0635 5.8980 6.3265
# 3 6.1818 35.2330 124.4502 1.0820 4.3013 14.9589
# 4 18.4012 29.0635 1.0820 41.8509 11.8037 3.4468
# 5 4.8453 5.8980 4.3013 11.8037 35.6629 -0.9241
# 6 -2.0493 6.3265 14.9589 3.4468 -0.9241 32.5352
#
#
#
# Elastic Compliance Matrix: (Units=1/GPa)
#
#
# Indices 1 2 3 4 5 6 
#
# 1 0.019321 0.001597 -0.001680 -0.009982 0.000689 0.002756
# 2 0.001597 0.014353 -0.004153 -0.011043 0.001576 0.000434
# 3 -0.001680 -0.004153 0.009839 0.004227 -0.001783 -0.004320
# 4 -0.009982 -0.011043 0.004227 0.039184 -0.010423 -0.004872
# 5 0.000689 0.001576 -0.001783 -0.010423 0.031417 0.002553
# 6 0.002756 0.000434 -0.004320 -0.004872 0.002553 0.033400
#
#
# Mechanical properties :
#
#
# Convention : Reuss Voigt Hill
#
# Bulk Modulus (GPa) = 28.53894 42.91560 35.72727
# Shear Modulus (GPa) = 29.82089 37.74284 33.78187
#
# Velocity S-wave (km/s) = 3.53935 3.98181 3.76708
# Velocity P-wave (km/s) = 5.35641 6.25839 5.82488
#
# Compressibility (1/GPa) = 0.03503984
#
# Stress axis : x y z
#
# Youngs Moduli (GPa) = 51.75622 69.67080 101.63789
#
# Poissons Ratio (x) = -0.11125 0.17076
# Poissons Ratio (y) = -0.08264 0.42215
# Poissons Ratio (z) = 0.08696 0.28938
#
# Static dielectric constant tensor:
#      x y z
#    x 2.304940 0.077140 0.201960 
#    y 0.077140 1.891790 -0.023950 
#    z 0.201960 -0.023950 2.052780 
# 
# From -- ./inp_files/364067.got.cif
#   From: 2010.05.17/outbox.cif.g08.bks.cpg/sg2_183_cif.got.tgz:364067.got - 2010.06.03 11:33:40.
