data_PCOD9048979
_publ_section_title
;
Structure prediction by ZEFSAII (Michael W. Deem and Ramdas Pophale) SiO2 
 PCOD9048979
Probable space group: P -1
;
_chemical_formula_sum "Si O2"
_cell_formula_units_Z 15
_cell_length_a 6.461374
_cell_length_b 15.472167
_cell_length_c 9.024458
_cell_angle_alpha 85.782811
_cell_angle_beta 50.065265
_cell_angle_gamma 83.522442
_cell_volume 687.359438
_symmetry_space_group_name_H-M "P -1"
_symmetry_group_IT_number 2
_symmetry_cell_setting 'triclinic'
loop_
_space_group_symop_operation_xyz
x,y,z
-x,-y,-z
loop_
_atom_site_type_symbol
_atom_site_label
_atom_site_fract_x
_atom_site_fract_y
_atom_site_fract_z
Si Si1 0.502708 0.691454 0.349588
Si Si2 0.219875 0.569942 0.898249
Si Si3 0.140555 0.950786 0.302549
Si Si4 0.500000 0.500000 0.500000
Si Si5 0.967786 0.818040 0.191889
Si Si6 0.565703 0.328924 0.968486
Si Si7 0.019524 0.279912 0.229125
Si Si8 0.769888 0.900737 0.992473
O O1 0.565535 0.598535 0.409223
O O2 0.727354 0.756132 0.281999
O O3 0.473243 0.674418 0.189888
O O4 0.215598 0.729151 0.544258
O O5 0.463185 0.531859 0.687704
O O6 0.101155 0.658403 0.857360
O O7 0.295524 0.592738 0.027609
O O8 0.000000 0.500000 0.000000
O O9 0.453754 0.912945 0.183901
O O10 0.968965 0.872977 0.335085
O O11 0.000000 0.000000 0.500000
O O12 0.161679 0.021203 0.153507
O O13 0.946634 0.887320 0.060309
O O14 0.246032 0.757477 0.066786
O O15 0.267137 0.328402 0.174934
O O16 0.153670 0.188570 0.120381
#
# Coordination Sequence:
#
# PCOD9048979 Si02
#       8
#     2   2   2   1   2   2   2   2
#     4  11  26  45  71 104 144 188 241 293 350 420
#     4  11  24  44  70 100 140 186 233 294 354 414
#     4  11  27  48  73 104 142 182 234 294 354 427
#     4  10  24  46  62 102 146 180 232 288 350 408
#     4  12  23  48  72 103 142 184 235 294 352 423
#     4  12  23  45  73 101 137 189 238 291 349 423
#     4  11  24  44  69 100 140 184 231 287 358 416
#     4  11  24  48  69 104 139 180 233 288 357 424
#
# _framework density 21.822645000000001
#
# number of rings (size 3 to 8) (size 9 to 14) (size 15 to 20)
#    0.000    0.800    4.000    2.000    3.733    5.867 
#    4.800    4.667    0.000    0.000    0.000    0.000 
#    0.000    0.000    0.000    0.000    0.000    0.000 
#
# Total GULP energy -83574.237600 kJ/mol
# GULP energy per Si atom -5571.615840 kJ/mol
# Density = 2.177298 g / cm^3
# Si number density = 21.822645 Si / 1000 Ang^3
#
#
#
# Elastic Constant Matrix: (Units=GPa)
#
#
# Indices 1 2 3 4 5 6 
#
# 1 99.9027 40.8299 53.7005 -3.5067 7.4095 26.4744
# 2 40.8299 102.7787 26.0432 10.5370 7.7090 14.6022
# 3 53.7005 26.0432 124.0741 17.9329 -2.2945 15.1880
# 4 -3.5067 10.5370 17.9329 37.0838 1.7510 14.7263
# 5 7.4095 7.7090 -2.2945 1.7510 27.5926 5.1247
# 6 26.4744 14.6022 15.1880 14.7263 5.1247 46.0931
#
#
#
# Elastic Compliance Matrix: (Units=1/GPa)
#
#
# Indices 1 2 3 4 5 6 
#
# 1 0.019861 -0.005335 -0.007927 0.011521 -0.003298 -0.010420
# 2 -0.005335 0.012270 0.000237 -0.004286 -0.001829 0.000672
# 3 -0.007927 0.000237 0.012329 -0.007964 0.003108 0.002614
# 4 0.011521 -0.004286 -0.007964 0.039144 -0.002277 -0.014888
# 5 -0.003298 -0.001829 0.003108 -0.002277 0.038430 -0.002096
# 6 -0.010420 0.000672 0.002614 -0.014888 -0.002096 0.031595
#
#
# Mechanical properties :
#
#
# Convention : Reuss Voigt Hill
#
# Bulk Modulus (GPa) = 54.31588 63.10030 58.70809
# Shear Modulus (GPa) = 26.90817 35.89938 31.40377
#
# Velocity S-wave (km/s) = 3.51527 4.06032 3.79759
# Velocity P-wave (km/s) = 6.43583 7.13859 6.79630
#
# Compressibility (1/GPa) = 0.01841082
#
# Stress axis : x y z
#
# Youngs Moduli (GPa) = 50.34922 81.49917 81.10711
#
# Poissons Ratio (x) = 0.43479 0.64294
# Poissons Ratio (y) = 0.26861 -0.01921
# Poissons Ratio (z) = 0.39912 -0.01931
#
# Static dielectric constant tensor:
#      x y z
#    x 1.805770 -0.005690 -0.009300 
#    y -0.005690 1.821820 0.003020 
#    z -0.009300 0.003020 1.793240 
# 
# From -- ./inp_files/135214.got.cif
#   From: 2010.05.17/outbox.cif.g08.bks.cpg/sg2_68_cif.got.tgz:135214.got - 2010.06.03 11:33:40.
