data_PCOD9048148
_publ_section_title
;
Structure prediction by ZEFSAII (Michael W. Deem and Ramdas Pophale) SiO2 
 PCOD9048148
Probable space group: P -1
;
_chemical_formula_sum "Si O2"
_cell_formula_units_Z 12
_cell_length_a 9.803896
_cell_length_b 7.601512
_cell_length_c 11.821530
_cell_angle_alpha 125.629601
_cell_angle_beta 129.772530
_cell_angle_gamma 47.248261
_cell_volume 479.746698
_symmetry_space_group_name_H-M "P -1"
_symmetry_group_IT_number 2
_symmetry_cell_setting 'triclinic'
loop_
_space_group_symop_operation_xyz
x,y,z
-x,-y,-z
loop_
_atom_site_type_symbol
_atom_site_label
_atom_site_fract_x
_atom_site_fract_y
_atom_site_fract_z
Si Si1 0.517537 0.651827 0.328841
Si Si2 0.200429 0.226804 0.340478
Si Si3 0.140981 0.873685 0.844351
Si Si4 0.416952 0.869965 0.815465
Si Si5 0.420819 0.280112 0.867935
Si Si6 0.032173 0.618858 0.947521
O O1 0.695987 0.626311 0.495811
O O2 0.468324 0.428528 0.244791
O O3 0.591737 0.622200 0.227876
O O4 0.345461 0.938912 0.344277
O O5 0.150028 0.300086 0.209355
O O6 0.982824 0.273466 0.286882
O O7 0.199422 0.932120 0.774555
O O8 0.989040 0.123365 0.924784
O O9 0.408639 0.025605 0.760470
O O10 0.355477 0.779838 0.991262
O O11 0.500000 0.000000 0.000000
O O12 0.239253 0.452394 0.923870
O O13 0.000000 0.500000 0.000000
#
# Coordination Sequence:
#
# PCOD9048148 Si02
#       6
#     2   2   2   2   2   2
#     4  11  26  52  76 105 165 194 249 307 374 458
#     4  11  27  48  74 113 149 209 241 307 383 439
#     4  11  24  44  71 111 145 191 255 298 370 434
#     4  10  24  44  74 110 143 194 248 305 366 435
#     4  11  25  47  78 112 146 198 250 315 370 441
#     4  12  25  45  75 114 151 189 261 312 367 446
#
# _framework density 25.013200000000001
#
# number of rings (size 3 to 8) (size 9 to 14) (size 15 to 20)
#    0.000    1.000    3.333    1.500    4.667    6.000 
#    3.000    3.333    0.000    0.000    0.000    0.000 
#    0.000    0.000    0.000    0.000    0.000    0.000 
#
# Total GULP energy -67003.016210 kJ/mol
# GULP energy per Si atom -5583.584684 kJ/mol
# Density = 2.495627 g / cm^3
# Si number density = 25.013200 Si / 1000 Ang^3
#
#
#
# Elastic Constant Matrix: (Units=GPa)
#
#
# Indices 1 2 3 4 5 6 
#
# 1 127.0465 23.9517 24.0551 -11.9924 13.5165 13.3011
# 2 23.9517 110.4444 11.4320 5.4291 18.0122 0.7165
# 3 24.0551 11.4320 115.3000 -7.1793 33.7018 25.2551
# 4 -11.9924 5.4291 -7.1793 31.4040 3.9044 -1.8847
# 5 13.5165 18.0122 33.7018 3.9044 31.5105 -5.1458
# 6 13.3011 0.7165 25.2551 -1.8847 -5.1458 66.8704
#
#
#
# Elastic Compliance Matrix: (Units=1/GPa)
#
#
# Indices 1 2 3 4 5 6 
#
# 1 0.009176 -0.001535 0.000133 0.004181 -0.004054 -0.002053
# 2 -0.001535 0.010414 0.001372 -0.001287 -0.006747 -0.000880
# 3 0.000133 0.001372 0.016542 0.005681 -0.020496 -0.007705
# 4 0.004181 -0.001287 0.005681 0.036293 -0.012099 -0.002871
# 5 -0.004054 -0.006747 -0.020496 -0.012099 0.062893 0.013118
# 6 -0.002053 -0.000880 -0.007705 -0.002871 0.013118 0.019211
#
#
# Mechanical properties :
#
#
# Convention : Reuss Voigt Hill
#
# Bulk Modulus (GPa) = 27.72170 52.40761 40.06466
# Shear Modulus (GPa) = 30.00970 45.51377 37.76173
#
# Velocity S-wave (km/s) = 3.46750 4.27029 3.88967
# Velocity P-wave (km/s) = 5.20945 6.73137 6.01871
#
# Compressibility (1/GPa) = 0.03607283
#
# Stress axis : x y z
#
# Youngs Moduli (GPa) = 108.97712 96.02070 60.45381
#
# Poissons Ratio (x) = 0.14737 -0.00802
# Poissons Ratio (y) = 0.16726 -0.08296
# Poissons Ratio (z) = -0.01447 -0.13177
#
# Static dielectric constant tensor:
#      x y z
#    x 2.019890 0.035850 -0.068710 
#    y 0.035850 2.385160 -0.057070 
#    z -0.068710 -0.057070 2.004170 
# 
# From -- ./inp_files/419779.got.cif
#   From: 2010.05.17/outbox.cif.g08.bks.cpg/sg2_210_cif.got.tgz:419779.got - 2010.06.03 11:33:40.
