data_PCOD9048131
_publ_section_title
;
Structure prediction by ZEFSAII (Michael W. Deem and Ramdas Pophale) SiO2 
 PCOD9048131
Probable space group: P -1
;
_chemical_formula_sum "Si O2"
_cell_formula_units_Z 11
_cell_length_a 6.885171
_cell_length_b 7.450719
_cell_length_c 14.000651
_cell_angle_alpha 103.488132
_cell_angle_beta 67.945676
_cell_angle_gamma 138.304966
_cell_volume 441.486508
_symmetry_space_group_name_H-M "P -1"
_symmetry_group_IT_number 2
_symmetry_cell_setting 'triclinic'
loop_
_space_group_symop_operation_xyz
x,y,z
-x,-y,-z
loop_
_atom_site_type_symbol
_atom_site_label
_atom_site_fract_x
_atom_site_fract_y
_atom_site_fract_z
Si Si1 0.025612 0.181745 0.093173
Si Si2 0.000000 0.500000 0.000000
Si Si3 0.398619 0.908912 0.271198
Si Si4 0.578638 0.738508 0.803601
Si Si5 0.733135 0.962641 0.505772
Si Si6 0.267503 0.505205 0.378136
O O1 0.240612 0.242030 0.142538
O O2 0.701583 0.019020 0.182270
O O3 0.124870 0.426637 0.047081
O O4 0.000000 0.000000 0.000000
O O5 0.249823 0.584856 0.885687
O O6 0.444999 0.068305 0.375096
O O7 0.227047 0.624054 0.313492
O O8 0.268156 0.969938 0.225080
O O9 0.592290 0.594822 0.701088
O O10 0.489450 0.270992 0.559587
O O11 0.938620 0.251289 0.452993
O O12 0.000000 0.000000 0.500000
#
# Coordination Sequence:
#
# PCOD9048131 Si02
#       6
#     2   1   2   2   2   2
#     4  11  25  48  72 110 152 194 257 314 380 452
#     4  10  24  44  74 104 146 200 250 310 388 440
#     4  11  26  45  76 111 148 208 250 311 388 443
#     4  11  25  48  73 113 154 198 258 317 377 457
#     4  12  26  50  76 112 156 203 252 314 376 453
#     4  12  26  50  76 110 159 198 256 312 377 453
#
# _framework density 24.915821999999999
#
# number of rings (size 3 to 8) (size 9 to 14) (size 15 to 20)
#    0.000    0.727    1.818    4.364    0.000    5.818 
#    6.545    0.000    0.000    0.000    0.000    0.000 
#    0.000    0.000    0.000    0.000    0.000    0.000 
#
# Total GULP energy -61361.832849 kJ/mol
# GULP energy per Si atom -5578.348441 kJ/mol
# Density = 2.485911 g / cm^3
# Si number density = 24.915822 Si / 1000 Ang^3
#
#
#
# Elastic Constant Matrix: (Units=GPa)
#
#
# Indices 1 2 3 4 5 6 
#
# 1 199.0285 54.0652 56.7592 6.6259 12.6551 -39.6222
# 2 54.0652 86.0472 54.9263 3.6501 18.1653 -7.4483
# 3 56.7592 54.9263 174.1683 -10.4561 -20.4876 0.6897
# 4 6.6259 3.6501 -10.4561 30.6289 -13.0563 14.3732
# 5 12.6551 18.1653 -20.4876 -13.0563 46.6866 -8.1334
# 6 -39.6222 -7.4483 0.6897 14.3732 -8.1334 45.3891
#
#
#
# Elastic Compliance Matrix: (Units=1/GPa)
#
#
# Indices 1 2 3 4 5 6 
#
# 1 0.009003 -0.000889 -0.003855 -0.009926 -0.004811 0.010053
# 2 -0.000889 0.023009 -0.009835 -0.015273 -0.016420 0.005043
# 3 -0.003855 -0.009835 0.012657 0.015695 0.013469 -0.007728
# 4 -0.009926 -0.015273 0.015695 0.067489 0.029608 -0.027476
# 5 -0.004811 -0.016420 0.013469 0.029608 0.041736 -0.008996
# 6 0.010053 0.005043 -0.007728 -0.027476 -0.008996 0.038841
#
#
# Mechanical properties :
#
#
# Convention : Reuss Voigt Hill
#
# Bulk Modulus (GPa) = 64.47311 87.86061 76.16686
# Shear Modulus (GPa) = 22.02037 44.10713 33.06375
#
# Velocity S-wave (km/s) = 2.97609 4.21199 3.64678
# Velocity P-wave (km/s) = 6.14345 7.68076 6.95471
#
# Compressibility (1/GPa) = 0.01551034
#
# Stress axis : x y z
#
# Youngs Moduli (GPa) = 111.07363 43.46168 79.00984
#
# Poissons Ratio (x) = 0.03864 0.30460
# Poissons Ratio (y) = 0.09874 0.77705
# Poissons Ratio (z) = 0.42822 0.42744
#
# Static dielectric constant tensor:
#      x y z
#    x 1.967780 -0.037760 0.008070 
#    y -0.037760 2.013430 0.051580 
#    z 0.008070 0.051580 2.249230 
# 
# From -- ./inp_files/478589.got.cif
#   From: 2010.05.17/outbox.cif.g08.bks.cpg/sg2_240_cif.got.tgz:478589.got - 2010.06.03 11:33:40.
