data_PCOD9048977
_publ_section_title
;
Structure prediction by ZEFSAII (Michael W. Deem and Ramdas Pophale) SiO2 
 PCOD9048977
Probable space group: P -1
;
_chemical_formula_sum "Si O2"
_cell_formula_units_Z 14
_cell_length_a 17.083382
_cell_length_b 14.976143
_cell_length_c 9.262530
_cell_angle_alpha 39.402653
_cell_angle_beta 31.065712
_cell_angle_gamma 24.803156
_cell_volume 512.856046
_symmetry_space_group_name_H-M "P -1"
_symmetry_group_IT_number 2
_symmetry_cell_setting 'triclinic'
loop_
_space_group_symop_operation_xyz
x,y,z
-x,-y,-z
loop_
_atom_site_type_symbol
_atom_site_label
_atom_site_fract_x
_atom_site_fract_y
_atom_site_fract_z
Si Si1 0.848537 0.925924 0.578119
Si Si2 0.909804 0.534657 0.292965
Si Si3 0.494531 0.452644 0.900705
Si Si4 0.089796 0.705397 0.739614
Si Si5 0.427038 0.942978 0.400960
Si Si6 0.401823 0.199190 0.310778
Si Si7 0.026356 0.856935 0.974867
O O1 0.982046 0.690893 0.620227
O O2 0.876576 0.912871 0.722004
O O3 0.611566 0.074255 0.681690
O O4 0.971219 0.977690 0.257378
O O5 0.937773 0.442979 0.029037
O O6 0.664469 0.719834 0.367741
O O7 0.847793 0.601794 0.474496
O O8 0.686475 0.395354 0.571240
O O9 0.247288 0.661495 0.963693
O O10 0.500000 0.500000 0.000000
O O11 0.521586 0.265230 0.068888
O O12 0.068137 0.767849 0.860003
O O13 0.207402 0.032289 0.721226
O O14 0.409567 0.122331 0.238097
O O15 0.500000 0.000000 0.500000
#
# Coordination Sequence:
#
# PCOD9048977 Si02
#       7
#     2   2   2   2   2   2   2
#     4  12  29  47  83 115 163 218 266 336 390 485
#     4  11  26  52  81 118 161 210 269 341 391 479
#     4  12  29  53  85 120 163 212 274 335 401 490
#     4  12  28  53  79 116 169 210 268 335 413 469
#     4  11  26  49  83 120 157 210 283 315 414 476
#     4  10  24  45  82 114 152 211 258 332 389 473
#     4  12  28  51  80 121 161 219 267 333 407 480
#
# _framework density 27.298110000000001
#
# number of rings (size 3 to 8) (size 9 to 14) (size 15 to 20)
#    0.000    0.571    1.429    4.286   12.000    4.571 
#    2.571    0.000    0.000    0.000    0.000    0.000 
#    0.000    0.000    0.000    0.000    0.000    0.000 
#
# Total GULP energy -78615.996721 kJ/mol
# GULP energy per Si atom -5615.428337 kJ/mol
# Density = 2.723598 g / cm^3
# Si number density = 27.298110 Si / 1000 Ang^3
#
#
#
# Elastic Constant Matrix: (Units=GPa)
#
#
# Indices 1 2 3 4 5 6 
#
# 1 228.6864 71.3890 82.3397 0.0219 14.8141 4.2094
# 2 71.3890 129.7676 85.2827 -16.2105 -8.9370 -2.2775
# 3 82.3397 85.2827 237.2074 -0.2046 -39.9013 13.6687
# 4 0.0219 -16.2105 -0.2046 60.3918 11.9514 -3.0225
# 5 14.8141 -8.9370 -39.9013 11.9514 56.7019 -0.8937
# 6 4.2094 -2.2775 13.6687 -3.0225 -0.8937 50.1013
#
#
#
# Elastic Compliance Matrix: (Units=1/GPa)
#
#
# Indices 1 2 3 4 5 6 
#
# 1 0.005937 -0.002350 -0.001733 -0.000027 -0.003138 -0.000191
# 2 -0.002350 0.011821 -0.003677 0.003416 -0.000800 0.001930
# 3 -0.001733 -0.003677 0.007147 -0.002115 0.005317 -0.002004
# 4 -0.000027 0.003416 -0.002115 0.018510 -0.004816 0.001765
# 5 -0.003138 -0.000800 0.005317 -0.004816 0.023069 -0.001102
# 6 -0.000191 0.001930 -0.002004 0.001765 -0.001102 0.020697
#
#
# Mechanical properties :
#
#
# Convention : Reuss Voigt Hill
#
# Bulk Modulus (GPa) = 106.55046 119.29823 112.92434
# Shear Modulus (GPa) = 47.24544 57.21567 52.23055
#
# Velocity S-wave (km/s) = 4.16471 4.58313 4.37892
# Velocity P-wave (km/s) = 7.88944 8.47370 8.18679
#
# Compressibility (1/GPa) = 0.00938522
#
# Stress axis : x y z
#
# Youngs Moduli (GPa) = 168.42874 84.59450 139.91386
#
# Poissons Ratio (x) = 0.19882 0.24245
# Poissons Ratio (y) = 0.39586 0.51446
# Poissons Ratio (z) = 0.29187 0.31105
#
# Static dielectric constant tensor:
#      x y z
#    x 2.254090 0.023090 0.041520 
#    y 0.023090 2.101410 0.028860 
#    z 0.041520 0.028860 2.152410 
# 
# From -- ./inp_files/306430.got.cif
#   From: 2010.05.17/outbox.cif.g08.bks.cpg/sg2_154_cif.got.tgz:306430.got - 2010.06.03 11:33:40.
