data_PCOD9048000
_publ_section_title
;
Structure prediction by ZEFSAII (Michael W. Deem and Ramdas Pophale) SiO2 
 PCOD9048000
Probable space group: P -1
;
_chemical_formula_sum "Si O2"
_cell_formula_units_Z 12
_cell_length_a 5.268464
_cell_length_b 7.183674
_cell_length_c 21.246945
_cell_angle_alpha 116.571532
_cell_angle_beta 60.963396
_cell_angle_gamma 134.389338
_cell_volume 494.876083
_symmetry_space_group_name_H-M "P -1"
_symmetry_group_IT_number 2
_symmetry_cell_setting 'triclinic'
loop_
_space_group_symop_operation_xyz
x,y,z
-x,-y,-z
loop_
_atom_site_type_symbol
_atom_site_label
_atom_site_fract_x
_atom_site_fract_y
_atom_site_fract_z
Si Si1 0.053730 0.807595 0.230376
Si Si2 0.886871 0.930938 0.852743
Si Si3 0.769400 0.483637 0.744744
Si Si4 0.426639 0.240709 0.495463
Si Si5 0.670930 0.519670 0.049570
Si Si6 0.411747 0.122712 0.622077
O O1 0.274559 0.991225 0.171569
O O2 0.964782 0.203191 0.226059
O O3 0.176844 0.656192 0.227307
O O4 0.962813 0.943281 0.314292
O O5 0.622982 0.717047 0.904499
O O6 0.362345 0.407602 0.779067
O O7 0.166487 0.198396 0.897454
O O8 0.741665 0.336564 0.662080
O O9 0.500000 0.500000 0.500000
O O10 0.500762 0.253228 0.562662
O O11 0.630443 0.141917 0.420709
O O12 0.000000 0.000000 0.500000
O O13 0.500000 0.500000 0.000000
O O14 0.000000 0.500000 0.000000
#
# Coordination Sequence:
#
# PCOD9048000 Si02
#       6
#     2   2   2   2   2   2
#     4  10  24  44  72 105 146 189 244 304 367 426
#     4  12  26  52  76 113 148 196 246 300 368 437
#     4  10  24  44  72 105 146 189 244 304 367 426
#     4  11  24  43  72  98 149 192 249 298 371 434
#     4  12  29  50  79 110 152 195 240 299 362 444
#     4   9  23  44  65 110 138 194 242 310 358 438
#
# _framework density 24.248493
#
# number of rings (size 3 to 8) (size 9 to 14) (size 15 to 20)
#    1.000    0.333    1.667    2.000    2.333   12.000 
#    0.000    0.000    0.000    0.000    0.000    0.000 
#    0.000    0.000    0.000    0.000    0.000    0.000 
#
# Total GULP energy -67076.721708 kJ/mol
# GULP energy per Si atom -5589.726809 kJ/mol
# Density = 2.419330 g / cm^3
# Si number density = 24.248493 Si / 1000 Ang^3
#
#
#
# Elastic Constant Matrix: (Units=GPa)
#
#
# Indices 1 2 3 4 5 6 
#
# 1 144.9319 77.6993 62.0851 13.4790 30.6693 -35.6932
# 2 77.6993 215.8815 81.0921 17.9022 30.9915 -25.7049
# 3 62.0851 81.0921 137.2797 28.3365 34.0526 -11.2335
# 4 13.4790 17.9022 28.3365 26.8504 2.7941 -2.3390
# 5 30.6693 30.9915 34.0526 2.7941 51.4805 -8.0289
# 6 -35.6932 -25.7049 -11.2335 -2.3390 -8.0289 40.0398
#
#
#
# Elastic Compliance Matrix: (Units=1/GPa)
#
#
# Indices 1 2 3 4 5 6 
#
# 1 0.011600 -0.001755 -0.002703 -0.000826 -0.002798 0.007846
# 2 -0.001755 0.006641 -0.002664 -0.000491 -0.000891 0.001744
# 3 -0.002703 -0.002664 0.013467 -0.010693 -0.005435 -0.002055
# 4 -0.000826 -0.000491 -0.010693 0.048716 0.005191 -0.000165
# 5 -0.002798 -0.000891 -0.005435 0.005191 0.025056 0.000737
# 6 0.007846 0.001744 -0.002055 -0.000165 0.000737 0.032650
#
#
# Mechanical properties :
#
#
# Convention : Reuss Voigt Hill
#
# Bulk Modulus (GPa) = 57.25994 104.42734 80.84364
# Shear Modulus (GPa) = 31.60650 42.15528 36.88089
#
# Velocity S-wave (km/s) = 3.61424 4.17402 3.90417
# Velocity P-wave (km/s) = 6.40953 8.14794 7.33045
#
# Compressibility (1/GPa) = 0.01746422
#
# Stress axis : x y z
#
# Youngs Moduli (GPa) = 86.20904 150.58248 74.25343
#
# Poissons Ratio (x) = 0.26433 0.20068
# Poissons Ratio (y) = 0.15133 0.19780
# Poissons Ratio (z) = 0.23299 0.40113
#
# Static dielectric constant tensor:
#      x y z
#    x 1.925740 0.050450 -0.039950 
#    y 0.050450 1.943740 0.016730 
#    z -0.039950 0.016730 2.000620 
# 
# From -- ./inp_files/12157.got.cif
#   From: 2010.05.17/outbox.cif.g08.bks.cpg/sg2_7_cif.got.tgz:12157.got - 2010.06.03 11:33:40.
