data_PCOD9048774
_publ_section_title
;
Structure prediction by ZEFSAII (Michael W. Deem and Ramdas Pophale) SiO2 
 PCOD9048774
Probable space group: P -1
;
_chemical_formula_sum "Si O2"
_cell_formula_units_Z 14
_cell_length_a 11.843188
_cell_length_b 11.956337
_cell_length_c 5.899355
_cell_angle_alpha 111.564863
_cell_angle_beta 47.342222
_cell_angle_gamma 116.142274
_cell_volume 548.467747
_symmetry_space_group_name_H-M "P -1"
_symmetry_group_IT_number 2
_symmetry_cell_setting 'triclinic'
loop_
_space_group_symop_operation_xyz
x,y,z
-x,-y,-z
loop_
_atom_site_type_symbol
_atom_site_label
_atom_site_fract_x
_atom_site_fract_y
_atom_site_fract_z
Si Si1 0.692580 0.896494 0.227932
Si Si2 0.998977 0.635872 0.683158
Si Si3 0.337152 0.911205 0.252874
Si Si4 0.005288 0.146776 0.482566
Si Si5 0.212005 0.266464 0.658092
Si Si6 0.419799 0.494857 0.352404
Si Si7 0.655282 0.269368 0.571999
O O1 0.697548 0.810265 0.374788
O O2 0.516990 0.830999 0.319974
O O3 0.695834 0.033142 0.416452
O O4 0.854891 0.897325 0.871732
O O5 0.992416 0.723029 0.544166
O O6 0.151264 0.703052 0.680836
O O7 0.000000 0.500000 0.500000
O O8 0.843497 0.635778 0.037099
O O9 0.183455 0.921324 0.327963
O O10 0.347958 0.770156 0.179868
O O11 0.500000 0.000000 0.000000
O O12 0.063208 0.167162 0.674433
O O13 0.308566 0.352420 0.395050
O O14 0.500000 0.500000 0.500000
O O15 0.353967 0.613933 0.488000
O O16 0.500000 0.500000 0.000000
#
# Coordination Sequence:
#
# PCOD9048774 Si02
#       7
#     2   2   2   2   2   2   2
#     4  11  24  47  73 104 149 196 250 311 389 460
#     4  10  24  45  72 110 150 196 250 314 388 458
#     4  11  27  46  74 109 146 199 257 324 384 453
#     4  10  24  47  71 103 149 197 252 310 385 462
#     4  11  25  46  75 108 149 202 250 312 387 472
#     4  12  27  46  77 113 153 203 255 320 391 472
#     4  11  25  46  73 107 154 192 254 319 383 456
#
# _framework density 25.525659000000001
#
# number of rings (size 3 to 8) (size 9 to 14) (size 15 to 20)
#    0.000    1.143    1.429    2.571   10.000    2.857 
#    2.571    0.000    0.000    0.000    0.000    0.000 
#    0.000    0.000    0.000    0.000    0.000    0.000 
#
# Total GULP energy -77959.046168 kJ/mol
# GULP energy per Si atom -5568.503298 kJ/mol
# Density = 2.546756 g / cm^3
# Si number density = 25.525659 Si / 1000 Ang^3
#
#
#
# Elastic Constant Matrix: (Units=GPa)
#
#
# Indices 1 2 3 4 5 6 
#
# 1 202.6269 41.2314 29.3954 0.0246 -19.8242 -7.8282
# 2 41.2314 123.3285 39.7716 -16.5984 -15.3455 -25.5267
# 3 29.3954 39.7716 83.4103 -2.7448 -10.2694 -4.1424
# 4 0.0246 -16.5984 -2.7448 39.9856 3.6222 0.8475
# 5 -19.8242 -15.3455 -10.2694 3.6222 26.2193 -11.0811
# 6 -7.8282 -25.5267 -4.1424 0.8475 -11.0811 60.0562
#
#
#
# Elastic Compliance Matrix: (Units=1/GPa)
#
#
# Indices 1 2 3 4 5 6 
#
# 1 0.005704 -0.001012 -0.001035 -0.000863 0.003841 0.000963
# 2 -0.001012 0.012518 -0.004327 0.004148 0.006871 0.006100
# 3 -0.001035 -0.004327 0.014647 -0.000991 0.002339 -0.000518
# 4 -0.000863 0.004148 -0.000991 0.026823 -0.001963 0.000842
# 5 0.003841 0.006871 0.002339 -0.001963 0.051820 0.013172
# 6 0.000963 0.006100 -0.000518 0.000842 0.013172 0.021752
#
#
# Mechanical properties :
#
#
# Convention : Reuss Voigt Hill
#
# Bulk Modulus (GPa) = 49.70040 70.01804 59.85922
# Shear Modulus (GPa) = 32.73972 45.18338 38.96155
#
# Velocity S-wave (km/s) = 3.58525 4.21184 3.91111
# Velocity P-wave (km/s) = 6.05407 7.15142 6.62550
#
# Compressibility (1/GPa) = 0.02012056
#
# Stress axis : x y z
#
# Youngs Moduli (GPa) = 175.30122 79.88597 68.27557
#
# Poissons Ratio (x) = 0.08085 0.07069
# Poissons Ratio (y) = 0.17742 0.29540
# Poissons Ratio (z) = 0.18151 0.34564
#
# Static dielectric constant tensor:
#      x y z
#    x 2.010210 0.069400 -0.054090 
#    y 0.069400 1.995790 -0.083560 
#    z -0.054090 -0.083560 2.071850 
# 
# From -- ./inp_files/71590.got.cif
#   From: 2010.05.17/outbox.cif.g08.bks.cpg/sg2_36_cif.got.tgz:71590.got - 2010.06.03 11:33:40.
