data_PCOD9048265
_publ_section_title
;
Structure prediction by ZEFSAII (Michael W. Deem and Ramdas Pophale) SiO2 
 PCOD9048265
Probable space group: P -1
;
_chemical_formula_sum "Si O2"
_cell_formula_units_Z 16
_cell_length_a 9.214494
_cell_length_b 17.667328
_cell_length_c 5.738144
_cell_angle_alpha 74.631211
_cell_angle_beta 55.144357
_cell_angle_gamma 61.170797
_cell_volume 671.475262
_symmetry_space_group_name_H-M "P -1"
_symmetry_group_IT_number 2
_symmetry_cell_setting 'triclinic'
loop_
_space_group_symop_operation_xyz
x,y,z
-x,-y,-z
loop_
_atom_site_type_symbol
_atom_site_label
_atom_site_fract_x
_atom_site_fract_y
_atom_site_fract_z
Si Si1 0.635583 0.891913 0.053912
Si Si2 0.255146 0.947186 0.594208
Si Si3 0.785867 0.281885 0.731013
Si Si4 0.993106 0.898048 0.524910
Si Si5 0.605125 0.483076 0.664721
Si Si6 0.117441 0.271748 0.740447
Si Si7 0.498479 0.197150 0.152822
Si Si8 0.081437 0.455437 0.712466
O O1 0.794889 0.928085 0.828730
O O2 0.539944 0.864188 0.948429
O O3 0.458672 0.950568 0.331604
O O4 0.759015 0.802004 0.137652
O O5 0.337013 0.871149 0.771383
O O6 0.155719 0.915148 0.502631
O O7 0.087042 0.045380 0.686226
O O8 0.740437 0.379731 0.623375
O O9 0.926057 0.203692 0.504678
O O10 0.919878 0.265732 0.850228
O O11 0.594154 0.262757 0.939345
O O12 0.500000 0.500000 0.500000
O O13 0.704681 0.549306 0.502182
O O14 0.500000 0.500000 0.000000
O O15 0.281240 0.253518 0.403722
O O16 0.063555 0.366205 0.807586
O O17 0.000000 0.500000 0.500000
O O18 0.000000 0.500000 0.000000
#
# Coordination Sequence:
#
# PCOD9048265 Si02
#       8
#     2   2   2   2   2   2   2   2
#     4  11  23  42  68  99 139 186 231 296 354 434
#     4  10  24  45  65 102 142 187 233 293 364 427
#     4  12  25  46  74 104 140 187 242 300 365 440
#     4  11  23  43  71 100 141 185 237 295 358 438
#     4  12  29  50  77 111 151 199 247 315 383 449
#     4  11  26  45  72 100 139 189 238 300 365 439
#     4  11  24  44  69 102 142 182 239 295 362 433
#     4  12  27  48  75 108 148 193 248 314 375 451
#
# _framework density 23.828126999999999
#
# number of rings (size 3 to 8) (size 9 to 14) (size 15 to 20)
#    0.000    0.750    3.750    2.625    5.250    2.000 
#    2.250    0.000    0.000    0.000    0.000    0.000 
#    0.000    0.000    0.000    0.000    0.000    0.000 
#
# Total GULP energy -89285.807138 kJ/mol
# GULP energy per Si atom -5580.362946 kJ/mol
# Density = 2.377389 g / cm^3
# Si number density = 23.828127 Si / 1000 Ang^3
#
#
#
# Elastic Constant Matrix: (Units=GPa)
#
#
# Indices 1 2 3 4 5 6 
#
# 1 138.3578 11.7210 16.3940 -7.4973 6.6367 4.9294
# 2 11.7210 101.0651 -4.6490 15.8071 11.6229 -11.4370
# 3 16.3940 -4.6490 69.9983 4.8379 -5.2872 12.9030
# 4 -7.4973 15.8071 4.8379 24.2068 6.5844 4.0703
# 5 6.6367 11.6229 -5.2872 6.5844 37.2655 -21.3307
# 6 4.9294 -11.4370 12.9030 4.0703 -21.3307 42.5862
#
#
#
# Elastic Compliance Matrix: (Units=1/GPa)
#
#
# Indices 1 2 3 4 5 6 
#
# 1 0.008301 -0.001910 -0.002157 0.006006 -0.004273 -0.003535
# 2 -0.001910 0.012096 0.001162 -0.009796 0.001098 0.004604
# 3 -0.002157 0.001162 0.015856 -0.004381 0.001201 -0.003222
# 4 0.006006 -0.009796 -0.004381 0.058350 -0.018621 -0.016902
# 5 -0.004273 0.001098 0.001201 -0.018621 0.044828 0.024659
# 6 -0.003535 0.004604 -0.003222 -0.016902 0.024659 0.040070
#
#
# Mechanical properties :
#
#
# Convention : Reuss Voigt Hill
#
# Bulk Modulus (GPa) = 32.84826 39.59480 36.22153
# Shear Modulus (GPa) = 25.58058 39.87539 32.72799
#
# Velocity S-wave (km/s) = 3.28005 4.09523 3.71010
# Velocity P-wave (km/s) = 5.30664 6.24613 5.79545
#
# Compressibility (1/GPa) = 0.03044301
#
# Stress axis : x y z
#
# Youngs Moduli (GPa) = 120.46103 82.66950 63.06785
#
# Poissons Ratio (x) = 0.15789 0.13606
# Poissons Ratio (y) = 0.23007 -0.07329
# Poissons Ratio (z) = 0.25989 -0.09606
#
# Static dielectric constant tensor:
#      x y z
#    x 3.237020 0.283550 0.027800 
#    y 0.283550 1.951120 -0.000200 
#    z 0.027800 -0.000200 2.119310 
# 
# From -- ./inp_files/47345.got.cif
#   From: 2010.05.17/outbox.cif.g08.bks.cpg/sg2_24_cif.got.tgz:47345.got - 2010.06.03 11:33:40.
