data_PCOD9048353
_publ_section_title
;
Structure prediction by ZEFSAII (Michael W. Deem and Ramdas Pophale) SiO2 
 PCOD9048353
Probable space group: P -1
;
_chemical_formula_sum "Si O2"
_cell_formula_units_Z 14
_cell_length_a 14.848398
_cell_length_b 20.707512
_cell_length_c 11.276857
_cell_angle_alpha 149.132285
_cell_angle_beta 41.846891
_cell_angle_gamma 159.740211
_cell_volume 579.415515
_symmetry_space_group_name_H-M "P -1"
_symmetry_group_IT_number 2
_symmetry_cell_setting 'triclinic'
loop_
_space_group_symop_operation_xyz
x,y,z
-x,-y,-z
loop_
_atom_site_type_symbol
_atom_site_label
_atom_site_fract_x
_atom_site_fract_y
_atom_site_fract_z
Si Si1 0.034285 0.737152 0.109170
Si Si2 0.812705 0.906107 0.329036
Si Si3 0.448672 0.154261 0.856909
Si Si4 0.161467 0.372693 0.119671
Si Si5 0.736448 0.718928 0.708553
Si Si6 0.107585 0.378181 0.452475
Si Si7 0.274698 0.729784 0.010773
O O1 0.741403 0.432218 0.951711
O O2 0.026419 0.726487 0.958231
O O3 0.064435 0.904671 0.390172
O O4 0.264883 0.851190 0.139039
O O5 0.489294 0.663583 0.240032
O O6 0.866279 0.801790 0.132963
O O7 0.981983 0.077432 0.315810
O O8 0.296808 0.164200 0.040417
O O9 0.500363 0.128039 0.890285
O O10 0.211607 0.879075 0.593371
O O11 0.101453 0.376691 0.315064
O O12 0.500000 0.500000 0.500000
O O13 0.731411 0.618202 0.662658
O O14 0.260838 0.613839 0.739786
O O15 0.000000 0.500000 0.000000
#
# Coordination Sequence:
#
# PCOD9048353 Si02
#       7
#     2   2   2   2   2   2   2
#     4  11  24  43  67  93 135 179 215 266 329 390
#     4  11  24  43  66  97 137 169 221 267 331 387
#     4  11  23  41  71  99 127 168 225 275 324 378
#     4  11  27  41  64 102 134 176 214 265 336 391
#     4  12  21  40  72 100 129 166 218 282 329 371
#     4  12  25  42  69 102 133 166 222 274 324 396
#     4  10  24  45  67  98 129 175 222 270 325 384
#
# _framework density 24.162279999999999
#
# number of rings (size 3 to 8) (size 9 to 14) (size 15 to 20)
#    0.000    0.857    4.286    2.571    4.000    6.286 
#    0.000    1.429    0.000    0.000    0.000    0.000 
#    0.000    0.000    0.000    0.000    0.000    0.000 
#
# Total GULP energy -78327.408878 kJ/mol
# GULP energy per Si atom -5594.814920 kJ/mol
# Density = 2.410729 g / cm^3
# Si number density = 24.162280 Si / 1000 Ang^3
#
#
#
# Elastic Constant Matrix: (Units=GPa)
#
#
# Indices 1 2 3 4 5 6 
#
# 1 142.9950 17.1760 60.7599 -19.5622 25.1050 -23.4890
# 2 17.1760 54.7411 21.1468 1.2724 3.1436 -7.2191
# 3 60.7599 21.1468 -26.3605 19.6656 1.1083 21.5982
# 4 -19.5622 1.2724 19.6656 28.6284 2.9744 -0.0534
# 5 25.1050 3.1436 1.1083 2.9744 23.3400 -2.5416
# 6 -23.4890 -7.2191 21.5982 -0.0534 -2.5416 15.7207
#
#
#
# Elastic Compliance Matrix: (Units=1/GPa)
#
#
# Indices 1 2 3 4 5 6 
#
# 1 0.005378 -0.004190 0.006197 0.000212 -0.005908 -0.003356
# 2 -0.004190 0.018867 0.001866 -0.005250 0.002572 0.000239
# 3 0.006197 0.001866 -0.004289 0.007756 -0.006062 0.015055
# 4 0.000212 -0.005250 0.007756 0.030501 -0.005246 -0.013494
# 5 -0.005908 0.002572 -0.006062 -0.005246 0.050775 0.008874
# 6 -0.003356 0.000239 0.015055 -0.013494 0.008874 0.039411
#
#
# Mechanical properties :
#
#
# Convention : Reuss Voigt Hill
#
# Bulk Modulus (GPa) = 36.09779 41.06009 38.57894
# Shear Modulus (GPa) = 35.17843 18.35734 26.76789
#
# Velocity S-wave (km/s) = 3.81980 2.75935 3.33203
# Velocity P-wave (km/s) = 5.86742 5.21367 5.55018
#
# Compressibility (1/GPa) = 0.02770253
#
# Stress axis : x y z
#
# Youngs Moduli (GPa) = 185.92727 53.00149 -233.13744
#
# Poissons Ratio (x) = 0.22206 1.44468
# Poissons Ratio (y) = 0.77896 0.43501
# Poissons Ratio (z) = -1.15214 -0.09890
#
# Static dielectric constant tensor:
#      x y z
#    x 1.918560 0.007360 -0.031910 
#    y 0.007360 1.971270 0.024790 
#    z -0.031910 0.024790 1.949630 
# 
# From -- ./inp_files/345727.got.cif
#   From: 2010.05.17/outbox.cif.g08.bks.cpg/sg2_173_cif.got.tgz:345727.got - 2010.06.03 11:33:40.
