data_PCOD9048964
_publ_section_title
;
Structure prediction by ZEFSAII (Michael W. Deem and Ramdas Pophale) SiO2 
 PCOD9048964
Probable space group: P -1
;
_chemical_formula_sum "Si O2"
_cell_formula_units_Z 14
_cell_length_a 14.344106
_cell_length_b 19.853620
_cell_length_c 11.719897
_cell_angle_alpha 29.739799
_cell_angle_beta 138.238114
_cell_angle_gamma 160.492820
_cell_volume 497.056580
_symmetry_space_group_name_H-M "P -1"
_symmetry_group_IT_number 2
_symmetry_cell_setting 'triclinic'
loop_
_space_group_symop_operation_xyz
x,y,z
-x,-y,-z
loop_
_atom_site_type_symbol
_atom_site_label
_atom_site_fract_x
_atom_site_fract_y
_atom_site_fract_z
Si Si1 0.089745 0.348372 0.471353
Si Si2 0.006389 0.155968 0.157274
Si Si3 0.500000 0.500000 0.500000
Si Si4 0.486236 0.335474 0.974306
Si Si5 0.500000 0.500000 0.000000
Si Si6 0.310811 0.756441 0.782894
Si Si7 0.483467 0.233872 0.540167
Si Si8 0.295655 0.845288 0.228222
O O1 0.968593 0.381529 0.253160
O O2 0.333721 0.495482 0.392211
O O3 0.247662 0.523643 0.476830
O O4 0.817863 0.007460 0.758050
O O5 0.379898 0.475543 0.065726
O O6 0.068272 0.104646 0.188367
O O7 0.816041 0.963009 0.380529
O O8 0.843142 0.152444 0.974937
O O9 0.456668 0.407205 0.735064
O O10 0.735565 0.433808 0.028138
O O11 0.552601 0.392051 0.265643
O O12 0.500000 0.000000 0.500000
O O13 0.542027 0.953747 0.809073
O O14 0.473636 0.066935 0.744031
O O15 0.000000 0.500000 0.500000
#
# Coordination Sequence:
#
# PCOD9048964 Si02
#       8
#     2   2   1   2   1   2   2   2
#     4  11  26  49  73 109 147 192 244 304 366 437
#     4  12  28  48  76 113 149 192 255 305 367 445
#     4  12  28  44  80 104 158 186 248 292 382 438
#     4  11  26  49  73 109 147 192 244 304 366 437
#     4  12  28  48  80 100 162 194 242 298 386 442
#     4  10  24  45  78 106 141 189 253 301 359 436
#     4  12  28  48  76 113 149 192 255 305 367 445
#     4  12  23  48  80 107 146 201 245 310 377 427
#
# _framework density 28.165808999999999
#
# number of rings (size 3 to 8) (size 9 to 14) (size 15 to 20)
#    0.000    0.571    1.429    6.429    4.000    2.857 
#    0.000    0.000    0.000    0.000    0.000    0.000 
#    0.000    0.000    0.000    0.000    0.000    0.000 
#
# Total GULP energy -78204.448757 kJ/mol
# GULP energy per Si atom -5586.032054 kJ/mol
# Density = 2.810170 g / cm^3
# Si number density = 28.165809 Si / 1000 Ang^3
#
#
#
# Elastic Constant Matrix: (Units=GPa)
#
#
# Indices 1 2 3 4 5 6 
#
# 1 183.7214 57.1889 45.2126 18.3900 12.5958 28.9267
# 2 57.1889 116.7576 53.4920 23.3574 -3.2729 3.7799
# 3 45.2126 53.4920 171.5951 30.0485 -13.1863 -1.9448
# 4 18.3900 23.3574 30.0485 52.8348 6.8542 3.7477
# 5 12.5958 -3.2729 -13.1863 6.8542 59.3025 9.5696
# 6 28.9267 3.7799 -1.9448 3.7477 9.5696 76.9434
#
#
#
# Elastic Compliance Matrix: (Units=1/GPa)
#
#
# Indices 1 2 3 4 5 6 
#
# 1 0.007110 -0.002915 -0.001069 -0.000216 -0.001503 -0.002359
# 2 -0.002915 0.011640 -0.002246 -0.003022 0.001033 0.000486
# 3 -0.001069 -0.002246 0.007541 -0.003233 0.002056 0.000605
# 4 -0.000216 -0.003022 -0.003233 0.022652 -0.003371 -0.000536
# 5 -0.001503 0.001033 0.002056 -0.003371 0.018336 -0.001550
# 6 -0.002359 0.000486 0.000605 -0.000536 -0.001550 0.014094
#
#
# Mechanical properties :
#
#
# Convention : Reuss Voigt Hill
#
# Bulk Modulus (GPa) = 72.31321 87.09569 79.70445
# Shear Modulus (GPa) = 50.79138 58.89485 54.84311
#
# Velocity S-wave (km/s) = 4.25113 4.57771 4.41744
# Velocity P-wave (km/s) = 7.05876 7.67660 7.37415
#
# Compressibility (1/GPa) = 0.01382873
#
# Stress axis : x y z
#
# Youngs Moduli (GPa) = 140.65425 85.91405 132.61649
#
# Poissons Ratio (x) = 0.25046 0.14177
# Poissons Ratio (y) = 0.41004 0.29789
# Poissons Ratio (z) = 0.15036 0.19299
#
# Static dielectric constant tensor:
#      x y z
#    x 2.370280 0.032550 -0.022920 
#    y 0.032550 2.179450 -0.061420 
#    z -0.022920 -0.061420 2.087590 
# 
# From -- ./inp_files/457650.got.cif
#   From: 2010.05.17/outbox.cif.g08.bks.cpg/sg2_229_cif.got.tgz:457650.got - 2010.06.03 11:33:40.
