data_PCOD9048985
_publ_section_title
;
Structure prediction by ZEFSAII (Michael W. Deem and Ramdas Pophale) SiO2 
 PCOD9048985
Probable space group: P -1
;
_chemical_formula_sum "Si O2"
_cell_formula_units_Z 16
_cell_length_a 7.210868
_cell_length_b 12.551795
_cell_length_c 9.150397
_cell_angle_alpha 96.082273
_cell_angle_beta 118.507694
_cell_angle_gamma 96.485771
_cell_volume 710.897642
_symmetry_space_group_name_H-M "P -1"
_symmetry_group_IT_number 2
_symmetry_cell_setting 'triclinic'
loop_
_space_group_symop_operation_xyz
x,y,z
-x,-y,-z
loop_
_atom_site_type_symbol
_atom_site_label
_atom_site_fract_x
_atom_site_fract_y
_atom_site_fract_z
Si Si1 0.164254 0.680185 0.458805
Si Si2 0.462594 0.123480 0.470370
Si Si3 0.301922 0.262439 0.674763
Si Si4 0.745723 0.975786 0.900862
Si Si5 0.635284 0.454756 0.920285
Si Si6 0.530931 0.141468 0.962372
Si Si7 0.859886 0.329500 0.224250
Si Si8 0.730893 0.529018 0.670537
O O1 0.327418 0.784145 0.471054
O O2 0.218683 0.644366 0.639361
O O3 0.157556 0.574281 0.341198
O O4 0.933863 0.713971 0.392296
O O5 0.328392 0.173578 0.550130
O O6 0.333355 0.108390 0.268119
O O7 0.500000 0.000000 0.500000
O O8 0.477163 0.372570 0.742435
O O9 0.387133 0.220179 0.851414
O O10 0.636832 0.082813 0.862857
O O11 0.637152 0.932165 0.005859
O O12 0.000000 0.000000 0.000000
O O13 0.732933 0.542726 0.848820
O O14 0.500000 0.500000 0.000000
O O15 0.787683 0.393397 0.066104
O O16 0.737261 0.205984 0.136025
O O17 0.117413 0.363875 0.324233
O O18 0.500000 0.500000 0.500000
#
# Coordination Sequence:
#
# PCOD9048985 Si02
#       8
#     2   2   2   2   2   2   2   2
#     4  12  26  46  71 105 146 190 239 301 365 431
#     4  12  26  47  71 106 144 188 247 299 361 428
#     4  11  25  44  71  99 145 185 243 290 365 425
#     4  11  25  44  72  97 140 182 243 291 372 415
#     4  11  23  46  68 105 144 185 240 296 356 435
#     4  10  24  46  64 103 138 184 234 304 349 439
#     4  11  24  43  69 101 144 186 234 293 365 423
#     4  12  25  45  76 107 146 192 244 295 366 442
#
# _framework density 22.506758000000001
#
# number of rings (size 3 to 8) (size 9 to 14) (size 15 to 20)
#    0.000    0.750    3.750    3.000    3.500    0.500 
#    4.500    0.000    0.000    0.000    0.000    0.000 
#    0.000    0.000    0.000    0.000    0.000    0.000 
#
# Total GULP energy -89331.166260 kJ/mol
# GULP energy per Si atom -5583.197891 kJ/mol
# Density = 2.245553 g / cm^3
# Si number density = 22.506758 Si / 1000 Ang^3
#
#
#
# Elastic Constant Matrix: (Units=GPa)
#
#
# Indices 1 2 3 4 5 6 
#
# 1 146.5711 45.1993 44.5806 7.1130 7.1096 1.4623
# 2 45.1993 64.5113 10.3946 1.1596 4.6948 7.1467
# 3 44.5806 10.3946 75.3940 9.8776 -5.5473 -4.6504
# 4 7.1130 1.1596 9.8776 41.1569 0.8450 -4.5624
# 5 7.1096 4.6948 -5.5473 0.8450 47.2255 3.2905
# 6 1.4623 7.1467 -4.6504 -4.5624 3.2905 39.4074
#
#
#
# Elastic Compliance Matrix: (Units=1/GPa)
#
#
# Indices 1 2 3 4 5 6 
#
# 1 0.010535 -0.006414 -0.005411 -0.000283 -0.001595 0.000234
# 2 -0.006414 0.020295 0.000736 0.000010 -0.000736 -0.003293
# 3 -0.005411 0.000736 0.017054 -0.003068 0.002695 0.001500
# 4 -0.000283 0.000010 -0.003068 0.025397 -0.000959 0.002667
# 5 -0.001595 -0.000736 0.002695 -0.000959 0.021922 -0.001431
# 6 0.000234 -0.003293 0.001500 0.002667 -0.001431 0.026570
#
#
# Mechanical properties :
#
#
# Convention : Reuss Voigt Hill
#
# Bulk Modulus (GPa) = 38.90135 54.09171 46.49653
# Shear Modulus (GPa) = 32.78246 37.97808 35.38027
#
# Velocity S-wave (km/s) = 3.82063 4.11226 3.96913
# Velocity P-wave (km/s) = 6.06505 6.82886 6.45826
#
# Compressibility (1/GPa) = 0.02570605
#
# Stress axis : x y z
#
# Youngs Moduli (GPa) = 94.91962 49.27353 58.63581
#
# Poissons Ratio (x) = 0.31606 0.31728
# Poissons Ratio (y) = 0.60884 -0.04316
# Poissons Ratio (z) = 0.51361 -0.03627
#
# Static dielectric constant tensor:
#      x y z
#    x 1.828510 0.038110 0.003130 
#    y 0.038110 2.040710 -0.035100 
#    z 0.003130 -0.035100 1.865740 
# 
# From -- ./inp_files/124660.got.cif
#   From: 2010.05.17/outbox.cif.g08.bks.cpg/sg2_63_cif.got.tgz:124660.got - 2010.06.03 11:33:40.
