data_PCOD9048850
_publ_section_title
;
Structure prediction by ZEFSAII (Michael W. Deem and Ramdas Pophale) SiO2 
 PCOD9048850
Probable space group: P -1
;
_chemical_formula_sum "Si O2"
_cell_formula_units_Z 16
_cell_length_a 9.746080
_cell_length_b 22.323307
_cell_length_c 11.977453
_cell_angle_alpha 31.518470
_cell_angle_beta 117.955700
_cell_angle_gamma 142.259653
_cell_volume 639.493994
_symmetry_space_group_name_H-M "P -1"
_symmetry_group_IT_number 2
_symmetry_cell_setting 'triclinic'
loop_
_space_group_symop_operation_xyz
x,y,z
-x,-y,-z
loop_
_atom_site_type_symbol
_atom_site_label
_atom_site_fract_x
_atom_site_fract_y
_atom_site_fract_z
Si Si1 0.654766 0.849638 0.739247
Si Si2 0.994631 0.678709 0.252918
Si Si3 0.695641 0.268490 0.894723
Si Si4 0.879947 0.093051 0.874343
Si Si5 0.162407 0.675313 0.882782
Si Si6 0.592366 0.428092 0.123367
Si Si7 0.557833 0.507185 0.680552
Si Si8 0.762526 0.813048 0.439793
O O1 0.495367 0.873304 0.648760
O O2 0.474699 0.647782 0.069970
O O3 0.609469 0.764500 0.736805
O O4 0.975898 0.040825 0.606117
O O5 0.814001 0.456446 0.580264
O O6 0.760406 0.633959 0.218135
O O7 0.164200 0.748872 0.094759
O O8 0.189277 0.847899 0.159780
O O9 0.789202 0.330065 0.960528
O O10 0.346259 0.046123 0.093536
O O11 0.214067 0.318240 0.605859
O O12 0.839099 0.950538 0.153644
O O13 0.921298 0.621752 0.897922
O O14 0.000000 0.500000 0.000000
O O15 0.521998 0.324406 0.380851
O O16 0.500000 0.500000 0.000000
O O17 0.698153 0.654051 0.607990
#
# Coordination Sequence:
#
# PCOD9048850 Si02
#       8
#     2   2   2   2   2   2   2   2
#     4  11  24  45  71 100 138 182 233 286 345 408
#     4  11  24  41  66 101 142 187 224 281 348 417
#     4  11  24  43  67  99 145 181 230 286 347 410
#     4  12  25  40  67 107 141 180 229 281 349 421
#     4  10  24  45  73  99 135 183 232 292 348 403
#     4  11  24  47  74  96 133 186 238 290 347 408
#     4  12  23  41  67 100 141 181 223 281 345 414
#     4  12  24  41  71 102 137 180 236 284 341 418
#
# _framework density 25.019780999999998
#
# number of rings (size 3 to 8) (size 9 to 14) (size 15 to 20)
#    0.000    0.750    3.750    3.750    3.500    0.000 
#    2.250    0.625    8.250    0.000    0.000    0.000 
#    0.000    0.000    0.000    0.000    0.000    0.000 
#
# Total GULP energy -89437.120867 kJ/mol
# GULP energy per Si atom -5589.820054 kJ/mol
# Density = 2.496284 g / cm^3
# Si number density = 25.019781 Si / 1000 Ang^3
#
#
#
# Elastic Constant Matrix: (Units=GPa)
#
#
# Indices 1 2 3 4 5 6 
#
# 1 168.3004 45.1866 21.5484 -3.3625 -17.3284 -7.0700
# 2 45.1866 124.1912 18.6943 -14.9747 -14.1041 -7.1603
# 3 21.5484 18.6943 61.1659 -4.6902 -8.1582 3.2604
# 4 -3.3625 -14.9747 -4.6902 36.5443 -4.6942 -7.9027
# 5 -17.3284 -14.1041 -8.1582 -4.6942 31.6203 -4.1903
# 6 -7.0700 -7.1603 3.2604 -7.9027 -4.1903 34.5377
#
#
#
# Elastic Compliance Matrix: (Units=1/GPa)
#
#
# Indices 1 2 3 4 5 6 
#
# 1 0.007014 -0.001840 -0.001578 0.000418 0.002896 0.001650
# 2 -0.001840 0.010316 -0.001713 0.005192 0.004405 0.003646
# 3 -0.001578 -0.001713 0.018036 0.001494 0.003024 -0.001672
# 4 0.000418 0.005192 0.001494 0.032984 0.009109 0.009673
# 5 0.002896 0.004405 0.003024 0.009109 0.038365 0.007960
# 6 0.001650 0.003646 -0.001672 0.009673 0.007960 0.033385
#
#
# Mechanical properties :
#
#
# Convention : Reuss Voigt Hill
#
# Bulk Modulus (GPa) = 39.83650 58.27957 49.05803
# Shear Modulus (GPa) = 31.50016 38.42234 34.96125
#
# Velocity S-wave (km/s) = 3.55210 3.92302 3.74216
# Velocity P-wave (km/s) = 5.72537 6.62300 6.19047
#
# Compressibility (1/GPa) = 0.02510261
#
# Stress axis : x y z
#
# Youngs Moduli (GPa) = 142.57800 96.93622 55.44542
#
# Poissons Ratio (x) = 0.17835 0.08750
# Poissons Ratio (y) = 0.26233 0.09500
# Poissons Ratio (z) = 0.22501 0.16609
#
# Static dielectric constant tensor:
#      x y z
#    x 1.986670 0.012210 0.002270 
#    y 0.012210 2.009960 0.019710 
#    z 0.002270 0.019710 2.037430 
# 
# From -- ./inp_files/405427.got.cif
#   From: 2010.05.17/outbox.cif.g08.bks.cpg/sg2_203_cif.got.tgz:405427.got - 2010.06.03 11:33:40.
