data_PCOD9048292
_publ_section_title
;
Structure prediction by ZEFSAII (Michael W. Deem and Ramdas Pophale) SiO2 
 PCOD9048292
Probable space group: P -1
;
_chemical_formula_sum "Si O2"
_cell_formula_units_Z 16
_cell_length_a 8.829488
_cell_length_b 15.051702
_cell_length_c 11.461034
_cell_angle_alpha 28.850400
_cell_angle_beta 108.642080
_cell_angle_gamma 105.455473
_cell_volume 696.096984
_symmetry_space_group_name_H-M "P -1"
_symmetry_group_IT_number 2
_symmetry_cell_setting 'triclinic'
loop_
_space_group_symop_operation_xyz
x,y,z
-x,-y,-z
loop_
_atom_site_type_symbol
_atom_site_label
_atom_site_fract_x
_atom_site_fract_y
_atom_site_fract_z
Si Si1 0.083746 0.807438 0.697000
Si Si2 0.292781 0.853586 0.284308
Si Si3 0.640652 0.594154 0.854545
Si Si4 0.526822 0.530283 0.656427
Si Si5 0.979732 0.480256 0.175805
Si Si6 0.394135 0.880343 0.529264
Si Si7 0.984008 0.676192 0.375366
Si Si8 0.619766 0.773448 0.178799
O O1 0.984705 0.687975 0.713402
O O2 0.254146 0.823199 0.654011
O O3 0.000000 0.000000 0.500000
O O4 0.079236 0.664152 0.968627
O O5 0.371131 0.648138 0.526298
O O6 0.286518 0.913812 0.349194
O O7 0.120026 0.824507 0.219306
O O8 0.401801 0.006633 0.076142
O O9 0.640045 0.524726 0.802479
O O10 0.553814 0.791742 0.603389
O O11 0.500000 0.500000 0.000000
O O12 0.799167 0.553773 0.014029
O O13 0.592531 0.653177 0.426134
O O14 0.479860 0.332029 0.823512
O O15 0.995316 0.397630 0.402354
O O16 0.500000 0.000000 0.500000
O O17 0.000000 0.500000 0.500000
O O18 0.807528 0.755355 0.219916
#
# Coordination Sequence:
#
# PCOD9048292 Si02
#       8
#     2   2   2   2   2   2   2   2
#     4  11  24  44  67 101 144 180 228 280 353 423
#     4  11  23  47  67  99 135 177 234 285 337 411
#     4  11  22  41  73  96 137 177 226 289 346 403
#     4  10  24  45  66 106 132 174 234 278 348 414
#     4  11  25  46  69 101 143 183 226 295 347 409
#     4  11  24  42  68 105 135 176 234 283 343 424
#     4  12  25  47  70 100 137 186 240 283 342 417
#     4  11  25  42  72  94 141 181 224 283 344 411
#
# _framework density 22.985301
#
# number of rings (size 3 to 8) (size 9 to 14) (size 15 to 20)
#    0.000    1.000    3.750    2.250    5.250    1.000 
#    4.500    0.000    0.000    0.000    0.000    0.000 
#    0.000    0.000    0.000    0.000    0.000    0.000 
#
# Total GULP energy -89092.723492 kJ/mol
# GULP energy per Si atom -5568.295218 kJ/mol
# Density = 2.293299 g / cm^3
# Si number density = 22.985301 Si / 1000 Ang^3
#
#
#
# Elastic Constant Matrix: (Units=GPa)
#
#
# Indices 1 2 3 4 5 6 
#
# 1 90.4657 19.9617 19.0387 -16.4128 4.0607 6.5908
# 2 19.9617 124.5931 31.3701 -16.7219 -10.2438 0.8955
# 3 19.0387 31.3701 68.9464 -18.9988 -9.5002 -4.2741
# 4 -16.4128 -16.7219 -18.9988 31.1860 7.6046 -4.9982
# 5 4.0607 -10.2438 -9.5002 7.6046 46.6877 -2.4080
# 6 6.5908 0.8955 -4.2741 -4.9982 -2.4080 36.6188
#
#
#
# Elastic Compliance Matrix: (Units=1/GPa)
#
#
# Indices 1 2 3 4 5 6 
#
# 1 0.012970 -0.001036 -0.002153 0.005309 -0.002762 -0.002017
# 2 -0.001036 0.009397 -0.003215 0.002254 0.001129 -0.000037
# 3 -0.002153 -0.003215 0.019674 0.009263 0.002192 0.004171
# 4 0.005309 0.002254 0.009263 0.043831 -0.004926 0.005729
# 5 -0.002762 0.001129 0.002192 -0.004926 0.023237 0.001581
# 6 -0.002017 -0.000037 0.004171 0.005729 0.001581 0.029045
#
#
# Mechanical properties :
#
#
# Convention : Reuss Voigt Hill
#
# Bulk Modulus (GPa) = 34.20769 47.19402 40.70086
# Shear Modulus (GPa) = 31.11265 37.14082 34.12673
#
# Velocity S-wave (km/s) = 3.68311 4.02413 3.85739
# Velocity P-wave (km/s) = 5.74472 6.49371 6.13066
#
# Compressibility (1/GPa) = 0.02923319
#
# Stress axis : x y z
#
# Youngs Moduli (GPa) = 77.10265 106.41478 50.82738
#
# Poissons Ratio (x) = 0.11024 0.10942
# Poissons Ratio (y) = 0.07988 0.16343
# Poissons Ratio (z) = 0.16598 0.34216
#
# Static dielectric constant tensor:
#      x y z
#    x 1.875260 0.018270 -0.083760 
#    y 0.018270 1.843330 0.012600 
#    z -0.083760 0.012600 1.889200 
# 
# From -- ./inp_files/398277.got.cif
#   From: 2010.05.17/outbox.cif.g08.bks.cpg/sg2_200_cif.got.tgz:398277.got - 2010.06.03 11:33:40.
