data_PCOD9048036
_publ_section_title
;
Structure prediction by ZEFSAII (Michael W. Deem and Ramdas Pophale) SiO2 
 PCOD9048036
Probable space group: P -1
;
_chemical_formula_sum "Si O2"
_cell_formula_units_Z 12
_cell_length_a 6.551079
_cell_length_b 14.187693
_cell_length_c 8.697251
_cell_angle_alpha 129.250098
_cell_angle_beta 81.490356
_cell_angle_gamma 124.014612
_cell_volume 491.443086
_symmetry_space_group_name_H-M "P -1"
_symmetry_group_IT_number 2
_symmetry_cell_setting 'triclinic'
loop_
_space_group_symop_operation_xyz
x,y,z
-x,-y,-z
loop_
_atom_site_type_symbol
_atom_site_label
_atom_site_fract_x
_atom_site_fract_y
_atom_site_fract_z
Si Si1 0.814110 0.256833 0.265751
Si Si2 0.504830 0.638964 0.212170
Si Si3 0.078385 0.579804 0.875215
Si Si4 0.498643 0.124195 0.724220
Si Si5 0.280946 0.044137 0.011771
Si Si6 0.300548 0.423012 0.586890
O O1 0.966232 0.388318 0.259158
O O2 0.003201 0.310677 0.443582
O O3 0.763932 0.102114 0.055300
O O4 0.516104 0.195796 0.232322
O O5 0.612060 0.796600 0.273820
O O6 0.635554 0.658449 0.382399
O O7 0.199129 0.559962 0.180635
O O8 0.500000 0.500000 0.000000
O O9 0.293236 0.551011 0.806437
O O10 0.205231 0.734043 0.115995
O O11 0.362418 0.061976 0.841796
O O12 0.500000 0.000000 0.500000
O O13 0.000000 0.000000 0.000000
O O14 0.500000 0.500000 0.500000
#
# Coordination Sequence:
#
# PCOD9048036 Si02
#       6
#     2   2   2   2   2   2
#     4  10  24  44  72 114 147 191 263 321 383 450
#     4  12  27  48  79 111 157 206 255 326 400 461
#     4  11  25  47  77 110 157 192 266 331 382 462
#     4  11  27  50  76 111 159 207 256 322 398 465
#     4  10  25  47  78 105 157 205 261 321 385 463
#     4  12  26  44  79 118 150 201 262 323 392 466
#
# _framework density 24.417883
#
# number of rings (size 3 to 8) (size 9 to 14) (size 15 to 20)
#    0.000    1.000    3.333    1.000    9.333    0.000 
#    6.000    1.667    0.000    0.000    0.000    0.000 
#    0.000    0.000    0.000    0.000    0.000    0.000 
#
# Total GULP energy -67031.343143 kJ/mol
# GULP energy per Si atom -5585.945262 kJ/mol
# Density = 2.436231 g / cm^3
# Si number density = 24.417883 Si / 1000 Ang^3
#
#
#
# Elastic Constant Matrix: (Units=GPa)
#
#
# Indices 1 2 3 4 5 6 
#
# 1 140.0825 59.1668 65.9934 -19.0168 9.0707 -9.2098
# 2 59.1668 128.4631 34.6447 -15.9358 -4.2297 -25.6128
# 3 65.9934 34.6447 144.4502 -2.7728 4.4554 -4.7575
# 4 -19.0168 -15.9358 -2.7728 28.4881 -1.3113 8.4796
# 5 9.0707 -4.2297 4.4554 -1.3113 51.8032 4.7820
# 6 -9.2098 -25.6128 -4.7575 8.4796 4.7820 60.5651
#
#
#
# Elastic Compliance Matrix: (Units=1/GPa)
#
#
# Indices 1 2 3 4 5 6 
#
# 1 0.011476 -0.003693 -0.004226 0.005328 -0.001743 -0.000757
# 2 -0.003693 0.010736 -0.000767 0.002496 0.001333 0.003464
# 3 -0.004226 -0.000767 0.008999 -0.002409 -0.000166 0.000090
# 4 0.005328 0.002496 -0.002409 0.041098 0.000901 -0.004148
# 5 -0.001743 0.001333 -0.000166 0.000901 0.019885 -0.001411
# 6 -0.000757 0.003464 0.000090 -0.004148 -0.001411 0.018560
#
#
# Mechanical properties :
#
#
# Convention : Reuss Voigt Hill
#
# Bulk Modulus (GPa) = 72.25734 81.40064 76.82899
# Shear Modulus (GPa) = 37.66788 45.05067 41.35927
#
# Velocity S-wave (km/s) = 3.93190 4.29999 4.12006
# Velocity P-wave (km/s) = 7.09009 7.61985 7.35974
#
# Compressibility (1/GPa) = 0.01383942
#
# Stress axis : x y z
#
# Youngs Moduli (GPa) = 87.13959 93.14267 111.12026
#
# Poissons Ratio (x) = 0.34399 0.46959
# Poissons Ratio (y) = 0.32182 0.08521
# Poissons Ratio (z) = 0.36825 0.07142
#
# Static dielectric constant tensor:
#      x y z
#    x 2.071120 -0.033720 0.013690 
#    y -0.033720 1.932140 0.005490 
#    z 0.013690 0.005490 2.090490 
# 
# From -- ./inp_files/135908.got.cif
#   From: 2010.05.17/outbox.cif.g08.bks.cpg/sg2_68_cif.got.tgz:135908.got - 2010.06.03 11:33:40.
