data_PCOD9048503
_publ_section_title
;
Structure prediction by ZEFSAII (Michael W. Deem and Ramdas Pophale) SiO2 
 PCOD9048503
Probable space group: P -1
;
_chemical_formula_sum "Si O2"
_cell_formula_units_Z 14
_cell_length_a 15.037525
_cell_length_b 13.814847
_cell_length_c 9.072414
_cell_angle_alpha 128.598396
_cell_angle_beta 24.553262
_cell_angle_gamma 132.588381
_cell_volume 576.384526
_symmetry_space_group_name_H-M "P -1"
_symmetry_group_IT_number 2
_symmetry_cell_setting 'triclinic'
loop_
_space_group_symop_operation_xyz
x,y,z
-x,-y,-z
loop_
_atom_site_type_symbol
_atom_site_label
_atom_site_fract_x
_atom_site_fract_y
_atom_site_fract_z
Si Si1 0.298182 0.891772 0.618768
Si Si2 0.572897 0.597983 0.265856
Si Si3 0.986079 0.593902 0.473092
Si Si4 0.698794 0.124167 0.746488
Si Si5 0.087935 0.039201 0.567142
Si Si6 0.829211 0.363932 0.263570
Si Si7 0.299441 0.321694 0.512240
O O1 0.309118 0.906686 0.443137
O O2 0.290402 0.747769 0.542312
O O3 0.500000 0.000000 0.500000
O O4 0.071844 0.910129 0.040217
O O5 0.359790 0.639681 0.575927
O O6 0.479305 0.439190 0.265131
O O7 0.661633 0.645994 0.341407
O O8 0.780127 0.642833 0.881887
O O9 0.918211 0.502707 0.345275
O O10 0.000000 0.500000 0.500000
O O11 0.215174 0.717154 0.218621
O O12 0.898088 0.088579 0.496249
O O13 0.500000 0.000000 0.000000
O O14 0.302612 0.174283 0.348539
O O15 0.000000 0.000000 0.500000
O O16 0.053526 0.331374 0.845560
#
# Coordination Sequence:
#
# PCOD9048503 Si02
#       7
#     2   2   2   2   2   2   2
#     4  11  25  46  73 103 148 194 245 309 368 445
#     4  11  24  42  75 106 143 196 234 306 371 441
#     4  12  24  47  72 104 148 186 246 304 367 441
#     4  12  28  47  75 107 147 200 245 311 377 443
#     4  11  26  46  70 104 148 191 248 302 376 444
#     4  11  24  45  74 107 145 191 247 297 375 442
#     4  10  24  45  69 106 148 185 245 305 365 443
#
# _framework density 24.289341
#
# number of rings (size 3 to 8) (size 9 to 14) (size 15 to 20)
#    0.000    0.857    2.857    3.000    8.000    1.143 
#    0.000    0.000    0.000    0.000    0.000    0.000 
#    0.000    0.000    0.000    0.000    0.000    0.000 
#
# Total GULP energy -78319.065453 kJ/mol
# GULP energy per Si atom -5594.218961 kJ/mol
# Density = 2.423406 g / cm^3
# Si number density = 24.289341 Si / 1000 Ang^3
#
#
#
# Elastic Constant Matrix: (Units=GPa)
#
#
# Indices 1 2 3 4 5 6 
#
# 1 109.9636 50.2922 12.1429 -13.8819 0.7160 -19.3093
# 2 50.2922 156.5443 26.8037 -43.0300 4.7540 -6.0954
# 3 12.1429 26.8037 82.3316 -28.9977 3.7927 -5.9059
# 4 -13.8819 -43.0300 -28.9977 39.7591 0.2715 -7.7228
# 5 0.7160 4.7540 3.7927 0.2715 39.1667 -0.1590
# 6 -19.3093 -6.0954 -5.9059 -7.7228 -0.1590 48.8779
#
#
#
# Elastic Compliance Matrix: (Units=1/GPa)
#
#
# Indices 1 2 3 4 5 6 
#
# 1 0.011476 -0.003095 0.000217 0.001677 0.000151 0.004439
# 2 -0.003095 0.010483 0.001374 0.011683 -0.001421 0.002092
# 3 0.000217 0.001374 0.017467 0.015242 -0.001948 0.004770
# 4 0.001677 0.011683 0.015242 0.051879 -0.003235 0.012148
# 5 0.000151 -0.001421 -0.001948 -0.003235 0.025910 -0.000780
# 6 0.004439 0.002092 0.004770 0.012148 -0.000780 0.024967
#
#
# Mechanical properties :
#
#
# Convention : Reuss Voigt Hill
#
# Bulk Modulus (GPa) = 27.45881 58.59080 43.02480
# Shear Modulus (GPa) = 31.78092 42.86744 37.32418
#
# Velocity S-wave (km/s) = 3.62115 4.20559 3.92426
# Velocity P-wave (km/s) = 5.36778 6.91065 6.18749
#
# Compressibility (1/GPa) = 0.03641819
#
# Stress axis : x y z
#
# Youngs Moduli (GPa) = 87.14199 95.39368 57.25157
#
# Poissons Ratio (x) = 0.29521 -0.01243
# Poissons Ratio (y) = 0.26967 -0.07866
# Poissons Ratio (z) = -0.01892 -0.13107
#
# Static dielectric constant tensor:
#      x y z
#    x 1.959010 -0.112340 -0.098580 
#    y -0.112340 2.129520 -0.083770 
#    z -0.098580 -0.083770 2.058800 
# 
# From -- ./inp_files/308243.got.cif
#   From: 2010.05.17/outbox.cif.g08.bks.cpg/sg2_155_cif.got.tgz:308243.got - 2010.06.03 11:33:40.
