data_PCOD9048656
_publ_section_title
;
Structure prediction by ZEFSAII (Michael W. Deem and Ramdas Pophale) SiO2 
 PCOD9048656
Probable space group: P -1
;
_chemical_formula_sum "Si O2"
_cell_formula_units_Z 16
_cell_length_a 10.253095
_cell_length_b 18.878059
_cell_length_c 5.198761
_cell_angle_alpha 65.497348
_cell_angle_beta 85.037658
_cell_angle_gamma 126.875200
_cell_volume 650.087393
_symmetry_space_group_name_H-M "P -1"
_symmetry_group_IT_number 2
_symmetry_cell_setting 'triclinic'
loop_
_space_group_symop_operation_xyz
x,y,z
-x,-y,-z
loop_
_atom_site_type_symbol
_atom_site_label
_atom_site_fract_x
_atom_site_fract_y
_atom_site_fract_z
Si Si1 0.925881 0.534828 0.772420
Si Si2 0.368893 0.143867 0.716405
Si Si3 0.618338 0.026963 0.190151
Si Si4 0.339544 0.688620 0.933286
Si Si5 0.805278 0.877878 0.715164
Si Si6 0.595583 0.659553 0.128961
Si Si7 0.894178 0.272979 0.877355
Si Si8 0.711465 0.549155 0.152038
O O1 0.065334 0.658152 0.483301
O O2 0.825857 0.435234 0.745471
O O3 0.761261 0.514658 0.960535
O O4 0.000000 0.500000 0.000000
O O5 0.574928 0.262444 0.442669
O O6 0.239261 0.140482 0.557100
O O7 0.352294 0.052289 0.729880
O O8 0.312316 0.120156 0.057550
O O9 0.500000 0.000000 0.500000
O O10 0.806745 0.154640 0.994797
O O11 0.500000 0.000000 0.000000
O O12 0.498157 0.698536 0.999672
O O13 0.264626 0.742588 0.932480
O O14 0.788356 0.782635 0.976636
O O15 0.000000 0.000000 0.500000
O O16 0.646072 0.609227 0.009605
O O17 0.455700 0.561763 0.500404
O O18 0.093467 0.360387 0.858375
#
# Coordination Sequence:
#
# PCOD9048656 Si02
#       8
#     2   2   2   2   2   2   2   2
#     4  12  24  39  72 104 141 186 244 300 365 443
#     4  11  25  46  73 103 143 192 241 312 366 436
#     4  12  28  47  72 107 150 192 247 310 375 441
#     4  11  22  45  70 104 142 190 243 296 374 441
#     4  11  25  47  74 103 141 194 254 296 369 441
#     4  10  24  45  70  99 147 187 240 307 366 439
#     4  12  26  44  72 104 146 190 246 302 370 449
#     4  11  24  46  67 104 144 188 240 304 375 432
#
# _framework density 24.612074
#
# number of rings (size 3 to 8) (size 9 to 14) (size 15 to 20)
#    0.000    0.750    3.750    3.000    7.000    1.500 
#    4.500    0.000    0.000    0.000    0.000    0.000 
#    0.000    0.000    0.000    0.000    0.000    0.000 
#
# Total GULP energy -89068.360411 kJ/mol
# GULP energy per Si atom -5566.772526 kJ/mol
# Density = 2.455606 g / cm^3
# Si number density = 24.612074 Si / 1000 Ang^3
#
#
#
# Elastic Constant Matrix: (Units=GPa)
#
#
# Indices 1 2 3 4 5 6 
#
# 1 75.8869 21.1263 20.6767 3.9634 -6.0690 -9.0179
# 2 21.1263 120.0845 36.7387 -32.7007 4.0989 -18.2202
# 3 20.6767 36.7387 118.0075 -21.2029 -13.2247 -6.6152
# 4 3.9634 -32.7007 -21.2029 51.2665 2.4597 -3.2890
# 5 -6.0690 4.0989 -13.2247 2.4597 21.9636 7.9881
# 6 -9.0179 -18.2202 -6.6152 -3.2890 7.9881 45.7975
#
#
#
# Elastic Compliance Matrix: (Units=1/GPa)
#
#
# Indices 1 2 3 4 5 6 
#
# 1 0.015217 -0.003325 -0.001926 -0.004261 0.004000 0.000391
# 2 -0.003325 0.013224 -0.002586 0.008416 -0.008163 0.006261
# 3 -0.001926 -0.002586 0.010758 0.002590 0.006425 -0.000789
# 4 -0.004261 0.008416 0.002590 0.026960 -0.006364 0.005930
# 5 0.004000 -0.008163 0.006425 -0.006364 0.057084 -0.011946
# 6 0.000391 0.006261 -0.000789 0.005930 -0.011946 0.026799
#
#
# Mechanical properties :
#
#
# Convention : Reuss Voigt Hill
#
# Bulk Modulus (GPa) = 42.51075 52.34025 47.42550
# Shear Modulus (GPa) = 28.80866 39.50135 34.15500
#
# Velocity S-wave (km/s) = 3.42498 4.01054 3.72927
# Velocity P-wave (km/s) = 5.74025 6.53897 6.15259
#
# Compressibility (1/GPa) = 0.02352346
#
# Stress axis : x y z
#
# Youngs Moduli (GPa) = 65.71568 75.61981 92.95613
#
# Poissons Ratio (x) = 0.25145 0.17907
# Poissons Ratio (y) = 0.21852 0.24040
# Poissons Ratio (z) = 0.12659 0.19556
#
# Static dielectric constant tensor:
#      x y z
#    x 2.716690 0.566470 -0.418310 
#    y 0.566470 2.483870 -0.404990 
#    z -0.418310 -0.404990 2.380410 
# 
# From -- ./inp_files/80321.got.cif
#   From: 2010.05.17/outbox.cif.g08.bks.cpg/sg2_41_cif.got.tgz:80321.got - 2010.06.03 11:33:40.
