data_PCOD9048263
_publ_section_title
;
Structure prediction by ZEFSAII (Michael W. Deem and Ramdas Pophale) SiO2 
 PCOD9048263
Probable space group: P -1
;
_chemical_formula_sum "Si O2"
_cell_formula_units_Z 16
_cell_length_a 5.332604
_cell_length_b 11.908348
_cell_length_c 20.920811
_cell_angle_alpha 150.712817
_cell_angle_beta 99.684229
_cell_angle_gamma 83.794850
_cell_volume 638.577254
_symmetry_space_group_name_H-M "P -1"
_symmetry_group_IT_number 2
_symmetry_cell_setting 'triclinic'
loop_
_space_group_symop_operation_xyz
x,y,z
-x,-y,-z
loop_
_atom_site_type_symbol
_atom_site_label
_atom_site_fract_x
_atom_site_fract_y
_atom_site_fract_z
Si Si1 0.234036 0.120500 0.953679
Si Si2 0.679307 0.863489 0.294632
Si Si3 0.632693 0.612969 0.625612
Si Si4 0.251106 0.862641 0.453518
Si Si5 0.075277 0.504351 0.931164
Si Si6 0.480643 0.490742 0.775328
Si Si7 0.533837 0.104922 0.836530
Si Si8 0.830650 0.393665 0.295721
O O1 0.299506 0.065230 0.855166
O O2 0.146650 0.873898 0.855809
O O3 0.461429 0.248388 0.068386
O O4 0.060746 0.330665 0.040289
O O5 0.930778 0.752302 0.223808
O O6 0.573951 0.670860 0.245445
O O7 0.520319 0.891509 0.238437
O O8 0.707865 0.099671 0.450855
O O9 0.500000 0.500000 0.500000
O O10 0.414803 0.591842 0.660838
O O11 0.905868 0.532702 0.619820
O O12 0.691786 0.887580 0.750198
O O13 0.281621 0.610057 0.302095
O O14 0.500000 0.000000 0.500000
O O15 0.000000 0.000000 0.500000
O O16 0.352170 0.641367 0.014026
O O17 0.000000 0.500000 0.000000
O O18 0.249665 0.476155 0.707041
#
# Coordination Sequence:
#
# PCOD9048263 Si02
#       8
#     2   2   2   2   2   2   2   2
#     4  11  22  43  67 105 147 190 242 306 363 439
#     4  11  23  42  69 101 146 186 241 310 368 438
#     4  11  26  50  76 103 143 196 248 312 368 434
#     4  10  24  45  64  98 140 190 241 286 359 437
#     4  12  21  37  70 105 143 187 242 302 378 428
#     4  11  24  45  72 105 151 200 238 301 372 446
#     4  11  23  43  65 105 143 182 250 306 369 433
#     4  11  26  47  73 109 145 190 254 296 370 451
#
# _framework density 25.055698
#
# number of rings (size 3 to 8) (size 9 to 14) (size 15 to 20)
#    0.000    1.000    3.750    2.625    1.750    4.000 
#    0.000    2.500    0.000    0.000    0.000    0.000 
#    0.000    0.000    0.000    0.000    0.000    0.000 
#
# Total GULP energy -89363.469976 kJ/mol
# GULP energy per Si atom -5585.216873 kJ/mol
# Density = 2.499867 g / cm^3
# Si number density = 25.055698 Si / 1000 Ang^3
#
#
#
# Elastic Constant Matrix: (Units=GPa)
#
#
# Indices 1 2 3 4 5 6 
#
# 1 112.9518 53.3750 14.9636 -5.8455 -6.0079 -18.3728
# 2 53.3750 150.9227 47.7839 -8.7847 -1.5259 -22.1645
# 3 14.9636 47.7839 115.7299 -21.2444 -11.5661 11.1258
# 4 -5.8455 -8.7847 -21.2444 51.1686 1.3396 7.8776
# 5 -6.0079 -1.5259 -11.5661 1.3396 34.2223 -3.1109
# 6 -18.3728 -22.1645 11.1258 7.8776 -3.1109 35.0793
#
#
#
# Elastic Compliance Matrix: (Units=1/GPa)
#
#
# Indices 1 2 3 4 5 6 
#
# 1 0.011205 -0.003241 -0.000316 -0.000098 0.002095 0.004129
# 2 -0.003241 0.010138 -0.004791 -0.001589 -0.001084 0.006489
# 3 -0.000316 -0.004791 0.012797 0.005643 0.003085 -0.008245
# 4 -0.000098 -0.001589 0.005643 0.022821 0.000203 -0.007952
# 5 0.002095 -0.001084 0.003085 0.000203 0.030767 0.002117
# 6 0.004129 0.006489 -0.008245 -0.007952 0.002117 0.039358
#
#
# Mechanical properties :
#
#
# Convention : Reuss Voigt Hill
#
# Bulk Modulus (GPa) = 57.32668 67.98326 62.65497
# Shear Modulus (GPa) = 33.42341 41.65952 37.54147
#
# Velocity S-wave (km/s) = 3.65631 4.08202 3.87501
# Velocity P-wave (km/s) = 6.38390 7.02915 6.71428
#
# Compressibility (1/GPa) = 0.01744389
#
# Stress axis : x y z
#
# Youngs Moduli (GPa) = 89.24962 98.63589 78.14527
#
# Poissons Ratio (x) = 0.31964 0.02472
# Poissons Ratio (y) = 0.28922 0.37439
# Poissons Ratio (z) = 0.02823 0.47256
#
# Static dielectric constant tensor:
#      x y z
#    x 2.128670 -0.028110 0.068560 
#    y -0.028110 2.007110 -0.001460 
#    z 0.068560 -0.001460 2.074970 
# 
# From -- ./inp_files/583377.got.cif
#   From: 2010.05.17/outbox.cif.g08.bks.cpg/sg2_292_cif.got.tgz:583377.got - 2010.06.03 11:33:40.
