data_PCOD9048253
_publ_section_title
;
Structure prediction by ZEFSAII (Michael W. Deem and Ramdas Pophale) SiO2 
 PCOD9048253
Probable space group: P -1
;
_chemical_formula_sum "Si O2"
_cell_formula_units_Z 10
_cell_length_a 7.641642
_cell_length_b 10.181034
_cell_length_c 4.928625
_cell_angle_alpha 91.223675
_cell_angle_beta 88.111951
_cell_angle_gamma 87.057671
_cell_volume 382.630697
_symmetry_space_group_name_H-M "P -1"
_symmetry_group_IT_number 2
_symmetry_cell_setting 'triclinic'
loop_
_space_group_symop_operation_xyz
x,y,z
-x,-y,-z
loop_
_atom_site_type_symbol
_atom_site_label
_atom_site_fract_x
_atom_site_fract_y
_atom_site_fract_z
Si Si1 0.781201 0.878503 0.332836
Si Si2 0.893419 0.141505 0.332313
Si Si3 0.075932 0.356057 0.065146
Si Si4 0.539230 0.619275 0.800728
Si Si5 0.575725 0.229649 0.683011
O O1 0.850049 0.744501 0.174709
O O2 0.906713 0.889403 0.585449
O O3 0.818377 0.014907 0.185513
O O4 0.579110 0.862814 0.400482
O O5 0.765403 0.170298 0.594471
O O6 0.915736 0.279097 0.189980
O O7 0.250208 0.375301 0.235942
O O8 0.000000 0.500000 0.000000
O O9 0.455894 0.643158 0.510056
O O10 0.500000 0.500000 0.000000
O O11 0.462401 0.739238 0.000551
#
# Coordination Sequence:
#
# PCOD9048253 Si02
#       5
#     2   2   2   2   2
#     4  10  24  45  64 102 133 175 229 280 337 407
#     4  11  23  43  71  95 134 180 223 283 340 403
#     4  11  24  42  68  98 137 178 227 281 339 405
#     4  11  24  44  64 101 141 178 225 283 336 411
#     4  11  24  44  68 100 134 179 229 278 342 401
#
# _framework density 26.134861000000001
#
# number of rings (size 3 to 8) (size 9 to 14) (size 15 to 20)
#    0.000    1.200    2.000    3.000    5.600    2.400 
#    0.000    3.000    0.000    0.000    0.000    0.000 
#    0.000    0.000    0.000    0.000    0.000    0.000 
#
# Total GULP energy -55931.594838 kJ/mol
# GULP energy per Si atom -5593.159484 kJ/mol
# Density = 2.607538 g / cm^3
# Si number density = 26.134861 Si / 1000 Ang^3
#
#
#
# Elastic Constant Matrix: (Units=GPa)
#
#
# Indices 1 2 3 4 5 6 
#
# 1 117.6271 19.7541 18.7300 -10.7900 -28.9044 9.5031
# 2 19.7541 173.8297 18.7591 -19.1183 -19.3761 12.1942
# 3 18.7300 18.7591 99.6859 -1.5107 -15.4760 -0.9126
# 4 -10.7900 -19.1183 -1.5107 34.2668 1.7008 -16.3451
# 5 -28.9044 -19.3761 -15.4760 1.7008 42.8092 -7.5199
# 6 9.5031 12.1942 -0.9126 -16.3451 -7.5199 44.3778
#
#
#
# Elastic Compliance Matrix: (Units=1/GPa)
#
#
# Indices 1 2 3 4 5 6 
#
# 1 0.010559 -0.000036 -0.000900 0.002899 0.006660 -0.000073
# 2 -0.000036 0.006500 -0.000781 0.003399 0.002478 -0.000122
# 3 -0.000900 -0.000781 0.010854 0.000193 0.003173 0.001239
# 4 0.002899 0.003399 0.000193 0.038089 0.004375 0.013219
# 5 0.006660 0.002478 0.003173 0.004375 0.030792 0.004787
# 6 -0.000073 -0.000122 0.001239 0.013219 0.004787 0.028289
#
#
# Mechanical properties :
#
#
# Convention : Reuss Voigt Hill
#
# Bulk Modulus (GPa) = 40.85246 56.18103 48.51675
# Shear Modulus (GPa) = 36.58244 46.55074 41.56659
#
# Velocity S-wave (km/s) = 3.74539 4.22497 3.99239
# Velocity P-wave (km/s) = 5.86253 6.73378 6.31320
#
# Compressibility (1/GPa) = 0.02447833
#
# Stress axis : x y z
#
# Youngs Moduli (GPa) = 94.70409 153.84878 92.12817
#
# Poissons Ratio (x) = 0.00562 0.08291
# Poissons Ratio (y) = 0.00346 0.07197
# Poissons Ratio (z) = 0.08523 0.12018
#
# Static dielectric constant tensor:
#      x y z
#    x 2.004190 -0.015500 0.060820 
#    y -0.015500 2.224740 -0.075540 
#    z 0.060820 -0.075540 2.091220 
# 
# From -- ./inp_files/16018.got.cif
#   From: 2010.05.17/outbox.cif.g08.bks.cpg/sg2_9_cif.got.tgz:16018.got - 2010.06.03 11:33:40.
