data_PCOD9048918
_publ_section_title
;
Structure prediction by ZEFSAII (Michael W. Deem and Ramdas Pophale) SiO2 
 PCOD9048918
Probable space group: P -1
;
_chemical_formula_sum "Si O2"
_cell_formula_units_Z 12
_cell_length_a 9.284745
_cell_length_b 9.098252
_cell_length_c 8.994175
_cell_angle_alpha 49.422113
_cell_angle_beta 113.922853
_cell_angle_gamma 120.605831
_cell_volume 493.459152
_symmetry_space_group_name_H-M "P -1"
_symmetry_group_IT_number 2
_symmetry_cell_setting 'triclinic'
loop_
_space_group_symop_operation_xyz
x,y,z
-x,-y,-z
loop_
_atom_site_type_symbol
_atom_site_label
_atom_site_fract_x
_atom_site_fract_y
_atom_site_fract_z
Si Si1 0.884922 0.951946 0.128360
Si Si2 0.045707 0.825976 0.541325
Si Si3 0.479933 0.298963 0.725621
Si Si4 0.006042 0.592755 0.102084
Si Si5 0.357005 0.449557 0.100150
Si Si6 0.406815 0.069473 0.548354
O O1 0.702780 0.791459 0.208571
O O2 0.013138 0.888685 0.325311
O O3 0.000000 0.000000 0.000000
O O4 0.869185 0.174910 0.998421
O O5 0.953680 0.579361 0.672609
O O6 0.237717 0.874371 0.632325
O O7 0.000000 0.000000 0.500000
O O8 0.500000 0.500000 0.500000
O O9 0.603904 0.374571 0.869956
O O10 0.488345 0.143221 0.697110
O O11 0.816636 0.596152 0.032195
O O12 0.000000 0.500000 0.000000
O O13 0.355496 0.251596 0.328559
O O14 0.500000 0.500000 0.000000
O O15 0.500000 0.000000 0.500000
#
# Coordination Sequence:
#
# PCOD9048918 Si02
#       6
#     2   2   2   2   2   2
#     4  12  26  48  77 112 148 194 257 313 372 451
#     4  12  23  47  77 102 149 197 254 308 375 447
#     4  10  24  45  75 108 151 197 246 310 377 445
#     4  12  24  44  76 105 140 200 246 301 377 442
#     4  11  23  44  71 104 148 192 246 302 369 452
#     4  11  22  43  70 108 147 196 245 307 378 441
#
# _framework density 24.318121999999999
#
# number of rings (size 3 to 8) (size 9 to 14) (size 15 to 20)
#    0.000    0.667    5.000    2.000    2.333    2.000 
#    3.000    4.167    0.000    0.000    0.000    0.000 
#    0.000    0.000    0.000    0.000    0.000    0.000 
#
# Total GULP energy -66881.503249 kJ/mol
# GULP energy per Si atom -5573.458604 kJ/mol
# Density = 2.426277 g / cm^3
# Si number density = 24.318122 Si / 1000 Ang^3
#
#
#
# Elastic Constant Matrix: (Units=GPa)
#
#
# Indices 1 2 3 4 5 6 
#
# 1 110.9679 26.8125 11.2209 -1.6610 -26.2513 -2.9435
# 2 26.8125 91.0497 46.3751 -7.6618 -5.0807 5.1756
# 3 11.2209 46.3751 169.6940 -6.1450 -15.5680 -1.5686
# 4 -1.6610 -7.6618 -6.1450 52.0647 -3.5620 -5.0616
# 5 -26.2513 -5.0807 -15.5680 -3.5620 41.5130 -0.2408
# 6 -2.9435 5.1756 -1.5686 -5.0616 -0.2408 36.2480
#
#
#
# Elastic Compliance Matrix: (Units=1/GPa)
#
#
# Indices 1 2 3 4 5 6 
#
# 1 0.011534 -0.003486 0.000893 0.000614 0.007264 0.001607
# 2 -0.003486 0.014050 -0.003754 0.001166 -0.001806 -0.002301
# 3 0.000893 -0.003754 0.007153 0.000614 0.002847 0.001023
# 4 0.000614 0.001166 0.000614 0.019904 0.002485 0.002706
# 5 0.007264 -0.001806 0.002847 0.002485 0.029751 0.001515
# 6 0.001607 -0.002301 0.001023 0.002706 0.001515 0.028479
#
#
# Mechanical properties :
#
#
# Convention : Reuss Voigt Hill
#
# Bulk Modulus (GPa) = 49.89149 60.05872 54.97511
# Shear Modulus (GPa) = 38.38979 45.11867 41.75423
#
# Velocity S-wave (km/s) = 3.97753 4.31205 4.14817
# Velocity P-wave (km/s) = 6.45407 7.03864 6.75269
#
# Compressibility (1/GPa) = 0.02004350
#
# Stress axis : x y z
#
# Youngs Moduli (GPa) = 86.70191 71.17619 139.80942
#
# Poissons Ratio (x) = 0.24812 -0.12492
# Poissons Ratio (y) = 0.30224 0.52482
# Poissons Ratio (z) = -0.07747 0.26718
#
# Static dielectric constant tensor:
#      x y z
#    x 2.056460 0.153220 -0.062350 
#    y 0.153220 1.823970 0.042110 
#    z -0.062350 0.042110 1.798990 
# 
# From -- ./inp_files/156476.got.cif
#   From: 2010.05.17/outbox.cif.g08.bks.cpg/sg2_79_cif.got.tgz:156476.got - 2010.06.03 11:33:40.
