data_PCOD9048886
_publ_section_title
;
Structure prediction by ZEFSAII (Michael W. Deem and Ramdas Pophale) SiO2 
 PCOD9048886
Probable space group: P -1
;
_chemical_formula_sum "Si O2"
_cell_formula_units_Z 14
_cell_length_a 9.853011
_cell_length_b 12.173614
_cell_length_c 9.559708
_cell_angle_alpha 64.395099
_cell_angle_beta 119.898032
_cell_angle_gamma 69.297686
_cell_volume 614.825592
_symmetry_space_group_name_H-M "P -1"
_symmetry_group_IT_number 2
_symmetry_cell_setting 'triclinic'
loop_
_space_group_symop_operation_xyz
x,y,z
-x,-y,-z
loop_
_atom_site_type_symbol
_atom_site_label
_atom_site_fract_x
_atom_site_fract_y
_atom_site_fract_z
Si Si1 0.522915 0.289183 0.872289
Si Si2 0.500571 0.079582 0.317679
Si Si3 0.239080 0.677316 0.225873
Si Si4 0.891663 0.293553 0.565402
Si Si5 0.242185 0.835965 0.645955
Si Si6 0.009050 0.554190 0.127221
Si Si7 0.286040 0.207864 0.655317
O O1 0.726036 0.233609 0.914819
O O2 0.288986 0.496128 0.618539
O O3 0.465446 0.186363 0.847649
O O4 0.588960 0.269357 0.077819
O O5 0.665836 0.099159 0.423397
O O6 0.500000 0.000000 0.500000
O O7 0.596225 0.947253 0.311012
O O8 0.247201 0.271939 0.050849
O O9 0.500000 0.500000 0.500000
O O10 0.096497 0.780487 0.237766
O O11 0.137161 0.610916 0.147703
O O12 0.784962 0.263644 0.412670
O O13 0.119137 0.225159 0.659580
O O14 0.000000 0.000000 0.500000
O O15 0.135950 0.389993 0.387660
O O16 0.000000 0.500000 0.000000
#
# Coordination Sequence:
#
# PCOD9048886 Si02
#       7
#     2   2   2   2   2   2   2
#     4  11  26  46  77 106 145 193 247 301 370 435
#     4  12  29  46  74 110 148 192 249 299 364 435
#     4  10  24  45  74 111 140 188 249 298 366 437
#     4  11  24  46  77 103 146 189 247 299 371 438
#     4  12  28  48  69 108 149 189 244 307 365 434
#     4  12  26  45  79 106 148 196 246 298 365 434
#     4  12  25  50  74 109 148 193 244 306 369 438
#
# _framework density 22.770682999999998
#
# number of rings (size 3 to 8) (size 9 to 14) (size 15 to 20)
#    0.000    0.571    5.714    1.714   12.000    1.714 
#    0.000    1.429    0.000    0.000    0.000    0.000 
#    0.000    0.000    0.000    0.000    0.000    0.000 
#
# Total GULP energy -78419.085147 kJ/mol
# GULP energy per Si atom -5601.363225 kJ/mol
# Density = 2.271886 g / cm^3
# Si number density = 22.770683 Si / 1000 Ang^3
#
#
#
# Elastic Constant Matrix: (Units=GPa)
#
#
# Indices 1 2 3 4 5 6 
#
# 1 225.1384 70.1218 47.0051 26.0263 8.2683 1.5678
# 2 70.1218 149.1750 45.5950 23.1956 18.8608 -3.7119
# 3 47.0051 45.5950 71.0423 9.8111 -2.4088 6.0246
# 4 26.0263 23.1956 9.8111 56.9946 -2.9908 11.4327
# 5 8.2683 18.8608 -2.4088 -2.9908 44.5846 14.4847
# 6 1.5678 -3.7119 6.0246 11.4327 14.4847 39.5791
#
#
#
# Elastic Compliance Matrix: (Units=1/GPa)
#
#
# Indices 1 2 3 4 5 6 
#
# 1 0.005689 -0.001403 -0.002731 -0.001804 -0.001042 0.000962
# 2 -0.001403 0.010940 -0.006227 -0.004258 -0.006865 0.005772
# 3 -0.002731 -0.006227 0.020387 0.001918 0.006485 -0.006506
# 4 -0.001804 -0.004258 0.001918 0.022028 0.006793 -0.009469
# 5 -0.001042 -0.006865 0.006485 0.006793 0.031196 -0.014969
# 6 0.000962 0.005772 -0.006506 -0.009469 -0.014969 0.034973
#
#
# Mechanical properties :
#
#
# Convention : Reuss Voigt Hill
#
# Bulk Modulus (GPa) = 61.37783 85.64437 73.51110
# Shear Modulus (GPa) = 33.03241 47.07392 40.05316
#
# Velocity S-wave (km/s) = 3.81288 4.55169 4.19857
# Velocity P-wave (km/s) = 6.81156 8.08191 7.47377
#
# Compressibility (1/GPa) = 0.01629253
#
# Stress axis : x y z
#
# Youngs Moduli (GPa) = 175.77229 91.40743 49.05148
#
# Poissons Ratio (x) = 0.12826 0.13398
# Poissons Ratio (y) = 0.24663 0.30545
# Poissons Ratio (z) = 0.48011 0.56921
#
# Static dielectric constant tensor:
#      x y z
#    x 1.853340 0.009530 -0.040470 
#    y 0.009530 1.818130 -0.005430 
#    z -0.040470 -0.005430 1.909290 
# 
# From -- ./inp_files/159066.got.cif
#   From: 2010.05.17/outbox.cif.g08.bks.cpg/sg2_80_cif.got.tgz:159066.got - 2010.06.03 11:33:40.
