data_PCOD9048462
_publ_section_title
;
Structure prediction by ZEFSAII (Michael W. Deem and Ramdas Pophale) SiO2 
 PCOD9048462
Probable space group: P -1
;
_chemical_formula_sum "Si O2"
_cell_formula_units_Z 16
_cell_length_a 16.761879
_cell_length_b 15.751275
_cell_length_c 15.470267
_cell_angle_alpha 38.017187
_cell_angle_beta 33.060600
_cell_angle_gamma 17.237573
_cell_volume 658.271836
_symmetry_space_group_name_H-M "P -1"
_symmetry_group_IT_number 2
_symmetry_cell_setting 'triclinic'
loop_
_space_group_symop_operation_xyz
x,y,z
-x,-y,-z
loop_
_atom_site_type_symbol
_atom_site_label
_atom_site_fract_x
_atom_site_fract_y
_atom_site_fract_z
Si Si1 0.399362 0.631388 0.122197
Si Si2 0.694702 0.322707 0.549668
Si Si3 0.450326 0.174490 0.342209
Si Si4 0.301310 0.466653 0.477352
Si Si5 0.927360 0.247803 0.813358
Si Si6 0.636073 0.935324 0.655821
Si Si7 0.506385 0.247623 0.909216
Si Si8 0.108660 0.322581 0.961255
O O1 0.389505 0.511448 0.293437
O O2 0.113802 0.833062 0.158178
O O3 0.413871 0.755994 0.066955
O O4 0.683023 0.411402 0.977302
O O5 0.500000 0.500000 0.500000
O O6 0.747038 0.417980 0.479622
O O7 0.524321 0.359252 0.738317
O O8 0.000000 0.000000 0.500000
O O9 0.436854 0.124781 0.297672
O O10 0.749272 0.012785 0.225424
O O11 0.500000 0.000000 0.500000
O O12 0.174673 0.515600 0.322388
O O13 0.564447 0.137255 0.510473
O O14 0.988781 0.647551 0.592012
O O15 0.404327 0.124645 0.795738
O O16 0.172886 0.459985 0.024469
O O17 0.772006 0.919388 0.913122
O O18 0.000000 0.500000 0.000000
#
# Coordination Sequence:
#
# PCOD9048462 Si02
#       8
#     2   2   2   2   2   2   2   2
#     4  10  24  45  69 101 132 175 221 278 336 388
#     4  11  24  41  67  93 125 166 218 279 327 385
#     4  12  24  42  67 102 140 177 220 267 331 398
#     4  11  25  42  67  96 132 173 221 275 335 393
#     4  11  24  41  71  99 136 174 224 269 327 404
#     4  12  25  43  67  96 138 179 220 273 334 397
#     4  11  25  45  68  95 133 171 222 278 333 391
#     4  12  27  44  68  96 132 180 227 276 329 402
#
# _framework density 24.306068
#
# number of rings (size 3 to 8) (size 9 to 14) (size 15 to 20)
#    0.000    0.750    0.000    6.750    5.250    7.000 
#    0.000    0.000    0.000    0.000    0.000    0.000 
#    0.000    0.000    0.000    0.000    0.000    0.000 
#
# Total GULP energy -89634.747520 kJ/mol
# GULP energy per Si atom -5602.171720 kJ/mol
# Density = 2.425075 g / cm^3
# Si number density = 24.306068 Si / 1000 Ang^3
#
#
#
# Elastic Constant Matrix: (Units=GPa)
#
#
# Indices 1 2 3 4 5 6 
#
# 1 173.8472 41.1450 36.8048 -3.9840 8.1333 -5.3920
# 2 41.1450 106.6049 1.0126 -7.9472 -3.1236 -21.4004
# 3 36.8048 1.0126 80.3691 -0.4736 8.3076 -5.7076
# 4 -3.9840 -7.9472 -0.4736 41.9536 2.9828 -1.9002
# 5 8.1333 -3.1236 8.3076 2.9828 25.1793 4.5804
# 6 -5.3920 -21.4004 -5.7076 -1.9002 4.5804 34.8454
#
#
#
# Elastic Compliance Matrix: (Units=1/GPa)
#
#
# Indices 1 2 3 4 5 6 
#
# 1 0.007167 -0.002977 -0.003166 0.000138 -0.001467 -0.001037
# 2 -0.002977 0.012181 0.001720 0.002359 0.000281 0.007394
# 3 -0.003166 0.001720 0.014571 0.000656 -0.004296 0.003554
# 4 0.000138 0.002359 0.000656 0.024706 -0.003511 0.003387
# 5 -0.001467 0.000281 -0.004296 -0.003511 0.043265 -0.006637
# 6 -0.001037 0.007394 0.003554 0.003387 -0.006637 0.034718
#
#
# Mechanical properties :
#
#
# Convention : Reuss Voigt Hill
#
# Bulk Modulus (GPa) = 39.88267 57.63844 48.76055
# Shear Modulus (GPa) = 32.50746 39.18627 35.84686
#
# Velocity S-wave (km/s) = 3.66105 4.01958 3.84449
# Velocity P-wave (km/s) = 5.85791 6.73110 6.30963
#
# Compressibility (1/GPa) = 0.02507355
#
# Stress axis : x y z
#
# Youngs Moduli (GPa) = 139.53746 82.09192 68.63018
#
# Poissons Ratio (x) = 0.24438 0.21725
# Poissons Ratio (y) = 0.41538 -0.11803
# Poissons Ratio (z) = 0.44171 -0.14118
#
# Static dielectric constant tensor:
#      x y z
#    x 1.906510 0.020120 -0.007670 
#    y 0.020120 1.847460 -0.017260 
#    z -0.007670 -0.017260 2.019730 
# 
# From -- ./inp_files/111362.got.cif
#   From: 2010.05.17/outbox.cif.g08.bks.cpg/sg2_56_cif.got.tgz:111362.got - 2010.06.03 11:33:40.
