data_PCOD9048527
_publ_section_title
;
Structure prediction by ZEFSAII (Michael W. Deem and Ramdas Pophale) SiO2 
 PCOD9048527
Probable space group: P -1
;
_chemical_formula_sum "Si O2"
_cell_formula_units_Z 14
_cell_length_a 6.541519
_cell_length_b 11.289338
_cell_length_c 13.740384
_cell_angle_alpha 102.614753
_cell_angle_beta 101.498389
_cell_angle_gamma 34.338418
_cell_volume 558.232645
_symmetry_space_group_name_H-M "P -1"
_symmetry_group_IT_number 2
_symmetry_cell_setting 'triclinic'
loop_
_space_group_symop_operation_xyz
x,y,z
-x,-y,-z
loop_
_atom_site_type_symbol
_atom_site_label
_atom_site_fract_x
_atom_site_fract_y
_atom_site_fract_z
Si Si1 0.307869 0.532518 0.894861
Si Si2 0.442302 0.391196 0.437054
Si Si3 0.842163 0.810613 0.729814
Si Si4 0.539751 0.708746 0.778038
Si Si5 0.572833 0.823060 0.977294
Si Si6 0.362864 0.257813 0.807307
Si Si7 0.699835 0.780398 0.508990
O O1 0.490810 0.335468 0.816899
O O2 0.151979 0.687042 0.818812
O O3 0.976982 0.625568 0.937340
O O4 0.500000 0.500000 0.000000
O O5 0.500000 0.500000 0.500000
O O6 0.623422 0.282709 0.329154
O O7 0.526682 0.232974 0.484797
O O8 0.000811 0.596856 0.426790
O O9 0.620930 0.805053 0.758909
O O10 0.917672 0.715274 0.615996
O O11 0.586415 0.048558 0.736611
O O12 0.362970 0.833230 0.886211
O O13 0.927239 0.456489 0.787449
O O14 0.545230 0.803284 0.081870
O O15 0.500000 0.000000 0.000000
O O16 0.500000 0.000000 0.500000
#
# Coordination Sequence:
#
# PCOD9048527 Si02
#       7
#     2   2   2   2   2   2   2
#     4  10  21  34  51  80 118 147 184 234 287 342
#     4  10  22  41  61  90 123 154 200 253 301 357
#     4   9  18  35  57  82 109 149 193 233 288 351
#     4   9  18  32  57  82 110 147 190 238 288 345
#     4  10  17  35  57  81 107 148 194 227 280 349
#     4  10  17  34  59  77 109 151 190 228 285 347
#     4  10  21  40  67  86 118 160 202 249 305 350
#
# _framework density 25.079148
#
# number of rings (size 3 to 8) (size 9 to 14) (size 15 to 20)
#    0.000    2.571    2.857    2.571    0.000    2.286 
#    5.143    0.000    0.000    0.000    0.000    0.000 
#    0.000    0.000    0.000    0.000    0.000    0.000 
#
# Total GULP energy -78010.254175 kJ/mol
# GULP energy per Si atom -5572.161012 kJ/mol
# Density = 2.502207 g / cm^3
# Si number density = 25.079148 Si / 1000 Ang^3
#
#
#
# Elastic Constant Matrix: (Units=GPa)
#
#
# Indices 1 2 3 4 5 6 
#
# 1 56.1446 20.2233 21.8439 1.6352 18.8624 24.2505
# 2 20.2233 150.7412 7.4091 18.1877 12.9753 35.5647
# 3 21.8439 7.4091 127.3348 19.3474 11.1772 13.7913
# 4 1.6352 18.1877 19.3474 41.6252 6.6689 4.7020
# 5 18.8624 12.9753 11.1772 6.6689 44.1351 15.7312
# 6 24.2505 35.5647 13.7913 4.7020 15.7312 38.8319
#
#
#
# Elastic Compliance Matrix: (Units=1/GPa)
#
#
# Indices 1 2 3 4 5 6 
#
# 1 0.026860 -0.000104 -0.003040 0.002933 -0.006353 -0.013380
# 2 -0.000104 0.008914 0.000861 -0.003466 0.000673 -0.008258
# 3 -0.003040 0.000861 0.009160 -0.004326 -0.000050 -0.001599
# 4 0.002933 -0.003466 -0.004326 0.027915 -0.003715 0.001004
# 5 -0.006353 0.000673 -0.000050 -0.003715 0.028504 -0.007729
# 6 -0.013380 -0.008258 -0.001599 0.001004 -0.007729 0.045248
#
#
# Mechanical properties :
#
#
# Convention : Reuss Voigt Hill
#
# Bulk Modulus (GPa) = 24.77311 48.13036 36.45174
# Shear Modulus (GPa) = 30.37237 43.90138 37.13688
#
# Velocity S-wave (km/s) = 3.48381 4.18845 3.85227
# Velocity P-wave (km/s) = 5.10705 6.52870 5.86114
#
# Compressibility (1/GPa) = 0.04036634
#
# Stress axis : x y z
#
# Youngs Moduli (GPa) = 37.23036 112.18188 109.17518
#
# Poissons Ratio (x) = 0.01170 0.33194
# Poissons Ratio (y) = 0.00388 -0.09402
# Poissons Ratio (z) = 0.11320 -0.09661
#
# Static dielectric constant tensor:
#      x y z
#    x 2.319140 0.126100 0.129120 
#    y 0.126100 2.151550 0.046710 
#    z 0.129120 0.046710 2.120320 
# 
# From -- ./inp_files/496752.got.cif
#   From: 2010.05.17/outbox.cif.g08.bks.cpg/sg2_249_cif.got.tgz:496752.got - 2010.06.03 11:33:40.
