data_PCOD9048448
_publ_section_title
;
Structure prediction by ZEFSAII (Michael W. Deem and Ramdas Pophale) SiO2 
 PCOD9048448
Probable space group: P -1
;
_chemical_formula_sum "Si O2"
_cell_formula_units_Z 14
_cell_length_a 8.623492
_cell_length_b 24.903523
_cell_length_c 9.388814
_cell_angle_alpha 29.652604
_cell_angle_beta 46.466076
_cell_angle_gamma 37.233461
_cell_volume 603.544695
_symmetry_space_group_name_H-M "P -1"
_symmetry_group_IT_number 2
_symmetry_cell_setting 'triclinic'
loop_
_space_group_symop_operation_xyz
x,y,z
-x,-y,-z
loop_
_atom_site_type_symbol
_atom_site_label
_atom_site_fract_x
_atom_site_fract_y
_atom_site_fract_z
Si Si1 0.716257 0.924288 0.658056
Si Si2 0.278838 0.536119 0.395342
Si Si3 0.582884 0.864823 0.428048
Si Si4 0.713158 0.583216 0.050137
Si Si5 0.255242 0.237451 0.739667
Si Si6 0.548423 0.601020 0.663146
Si Si7 0.025183 0.863776 0.332536
O O1 0.964099 0.864696 0.538872
O O2 0.500000 0.000000 0.500000
O O3 0.669197 0.022447 0.589586
O O4 0.680411 0.824326 0.000885
O O5 0.534786 0.535744 0.216675
O O6 0.294466 0.438958 0.726533
O O7 0.242444 0.488398 0.379877
O O8 0.051822 0.677649 0.265566
O O9 0.618713 0.861983 0.241256
O O10 0.817473 0.861298 0.368534
O O11 0.604325 0.731748 0.750083
O O12 0.000000 0.500000 0.000000
O O13 0.343193 0.337160 0.444347
O O14 0.298259 0.727391 0.458101
O O15 0.500000 0.500000 0.000000
O O16 0.000000 0.000000 0.000000
#
# Coordination Sequence:
#
# PCOD9048448 Si02
#       7
#     2   2   2   2   2   2   2
#     4  10  24  45  68  98 137 190 237 294 359 427
#     4  11  26  41  72 105 147 190 235 293 367 426
#     4  11  24  43  76  97 145 184 241 300 359 424
#     4  11  23  45  70 108 144 186 239 295 361 434
#     4  12  25  46  70 110 144 182 248 296 365 432
#     4  12  26  43  70 104 150 194 241 302 364 434
#     4  11  26  46  71 103 139 193 249 295 366 435
#
# _framework density 23.196292
#
# number of rings (size 3 to 8) (size 9 to 14) (size 15 to 20)
#    0.000    0.857    1.429    5.143   10.000    0.000 
#    0.000    2.143    0.000    0.000    0.000    0.000 
#    0.000    0.000    0.000    0.000    0.000    0.000 
#
# Total GULP energy -78201.204749 kJ/mol
# GULP energy per Si atom -5585.800339 kJ/mol
# Density = 2.314350 g / cm^3
# Si number density = 23.196292 Si / 1000 Ang^3
#
#
#
# Elastic Constant Matrix: (Units=GPa)
#
#
# Indices 1 2 3 4 5 6 
#
# 1 63.0576 27.8570 26.6311 29.6385 -9.3184 14.7223
# 2 27.8570 105.6573 39.0614 19.5815 -24.8792 28.6239
# 3 26.6311 39.0614 165.9375 19.2328 -8.3817 11.0217
# 4 29.6385 19.5815 19.2328 35.4657 2.9175 5.0580
# 5 -9.3184 -24.8792 -8.3817 2.9175 30.0821 4.2497
# 6 14.7223 28.6239 11.0217 5.0580 4.2497 46.3907
#
#
#
# Elastic Compliance Matrix: (Units=1/GPa)
#
#
# Indices 1 2 3 4 5 6 
#
# 1 0.034040 0.004704 -0.001348 -0.030164 0.018652 -0.011805
# 2 0.004704 0.020175 -0.001930 -0.013761 0.020903 -0.013897
# 3 -0.001348 -0.001930 0.006869 -0.001557 0.000029 0.000154
# 4 -0.030164 -0.013761 -0.001557 0.062206 -0.029216 0.014327
# 5 0.018652 0.020903 0.000029 -0.029216 0.062163 -0.021333
# 6 -0.011805 -0.013897 0.000154 0.014327 -0.021333 0.034233
#
#
# Mechanical properties :
#
#
# Convention : Reuss Voigt Hill
#
# Bulk Modulus (GPa) = 15.64071 57.97236 36.80653
# Shear Modulus (GPa) = 20.99545 38.46123 29.72834
#
# Velocity S-wave (km/s) = 3.01179 4.07637 3.58383
# Velocity P-wave (km/s) = 4.34188 6.87037 5.74691
#
# Compressibility (1/GPa) = 0.06393572
#
# Stress axis : x y z
#
# Youngs Moduli (GPa) = 29.37714 49.56561 145.58602
#
# Poissons Ratio (x) = -0.23316 0.19625
# Poissons Ratio (y) = -0.13819 0.28102
# Poissons Ratio (z) = 0.03960 0.09568
#
# Static dielectric constant tensor:
#      x y z
#    x 1.907480 -0.011050 0.053570 
#    y -0.011050 1.955840 0.070020 
#    z 0.053570 0.070020 2.018380 
# 
# From -- ./inp_files/187121.got.cif
#   From: 2010.05.17/outbox.cif.g08.bks.cpg/sg2_94_cif.got.tgz:187121.got - 2010.06.03 11:33:40.
