data_PCOD9048835
_publ_section_title
;
Structure prediction by ZEFSAII (Michael W. Deem and Ramdas Pophale) SiO2 
 PCOD9048835
Probable space group: P -1
;
_chemical_formula_sum "Si O2"
_cell_formula_units_Z 12
_cell_length_a 11.630140
_cell_length_b 10.436271
_cell_length_c 7.631432
_cell_angle_alpha 138.073627
_cell_angle_beta 111.432947
_cell_angle_gamma 48.163065
_cell_volume 444.902283
_symmetry_space_group_name_H-M "P -1"
_symmetry_group_IT_number 2
_symmetry_cell_setting 'triclinic'
loop_
_space_group_symop_operation_xyz
x,y,z
-x,-y,-z
loop_
_atom_site_type_symbol
_atom_site_label
_atom_site_fract_x
_atom_site_fract_y
_atom_site_fract_z
Si Si1 0.879318 0.911723 0.246085
Si Si2 0.313404 0.216248 0.155502
Si Si3 0.455612 0.567419 0.334142
Si Si4 0.843375 0.718348 0.532493
Si Si5 0.597921 0.703828 0.251883
Si Si6 0.064231 0.780491 0.549949
O O1 0.722201 0.170977 0.498118
O O2 0.920490 0.007442 0.201164
O O3 0.026264 0.777760 0.322456
O O4 0.809806 0.773024 0.028350
O O5 0.287148 0.135173 0.241608
O O6 0.558959 0.614741 0.969839
O O7 0.500000 0.000000 0.000000
O O8 0.500000 0.500000 0.500000
O O9 0.555040 0.616476 0.311561
O O10 0.773815 0.490966 0.585259
O O11 0.778137 0.610968 0.266322
O O12 0.902599 0.852602 0.614215
O O13 0.000000 0.500000 0.500000
O O14 0.500000 0.000000 0.500000
#
# Coordination Sequence:
#
# PCOD9048835 Si02
#       6
#     2   2   2   2   2   2
#     4  11  25  44  74 105 151 205 253 329 396 478
#     4  11  25  44  75 111 147 200 265 322 394 479
#     4  11  28  47  78 120 160 208 279 345 407 489
#     4  10  24  45  73 107 152 201 252 323 396 480
#     4  11  26  51  78 113 162 215 272 337 415 492
#     4  10  25  48  68 107 154 204 259 318 402 486
#
# _framework density 26.972213
#
# number of rings (size 3 to 8) (size 9 to 14) (size 15 to 20)
#    0.000    1.333    0.000    2.500    9.333    9.333 
#    0.000    0.000    0.000    3.000    0.000    0.000 
#    0.000    0.000    0.000    0.000    0.000    0.000 
#
# Total GULP energy -67103.979854 kJ/mol
# GULP energy per Si atom -5591.998321 kJ/mol
# Density = 2.691082 g / cm^3
# Si number density = 26.972213 Si / 1000 Ang^3
#
#
#
# Elastic Constant Matrix: (Units=GPa)
#
#
# Indices 1 2 3 4 5 6 
#
# 1 197.4554 36.9554 43.9695 -9.2527 -4.3692 -9.5047
# 2 36.9554 143.8376 51.6311 -21.5652 11.5238 -2.2980
# 3 43.9695 51.6311 128.3121 -19.7449 5.9526 7.3282
# 4 -9.2527 -21.5652 -19.7449 42.0064 -4.8791 7.3966
# 5 -4.3692 11.5238 5.9526 -4.8791 54.8283 -4.8351
# 6 -9.5047 -2.2980 7.3282 7.3966 -4.8351 39.9813
#
#
#
# Elastic Compliance Matrix: (Units=1/GPa)
#
#
# Indices 1 2 3 4 5 6 
#
# 1 0.005730 -0.000920 -0.001780 -0.000250 0.000980 0.001800
# 2 -0.000920 0.008686 -0.002688 0.002821 -0.001348 0.000088
# 3 -0.001780 -0.002688 0.010240 0.003526 -0.000656 -0.003186
# 4 -0.000250 0.002821 0.003526 0.027957 0.000999 -0.005595
# 5 0.000980 -0.001348 -0.000656 0.000999 0.018971 0.002385
# 6 0.001800 0.000088 -0.003186 -0.005595 0.002385 0.027352
#
#
# Mechanical properties :
#
#
# Convention : Reuss Voigt Hill
#
# Bulk Modulus (GPa) = 72.05182 81.63522 76.84352
# Shear Modulus (GPa) = 43.72950 49.83314 46.78132
#
# Velocity S-wave (km/s) = 4.03088 4.30300 4.16916
# Velocity P-wave (km/s) = 6.95955 7.41754 7.19219
#
# Compressibility (1/GPa) = 0.01387890
#
# Stress axis : x y z
#
# Youngs Moduli (GPa) = 174.53090 115.12721 97.65569
#
# Poissons Ratio (x) = 0.10597 0.17381
# Poissons Ratio (y) = 0.16065 0.26251
# Poissons Ratio (z) = 0.31063 0.30948
#
# Static dielectric constant tensor:
#      x y z
#    x 1.390850 0.121430 -0.123380 
#    y 0.121430 2.085300 -0.025450 
#    z -0.123380 -0.025450 2.255200 
# 
# From -- ./inp_files/194848.got.cif
#   From: 2010.05.17/outbox.cif.g08.bks.cpg/sg2_98_cif.got.tgz:194848.got - 2010.06.03 11:33:40.
