data_PCOD9048929
_publ_section_title
;
Structure prediction by ZEFSAII (Michael W. Deem and Ramdas Pophale) SiO2 
 PCOD9048929
Probable space group: P -1
;
_chemical_formula_sum "Si O2"
_cell_formula_units_Z 11
_cell_length_a 7.222492
_cell_length_b 8.780325
_cell_length_c 7.598580
_cell_angle_alpha 94.265349
_cell_angle_beta 105.176716
_cell_angle_gamma 68.259851
_cell_volume 431.848325
_symmetry_space_group_name_H-M "P -1"
_symmetry_group_IT_number 2
_symmetry_cell_setting 'triclinic'
loop_
_space_group_symop_operation_xyz
x,y,z
-x,-y,-z
loop_
_atom_site_type_symbol
_atom_site_label
_atom_site_fract_x
_atom_site_fract_y
_atom_site_fract_z
Si Si1 0.247613 0.252096 0.978863
Si Si2 0.257800 0.846569 0.354841
Si Si3 0.030736 0.177248 0.417205
Si Si4 0.725144 0.122409 0.048851
Si Si5 0.926168 0.527674 0.707717
Si Si6 0.500000 0.500000 0.500000
O O1 0.487375 0.229134 0.038682
O O2 0.247100 0.068691 0.948131
O O3 0.127524 0.376707 0.806826
O O4 0.135384 0.341993 0.133361
O O5 0.063945 0.847038 0.423370
O O6 0.231850 0.841611 0.138595
O O7 0.452590 0.695361 0.455399
O O8 0.245342 0.030516 0.416660
O O9 0.035347 0.356873 0.421698
O O10 0.868625 0.166901 0.227213
O O11 0.727004 0.479467 0.631370
#
# Coordination Sequence:
#
# PCOD9048929 Si02
#       6
#     2   2   2   2   2   1
#     4  10  24  45  76 107 144 191 253 292 372 433
#     4  11  26  46  69 111 146 193 240 299 361 443
#     4  11  25  47  76 105 152 188 245 301 369 431
#     4  11  23  48  77 106 145 196 239 308 359 441
#     4  11  25  47  72 109 145 196 241 307 364 440
#     4  12  28  46  68 106 154 182 250 302 364 424
#
# _framework density 25.471907000000002
#
# number of rings (size 3 to 8) (size 9 to 14) (size 15 to 20)
#    0.000    1.091    1.818    2.727    7.636    2.182 
#   13.091    0.000    0.000    0.000    0.000    0.000 
#    0.000    0.000    0.000    0.000    0.000    0.000 
#
# Total GULP energy -61411.976208 kJ/mol
# GULP energy per Si atom -5582.906928 kJ/mol
# Density = 2.541393 g / cm^3
# Si number density = 25.471907 Si / 1000 Ang^3
#
#
#
# Elastic Constant Matrix: (Units=GPa)
#
#
# Indices 1 2 3 4 5 6 
#
# 1 89.8085 43.0702 41.0934 -14.4364 15.7719 -7.6360
# 2 43.0702 183.6356 43.2664 -35.4748 30.8512 -11.8737
# 3 41.0934 43.2664 109.5745 -29.8283 -13.2381 -14.0530
# 4 -14.4364 -35.4748 -29.8283 43.2046 -1.6337 14.3835
# 5 15.7719 30.8512 -13.2381 -1.6337 49.6557 -10.0520
# 6 -7.6360 -11.8737 -14.0530 14.3835 -10.0520 44.4678
#
#
#
# Elastic Compliance Matrix: (Units=1/GPa)
#
#
# Indices 1 2 3 4 5 6 
#
# 1 0.015533 -0.001238 -0.006188 -0.000001 -0.006012 -0.000978
# 2 -0.001238 0.008003 -0.002187 0.004971 -0.005318 -0.001577
# 3 -0.006188 -0.002187 0.015340 0.005999 0.008244 0.003124
# 4 -0.000001 0.004971 0.005999 0.034038 -0.002039 -0.008248
# 5 -0.006012 -0.005318 0.008244 -0.002039 0.028973 0.007362
# 6 -0.000978 -0.001577 0.003124 -0.008248 0.007362 0.027219
#
#
# Mechanical properties :
#
#
# Convention : Reuss Voigt Hill
#
# Bulk Modulus (GPa) = 50.89359 70.87540 60.88449
# Shear Modulus (GPa) = 32.28262 44.50486 38.39374
#
# Velocity S-wave (km/s) = 3.56389 4.18450 3.88660
# Velocity P-wave (km/s) = 6.07937 7.15766 6.64044
#
# Compressibility (1/GPa) = 0.01964884
#
# Stress axis : x y z
#
# Youngs Moduli (GPa) = 64.38021 124.95105 65.18831
#
# Poissons Ratio (x) = 0.15475 0.40339
# Poissons Ratio (y) = 0.07973 0.14257
# Poissons Ratio (z) = 0.39839 0.27327
#
# Static dielectric constant tensor:
#      x y z
#    x 1.991930 0.022600 -0.089860 
#    y 0.022600 2.097400 0.033370 
#    z -0.089860 0.033370 2.010670 
# 
# From -- ./inp_files/129334.got.cif
#   From: 2010.05.17/outbox.cif.g08.bks.cpg/sg2_65_cif.got.tgz:129334.got - 2010.06.03 11:33:40.
