data_PCOD9048169
_publ_section_title
;
Structure prediction by ZEFSAII (Michael W. Deem and Ramdas Pophale) SiO2 
 PCOD9048169
Probable space group: P -1
;
_chemical_formula_sum "Si O2"
_cell_formula_units_Z 10
_cell_length_a 5.188665
_cell_length_b 13.278806
_cell_length_c 8.842427
_cell_angle_alpha 56.117713
_cell_angle_beta 55.369647
_cell_angle_gamma 84.881978
_cell_volume 392.393138
_symmetry_space_group_name_H-M "P -1"
_symmetry_group_IT_number 2
_symmetry_cell_setting 'triclinic'
loop_
_space_group_symop_operation_xyz
x,y,z
-x,-y,-z
loop_
_atom_site_type_symbol
_atom_site_label
_atom_site_fract_x
_atom_site_fract_y
_atom_site_fract_z
Si Si1 0.616095 0.384839 0.113650
Si Si2 0.137014 0.222686 0.636759
Si Si3 0.772068 0.624733 0.235730
Si Si4 0.272402 0.179012 0.151937
Si Si5 0.651990 0.092123 0.637839
O O1 0.456984 0.334713 0.368342
O O2 0.454158 0.261254 0.164800
O O3 0.500000 0.500000 0.000000
O O4 0.001322 0.419269 0.921501
O O5 0.037635 0.289718 0.757656
O O6 0.302566 0.114762 0.714316
O O7 0.861391 0.174915 0.638674
O O8 0.500000 0.500000 0.500000
O O9 0.660800 0.726055 0.091142
O O10 0.376273 0.054121 0.198144
O O11 0.882598 0.131395 0.376309
#
# Coordination Sequence:
#
# PCOD9048169 Si02
#       5
#     2   2   2   2   2
#     4  11  26  47  73 101 148 196 241 299 358 429
#     4  11  26  46  76 107 147 184 245 293 376 417
#     4  12  28  44  73 107 145 190 249 296 358 433
#     4  10  24  44  75 103 144 187 246 288 369 428
#     4  10  24  47  76 108 142 192 231 307 358 440
#
# _framework density 25.484643999999999
#
# number of rings (size 3 to 8) (size 9 to 14) (size 15 to 20)
#    0.000    1.200    2.000    1.200   11.200    7.200 
#    0.000    0.000    0.000    0.000    0.000    0.000 
#    0.000    0.000    0.000    0.000    0.000    0.000 
#
# Total GULP energy -56057.391959 kJ/mol
# GULP energy per Si atom -5605.739196 kJ/mol
# Density = 2.542664 g / cm^3
# Si number density = 25.484644 Si / 1000 Ang^3
#
#
#
# Elastic Constant Matrix: (Units=GPa)
#
#
# Indices 1 2 3 4 5 6 
#
# 1 57.6569 16.9948 38.6095 -5.8366 18.2405 -18.0109
# 2 16.9948 112.2581 37.7473 3.7298 8.4662 -15.3326
# 3 38.6095 37.7473 145.6051 -9.1816 9.1760 -15.8077
# 4 -5.8366 3.7298 -9.1816 49.3873 -1.3901 1.1710
# 5 18.2405 8.4662 9.1760 -1.3901 35.6546 1.4559
# 6 -18.0109 -15.3326 -15.8077 1.1710 1.4559 56.7292
#
#
#
# Elastic Compliance Matrix: (Units=1/GPa)
#
#
# Indices 1 2 3 4 5 6 
#
# 1 0.027754 -0.000411 -0.005519 0.001745 -0.012917 0.007458
# 2 -0.000411 0.010197 -0.002284 -0.001342 -0.001760 0.002062
# 3 -0.005519 -0.002284 0.008937 0.001211 0.001110 0.000067
# 4 0.001745 -0.001342 0.001211 0.020776 -0.000080 0.000102
# 5 -0.012917 -0.001760 0.001110 -0.000080 0.034995 -0.005164
# 6 0.007458 0.002062 0.000067 0.000102 -0.005164 0.020702
#
#
# Mechanical properties :
#
#
# Convention : Reuss Voigt Hill
#
# Bulk Modulus (GPa) = 32.83068 55.80258 44.31663
# Shear Modulus (GPa) = 33.34588 43.16544 38.25566
#
# Velocity S-wave (km/s) = 3.62120 4.12002 3.87864
# Velocity P-wave (km/s) = 5.51313 6.67659 6.12256
#
# Compressibility (1/GPa) = 0.03045932
#
# Stress axis : x y z
#
# Youngs Moduli (GPa) = 36.03118 98.06472 111.89046
#
# Poissons Ratio (x) = 0.04030 0.61753
# Poissons Ratio (y) = 0.01481 0.25561
# Poissons Ratio (z) = 0.19886 0.22403
#
# Static dielectric constant tensor:
#      x y z
#    x 2.040220 -0.002630 -0.057550 
#    y -0.002630 1.984820 0.030650 
#    z -0.057550 0.030650 2.081750 
# 
# From -- ./inp_files/36436.got.cif
#   From: 2010.05.17/outbox.cif.g08.bks.cpg/sg2_19_cif.got.tgz:36436.got - 2010.06.03 11:33:40.
