data_PCOD9048145
_publ_section_title
;
Structure prediction by ZEFSAII (Michael W. Deem and Ramdas Pophale) SiO2 
 PCOD9048145
Probable space group: P -1
;
_chemical_formula_sum "Si O2"
_cell_formula_units_Z 14
_cell_length_a 14.613268
_cell_length_b 10.059259
_cell_length_c 11.485955
_cell_angle_alpha 55.074529
_cell_angle_beta 150.203969
_cell_angle_gamma 135.506002
_cell_volume 582.731784
_symmetry_space_group_name_H-M "P -1"
_symmetry_group_IT_number 2
_symmetry_cell_setting 'triclinic'
loop_
_space_group_symop_operation_xyz
x,y,z
-x,-y,-z
loop_
_atom_site_type_symbol
_atom_site_label
_atom_site_fract_x
_atom_site_fract_y
_atom_site_fract_z
Si Si1 0.153827 0.913468 0.709880
Si Si2 0.589658 0.195856 0.428570
Si Si3 0.244822 0.925648 0.541753
Si Si4 0.482487 0.631084 0.320868
Si Si5 0.010382 0.527491 0.859794
Si Si6 0.450343 0.309895 0.889289
Si Si7 0.242620 0.293493 0.909510
O O1 0.184531 0.856890 0.643416
O O2 0.060908 0.736367 0.780457
O O3 0.386868 0.091910 0.919553
O O4 0.000000 0.000000 0.500000
O O5 0.663960 0.165373 0.399492
O O6 0.404630 0.244902 0.178156
O O7 0.796180 0.364775 0.640215
O O8 0.500000 0.000000 0.500000
O O9 0.407591 0.154640 0.614531
O O10 0.005746 0.862658 0.260936
O O11 0.500000 0.500000 0.500000
O O12 0.594513 0.648887 0.311820
O O13 0.230168 0.538923 0.059618
O O14 0.000000 0.500000 0.000000
O O15 0.686724 0.490638 0.089156
O O16 0.300922 0.306153 0.830470
#
# Coordination Sequence:
#
# PCOD9048145 Si02
#       7
#     2   2   2   2   2   2   2
#     4  11  24  46  79 109 147 201 251 311 370 451
#     4  12  30  48  73 113 153 194 251 319 380 456
#     4  11  27  47  79 111 145 204 250 309 386 445
#     4  11  28  46  76 107 152 201 253 309 375 450
#     4  12  30  49  76 111 152 199 256 313 381 458
#     4  10  24  44  74 109 140 200 250 302 376 444
#     4  11  25  47  77 106 153 191 250 315 375 451
#
# _framework density 24.024775000000002
#
# number of rings (size 3 to 8) (size 9 to 14) (size 15 to 20)
#    0.000    0.857    1.429    2.571   18.000    2.286 
#    0.000    0.000    0.000    0.000    0.000    0.000 
#    0.000    0.000    0.000    0.000    0.000    0.000 
#
# Total GULP energy -78400.754393 kJ/mol
# GULP energy per Si atom -5600.053885 kJ/mol
# Density = 2.397009 g / cm^3
# Si number density = 24.024775 Si / 1000 Ang^3
#
#
#
# Elastic Constant Matrix: (Units=GPa)
#
#
# Indices 1 2 3 4 5 6 
#
# 1 113.2903 48.1553 48.0769 -6.5896 -22.0197 6.6814
# 2 48.1553 161.9795 64.4481 10.1826 -29.2522 17.9093
# 3 48.0769 64.4481 149.7732 14.1659 7.4799 4.4657
# 4 -6.5896 10.1826 14.1659 53.5445 0.7394 -12.2849
# 5 -22.0197 -29.2522 7.4799 0.7394 50.0106 0.6797
# 6 6.6814 17.9093 4.4657 -12.2849 0.6797 44.4689
#
#
#
# Elastic Compliance Matrix: (Units=1/GPa)
#
#
# Indices 1 2 3 4 5 6 
#
# 1 0.012181 -0.001295 -0.003850 0.002630 0.005147 -0.000274
# 2 -0.001295 0.009622 -0.003703 -0.001994 0.005695 -0.003947
# 3 -0.003850 -0.003703 0.009965 -0.002208 -0.005326 0.000540
# 4 0.002630 -0.001994 -0.002208 0.021470 -0.000084 0.006562
# 5 0.005147 0.005695 -0.005326 -0.000084 0.026431 -0.002959
# 6 -0.000274 -0.003947 0.000540 0.006562 -0.002959 0.025922
#
#
# Mechanical properties :
#
#
# Convention : Reuss Voigt Hill
#
# Bulk Modulus (GPa) = 71.06688 82.93373 77.00030
# Shear Modulus (GPa) = 39.06940 47.22898 43.14919
#
# Velocity S-wave (km/s) = 4.03701 4.43859 4.24256
# Velocity P-wave (km/s) = 7.16762 7.80149 7.49126
#
# Compressibility (1/GPa) = 0.01407125
#
# Stress axis : x y z
#
# Youngs Moduli (GPa) = 82.09687 103.92818 100.35212
#
# Poissons Ratio (x) = 0.13457 0.38640
# Poissons Ratio (y) = 0.10630 0.37160
# Poissons Ratio (z) = 0.31611 0.38484
#
# Static dielectric constant tensor:
#      x y z
#    x 1.920910 -0.010260 0.034610 
#    y -0.010260 1.899820 0.003380 
#    z 0.034610 0.003380 2.015780 
# 
# From -- ./inp_files/447008.got.cif
#   From: 2010.05.17/outbox.cif.g08.bks.cpg/sg2_224_cif.got.tgz:447008.got - 2010.06.03 11:33:40.
