data_PCOD9048484
_publ_section_title
;
Structure prediction by ZEFSAII (Michael W. Deem and Ramdas Pophale) SiO2 
 PCOD9048484
Probable space group: P -1
;
_chemical_formula_sum "Si O2"
_cell_formula_units_Z 14
_cell_length_a 13.914572
_cell_length_b 7.104473
_cell_length_c 15.645117
_cell_angle_alpha 140.746892
_cell_angle_beta 34.170229
_cell_angle_gamma 129.617809
_cell_volume 549.621475
_symmetry_space_group_name_H-M "P -1"
_symmetry_group_IT_number 2
_symmetry_cell_setting 'triclinic'
loop_
_space_group_symop_operation_xyz
x,y,z
-x,-y,-z
loop_
_atom_site_type_symbol
_atom_site_label
_atom_site_fract_x
_atom_site_fract_y
_atom_site_fract_z
Si Si1 0.234051 0.964991 0.595885
Si Si2 0.415277 0.417854 0.191871
Si Si3 0.654370 0.093534 0.796386
Si Si4 0.859670 0.958678 0.823542
Si Si5 0.893581 0.797366 0.394921
Si Si6 0.606507 0.224058 0.228385
Si Si7 0.678598 0.260001 0.380503
O O1 0.366520 0.726046 0.377459
O O2 0.294333 0.998384 0.660469
O O3 0.037257 0.853781 0.697857
O O4 0.214555 0.200064 0.615476
O O5 0.264153 0.311932 0.202040
O O6 0.395034 0.178714 0.199486
O O7 0.592995 0.373049 0.995463
O O8 0.828094 0.038249 0.597147
O O9 0.519565 0.038878 0.799868
O O10 0.920709 0.116385 0.745675
O O11 0.763167 0.197039 0.037536
O O12 0.838980 0.479337 0.357308
O O13 0.673343 0.165052 0.253265
O O14 0.490707 0.525231 0.411054
#
# Coordination Sequence:
#
# PCOD9048484 Si02
#       7
#     2   2   2   2   2   2   2
#     4  10  20  35  56  81 108 142 174 218 270 316
#     4  10  17  34  59  75 108 147 171 219 264 317
#     4   9  18  34  57  80 103 142 185 210 263 319
#     4   9  21  33  54  85 110 133 181 221 265 316
#     4   9  20  35  52  85 109 133 181 220 262 319
#     4   9  18  36  59  78 103 147 178 217 266 314
#     4  10  19  38  62  71 108 148 176 217 267 311
#
# _framework density 25.472076999999999
#
# number of rings (size 3 to 8) (size 9 to 14) (size 15 to 20)
#    0.857    1.714    2.857    0.429    0.000    2.286 
#    0.000    6.429    9.429    0.000    0.000    0.000 
#    0.000    0.000    0.000    0.000    0.000    0.000 
#
# Total GULP energy -78115.785198 kJ/mol
# GULP energy per Si atom -5579.698943 kJ/mol
# Density = 2.541410 g / cm^3
# Si number density = 25.472077 Si / 1000 Ang^3
#
#
#
# Elastic Constant Matrix: (Units=GPa)
#
#
# Indices 1 2 3 4 5 6 
#
# 1 108.7964 7.6730 26.9568 -16.7607 5.0474 -22.6818
# 2 7.6730 57.5316 11.5916 -10.0574 -1.8774 -17.6266
# 3 26.9568 11.5916 159.0795 -51.8180 21.0715 -0.8873
# 4 -16.7607 -10.0574 -51.8180 29.8769 -3.0514 -3.0119
# 5 5.0474 -1.8774 21.0715 -3.0514 27.6091 -10.4978
# 6 -22.6818 -17.6266 -0.8873 -3.0119 -10.4978 38.7251
#
#
#
# Elastic Compliance Matrix: (Units=1/GPa)
#
#
# Indices 1 2 3 4 5 6 
#
# 1 0.012475 0.003333 0.001047 0.011217 0.002322 0.010349
# 2 0.003333 0.024650 0.001899 0.015910 0.007661 0.016530
# 3 0.001047 0.001899 0.016841 0.029695 -0.008972 0.001741
# 4 0.011217 0.015910 0.029695 0.098222 -0.004862 0.020813
# 5 0.002322 0.007661 -0.008972 -0.004862 0.049332 0.017637
# 6 0.010349 0.016530 0.001741 0.020813 0.017637 0.045849
#
#
# Mechanical properties :
#
#
# Convention : Reuss Voigt Hill
#
# Bulk Modulus (GPa) = 15.03222 46.42781 30.73001
# Shear Modulus (GPa) = 19.45628 37.85463 28.65545
#
# Velocity S-wave (km/s) = 2.76674 3.85921 3.35770
# Velocity P-wave (km/s) = 4.01506 6.17450 5.20794
#
# Compressibility (1/GPa) = 0.06652379
#
# Stress axis : x y z
#
# Youngs Moduli (GPa) = 80.16083 40.56719 59.37871
#
# Poissons Ratio (x) = -0.13520 -0.06218
# Poissons Ratio (y) = -0.26715 -0.11275
# Poissons Ratio (z) = -0.08394 -0.07703
#
# Static dielectric constant tensor:
#      x y z
#    x 2.063380 0.006150 -0.014550 
#    y 0.006150 2.075460 -0.032220 
#    z -0.014550 -0.032220 1.996520 
# 
# From -- ./inp_files/325106.got.cif
#   From: 2010.05.17/outbox.cif.g08.bks.cpg/sg2_163_cif.got.tgz:325106.got - 2010.06.03 11:33:40.
