data_PCOD9048186
_publ_section_title
;
Structure prediction by ZEFSAII (Michael W. Deem and Ramdas Pophale) SiO2 
 PCOD9048186
Probable space group: P -1
;
_chemical_formula_sum "Si O2"
_cell_formula_units_Z 16
_cell_length_a 7.409667
_cell_length_b 6.490453
_cell_length_c 19.728268
_cell_angle_alpha 49.072552
_cell_angle_beta 88.532555
_cell_angle_gamma 108.578251
_cell_volume 642.081422
_symmetry_space_group_name_H-M "P -1"
_symmetry_group_IT_number 2
_symmetry_cell_setting 'triclinic'
loop_
_space_group_symop_operation_xyz
x,y,z
-x,-y,-z
loop_
_atom_site_type_symbol
_atom_site_label
_atom_site_fract_x
_atom_site_fract_y
_atom_site_fract_z
Si Si1 0.614351 0.461422 0.359053
Si Si2 0.137232 0.288820 0.892686
Si Si3 0.444806 0.936505 0.796271
Si Si4 0.191801 0.130651 0.254939
Si Si5 0.516301 0.168866 0.891925
Si Si6 0.147141 0.353712 0.548768
Si Si7 0.986930 0.361552 0.742884
Si Si8 0.796390 0.715318 0.582193
O O1 0.383856 0.230394 0.396853
O O2 0.704143 0.475933 0.429022
O O3 0.776773 0.420719 0.320188
O O4 0.606229 0.784027 0.279061
O O5 0.253823 0.609146 0.861312
O O6 0.314159 0.216418 0.876239
O O7 0.991334 0.313756 0.831998
O O8 0.000000 0.000000 0.000000
O O9 0.612622 0.937962 0.741002
O O10 0.524819 0.990327 0.862161
O O11 0.300845 0.492941 0.178861
O O12 0.068672 0.958300 0.225998
O O13 0.500000 0.000000 0.000000
O O14 0.272248 0.391181 0.471211
O O15 0.000000 0.500000 0.500000
O O16 0.979561 0.027322 0.651373
O O17 0.857675 0.502523 0.674441
O O18 0.000000 0.000000 0.500000
#
# Coordination Sequence:
#
# PCOD9048186 Si02
#       8
#     2   2   2   2   2   2   2   2
#     4  11  23  46  71  99 148 195 246 303 370 449
#     4  11  28  45  72 107 145 192 243 312 375 447
#     4  11  24  47  71 103 144 194 241 300 381 441
#     4  10  24  44  75  99 149 188 239 313 362 443
#     4  11  27  46  73 108 140 193 250 306 379 449
#     4  11  22  45  66 104 141 189 246 303 367 436
#     4  11  24  49  70 106 151 190 250 310 373 441
#     4  12  27  42  72 107 146 196 252 308 371 445
#
# _framework density 24.918956999999999
#
# number of rings (size 3 to 8) (size 9 to 14) (size 15 to 20)
#    0.000    1.000    5.000    0.375    7.000    4.000 
#    2.250    0.000    0.000    0.000    0.000    0.000 
#    0.000    0.000    0.000    0.000    0.000    0.000 
#
# Total GULP energy -89457.860614 kJ/mol
# GULP energy per Si atom -5591.116288 kJ/mol
# Density = 2.486224 g / cm^3
# Si number density = 24.918957 Si / 1000 Ang^3
#
#
#
# Elastic Constant Matrix: (Units=GPa)
#
#
# Indices 1 2 3 4 5 6 
#
# 1 147.3766 11.8349 45.7026 -0.7528 1.2695 13.7264
# 2 11.8349 122.3805 68.4162 -0.0332 -9.1649 21.8665
# 3 45.7026 68.4162 179.0767 12.2390 -1.4887 16.5254
# 4 -0.7528 -0.0332 12.2390 38.2332 11.6284 -10.3646
# 5 1.2695 -9.1649 -1.4887 11.6284 42.2878 -0.3735
# 6 13.7264 21.8665 16.5254 -10.3646 -0.3735 43.8644
#
#
#
# Elastic Compliance Matrix: (Units=1/GPa)
#
#
# Indices 1 2 3 4 5 6 
#
# 1 0.007544 0.000737 -0.002064 0.000384 -0.000261 -0.001862
# 2 0.000737 0.011345 -0.004044 -0.000638 0.002430 -0.004493
# 3 -0.002064 -0.004044 0.007955 -0.002951 0.000268 -0.001030
# 4 0.000384 -0.000638 -0.002951 0.032259 -0.009046 0.008855
# 5 -0.000261 0.002430 0.000268 -0.009046 0.026651 -0.003141
# 6 -0.001862 -0.004493 -0.001030 0.008855 -0.003141 0.028074
#
#
# Mechanical properties :
#
#
# Convention : Reuss Voigt Hill
#
# Bulk Modulus (GPa) = 62.09962 77.86012 69.97987
# Shear Modulus (GPa) = 38.48026 46.40244 42.44135
#
# Velocity S-wave (km/s) = 3.93392 4.31993 4.13143
# Velocity P-wave (km/s) = 6.75344 7.49637 7.13458
#
# Compressibility (1/GPa) = 0.01610316
#
# Stress axis : x y z
#
# Youngs Moduli (GPa) = 132.56080 88.14099 125.70744
#
# Poissons Ratio (x) = -0.06499 0.25940
# Poissons Ratio (y) = -0.09774 0.50840
# Poissons Ratio (z) = 0.27355 0.35647
#
# Static dielectric constant tensor:
#      x y z
#    x 2.095380 -0.037090 -0.092310 
#    y -0.037090 2.099460 0.006560 
#    z -0.092310 0.006560 2.038000 
# 
# From -- ./inp_files/585121.got.cif
#   From: 2010.05.17/outbox.cif.g08.bks.cpg/sg2_293_cif.got.tgz:585121.got - 2010.06.03 11:33:40.
