data_PCOD9048957
_publ_section_title
;
Structure prediction by ZEFSAII (Michael W. Deem and Ramdas Pophale) SiO2 
 PCOD9048957
Probable space group: P -1
;
_chemical_formula_sum "Si O2"
_cell_formula_units_Z 16
_cell_length_a 9.861921
_cell_length_b 13.601680
_cell_length_c 28.751119
_cell_angle_alpha 20.966276
_cell_angle_beta 141.886512
_cell_angle_gamma 132.318857
_cell_volume 818.125685
_symmetry_space_group_name_H-M "P -1"
_symmetry_group_IT_number 2
_symmetry_cell_setting 'triclinic'
loop_
_space_group_symop_operation_xyz
x,y,z
-x,-y,-z
loop_
_atom_site_type_symbol
_atom_site_label
_atom_site_fract_x
_atom_site_fract_y
_atom_site_fract_z
Si Si1 0.539020 0.871545 0.982772
Si Si2 0.222483 0.246507 0.157144
Si Si3 0.566536 0.330313 0.288488
Si Si4 0.976758 0.799754 0.298582
Si Si5 0.890671 0.238446 0.542079
Si Si6 0.054784 0.176193 0.342137
Si Si7 0.462210 0.522913 0.924879
Si Si8 0.378902 0.547175 0.243545
O O1 0.279658 0.025218 0.861203
O O2 0.668840 0.113050 0.915449
O O3 0.623537 0.590933 0.161279
O O4 0.524376 0.766348 0.972491
O O5 0.398124 0.213531 0.261987
O O6 0.347521 0.348688 0.103138
O O7 0.148774 0.961390 0.252683
O O8 0.000000 0.500000 0.000000
O O9 0.438683 0.448042 0.250150
O O10 0.789297 0.078441 0.472456
O O11 0.999104 0.466246 0.444503
O O12 0.006459 0.821900 0.352504
O O13 0.618826 0.396087 0.401397
O O14 0.932837 0.956839 0.647455
O O15 0.178216 0.427405 0.261678
O O16 0.793648 0.280698 0.240447
O O17 0.500000 0.500000 0.000000
#
# Coordination Sequence:
#
# PCOD9048957 Si02
#       8
#     2   2   2   2   2   2   2   2
#     4  10  21  36  57  88 117 154 200 245 293 347
#     4  11  21  37  63  88 115 156 204 242 291 351
#     4  10  20  36  59  90 118 153 196 247 298 348
#     4  10  17  34  59  87 117 148 203 252 287 339
#     4   9  19  33  59  89 117 154 194 249 295 348
#     4  11  22  37  57  83 125 158 192 238 302 361
#     4  11  25  40  59  88 123 161 197 243 303 352
#     4  10  20  35  60  88 117 153 202 243 292 353
#
# _framework density 19.556899000000001
#
# number of rings (size 3 to 8) (size 9 to 14) (size 15 to 20)
#    0.000    1.750    2.500    4.125    1.750    2.500 
#    0.000    0.625    0.000    3.000    0.000    0.000 
#    0.000    0.000    0.000    0.000    0.000    0.000 
#
# Total GULP energy -89367.256999 kJ/mol
# GULP energy per Si atom -5585.453562 kJ/mol
# Density = 1.951239 g / cm^3
# Si number density = 19.556899 Si / 1000 Ang^3
#
#
#
# Elastic Constant Matrix: (Units=GPa)
#
#
# Indices 1 2 3 4 5 6 
#
# 1 90.9242 38.0748 43.7034 -1.4946 -9.8449 22.2318
# 2 38.0748 94.1531 35.5283 -20.3798 -13.5934 27.9482
# 3 43.7034 35.5283 61.2357 -2.7617 -9.0284 16.9875
# 4 -1.4946 -20.3798 -2.7617 32.8447 2.4554 -11.8187
# 5 -9.8449 -13.5934 -9.0284 2.4554 23.5430 2.4441
# 6 22.2318 27.9482 16.9875 -11.8187 2.4441 34.0790
#
#
#
# Elastic Compliance Matrix: (Units=1/GPa)
#
#
# Indices 1 2 3 4 5 6 
#
# 1 0.018705 -0.001990 -0.009689 -0.004209 0.004175 -0.007500
# 2 -0.001990 0.019150 -0.005396 0.007169 0.008429 -0.009835
# 3 -0.009689 -0.005396 0.028237 -0.003506 0.004533 -0.004871
# 4 -0.004209 0.007169 -0.003506 0.039246 -0.004360 0.012538
# 5 0.004175 0.008429 0.004533 -0.004360 0.053068 -0.017214
# 6 -0.007500 -0.009835 -0.004871 0.012538 -0.017214 0.050313
#
#
# Mechanical properties :
#
#
# Convention : Reuss Voigt Hill
#
# Bulk Modulus (GPa) = 31.30600 53.43624 42.37112
# Shear Modulus (GPa) = 19.72262 26.69377 23.20820
#
# Velocity S-wave (km/s) = 3.17909 3.69850 3.44859
# Velocity P-wave (km/s) = 5.43304 6.75436 6.12941
#
# Compressibility (1/GPa) = 0.03194276
#
# Stress axis : x y z
#
# Youngs Moduli (GPa) = 53.46094 52.21912 35.41439
#
# Poissons Ratio (x) = 0.10394 0.34312
# Poissons Ratio (y) = 0.10641 0.19108
# Poissons Ratio (z) = 0.51797 0.28176
#
# Static dielectric constant tensor:
#      x y z
#    x 1.673800 0.005700 -0.023560 
#    y 0.005700 1.705020 -0.006910 
#    z -0.023560 -0.006910 1.698010 
# 
# From -- ./inp_files/345487.got.cif
#   From: 2010.05.17/outbox.cif.g08.bks.cpg/sg2_173_cif.got.tgz:345487.got - 2010.06.03 11:33:40.
