data_PCOD9048589
_publ_section_title
;
Structure prediction by ZEFSAII (Michael W. Deem and Ramdas Pophale) SiO2 
 PCOD9048589
Probable space group: P -1
;
_chemical_formula_sum "Si O2"
_cell_formula_units_Z 14
_cell_length_a 8.554720
_cell_length_b 17.071947
_cell_length_c 11.258887
_cell_angle_alpha 54.916700
_cell_angle_beta 137.348161
_cell_angle_gamma 144.641678
_cell_volume 643.392834
_symmetry_space_group_name_H-M "P -1"
_symmetry_group_IT_number 2
_symmetry_cell_setting 'triclinic'
loop_
_space_group_symop_operation_xyz
x,y,z
-x,-y,-z
loop_
_atom_site_type_symbol
_atom_site_label
_atom_site_fract_x
_atom_site_fract_y
_atom_site_fract_z
Si Si1 0.814129 0.860110 0.454384
Si Si2 0.759576 0.669385 0.222706
Si Si3 0.402704 0.862196 0.036353
Si Si4 0.640397 0.850321 0.931678
Si Si5 0.793806 0.568876 0.012073
Si Si6 0.854140 0.388743 0.616922
Si Si7 0.765293 0.148965 0.458529
O O1 0.625356 0.856451 0.244215
O O2 0.535598 0.728453 0.492844
O O3 0.072474 0.861053 0.549390
O O4 0.000000 0.000000 0.500000
O O5 0.019009 0.680116 0.287314
O O6 0.936700 0.735975 0.388929
O O7 0.695252 0.754136 0.058258
O O8 0.400632 0.516504 0.141804
O O9 0.030916 0.727190 0.981007
O O10 0.466426 0.846605 0.951709
O O11 0.500000 0.000000 0.000000
O O12 0.434151 0.819285 0.728611
O O13 0.000000 0.000000 0.000000
O O14 0.009545 0.555767 0.220491
O O15 0.500000 0.500000 0.000000
O O16 0.000000 0.500000 0.500000
O O17 0.500000 0.000000 0.500000
#
# Coordination Sequence:
#
# PCOD9048589 Si02
#       7
#     2   2   2   2   2   2   2
#     4  11  23  43  68 103 140 178 242 293 336 431
#     4  11  24  46  71 101 147 180 241 290 351 427
#     4  11  24  44  71 103 141 190 241 286 354 425
#     4  12  26  43  73 104 142 190 230 294 365 406
#     4   9  23  44  68  98 141 184 235 290 350 413
#     4  10  24  45  70 102 140 191 233 287 361 418
#     4  12  24  45  67 106 142 186 237 291 357 418
#
# _framework density 21.759647999999999
#
# number of rings (size 3 to 8) (size 9 to 14) (size 15 to 20)
#    0.000    1.143    2.857    1.714    8.000    5.143 
#    0.000    1.429    0.000    0.000    0.000    0.000 
#    0.000    0.000    0.000    0.000    0.000    0.000 
#
# Total GULP energy -78186.584881 kJ/mol
# GULP energy per Si atom -5584.756063 kJ/mol
# Density = 2.171012 g / cm^3
# Si number density = 21.759648 Si / 1000 Ang^3
#
#
#
# Elastic Constant Matrix: (Units=GPa)
#
#
# Indices 1 2 3 4 5 6 
#
# 1 89.7404 47.4113 21.2322 -5.0734 12.7306 10.2412
# 2 47.4113 166.0950 56.9613 13.0131 1.0795 20.3245
# 3 21.2322 56.9613 148.4248 3.8239 -0.5265 -7.8522
# 4 -5.0734 13.0131 3.8239 42.1329 -9.9739 -1.1411
# 5 12.7306 1.0795 -0.5265 -9.9739 38.1116 1.5783
# 6 10.2412 20.3245 -7.8522 -1.1411 1.5783 39.0363
#
#
#
# Elastic Compliance Matrix: (Units=1/GPa)
#
#
# Indices 1 2 3 4 5 6 
#
# 1 0.014155 -0.003690 -0.000763 0.001905 -0.004064 -0.001726
# 2 -0.003690 0.008876 -0.003032 -0.002946 0.000349 -0.004364
# 3 -0.000763 -0.003032 0.008185 0.000286 0.000387 0.003418
# 4 0.001905 -0.002946 0.000286 0.026380 0.006288 0.001609
# 5 -0.004064 0.000349 0.000387 0.006288 0.029239 -0.000036
# 6 -0.001726 -0.004364 0.003418 0.001609 -0.000036 0.029078
#
#
# Mechanical properties :
#
#
# Convention : Reuss Voigt Hill
#
# Bulk Modulus (GPa) = 61.55994 72.82999 67.19497
# Shear Modulus (GPa) = 36.68377 42.43318 39.55848
#
# Velocity S-wave (km/s) = 4.11038 4.42077 4.26840
# Velocity P-wave (km/s) = 7.13297 7.72013 7.43235
#
# Compressibility (1/GPa) = 0.01624433
#
# Stress axis : x y z
#
# Youngs Moduli (GPa) = 70.64811 112.65714 122.17161
#
# Poissons Ratio (x) = 0.41573 0.09327
# Poissons Ratio (y) = 0.26071 0.37047
# Poissons Ratio (z) = 0.05393 0.34162
#
# Static dielectric constant tensor:
#      x y z
#    x 1.813080 -0.033110 -0.037410 
#    y -0.033110 1.808160 0.007600 
#    z -0.037410 0.007600 1.850380 
# 
# From -- ./inp_files/403058.got.cif
#   From: 2010.05.17/outbox.cif.g08.bks.cpg/sg2_202_cif.got.tgz:403058.got - 2010.06.03 11:33:40.
