data_PCOD9048178
_publ_section_title
;
Structure prediction by ZEFSAII (Michael W. Deem and Ramdas Pophale) SiO2 
 PCOD9048178
Probable space group: P -1
;
_chemical_formula_sum "Si O2"
_cell_formula_units_Z 16
_cell_length_a 18.367281
_cell_length_b 12.111923
_cell_length_c 9.550395
_cell_angle_alpha 129.320023
_cell_angle_beta 129.191171
_cell_angle_gamma 27.033305
_cell_volume 733.157122
_symmetry_space_group_name_H-M "P -1"
_symmetry_group_IT_number 2
_symmetry_cell_setting 'triclinic'
loop_
_space_group_symop_operation_xyz
x,y,z
-x,-y,-z
loop_
_atom_site_type_symbol
_atom_site_label
_atom_site_fract_x
_atom_site_fract_y
_atom_site_fract_z
Si Si1 0.598591 0.760271 0.016750
Si Si2 0.087602 0.741208 0.368245
Si Si3 0.094632 0.239015 0.656880
Si Si4 0.039313 0.623050 0.940824
Si Si5 0.580219 0.590958 0.390265
Si Si6 0.790644 0.843476 0.583160
Si Si7 0.370016 0.242650 0.631999
Si Si8 0.434141 0.670323 0.689373
O O1 0.550015 0.660770 0.841634
O O2 0.791946 0.539366 0.056860
O O3 0.557362 0.833946 0.187407
O O4 0.500000 0.000000 0.000000
O O5 0.282666 0.523151 0.425212
O O6 0.047698 0.688278 0.407423
O O7 0.020843 0.746649 0.152448
O O8 0.000000 0.000000 0.500000
O O9 0.071318 0.417648 0.851671
O O10 0.125752 0.235748 0.528923
O O11 0.257374 0.955192 0.674375
O O12 0.890457 0.799743 0.791529
O O13 0.640312 0.588604 0.316467
O O14 0.577500 0.424213 0.270692
O O15 0.396135 0.870018 0.422117
O O16 0.774616 0.694448 0.478085
O O17 0.500000 0.000000 0.500000
O O18 0.500000 0.500000 0.500000
#
# Coordination Sequence:
#
# PCOD9048178 Si02
#       8
#     2   2   2   2   2   2   2   2
#     4  12  26  46  77 114 147 198 257 305 373 447
#     4  12  28  48  72 110 152 195 248 313 377 440
#     4  12  24  45  78 108 150 192 253 308 374 442
#     4  12  27  45  76 109 150 193 258 309 371 446
#     4  11  25  48  76 102 157 195 242 302 387 443
#     4  11  24  48  76 110 148 196 246 312 378 450
#     4  10  24  44  75 110 148 191 248 310 371 442
#     4  12  24  45  76 112 150 203 248 305 374 454
#
# _framework density 21.823426999999999
#
# number of rings (size 3 to 8) (size 9 to 14) (size 15 to 20)
#    0.000    0.500    5.000    2.250    7.000    2.500 
#    2.250    1.250    0.000    0.000    0.000    0.000 
#    0.000    0.000    0.000    0.000    0.000    0.000 
#
# Total GULP energy -89449.180927 kJ/mol
# GULP energy per Si atom -5590.573808 kJ/mol
# Density = 2.177376 g / cm^3
# Si number density = 21.823427 Si / 1000 Ang^3
#
#
#
# Elastic Constant Matrix: (Units=GPa)
#
#
# Indices 1 2 3 4 5 6 
#
# 1 187.1708 53.4509 74.7310 -4.5695 15.5772 19.1934
# 2 53.4509 121.4038 64.8879 -2.7079 11.7689 -1.3283
# 3 74.7310 64.8879 174.5235 1.5079 4.6058 10.2765
# 4 -4.5695 -2.7079 1.5079 30.9887 -2.7908 6.4546
# 5 15.5772 11.7689 4.6058 -2.7908 48.3360 -3.3072
# 6 19.1934 -1.3283 10.2765 6.4546 -3.3072 52.3356
#
#
#
# Elastic Compliance Matrix: (Units=1/GPa)
#
#
# Indices 1 2 3 4 5 6 
#
# 1 0.007183 -0.001801 -0.002223 0.001378 -0.001758 -0.002525
# 2 -0.001801 0.011017 -0.003370 0.000410 -0.001658 0.001446
# 3 -0.002223 -0.003370 0.007964 -0.000804 0.000684 -0.000692
# 4 0.001378 0.000410 -0.000804 0.033570 0.001170 -0.004403
# 5 -0.001758 -0.001658 0.000684 0.001170 0.021777 0.001700
# 6 -0.002525 0.001446 -0.000692 -0.004403 0.001700 0.020856
#
#
# Mechanical properties :
#
#
# Convention : Reuss Voigt Hill
#
# Bulk Modulus (GPa) = 87.89944 96.58197 92.24070
# Shear Modulus (GPa) = 41.33979 45.66730 43.50355
#
# Velocity S-wave (km/s) = 4.35706 4.57944 4.46963
# Velocity P-wave (km/s) = 8.10413 8.50375 8.30635
#
# Compressibility (1/GPa) = 0.01137664
#
# Stress axis : x y z
#
# Youngs Moduli (GPa) = 139.20824 90.77140 125.55888
#
# Poissons Ratio (x) = 0.16347 0.27915
# Poissons Ratio (y) = 0.25070 0.42311
# Poissons Ratio (z) = 0.30949 0.30588
#
# Static dielectric constant tensor:
#      x y z
#    x 1.848650 0.003410 0.008420 
#    y 0.003410 1.817140 -0.039260 
#    z 0.008420 -0.039260 1.796470 
# 
# From -- ./inp_files/333828.got.cif
#   From: 2010.05.17/outbox.cif.g08.bks.cpg/sg2_167_cif.got.tgz:333828.got - 2010.06.03 11:33:40.
