data_PCOD9048673
_publ_section_title
;
Structure prediction by ZEFSAII (Michael W. Deem and Ramdas Pophale) SiO2 
 PCOD9048673
Probable space group: P -1
;
_chemical_formula_sum "Si O2"
_cell_formula_units_Z 16
_cell_length_a 8.788894
_cell_length_b 18.246287
_cell_length_c 5.533418
_cell_angle_alpha 60.030019
_cell_angle_beta 64.197321
_cell_angle_gamma 81.597442
_cell_volume 689.171880
_symmetry_space_group_name_H-M "P -1"
_symmetry_group_IT_number 2
_symmetry_cell_setting 'triclinic'
loop_
_space_group_symop_operation_xyz
x,y,z
-x,-y,-z
loop_
_atom_site_type_symbol
_atom_site_label
_atom_site_fract_x
_atom_site_fract_y
_atom_site_fract_z
Si Si1 0.186116 0.356250 0.233090
Si Si2 0.692733 0.497512 0.774899
Si Si3 0.171227 0.648752 0.775695
Si Si4 0.962466 0.822024 0.260166
Si Si5 0.449958 0.642541 0.216173
Si Si6 0.899760 0.911661 0.651261
Si Si7 0.724086 0.214258 0.158191
Si Si8 0.595748 0.016973 0.655793
O O1 0.219900 0.410725 0.365076
O O2 0.169268 0.257849 0.468932
O O3 0.003030 0.370115 0.221782
O O4 0.351384 0.371346 0.918948
O O5 0.657542 0.446840 0.634104
O O6 0.500000 0.500000 0.000000
O O7 0.803231 0.433812 0.947532
O O8 0.353878 0.664480 0.488598
O O9 0.162683 0.732026 0.809103
O O10 0.960670 0.878968 0.406164
O O11 0.916812 0.858533 0.970817
O O12 0.151576 0.794343 0.140637
O O13 0.412585 0.720159 0.933121
O O14 0.715602 0.940534 0.694006
O O15 0.000000 0.000000 0.500000
O O16 0.666909 0.117493 0.435571
O O17 0.500000 0.000000 0.500000
O O18 0.500000 0.000000 0.000000
#
# Coordination Sequence:
#
# PCOD9048673 Si02
#       8
#     2   2   2   2   2   2   2   2
#     4  11  24  43  73 108 144 190 259 298 377 456
#     4   9  22  46  65 108 146 194 242 311 372 444
#     4  11  23  47  73 106 142 199 243 310 375 443
#     4  12  26  48  75 110 145 194 250 310 377 439
#     4  10  24  45  71 101 149 191 243 310 375 438
#     4  12  27  48  76 103 145 195 247 305 372 448
#     4  11  26  48  70  99 155 185 244 309 380 436
#     4  12  30  47  74 110 149 197 250 307 378 448
#
# _framework density 23.216272
#
# number of rings (size 3 to 8) (size 9 to 14) (size 15 to 20)
#    0.000    1.000    2.500    2.250    7.000    2.500 
#   15.750    0.000    0.000    0.000    0.000    0.000 
#    0.000    0.000    0.000    0.000    0.000    0.000 
#
# Total GULP energy -89303.680386 kJ/mol
# GULP energy per Si atom -5581.480024 kJ/mol
# Density = 2.316343 g / cm^3
# Si number density = 23.216272 Si / 1000 Ang^3
#
#
#
# Elastic Constant Matrix: (Units=GPa)
#
#
# Indices 1 2 3 4 5 6 
#
# 1 104.7766 29.0764 37.1841 2.4824 6.3817 -8.1394
# 2 29.0764 163.2666 46.8933 17.0437 -3.4800 20.5269
# 3 37.1841 46.8933 76.7488 22.2850 -9.4365 9.9301
# 4 2.4824 17.0437 22.2850 42.5746 2.3530 -5.9086
# 5 6.3817 -3.4800 -9.4365 2.3530 31.4473 -3.1901
# 6 -8.1394 20.5269 9.9301 -5.9086 -3.1901 42.1065
#
#
#
# Elastic Compliance Matrix: (Units=1/GPa)
#
#
# Indices 1 2 3 4 5 6 
#
# 1 0.013673 -0.001305 -0.008803 0.005423 -0.005387 0.005708
# 2 -0.001305 0.007931 -0.003185 -0.001935 -0.000038 -0.003642
# 3 -0.008803 -0.003185 0.025010 -0.012802 0.009171 -0.007149
# 4 0.005423 -0.001935 -0.012802 0.032269 -0.006654 0.009035
# 5 -0.005387 -0.000038 0.009171 -0.006654 0.035997 -0.001392
# 6 0.005708 -0.003642 -0.007149 0.009035 -0.001392 0.029476
#
#
# Mechanical properties :
#
#
# Convention : Reuss Voigt Hill
#
# Bulk Modulus (GPa) = 49.92834 63.45550 56.69192
# Shear Modulus (GPa) = 28.14997 38.66822 33.40910
#
# Velocity S-wave (km/s) = 3.48589 4.08556 3.79758
# Velocity P-wave (km/s) = 6.14446 7.04609 6.61066
#
# Compressibility (1/GPa) = 0.02002870
#
# Stress axis : x y z
#
# Youngs Moduli (GPa) = 73.13462 126.08134 39.98389
#
# Poissons Ratio (x) = 0.16459 0.35196
# Poissons Ratio (y) = 0.09547 0.12735
# Poissons Ratio (z) = 0.64377 0.40158
#
# Static dielectric constant tensor:
#      x y z
#    x 1.840640 0.007240 0.023690 
#    y 0.007240 1.968010 0.084250 
#    z 0.023690 0.084250 2.019270 
# 
# From -- ./inp_files/46558.got.cif
#   From: 2010.05.17/outbox.cif.g08.bks.cpg/sg2_24_cif.got.tgz:46558.got - 2010.06.03 11:33:40.
