data_PCOD9048393
_publ_section_title
;
Structure prediction by ZEFSAII (Michael W. Deem and Ramdas Pophale) SiO2 
 PCOD9048393
Probable space group: P -1
;
_chemical_formula_sum "Si O2"
_cell_formula_units_Z 14
_cell_length_a 11.567528
_cell_length_b 9.683266
_cell_length_c 8.244429
_cell_angle_alpha 103.160255
_cell_angle_beta 127.109984
_cell_angle_gamma 55.765558
_cell_volume 600.042557
_symmetry_space_group_name_H-M "P -1"
_symmetry_group_IT_number 2
_symmetry_cell_setting 'triclinic'
loop_
_space_group_symop_operation_xyz
x,y,z
-x,-y,-z
loop_
_atom_site_type_symbol
_atom_site_label
_atom_site_fract_x
_atom_site_fract_y
_atom_site_fract_z
Si Si1 0.726502 0.383271 0.988346
Si Si2 0.077507 0.117442 0.346356
Si Si3 0.596920 0.529776 0.444059
Si Si4 0.589237 0.757749 0.074378
Si Si5 0.648914 0.817094 0.511939
Si Si6 0.113179 0.778927 0.253341
Si Si7 0.769827 0.937433 0.181452
O O1 0.541686 0.406944 0.802715
O O2 0.824813 0.333539 0.884932
O O3 0.681760 0.561790 0.063340
O O4 0.871254 0.233588 0.182194
O O5 0.171839 0.191860 0.345699
O O6 0.131808 0.104553 0.575470
O O7 0.149463 0.926342 0.299891
O O8 0.500000 0.500000 0.500000
O O9 0.640480 0.669999 0.554163
O O10 0.776219 0.347587 0.539132
O O11 0.613689 0.795292 0.289239
O O12 0.676362 0.835323 0.062189
O O13 0.385198 0.866680 0.896120
O O14 0.500000 0.000000 0.500000
O O15 0.911329 0.876252 0.146139
#
# Coordination Sequence:
#
# PCOD9048393 Si02
#       7
#     2   2   2   2   2   2   2
#     4  11  25  43  71 102 143 174 237 288 341 407
#     4  11  25  44  71 104 141 180 234 290 340 408
#     4  10  24  45  68 102 141 180 230 283 344 409
#     4  10  25  44  68 103 145 180 231 285 352 409
#     4  11  25  44  74 100 141 184 232 284 350 410
#     4  11  24  44  73 100 140 187 236 276 349 412
#     4  10  24  45  70 100 144 186 229 284 348 413
#
# _framework density 23.331681
#
# number of rings (size 3 to 8) (size 9 to 14) (size 15 to 20)
#    0.000    1.429    0.000    3.429    8.000    8.000 
#    0.000    0.000    0.000    0.000    0.000    0.000 
#    0.000    0.000    0.000    0.000    0.000    0.000 
#
# Total GULP energy -78324.034224 kJ/mol
# GULP energy per Si atom -5594.573873 kJ/mol
# Density = 2.327858 g / cm^3
# Si number density = 23.331681 Si / 1000 Ang^3
#
#
#
# Elastic Constant Matrix: (Units=GPa)
#
#
# Indices 1 2 3 4 5 6 
#
# 1 113.8168 52.7143 26.7187 13.3426 10.8566 6.0947
# 2 52.7143 190.4084 52.9413 -4.5864 13.3699 -2.9975
# 3 26.7187 52.9413 115.3519 -17.4218 19.9597 -17.3306
# 4 13.3426 -4.5864 -17.4218 40.0702 -10.6364 -0.1200
# 5 10.8566 13.3699 19.9597 -10.6364 28.1305 2.7553
# 6 6.0947 -2.9975 -17.3306 -0.1200 2.7553 45.5108
#
#
#
# Elastic Compliance Matrix: (Units=1/GPa)
#
#
# Indices 1 2 3 4 5 6 
#
# 1 0.011687 -0.002552 -0.002145 -0.006151 -0.003873 -0.002332
# 2 -0.002552 0.006642 -0.002340 0.000510 -0.000309 -0.000092
# 3 -0.002145 -0.002340 0.012743 0.004422 -0.005954 0.005358
# 4 -0.006151 0.000510 0.004422 0.031872 0.010852 0.001968
# 5 -0.003873 -0.000309 -0.005954 0.010852 0.045961 -0.004523
# 6 -0.002332 -0.000092 0.005358 0.001968 -0.004523 0.024598
#
#
# Mechanical properties :
#
#
# Convention : Reuss Voigt Hill
#
# Bulk Modulus (GPa) = 58.83326 76.03619 67.43473
# Shear Modulus (GPa) = 32.62764 41.88915 37.25839
#
# Velocity S-wave (km/s) = 3.74361 4.24178 4.00046
# Velocity P-wave (km/s) = 6.63000 7.52664 7.09251
#
# Compressibility (1/GPa) = 0.01699719
#
# Stress axis : x y z
#
# Youngs Moduli (GPa) = 85.56527 150.56442 78.47283
#
# Poissons Ratio (x) = 0.38425 0.16832
# Poissons Ratio (y) = 0.21837 0.18365
# Poissons Ratio (z) = 0.18353 0.35237
#
# Static dielectric constant tensor:
#      x y z
#    x 1.905320 0.035890 -0.022710 
#    y 0.035890 1.845090 -0.038980 
#    z -0.022710 -0.038980 1.946830 
# 
# From -- ./inp_files/207137.got.cif
#   From: 2010.05.17/outbox.cif.g08.bks.cpg/sg2_104_cif.got.tgz:207137.got - 2010.06.03 11:33:40.
