data_PCOD9048887
_publ_section_title
;
Structure prediction by ZEFSAII (Michael W. Deem and Ramdas Pophale) SiO2 
 PCOD9048887
Probable space group: P -1
;
_chemical_formula_sum "Si O2"
_cell_formula_units_Z 13
_cell_length_a 17.202751
_cell_length_b 9.166598
_cell_length_c 6.440271
_cell_angle_alpha 133.177950
_cell_angle_beta 98.522368
_cell_angle_gamma 53.756954
_cell_volume 537.571883
_symmetry_space_group_name_H-M "P -1"
_symmetry_group_IT_number 2
_symmetry_cell_setting 'triclinic'
loop_
_space_group_symop_operation_xyz
x,y,z
-x,-y,-z
loop_
_atom_site_type_symbol
_atom_site_label
_atom_site_fract_x
_atom_site_fract_y
_atom_site_fract_z
Si Si1 0.336128 0.983564 0.735488
Si Si2 0.041632 0.151543 0.706827
Si Si3 0.500000 0.000000 0.000000
Si Si4 0.230724 0.709269 0.052940
Si Si5 0.168621 0.106902 0.087735
Si Si6 0.449931 0.428360 0.077740
Si Si7 0.837432 0.623805 0.268535
O O1 0.274516 0.109664 0.613856
O O2 0.413342 0.032882 0.856659
O O3 0.399630 0.666671 0.457873
O O4 0.243440 0.123932 0.003944
O O5 0.143943 0.978310 0.424895
O O6 0.089437 0.122415 0.922391
O O7 0.000000 0.000000 0.500000
O O8 0.929432 0.467237 0.974398
O O9 0.484367 0.850676 0.040162
O O10 0.347001 0.505199 0.002224
O O11 0.237628 0.817083 0.947271
O O12 0.184015 0.569259 0.868162
O O13 0.123458 0.322014 0.463664
O O14 0.500000 0.500000 0.000000
#
# Coordination Sequence:
#
# PCOD9048887 Si02
#       7
#     2   2   1   2   2   2   2
#     4  12  27  49  72 112 151 198 260 322 389 465
#     4  10  24  45  74 111 154 201 251 313 385 467
#     4  12  28  48  82 106 152 212 254 332 398 446
#     4  11  24  48  72 107 155 194 255 323 373 465
#     4  12  24  44  75 107 154 198 252 314 384 465
#     4  12  26  51  77 111 151 202 265 323 391 464
#     4  11  25  44  75 108 152 203 249 311 387 461
#
# _framework density 24.182811000000001
#
# number of rings (size 3 to 8) (size 9 to 14) (size 15 to 20)
#    0.000    0.615    4.615    1.846    0.000   11.692 
#    0.000    0.000    0.000    0.000    0.000    0.000 
#    0.000    0.000    0.000    0.000    0.000    0.000 
#
# Total GULP energy -72373.668804 kJ/mol
# GULP energy per Si atom -5567.205293 kJ/mol
# Density = 2.412777 g / cm^3
# Si number density = 24.182811 Si / 1000 Ang^3
#
#
#
# Elastic Constant Matrix: (Units=GPa)
#
#
# Indices 1 2 3 4 5 6 
#
# 1 143.2108 33.6786 41.4951 -22.3408 40.4423 -7.6487
# 2 33.6786 116.3387 27.8562 -16.1471 17.7411 -2.8120
# 3 41.4951 27.8562 81.4311 -17.2593 15.5897 -3.4734
# 4 -22.3408 -16.1471 -17.2593 22.7746 -6.1388 7.4588
# 5 40.4423 17.7411 15.5897 -6.1388 39.5503 -13.4153
# 6 -7.6487 -2.8120 -3.4734 7.4588 -13.4153 50.0725
#
#
#
# Elastic Compliance Matrix: (Units=1/GPa)
#
#
# Indices 1 2 3 4 5 6 
#
# 1 0.011773 -0.000233 -0.002404 0.007465 -0.010621 -0.002339
# 2 -0.000233 0.010277 -0.001696 0.005291 -0.003306 -0.001250
# 3 -0.002404 -0.001696 0.016286 0.008566 -0.002286 -0.001221
# 4 0.007465 0.005291 0.008566 0.062637 -0.006750 -0.009107
# 5 -0.010621 -0.003306 -0.002286 -0.006750 0.040869 0.009988
# 6 -0.002339 -0.001250 -0.001221 -0.009107 0.009988 0.023492
#
#
# Mechanical properties :
#
#
# Convention : Reuss Voigt Hill
#
# Bulk Modulus (GPa) = 33.70276 60.78225 47.24250
# Shear Modulus (GPa) = 27.19004 38.34284 32.76644
#
# Velocity S-wave (km/s) = 3.35678 3.98621 3.68495
# Velocity P-wave (km/s) = 5.38431 6.80996 6.13866
#
# Compressibility (1/GPa) = 0.02967116
#
# Stress axis : x y z
#
# Youngs Moduli (GPa) = 84.93994 97.30040 61.40128
#
# Poissons Ratio (x) = 0.02271 0.14758
# Poissons Ratio (y) = 0.01983 0.10413
# Poissons Ratio (z) = 0.20416 0.16501
#
# Static dielectric constant tensor:
#      x y z
#    x 1.899020 -0.003870 0.003970 
#    y -0.003870 1.909440 0.060330 
#    z 0.003970 0.060330 1.954450 
# 
# From -- ./inp_files/36458.got.cif
#   From: 2010.05.17/outbox.cif.g08.bks.cpg/sg2_19_cif.got.tgz:36458.got - 2010.06.03 11:33:40.
