data_PCOD9048901
_publ_section_title
;
Structure prediction by ZEFSAII (Michael W. Deem and Ramdas Pophale) SiO2 
 PCOD9048901
Probable space group: P -1
;
_chemical_formula_sum "Si O2"
_cell_formula_units_Z 13
_cell_length_a 8.771563
_cell_length_b 8.048002
_cell_length_c 8.939291
_cell_angle_alpha 119.414323
_cell_angle_beta 104.265591
_cell_angle_gamma 81.925481
_cell_volume 532.615437
_symmetry_space_group_name_H-M "P -1"
_symmetry_group_IT_number 2
_symmetry_cell_setting 'triclinic'
loop_
_space_group_symop_operation_xyz
x,y,z
-x,-y,-z
loop_
_atom_site_type_symbol
_atom_site_label
_atom_site_fract_x
_atom_site_fract_y
_atom_site_fract_z
Si Si1 0.500000 0.500000 0.500000
Si Si2 0.897374 0.782157 0.543860
Si Si3 0.858156 0.484035 0.654197
Si Si4 0.403988 0.245499 0.736557
Si Si5 0.460195 0.081445 0.189678
Si Si6 0.727473 0.456456 0.922874
Si Si7 0.877564 0.078932 0.886358
O O1 0.688253 0.438545 0.525752
O O2 0.826666 0.526504 0.838350
O O3 0.919947 0.655660 0.643508
O O4 0.923652 0.997367 0.697794
O O5 0.019554 0.691521 0.416810
O O6 0.000000 0.000000 0.000000
O O7 0.719798 0.757990 0.429313
O O8 0.532746 0.693962 0.692573
O O9 0.434973 0.034593 0.714464
O O10 0.570401 0.342838 0.778708
O O11 0.332592 0.376641 0.909547
O O12 0.285533 0.018973 0.157000
O O13 0.500000 0.000000 0.000000
O O14 0.833247 0.301598 0.969518
#
# Coordination Sequence:
#
# PCOD9048901 Si02
#       7
#     1   2   2   2   2   2   2
#     4  12  24  44  76 104 146 190 250 300 366 450
#     4  11  26  45  69 106 148 189 243 311 360 444
#     4  11  25  43  72 105 142 195 242 302 375 432
#     4  10  24  46  73 107 146 186 256 302 371 441
#     4  11  26  46  75 112 148 201 246 311 369 447
#     4  10  24  45  75 102 144 200 238 308 373 443
#     4  11  27  47  70 107 153 193 245 308 376 439
#
# _framework density 24.407855000000001
#
# number of rings (size 3 to 8) (size 9 to 14) (size 15 to 20)
#    0.000    1.231    1.538    1.846    8.615    4.923 
#    0.000    0.000    0.000    0.000    0.000    0.000 
#    0.000    0.000    0.000    0.000    0.000    0.000 
#
# Total GULP energy -72609.448989 kJ/mol
# GULP energy per Si atom -5585.342230 kJ/mol
# Density = 2.435230 g / cm^3
# Si number density = 24.407855 Si / 1000 Ang^3
#
#
#
# Elastic Constant Matrix: (Units=GPa)
#
#
# Indices 1 2 3 4 5 6 
#
# 1 78.9803 40.3724 40.6299 -3.6894 -9.5897 -27.2472
# 2 40.3724 119.1953 48.2578 -1.6469 -8.7812 -22.3724
# 3 40.6299 48.2578 92.1226 4.6259 -2.8683 -3.7938
# 4 -3.6894 -1.6469 4.6259 36.6394 -9.4125 -1.7082
# 5 -9.5897 -8.7812 -2.8683 -9.4125 52.0350 -10.8993
# 6 -27.2472 -22.3724 -3.7938 -1.7082 -10.8993 40.8845
#
#
#
# Elastic Compliance Matrix: (Units=1/GPa)
#
#
# Indices 1 2 3 4 5 6 
#
# 1 0.026647 -0.000079 -0.010976 0.007485 0.009754 0.019610
# 2 -0.000079 0.012691 -0.006323 0.002689 0.003823 0.007436
# 3 -0.010976 -0.006323 0.018684 -0.005612 -0.005315 -0.010692
# 4 0.007485 0.002689 -0.005612 0.031720 0.009303 0.009745
# 5 0.009754 0.003823 -0.005315 0.009303 0.026297 0.015498
# 6 0.019610 0.007436 -0.010692 0.009745 0.015498 0.045144
#
#
# Mechanical properties :
#
#
# Convention : Reuss Voigt Hill
#
# Bulk Modulus (GPa) = 42.97982 60.97983 51.97983
# Shear Modulus (GPa) = 24.54652 36.64767 30.59709
#
# Velocity S-wave (km/s) = 3.17469 3.87908 3.54443
# Velocity P-wave (km/s) = 5.57543 6.71573 6.17197
#
# Compressibility (1/GPa) = 0.02326673
#
# Stress axis : x y z
#
# Youngs Moduli (GPa) = 37.52710 78.79654 53.52168
#
# Poissons Ratio (x) = 0.00625 0.58744
# Poissons Ratio (y) = 0.00298 0.33841
# Poissons Ratio (z) = 0.41188 0.49822
#
# Static dielectric constant tensor:
#      x y z
#    x 1.933000 0.015820 -0.052610 
#    y 0.015820 2.001200 -0.000900 
#    z -0.052610 -0.000900 2.039140 
# 
# From -- ./inp_files/165090.got.cif
#   From: 2010.05.17/outbox.cif.g08.bks.cpg/sg2_83_cif.got.tgz:165090.got - 2010.06.03 11:33:40.
