data_PCOD9048971
_publ_section_title
;
Structure prediction by ZEFSAII (Michael W. Deem and Ramdas Pophale) SiO2 
 PCOD9048971
Probable space group: P -1
;
_chemical_formula_sum "Si O2"
_cell_formula_units_Z 13
_cell_length_a 9.446466
_cell_length_b 13.008413
_cell_length_c 9.125270
_cell_angle_alpha 33.981970
_cell_angle_beta 61.045340
_cell_angle_gamma 57.408432
_cell_volume 526.387902
_symmetry_space_group_name_H-M "P -1"
_symmetry_group_IT_number 2
_symmetry_cell_setting 'triclinic'
loop_
_space_group_symop_operation_xyz
x,y,z
-x,-y,-z
loop_
_atom_site_type_symbol
_atom_site_label
_atom_site_fract_x
_atom_site_fract_y
_atom_site_fract_z
Si Si1 0.162303 0.613406 0.564565
Si Si2 0.564320 0.884480 0.255589
Si Si3 0.207676 0.628091 0.186197
Si Si4 0.914399 0.958913 0.940848
Si Si5 0.557387 0.495877 0.248681
Si Si6 0.500000 0.000000 0.500000
Si Si7 0.202665 0.380615 0.218517
O O1 0.150972 0.597427 0.414466
O O2 0.343871 0.481510 0.680266
O O3 0.994501 0.582343 0.752705
O O4 0.153714 0.833962 0.343338
O O5 0.506123 0.691258 0.497484
O O6 0.500828 0.970232 0.347807
O O7 0.761581 0.875129 0.153844
O O8 0.500000 0.000000 0.000000
O O9 0.392780 0.660705 0.079140
O O10 0.221749 0.446351 0.295395
O O11 0.069600 0.803108 0.973851
O O12 0.000000 0.000000 0.000000
O O13 0.706378 0.485305 0.073236
O O14 0.316065 0.165219 0.389675
#
# Coordination Sequence:
#
# PCOD9048971 Si02
#       7
#     2   2   2   2   2   1   2
#     4  11  25  48  75 111 152 198 254 322 387 462
#     4  12  27  51  79 118 152 208 265 317 394 469
#     4  11  25  47  77 109 145 204 263 307 387 472
#     4  10  24  45  79 109 148 202 259 315 388 466
#     4  12  27  47  74 115 154 195 259 318 390 459
#     4  12  28  50  78 110 162 206 254 332 390 458
#     4  12  28  47  75 111 155 202 254 317 401 453
#
# _framework density 24.696617
#
# number of rings (size 3 to 8) (size 9 to 14) (size 15 to 20)
#    0.000    0.615    3.077    3.692    8.615    1.231 
#    2.769    1.538    0.000    0.000    0.000    0.000 
#    0.000    0.000    0.000    0.000    0.000    0.000 
#
# Total GULP energy -72403.750514 kJ/mol
# GULP energy per Si atom -5569.519270 kJ/mol
# Density = 2.464041 g / cm^3
# Si number density = 24.696617 Si / 1000 Ang^3
#
#
#
# Elastic Constant Matrix: (Units=GPa)
#
#
# Indices 1 2 3 4 5 6 
#
# 1 160.6376 48.0961 38.6268 14.1849 -16.5646 -22.8655
# 2 48.0961 140.7516 26.0705 8.0744 -3.5755 -12.1615
# 3 38.6268 26.0705 86.5010 21.6988 -29.7916 10.3768
# 4 14.1849 8.0744 21.6988 30.7527 -0.1385 -2.9424
# 5 -16.5646 -3.5755 -29.7916 -0.1385 45.8520 17.1605
# 6 -22.8655 -12.1615 10.3768 -2.9424 17.1605 35.3976
#
#
#
# Elastic Compliance Matrix: (Units=1/GPa)
#
#
# Indices 1 2 3 4 5 6 
#
# 1 0.009099 -0.001048 -0.007665 0.002493 -0.005804 0.010786
# 2 -0.001048 0.008927 -0.006227 0.003239 -0.006593 0.007681
# 3 -0.007665 -0.006227 0.042849 -0.028848 0.040010 -0.041447
# 4 0.002493 0.003239 -0.028848 0.053559 -0.028439 0.029419
# 5 -0.005804 -0.006593 0.040010 -0.028439 0.064301 -0.051280
# 6 0.010786 0.007681 -0.041447 0.029419 -0.051280 0.077313
#
#
# Mechanical properties :
#
#
# Convention : Reuss Voigt Hill
#
# Bulk Modulus (GPa) = 32.26491 68.16412 50.21451
# Shear Modulus (GPa) = 16.87715 40.74023 28.80869
#
# Velocity S-wave (km/s) = 2.61699 4.06597 3.41912
# Velocity P-wave (km/s) = 4.71427 7.05006 5.99699
#
# Compressibility (1/GPa) = 0.03099342
#
# Stress axis : x y z
#
# Youngs Moduli (GPa) = 109.90523 112.02484 23.33786
#
# Poissons Ratio (x) = 0.11738 0.17889
# Poissons Ratio (y) = 0.11516 0.14533
# Poissons Ratio (z) = 0.84246 0.69760
#
# Static dielectric constant tensor:
#      x y z
#    x 2.061370 -0.055060 0.190320 
#    y -0.055060 2.106450 -0.111470 
#    z 0.190320 -0.111470 2.487560 
# 
# From -- ./inp_files/183683.got.cif
#   From: 2010.05.17/outbox.cif.g08.bks.cpg/sg2_92_cif.got.tgz:183683.got - 2010.06.03 11:33:40.
