data_PCOD9048039
_publ_section_title
;
Structure prediction by ZEFSAII (Michael W. Deem and Ramdas Pophale) SiO2 
 PCOD9048039
Probable space group: P -1
;
_chemical_formula_sum "Si O2"
_cell_formula_units_Z 15
_cell_length_a 13.108981
_cell_length_b 6.454881
_cell_length_c 8.989197
_cell_angle_alpha 111.019337
_cell_angle_beta 100.729786
_cell_angle_gamma 70.973356
_cell_volume 669.164471
_symmetry_space_group_name_H-M "P -1"
_symmetry_group_IT_number 2
_symmetry_cell_setting 'triclinic'
loop_
_space_group_symop_operation_xyz
x,y,z
-x,-y,-z
loop_
_atom_site_type_symbol
_atom_site_label
_atom_site_fract_x
_atom_site_fract_y
_atom_site_fract_z
Si Si1 0.681063 0.453321 0.677784
Si Si2 0.000000 0.500000 0.000000
Si Si3 0.730593 0.616712 0.409221
Si Si4 0.170931 0.025450 0.330086
Si Si5 0.944210 0.280847 0.236944
Si Si6 0.822674 0.923417 0.005456
Si Si7 0.493971 0.790539 0.336368
Si Si8 0.393853 0.041101 0.076791
O O1 0.703326 0.515579 0.532244
O O2 0.576097 0.359183 0.642986
O O3 0.654904 0.688550 0.825545
O O4 0.787282 0.249461 0.704543
O O5 0.011760 0.600930 0.858293
O O6 0.122259 0.327244 0.979446
O O7 0.759335 0.855077 0.516663
O O8 0.840210 0.452710 0.328967
O O9 0.619027 0.659769 0.299668
O O10 0.043337 0.158926 0.343724
O O11 0.191600 0.067408 0.173852
O O12 0.901910 0.074152 0.107479
O O13 0.700820 0.027872 0.055416
O O14 0.500000 0.000000 0.500000
O O15 0.429315 0.895496 0.198600
O O16 0.500000 0.000000 0.000000
#
# Coordination Sequence:
#
# PCOD9048039 Si02
#       8
#     2   1   2   2   2   2   2   2
#     4  12  24  44  75  94 144 189 229 294 365 409
#     4  10  24  44  72  92 142 184 230 286 362 404
#     4  12  26  44  72 107 140 183 239 295 353 429
#     4  11  23  47  70 101 142 178 239 287 357 423
#     4  11  28  43  73 106 141 184 238 297 353 427
#     4  11  24  46  68 104 136 187 237 289 350 427
#     4  12  24  47  70 103 139 186 240 293 348 435
#     4  12  29  44  71 107 145 186 242 294 358 427
#
# _framework density 22.416011999999998
#
# number of rings (size 3 to 8) (size 9 to 14) (size 15 to 20)
#    0.000    0.533    5.333    2.400    7.467    2.133 
#    0.000    0.000    0.000    0.000    0.000    0.000 
#    0.000    0.000    0.000    0.000    0.000    0.000 
#
# Total GULP energy -83631.624973 kJ/mol
# GULP energy per Si atom -5575.441665 kJ/mol
# Density = 2.236499 g / cm^3
# Si number density = 22.416012 Si / 1000 Ang^3
#
#
#
# Elastic Constant Matrix: (Units=GPa)
#
#
# Indices 1 2 3 4 5 6 
#
# 1 153.6271 48.1196 23.8331 -3.4661 -5.3286 -25.8922
# 2 48.1196 108.7269 21.9320 -11.3477 3.5005 -31.9049
# 3 23.8331 21.9320 28.1661 -2.4404 -1.8627 -4.5289
# 4 -3.4661 -11.3477 -2.4404 25.6195 -7.0615 7.1527
# 5 -5.3286 3.5005 -1.8627 -7.0615 36.0100 -1.5578
# 6 -25.8922 -31.9049 -4.5289 7.1527 -1.5578 52.3306
#
#
#
# Elastic Compliance Matrix: (Units=1/GPa)
#
#
# Indices 1 2 3 4 5 6 
#
# 1 0.008399 -0.002034 -0.005085 -0.000655 0.001162 0.002599
# 2 -0.002034 0.013907 -0.007904 0.003033 -0.001193 0.006338
# 3 -0.005085 -0.007904 0.045723 0.001875 0.002595 -0.003557
# 4 -0.000655 0.003033 0.001875 0.043840 0.008127 -0.004063
# 5 0.001162 -0.001193 0.002595 0.008127 0.029779 -0.000152
# 6 0.002599 0.006338 -0.003557 -0.004063 -0.000152 0.024502
#
#
# Mechanical properties :
#
#
# Convention : Reuss Voigt Hill
#
# Bulk Modulus (GPa) = 26.32821 53.14327 39.73574
# Shear Modulus (GPa) = 23.93963 35.90106 29.92035
#
# Velocity S-wave (km/s) = 3.27153 4.00632 3.65742
# Velocity P-wave (km/s) = 5.10307 6.72012 5.96663
#
# Compressibility (1/GPa) = 0.03798208
#
# Stress axis : x y z
#
# Youngs Moduli (GPa) = 119.06283 71.90611 21.87080
#
# Poissons Ratio (x) = 0.14629 0.11120
# Poissons Ratio (y) = 0.24223 0.17287
# Poissons Ratio (z) = 0.60539 0.56837
#
# Static dielectric constant tensor:
#      x y z
#    x 1.696790 -0.008290 -0.027640 
#    y -0.008290 1.855090 0.044160 
#    z -0.027640 0.044160 1.813170 
# 
# From -- ./inp_files/38573.got.cif
#   From: 2010.05.17/outbox.cif.g08.bks.cpg/sg2_20_cif.got.tgz:38573.got - 2010.06.03 11:33:40.
