data_PCOD9048424
_publ_section_title
;
Structure prediction by ZEFSAII (Michael W. Deem and Ramdas Pophale) SiO2 
 PCOD9048424
Probable space group: P -1
;
_chemical_formula_sum "Si O2"
_cell_formula_units_Z 14
_cell_length_a 8.856425
_cell_length_b 14.252993
_cell_length_c 19.982742
_cell_angle_alpha 28.083076
_cell_angle_beta 35.986896
_cell_angle_gamma 30.426127
_cell_volume 588.833623
_symmetry_space_group_name_H-M "P -1"
_symmetry_group_IT_number 2
_symmetry_cell_setting 'triclinic'
loop_
_space_group_symop_operation_xyz
x,y,z
-x,-y,-z
loop_
_atom_site_type_symbol
_atom_site_label
_atom_site_fract_x
_atom_site_fract_y
_atom_site_fract_z
Si Si1 0.041807 0.880261 0.926976
Si Si2 0.293705 0.481096 0.640943
Si Si3 0.763330 0.991947 0.813395
Si Si4 0.786261 0.926268 0.489002
Si Si5 0.319987 0.351776 0.114175
Si Si6 0.510737 0.299748 0.930042
Si Si7 0.751922 0.314950 0.329446
O O1 0.379126 0.834459 0.835862
O O2 0.133484 0.605987 0.058629
O O3 0.846596 0.001214 0.854057
O O4 0.837071 0.066412 0.941084
O O5 0.500000 0.500000 0.500000
O O6 0.429815 0.208265 0.776133
O O7 0.351731 0.571795 0.632138
O O8 0.957235 0.658466 0.622272
O O9 0.995034 0.019897 0.667410
O O10 0.742559 0.764718 0.955233
O O11 0.729791 0.089063 0.470689
O O12 0.500000 0.000000 0.500000
O O13 0.092218 0.265913 0.234646
O O14 0.457835 0.373560 0.980168
O O15 0.441734 0.506770 0.773416
#
# Coordination Sequence:
#
# PCOD9048424 Si02
#       7
#     2   2   2   2   2   2   2
#     4  11  23  40  65 105 150 175 218 276 351 421
#     4  10  24  45  68  94 133 188 233 275 344 410
#     4  11  21  45  68  97 140 177 225 283 347 419
#     4  11  26  46  69  96 132 183 244 290 331 401
#     4  11  24  39  66 107 145 180 217 278 352 426
#     4  12  22  44  71 108 139 181 221 284 366 416
#     4  12  22  45  73  96 141 183 229 289 353 414
#
# _framework density 23.775818000000001
#
# number of rings (size 3 to 8) (size 9 to 14) (size 15 to 20)
#    0.000    0.857    4.286    3.429    2.000    0.000 
#    5.143    2.857    0.000    0.000    0.000    0.000 
#    0.000    0.000    0.000    0.000    0.000    0.000 
#
# Total GULP energy -78298.190669 kJ/mol
# GULP energy per Si atom -5592.727905 kJ/mol
# Density = 2.372170 g / cm^3
# Si number density = 23.775818 Si / 1000 Ang^3
#
#
#
# Elastic Constant Matrix: (Units=GPa)
#
#
# Indices 1 2 3 4 5 6 
#
# 1 76.3779 26.4133 19.4254 -10.1518 4.9345 -12.3406
# 2 26.4133 124.1150 37.9718 -9.0353 2.2189 -11.3835
# 3 19.4254 37.9718 62.3894 -12.0516 15.7265 -12.4921
# 4 -10.1518 -9.0353 -12.0516 35.7571 -1.1737 21.5627
# 5 4.9345 2.2189 15.7265 -1.1737 39.2576 6.7263
# 6 -12.3406 -11.3835 -12.4921 21.5627 6.7263 44.1370
#
#
#
# Elastic Compliance Matrix: (Units=1/GPa)
#
#
# Indices 1 2 3 4 5 6 
#
# 1 0.015097 -0.002153 -0.002301 0.001409 -0.001243 0.002516
# 2 -0.002153 0.010369 -0.006188 0.000000 0.002165 -0.000009
# 3 -0.002301 -0.006188 0.024526 0.002800 -0.009933 0.004848
# 4 0.001409 0.000000 0.002800 0.041112 0.003254 -0.019395
# 5 -0.001243 0.002165 -0.009933 0.003254 0.031114 -0.008932
# 6 0.002516 -0.000009 0.004848 -0.019395 -0.008932 0.035566
#
#
# Mechanical properties :
#
#
# Convention : Reuss Voigt Hill
#
# Bulk Modulus (GPa) = 34.83360 47.83371 41.33365
# Shear Modulus (GPa) = 26.50590 35.76847 31.13718
#
# Velocity S-wave (km/s) = 3.34252 3.88287 3.62279
# Velocity P-wave (km/s) = 5.43868 6.34544 5.90948
#
# Compressibility (1/GPa) = 0.02870792
#
# Stress axis : x y z
#
# Youngs Moduli (GPa) = 66.23993 96.44238 40.77260
#
# Poissons Ratio (x) = 0.20768 0.09380
# Poissons Ratio (y) = 0.14264 0.25230
# Poissons Ratio (z) = 0.15240 0.59677
#
# Static dielectric constant tensor:
#      x y z
#    x 1.865080 0.012400 0.033850 
#    y 0.012400 1.994270 0.007150 
#    z 0.033850 0.007150 1.889490 
# 
# From -- ./inp_files/297624.got.cif
#   From: 2010.05.17/outbox.cif.g08.bks.cpg/sg2_149_cif.got.tgz:297624.got - 2010.06.03 11:33:40.
