data_PCOD9048995
_publ_section_title
;
Structure prediction by ZEFSAII (Michael W. Deem and Ramdas Pophale) SiO2 
 PCOD9048995
Probable space group: P -1
;
_chemical_formula_sum "Si O2"
_cell_formula_units_Z 13
_cell_length_a 14.118478
_cell_length_b 10.920137
_cell_length_c 11.250092
_cell_angle_alpha 108.967632
_cell_angle_beta 131.361317
_cell_angle_gamma 33.769573
_cell_volume 610.172849
_symmetry_space_group_name_H-M "P -1"
_symmetry_group_IT_number 2
_symmetry_cell_setting 'triclinic'
loop_
_space_group_symop_operation_xyz
x,y,z
-x,-y,-z
loop_
_atom_site_type_symbol
_atom_site_label
_atom_site_fract_x
_atom_site_fract_y
_atom_site_fract_z
Si Si1 0.900579 0.856318 0.518734
Si Si2 0.009970 0.789436 0.131814
Si Si3 0.511658 0.100785 0.444902
Si Si4 0.242954 0.562008 0.497669
Si Si5 0.517678 0.589397 0.748245
Si Si6 0.000000 0.500000 0.000000
Si Si7 0.238955 0.724026 0.925462
O O1 0.764498 0.880547 0.504859
O O2 0.676242 0.120222 0.337344
O O3 0.116338 0.618693 0.530457
O O4 0.024557 0.857057 0.703868
O O5 0.024564 0.768262 0.280475
O O6 0.294530 0.574839 0.259490
O O7 0.933774 0.717146 0.997499
O O8 0.836977 0.063232 0.033385
O O9 0.460777 0.278237 0.532130
O O10 0.270186 0.300209 0.221299
O O11 0.500000 0.000000 0.500000
O O12 0.354310 0.604425 0.627075
O O13 0.704330 0.420926 0.963038
O O14 0.500000 0.500000 0.000000
#
# Coordination Sequence:
#
# PCOD9048995 Si02
#       7
#     2   2   2   2   2   1   2
#     4  12  24  45  70 100 139 174 222 282 347 399
#     4  11  23  43  69  97 136 184 226 277 338 400
#     4  11  27  45  69  94 133 184 229 275 331 403
#     4  11  22  43  69  99 136 173 219 281 342 400
#     4  12  22  42  69 100 137 173 219 284 342 400
#     4  10  24  46  64  94 132 178 236 268 324 402
#     4  12  25  39  66 108 136 173 224 283 341 406
#
# _framework density 21.305437000000001
#
# number of rings (size 3 to 8) (size 9 to 14) (size 15 to 20)
#    0.000    0.615    6.154    3.231    4.308    0.615 
#    0.000    3.077    0.000    0.000    0.000    0.000 
#    0.000    0.000    0.000    0.000    0.000    0.000 
#
# Total GULP energy -72383.179206 kJ/mol
# GULP energy per Si atom -5567.936862 kJ/mol
# Density = 2.125695 g / cm^3
# Si number density = 21.305437 Si / 1000 Ang^3
#
#
#
# Elastic Constant Matrix: (Units=GPa)
#
#
# Indices 1 2 3 4 5 6 
#
# 1 123.5074 24.5305 15.3879 2.5681 1.2109 -25.5435
# 2 24.5305 38.2666 11.7052 -9.7451 3.8164 -19.2823
# 3 15.3879 11.7052 45.1277 4.6922 2.0522 -2.8609
# 4 2.5681 -9.7451 4.6922 19.0566 1.6789 -1.2924
# 5 1.2109 3.8164 2.0522 1.6789 33.3894 -10.4438
# 6 -25.5435 -19.2823 -2.8609 -1.2924 -10.4438 39.3047
#
#
#
# Elastic Compliance Matrix: (Units=1/GPa)
#
#
# Indices 1 2 3 4 5 6 
#
# 1 0.010254 -0.004732 -0.001726 -0.003230 0.001879 0.004610
# 2 -0.004732 0.053809 -0.014334 0.033227 0.000591 0.023529
# 3 -0.001726 -0.014334 0.027568 -0.014231 -0.001469 -0.007005
# 4 -0.003230 0.033227 -0.014231 0.074593 -0.001823 0.015135
# 5 0.001879 0.000591 -0.001469 -0.001823 0.033174 0.010159
# 6 0.004610 0.023529 -0.007005 0.015135 0.010159 0.042668
#
#
# Mechanical properties :
#
#
# Convention : Reuss Voigt Hill
#
# Bulk Modulus (GPa) = 19.98110 34.46099 27.22105
# Shear Modulus (GPa) = 16.64822 28.70203 22.67513
#
# Velocity S-wave (km/s) = 2.79840 3.67436 3.26588
# Velocity P-wave (km/s) = 4.45423 5.84903 5.19862
#
# Compressibility (1/GPa) = 0.05004729
#
# Stress axis : x y z
#
# Youngs Moduli (GPa) = 97.52538 18.58414 36.27374
#
# Poissons Ratio (x) = 0.08794 0.06262
# Poissons Ratio (y) = 0.46149 0.51993
# Poissons Ratio (z) = 0.16837 0.26638
#
# Static dielectric constant tensor:
#      x y z
#    x 1.832210 -0.001160 -0.067920 
#    y -0.001160 1.796380 -0.007350 
#    z -0.067920 -0.007350 1.764940 
# 
# From -- ./inp_files/304365.got.cif
#   From: 2010.05.17/outbox.cif.g08.bks.cpg/sg2_153_cif.got.tgz:304365.got - 2010.06.03 11:33:40.
