data_PCOD9048465
_publ_section_title
;
Structure prediction by ZEFSAII (Michael W. Deem and Ramdas Pophale) SiO2 
 PCOD9048465
Probable space group: P -1
;
_chemical_formula_sum "Si O2"
_cell_formula_units_Z 16
_cell_length_a 6.209685
_cell_length_b 18.669702
_cell_length_c 8.663213
_cell_angle_alpha 52.005109
_cell_angle_beta 95.574730
_cell_angle_gamma 117.327387
_cell_volume 678.043615
_symmetry_space_group_name_H-M "P -1"
_symmetry_group_IT_number 2
_symmetry_cell_setting 'triclinic'
loop_
_space_group_symop_operation_xyz
x,y,z
-x,-y,-z
loop_
_atom_site_type_symbol
_atom_site_label
_atom_site_fract_x
_atom_site_fract_y
_atom_site_fract_z
Si Si1 0.964515 0.941715 0.823420
Si Si2 0.815269 0.552358 0.809564
Si Si3 0.063543 0.759408 0.044072
Si Si4 0.594741 0.920785 0.549201
Si Si5 0.534616 0.798392 0.166126
Si Si6 0.629741 0.267470 0.412761
Si Si7 0.328756 0.383098 0.581396
Si Si8 0.650456 0.651414 0.904247
O O1 0.766476 0.913863 0.704996
O O2 0.065985 0.862246 0.966461
O O3 0.782048 0.912918 0.998665
O O4 0.215427 0.039477 0.639097
O O5 0.722358 0.608352 0.609980
O O6 0.749203 0.577708 0.938391
O O7 0.115048 0.616622 0.724242
O O8 0.624425 0.427770 0.933782
O O9 0.927781 0.663771 0.280667
O O10 0.344119 0.785088 0.033828
O O11 0.874462 0.725430 0.933910
O O12 0.363149 0.811707 0.610066
O O13 0.500000 0.000000 0.500000
O O14 0.424004 0.781680 0.353871
O O15 0.582589 0.700832 0.278578
O O16 0.407791 0.284075 0.310444
O O17 0.500000 0.500000 0.500000
#
# Coordination Sequence:
#
# PCOD9048465 Si02
#       8
#     2   2   2   2   2   2   2   2
#     4  10  24  45  69 101 137 172 232 284 343 422
#     4  11  24  41  65 103 140 180 234 281 342 405
#     4  11  22  42  70  96 135 183 228 279 342 411
#     4  11  25  46  74 107 133 177 233 287 354 417
#     4  11  25  43  70 101 140 183 232 280 349 409
#     4  12  25  45  72 101 139 184 229 293 346 406
#     4  11  22  42  63  98 142 184 229 281 337 407
#     4  11  24  43  65 100 143 182 228 286 337 407
#
# _framework density 23.597301999999999
#
# number of rings (size 3 to 8) (size 9 to 14) (size 15 to 20)
#    0.000    1.000    5.000    1.125    3.500    1.000 
#    4.500    2.500    0.000    0.000    0.000    0.000 
#    0.000    0.000    0.000    0.000    0.000    0.000 
#
# Total GULP energy -89138.228291 kJ/mol
# GULP energy per Si atom -5571.139268 kJ/mol
# Density = 2.354359 g / cm^3
# Si number density = 23.597302 Si / 1000 Ang^3
#
#
#
# Elastic Constant Matrix: (Units=GPa)
#
#
# Indices 1 2 3 4 5 6 
#
# 1 79.8850 42.0651 33.4776 2.1986 7.0366 19.0672
# 2 42.0651 68.2486 0.1502 0.7347 0.8850 20.6700
# 3 33.4776 0.1502 91.4974 -4.2859 -8.5829 24.4438
# 4 2.1986 0.7347 -4.2859 28.5597 9.1278 0.2039
# 5 7.0366 0.8850 -8.5829 9.1278 47.5679 -3.8035
# 6 19.0672 20.6700 24.4438 0.2039 -3.8035 28.3550
#
#
#
# Elastic Compliance Matrix: (Units=1/GPa)
#
#
# Indices 1 2 3 4 5 6 
#
# 1 0.025400 -0.016693 -0.010798 -0.001646 -0.004778 0.003768
# 2 -0.016693 0.031549 0.012219 0.001835 0.001972 -0.022055
# 3 -0.010798 0.012219 0.020277 0.002733 0.003006 -0.018743
# 4 -0.001646 0.001835 0.002733 0.037716 -0.006837 -0.003775
# 5 -0.004778 0.001972 0.003006 -0.006837 0.023740 0.002418
# 6 0.003768 -0.022055 -0.018743 -0.003775 0.002418 0.065320
#
#
# Mechanical properties :
#
#
# Convention : Reuss Voigt Hill
#
# Bulk Modulus (GPa) = 21.42185 43.44631 32.43408
# Shear Modulus (GPa) = 19.99137 31.82572 25.90855
#
# Velocity S-wave (km/s) = 2.91381 3.67645 3.31712
# Velocity P-wave (km/s) = 4.51865 6.03931 5.33345
#
# Compressibility (1/GPa) = 0.04668131
#
# Stress axis : x y z
#
# Youngs Moduli (GPa) = 39.36978 31.69691 49.31612
#
# Poissons Ratio (x) = 0.52913 0.53253
# Poissons Ratio (y) = 0.65721 -0.60260
# Poissons Ratio (z) = 0.42512 -0.38731
#
# Static dielectric constant tensor:
#      x y z
#    x 2.254480 0.381460 -0.302830 
#    y 0.381460 2.378760 -0.268580 
#    z -0.302830 -0.268580 2.070500 
# 
# From -- ./inp_files/48353.got.cif
#   From: 2010.05.17/outbox.cif.g08.bks.cpg/sg2_25_cif.got.tgz:48353.got - 2010.06.03 11:33:40.
