data_PCOD9048012
_publ_section_title
;
Structure prediction by ZEFSAII (Michael W. Deem and Ramdas Pophale) SiO2 
 PCOD9048012
Probable space group: P -1
;
_chemical_formula_sum "Si O2"
_cell_formula_units_Z 14
_cell_length_a 10.338654
_cell_length_b 11.352293
_cell_length_c 11.619956
_cell_angle_alpha 92.663148
_cell_angle_beta 111.191072
_cell_angle_gamma 143.584380
_cell_volume 598.441453
_symmetry_space_group_name_H-M "P -1"
_symmetry_group_IT_number 2
_symmetry_cell_setting 'triclinic'
loop_
_space_group_symop_operation_xyz
x,y,z
-x,-y,-z
loop_
_atom_site_type_symbol
_atom_site_label
_atom_site_fract_x
_atom_site_fract_y
_atom_site_fract_z
Si Si1 0.229135 0.494679 0.490542
Si Si2 0.245588 0.725195 0.360018
Si Si3 0.075547 0.987413 0.231814
Si Si4 0.261729 0.361218 0.691083
Si Si5 0.828335 0.686129 0.770637
Si Si6 0.222521 0.570961 0.125778
Si Si7 0.265715 0.492887 0.914526
O O1 0.133792 0.549418 0.412836
O O2 0.575585 0.768645 0.642956
O O3 0.105434 0.338732 0.556850
O O4 0.190028 0.374290 0.367792
O O5 0.367139 0.739453 0.291332
O O6 0.976393 0.600172 0.219770
O O7 0.500000 0.000000 0.500000
O O8 0.015478 0.070975 0.166627
O O9 0.961655 0.888185 0.322015
O O10 0.910642 0.755097 0.108392
O O11 0.498733 0.465361 0.701106
O O12 0.419502 0.553720 0.854106
O O13 0.947489 0.668489 0.884898
O O14 0.404040 0.658860 0.077967
O O15 0.000000 0.500000 0.000000
#
# Coordination Sequence:
#
# PCOD9048012 Si02
#       7
#     2   2   2   2   2   2   2
#     4  10  19  32  54  83 110 144 183 225 270 316
#     4  10  17  34  58  81 106 145 188 222 268 323
#     4   9  18  33  51  84 108 141 179 220 273 320
#     4   9  19  33  52  83 111 143 175 230 264 329
#     4  10  20  33  56  82 107 148 179 220 278 319
#     4   9  20  36  57  79 110 143 182 225 269 328
#     4   9  19  34  53  82 109 147 176 222 277 311
#
# _framework density 23.394102
#
# number of rings (size 3 to 8) (size 9 to 14) (size 15 to 20)
#    0.857    1.714    1.429    1.714    0.000    4.000 
#    0.000    0.000    0.000    1.714    0.000    0.000 
#    0.000    0.000    0.000    0.000    0.000    0.000 
#
# Total GULP energy -78083.139239 kJ/mol
# GULP energy per Si atom -5577.367088 kJ/mol
# Density = 2.334086 g / cm^3
# Si number density = 23.394102 Si / 1000 Ang^3
#
#
#
# Elastic Constant Matrix: (Units=GPa)
#
#
# Indices 1 2 3 4 5 6 
#
# 1 65.5641 40.1139 32.3713 -9.9106 0.7794 -33.9675
# 2 40.1139 92.2718 28.4944 -31.1373 13.0722 -30.1958
# 3 32.3713 28.4944 93.4059 -18.7993 -12.7731 -17.7889
# 4 -9.9106 -31.1373 -18.7993 32.5873 -7.1913 7.3625
# 5 0.7794 13.0722 -12.7731 -7.1913 48.9042 -10.6750
# 6 -33.9675 -30.1958 -17.7889 7.3625 -10.6750 44.4050
#
#
#
# Elastic Compliance Matrix: (Units=1/GPa)
#
#
# Indices 1 2 3 4 5 6 
#
# 1 0.031539 -0.008231 -0.005470 -0.004715 0.003496 0.017959
# 2 -0.008231 0.022257 0.000342 0.017253 -0.001960 0.005644
# 3 -0.005470 0.000342 0.015366 0.008290 0.005709 0.002202
# 4 -0.004715 0.017253 0.008290 0.050852 0.006084 0.004478
# 5 0.003496 -0.001960 0.005709 0.006084 0.025196 0.008677
# 6 0.017959 0.005644 0.002202 0.004478 0.008677 0.042321
#
#
# Mechanical properties :
#
#
# Convention : Reuss Voigt Hill
#
# Bulk Modulus (GPa) = 23.56033 50.35567 36.95800
# Shear Modulus (GPa) = 21.89175 35.19679 28.54427
#
# Velocity S-wave (km/s) = 3.06237 3.88302 3.49685
# Velocity P-wave (km/s) = 4.75364 6.45565 5.66888
#
# Compressibility (1/GPa) = 0.04244423
#
# Stress axis : x y z
#
# Youngs Moduli (GPa) = 31.70672 44.92980 65.07966
#
# Poissons Ratio (x) = 0.36982 0.35598
# Poissons Ratio (y) = 0.26098 -0.02227
# Poissons Ratio (z) = 0.17343 -0.01538
#
# Static dielectric constant tensor:
#      x y z
#    x 1.928120 -0.005940 -0.008730 
#    y -0.005940 1.880210 -0.029300 
#    z -0.008730 -0.029300 1.899960 
# 
# From -- ./inp_files/336409.got.cif
#   From: 2010.05.17/outbox.cif.g08.bks.cpg/sg2_169_cif.got.tgz:336409.got - 2010.06.03 11:33:40.
