data_PCOD9048452
_publ_section_title
;
Structure prediction by ZEFSAII (Michael W. Deem and Ramdas Pophale) SiO2 
 PCOD9048452
Probable space group: P -1
;
_chemical_formula_sum "Si O2"
_cell_formula_units_Z 16
_cell_length_a 17.904117
_cell_length_b 11.100210
_cell_length_c 21.056893
_cell_angle_alpha 33.157878
_cell_angle_beta 158.308613
_cell_angle_gamma 133.629787
_cell_volume 761.851956
_symmetry_space_group_name_H-M "P -1"
_symmetry_group_IT_number 2
_symmetry_cell_setting 'triclinic'
loop_
_space_group_symop_operation_xyz
x,y,z
-x,-y,-z
loop_
_atom_site_type_symbol
_atom_site_label
_atom_site_fract_x
_atom_site_fract_y
_atom_site_fract_z
Si Si1 0.269250 0.673481 0.777696
Si Si2 0.500405 0.758736 0.376069
Si Si3 0.051666 0.575050 0.392354
Si Si4 0.707048 0.985449 0.027496
Si Si5 0.018609 0.519515 0.083048
Si Si6 0.468279 0.763936 0.020016
Si Si7 0.039932 0.993304 0.959275
Si Si8 0.081606 0.851199 0.772219
O O1 0.073304 0.582484 0.662954
O O2 0.500000 0.500000 0.000000
O O3 0.357125 0.668515 0.919955
O O4 0.146720 0.947054 0.529567
O O5 0.500000 0.500000 0.500000
O O6 0.298595 0.944613 0.176225
O O7 0.742919 0.708811 0.612286
O O8 0.436491 0.831425 0.221249
O O9 0.290913 0.422067 0.680838
O O10 0.869214 0.738228 0.228734
O O11 0.085901 0.750951 0.289628
O O12 0.529980 0.958886 0.946353
O O13 0.879799 0.057555 0.169026
O O14 0.871700 0.428671 0.052062
O O15 0.009247 0.774647 0.992002
O O16 0.000000 0.500000 0.000000
O O17 0.281740 0.853241 0.886810
O O18 0.000000 0.000000 0.000000
#
# Coordination Sequence:
#
# PCOD9048452 Si02
#       8
#     2   2   2   2   2   2   2   2
#     4  12  25  43  71 102 136 182 229 278 342 422
#     4   9  20  40  67  90 125 185 223 272 335 410
#     4  11  24  45  70  97 138 183 228 277 348 419
#     4  11  21  43  66  95 135 178 226 272 345 420
#     4  11  24  45  67  97 135 180 237 281 340 420
#     4  12  25  43  65 103 140 177 221 290 350 402
#     4  10  24  45  68  99 133 179 232 288 347 404
#     4  12  26  42  68 103 137 174 227 290 346 403
#
# _framework density 21.001453999999999
#
# number of rings (size 3 to 8) (size 9 to 14) (size 15 to 20)
#    0.000    1.000    2.500    4.875    3.500    3.000 
#    0.000    1.250    0.000    0.000    0.000    0.000 
#    0.000    0.000    0.000    0.000    0.000    0.000 
#
# Total GULP energy -89186.246611 kJ/mol
# GULP energy per Si atom -5574.140413 kJ/mol
# Density = 2.095365 g / cm^3
# Si number density = 21.001454 Si / 1000 Ang^3
#
#
#
# Elastic Constant Matrix: (Units=GPa)
#
#
# Indices 1 2 3 4 5 6 
#
# 1 119.1375 37.8058 47.9215 -5.4679 -32.1079 9.7933
# 2 37.8058 104.2244 41.9521 -1.4283 -21.7812 -1.0262
# 3 47.9215 41.9521 151.9286 5.6484 -37.2028 5.2368
# 4 -5.4679 -1.4283 5.6484 31.4469 2.5011 -15.5021
# 5 -32.1079 -21.7812 -37.2028 2.5011 23.6669 3.5381
# 6 9.7933 -1.0262 5.2368 -15.5021 3.5381 41.9562
#
#
#
# Elastic Compliance Matrix: (Units=1/GPa)
#
#
# Indices 1 2 3 4 5 6 
#
# 1 0.014623 -0.001374 0.001558 -0.002807 0.022301 -0.006559
# 2 -0.001374 0.012108 -0.001038 -0.000074 0.007644 0.000075
# 3 0.001558 -0.001038 0.012261 -0.006848 0.022099 -0.006313
# 4 -0.002807 -0.000074 -0.006848 0.043985 -0.022224 0.019634
# 5 0.022301 0.007644 0.022099 -0.022224 0.120540 -0.026153
# 6 -0.006559 0.000075 -0.006313 0.019634 -0.026153 0.035615
#
#
# Mechanical properties :
#
#
# Convention : Reuss Voigt Hill
#
# Bulk Modulus (GPa) = 26.82076 70.07216 48.44646
# Shear Modulus (GPa) = 19.74186 35.92140 27.83163
#
# Velocity S-wave (km/s) = 3.06931 4.14021 3.64431
# Velocity P-wave (km/s) = 5.03582 7.50287 6.38954
#
# Compressibility (1/GPa) = 0.03728455
#
# Stress axis : x y z
#
# Youngs Moduli (GPa) = 68.38309 82.58883 81.55989
#
# Poissons Ratio (x) = 0.11349 -0.12708
# Poissons Ratio (y) = 0.09397 0.08466
# Poissons Ratio (z) = -0.10655 0.08573
#
# Static dielectric constant tensor:
#      x y z
#    x 1.802500 0.004450 0.013730 
#    y 0.004450 1.804940 0.074370 
#    z 0.013730 0.074370 1.817880 
# 
# From -- ./inp_files/272849.got.cif
#   From: 2010.05.17/outbox.cif.g08.bks.cpg/sg2_137_cif.got.tgz:272849.got - 2010.06.03 11:33:40.
