data_PCOD9048870
_publ_section_title
;
Structure prediction by ZEFSAII (Michael W. Deem and Ramdas Pophale) SiO2 
 PCOD9048870
Probable space group: P -1
;
_chemical_formula_sum "Si O2"
_cell_formula_units_Z 13
_cell_length_a 14.465894
_cell_length_b 8.284625
_cell_length_c 9.008689
_cell_angle_alpha 97.212731
_cell_angle_beta 39.072851
_cell_angle_gamma 74.074754
_cell_volume 542.780344
_symmetry_space_group_name_H-M "P -1"
_symmetry_group_IT_number 2
_symmetry_cell_setting 'triclinic'
loop_
_space_group_symop_operation_xyz
x,y,z
-x,-y,-z
loop_
_atom_site_type_symbol
_atom_site_label
_atom_site_fract_x
_atom_site_fract_y
_atom_site_fract_z
Si Si1 0.738219 0.756839 0.320375
Si Si2 0.788711 0.090647 0.272136
Si Si3 0.500000 0.500000 0.500000
Si Si4 0.996318 0.551431 0.261421
Si Si5 0.995623 0.238312 0.438285
Si Si6 0.350751 0.738828 0.210931
Si Si7 0.391829 0.844454 0.883165
O O1 0.849919 0.656352 0.322808
O O2 0.527673 0.873800 0.631212
O O3 0.780763 0.905846 0.224467
O O4 0.810828 0.582635 0.084831
O O5 0.667276 0.282318 0.340391
O O6 0.702398 0.162097 0.551293
O O7 0.000000 0.000000 0.000000
O O8 0.459746 0.622395 0.721881
O O9 0.967939 0.408269 0.379407
O O10 0.993600 0.698184 0.400344
O O11 0.830928 0.222520 0.625788
O O12 0.183648 0.027518 0.138846
O O13 0.500000 0.500000 0.000000
O O14 0.418442 0.833290 0.026066
#
# Coordination Sequence:
#
# PCOD9048870 Si02
#       7
#     2   2   1   2   2   2   2
#     4  11  26  47  75 109 150 200 246 315 380 449
#     4  12  28  51  79 112 154 199 255 315 382 457
#     4  12  28  46  76 114 150 196 256 310 378 450
#     4  10  24  45  74 105 149 193 253 310 377 450
#     4  11  25  46  72 111 146 200 254 311 378 451
#     4  12  25  47  73 104 153 198 243 313 377 447
#     4  12  27  46  73 111 152 199 253 307 383 453
#
# _framework density 23.950759000000001
#
# number of rings (size 3 to 8) (size 9 to 14) (size 15 to 20)
#    0.000    0.615    1.538    5.077    6.462    7.385 
#    0.000    0.000    0.000    0.000    0.000    0.000 
#    0.000    0.000    0.000    0.000    0.000    0.000 
#
# Total GULP energy -72632.072269 kJ/mol
# GULP energy per Si atom -5587.082482 kJ/mol
# Density = 2.389625 g / cm^3
# Si number density = 23.950759 Si / 1000 Ang^3
#
#
#
# Elastic Constant Matrix: (Units=GPa)
#
#
# Indices 1 2 3 4 5 6 
#
# 1 77.3044 21.6318 42.3100 2.5082 20.8776 -18.3797
# 2 21.6318 90.7338 34.6817 10.5382 -8.1409 -20.8012
# 3 42.3100 34.6817 154.2671 5.8204 0.1986 0.8827
# 4 2.5082 10.5382 5.8204 47.5968 -3.8516 3.4519
# 5 20.8776 -8.1409 0.1986 -3.8516 59.0372 -0.2525
# 6 -18.3797 -20.8012 0.8827 3.4519 -0.2525 38.9280
#
#
#
# Elastic Compliance Matrix: (Units=1/GPa)
#
#
# Indices 1 2 3 4 5 6 
#
# 1 0.020425 -0.001235 -0.005314 -0.001420 -0.007429 0.009182
# 2 -0.001235 0.014767 -0.002906 -0.003219 0.002306 0.007674
# 3 -0.005314 -0.002906 0.008604 0.000299 0.001451 -0.004274
# 4 -0.001420 -0.003219 0.000299 0.022197 0.001487 -0.004356
# 5 -0.007429 0.002306 0.001451 0.001487 0.019966 -0.002311
# 6 0.009182 0.007674 -0.004274 -0.004356 -0.002311 0.034592
#
#
# Mechanical properties :
#
#
# Convention : Reuss Voigt Hill
#
# Bulk Modulus (GPa) = 40.18359 57.72805 48.95582
# Shear Modulus (GPa) = 33.83938 44.02454 38.93196
#
# Velocity S-wave (km/s) = 3.76290 4.29199 4.03612
# Velocity P-wave (km/s) = 5.97438 6.97973 6.49653
#
# Compressibility (1/GPa) = 0.02488578
#
# Stress axis : x y z
#
# Youngs Moduli (GPa) = 48.95909 67.72034 116.22035
#
# Poissons Ratio (x) = 0.08364 0.61755
# Poissons Ratio (y) = 0.06047 0.33779
# Poissons Ratio (z) = 0.26015 0.19683
#
# Static dielectric constant tensor:
#      x y z
#    x 1.834640 -0.128280 0.175130 
#    y -0.128280 1.750570 0.185540 
#    z 0.175130 0.185540 1.557620 
# 
# From -- ./inp_files/153069.got.cif
#   From: 2010.05.17/outbox.cif.g08.bks.cpg/sg2_77_cif.got.tgz:153069.got - 2010.06.03 11:33:40.
