data_PCOD9048087
_publ_section_title
;
Structure prediction by ZEFSAII (Michael W. Deem and Ramdas Pophale) SiO2 
 PCOD9048087
Probable space group: P -1
;
_chemical_formula_sum "Si O2"
_cell_formula_units_Z 14
_cell_length_a 21.114752
_cell_length_b 11.024325
_cell_length_c 14.971718
_cell_angle_alpha 152.684825
_cell_angle_beta 20.038422
_cell_angle_gamma 150.693526
_cell_volume 532.333546
_symmetry_space_group_name_H-M "P -1"
_symmetry_group_IT_number 2
_symmetry_cell_setting 'triclinic'
loop_
_space_group_symop_operation_xyz
x,y,z
-x,-y,-z
loop_
_atom_site_type_symbol
_atom_site_label
_atom_site_fract_x
_atom_site_fract_y
_atom_site_fract_z
Si Si1 0.737886 0.315799 0.563327
Si Si2 0.288041 0.304726 0.648441
Si Si3 0.995984 0.919325 0.276889
Si Si4 0.216968 0.354962 0.467558
Si Si5 0.594312 0.097003 0.343334
Si Si6 0.861966 0.484104 0.835229
Si Si7 0.590166 0.258927 0.894918
O O1 0.779235 0.488717 0.529550
O O2 0.641624 0.435747 0.852082
O O3 0.946783 0.303508 0.311192
O O4 0.584633 0.033809 0.566208
O O5 0.500000 0.500000 0.500000
O O6 0.140476 0.277621 0.742439
O O7 0.324660 0.002653 0.398849
O O8 0.190023 0.405082 0.929512
O O9 0.970248 0.788780 0.324856
O O10 0.212194 0.980655 0.996197
O O11 0.921226 0.194137 0.565821
O O12 0.329566 0.583758 0.536152
O O13 0.363857 0.163499 0.139537
O O14 0.500000 0.000000 0.500000
O O15 0.691837 0.435664 0.958337
#
# Coordination Sequence:
#
# PCOD9048087 Si02
#       7
#     2   2   2   2   2   2   2
#     4  11  26  47  71 106 144 195 241 298 362 429
#     4  11  24  46  75 104 148 190 240 298 368 432
#     4  11  25  46  75 111 144 189 241 304 360 432
#     4  11  24  46  74 108 146 188 243 298 364 434
#     4  10  24  44  73 105 147 187 239 298 362 430
#     4  11  26  47  73 106 146 187 247 297 359 431
#     4  11  26  45  73 108 143 193 242 301 360 426
#
# _framework density 26.299302000000001
#
# number of rings (size 3 to 8) (size 9 to 14) (size 15 to 20)
#    0.000    1.143    0.000    4.714   10.000    3.429 
#    0.000    0.000    0.000    0.000    0.000    0.000 
#    0.000    0.000    0.000    0.000    0.000    0.000 
#
# Total GULP energy -78289.356269 kJ/mol
# GULP energy per Si atom -5592.096876 kJ/mol
# Density = 2.623944 g / cm^3
# Si number density = 26.299302 Si / 1000 Ang^3
#
#
#
# Elastic Constant Matrix: (Units=GPa)
#
#
# Indices 1 2 3 4 5 6 
#
# 1 125.2761 57.1461 30.1101 -0.7405 26.0332 30.5852
# 2 57.1461 112.7611 52.8805 -25.2413 12.1055 17.6031
# 3 30.1101 52.8805 165.5132 -13.9924 25.0705 -8.0148
# 4 -0.7405 -25.2413 -13.9924 55.8262 1.9712 1.1033
# 5 26.0332 12.1055 25.0705 1.9712 42.3358 -4.0875
# 6 30.5852 17.6031 -8.0148 1.1033 -4.0875 53.2141
#
#
#
# Elastic Compliance Matrix: (Units=1/GPa)
#
#
# Indices 1 2 3 4 5 6 
#
# 1 0.013604 -0.005476 -0.000103 -0.001935 -0.007280 -0.006542
# 2 -0.005476 0.014871 -0.003482 0.005801 0.000679 -0.002364
# 3 -0.000103 -0.003482 0.007829 0.000465 -0.003394 0.002120
# 4 -0.001935 0.005801 0.000465 0.020717 -0.001835 -0.001307
# 5 -0.007280 0.000679 -0.003394 -0.001835 0.030562 0.005834
# 6 -0.006542 -0.002364 0.002120 -0.001307 0.005834 0.024129
#
#
# Mechanical properties :
#
#
# Convention : Reuss Voigt Hill
#
# Bulk Modulus (GPa) = 54.99951 75.98044 65.48997
# Shear Modulus (GPa) = 36.79314 47.83612 42.31463
#
# Velocity S-wave (km/s) = 3.74440 4.26950 4.01554
# Velocity P-wave (km/s) = 6.29701 7.29782 6.81581
#
# Compressibility (1/GPa) = 0.01818198
#
# Stress axis : x y z
#
# Youngs Moduli (GPa) = 73.50933 67.24297 127.72970
#
# Poissons Ratio (x) = 0.36825 0.01313
# Poissons Ratio (y) = 0.40257 0.44475
# Poissons Ratio (z) = 0.00756 0.23414
#
# Static dielectric constant tensor:
#      x y z
#    x 2.142450 -0.013440 0.000890 
#    y -0.013440 2.086310 0.008980 
#    z 0.000890 0.008980 2.092880 
# 
# From -- ./inp_files/541154.got.cif
#   From: 2010.05.17/outbox.cif.g08.bks.cpg/sg2_271_cif.got.tgz:541154.got - 2010.06.03 11:33:40.
