data_PCOD9048349
_publ_section_title
;
Structure prediction by ZEFSAII (Michael W. Deem and Ramdas Pophale) SiO2 
 PCOD9048349
Probable space group: P -1
;
_chemical_formula_sum "Si O2"
_cell_formula_units_Z 13
_cell_length_a 6.984733
_cell_length_b 7.806257
_cell_length_c 17.477716
_cell_angle_alpha 141.358718
_cell_angle_beta 70.335665
_cell_angle_gamma 98.368351
_cell_volume 549.105238
_symmetry_space_group_name_H-M "P -1"
_symmetry_group_IT_number 2
_symmetry_cell_setting 'triclinic'
loop_
_space_group_symop_operation_xyz
x,y,z
-x,-y,-z
loop_
_atom_site_type_symbol
_atom_site_label
_atom_site_fract_x
_atom_site_fract_y
_atom_site_fract_z
Si Si1 0.508299 0.458570 0.811167
Si Si2 0.022057 0.760011 0.656797
Si Si3 0.374424 0.273615 0.970734
Si Si4 0.933296 0.047686 0.614070
Si Si5 0.058926 0.362973 0.839922
Si Si6 0.500000 0.500000 0.500000
Si Si7 0.412823 0.344778 0.293672
O O1 0.687830 0.180349 0.698859
O O2 0.283654 0.409795 0.847058
O O3 0.501586 0.538002 0.751819
O O4 0.576804 0.700337 0.936661
O O5 0.250330 0.600286 0.590685
O O6 0.827217 0.671294 0.692076
O O7 0.013137 0.088009 0.791849
O O8 0.975173 0.794481 0.582334
O O9 0.465540 0.972162 0.819951
O O10 0.500000 0.500000 0.000000
O O11 0.130168 0.382438 0.031397
O O12 0.047731 0.270934 0.719517
O O13 0.000000 0.000000 0.500000
O O14 0.436548 0.525555 0.427201
#
# Coordination Sequence:
#
# PCOD9048349 Si02
#       7
#     2   2   2   2   2   1   2
#     4  11  24  42  68 105 138 172 232 281 344 401
#     4  10  24  45  67  96 140 180 228 279 337 410
#     4  11  23  46  74  98 140 180 228 280 344 406
#     4   9  20  40  67  93 136 184 225 279 329 405
#     4   9  23  41  68 102 129 182 229 273 336 411
#     4  12  28  42  72 102 138 178 236 274 344 404
#     4  12  26  46  68 104 142 180 222 291 342 399
#
# _framework density 23.674879000000001
#
# number of rings (size 3 to 8) (size 9 to 14) (size 15 to 20)
#    0.923    0.615    1.538    1.846    4.308    6.769 
#    0.000    0.000    0.000    0.000    0.000    0.000 
#    0.000    0.000    0.000    0.000    0.000    0.000 
#
# Total GULP energy -72439.803240 kJ/mol
# GULP energy per Si atom -5572.292557 kJ/mol
# Density = 2.362099 g / cm^3
# Si number density = 23.674879 Si / 1000 Ang^3
#
#
#
# Elastic Constant Matrix: (Units=GPa)
#
#
# Indices 1 2 3 4 5 6 
#
# 1 136.6603 3.8611 4.9292 9.6223 -26.4146 2.1747
# 2 3.8611 53.8279 -8.8042 -11.3236 3.4994 -4.0694
# 3 4.9292 -8.8042 48.1753 -16.4530 -3.9393 2.7788
# 4 9.6223 -11.3236 -16.4530 33.4072 -18.2497 -0.4409
# 5 -26.4146 3.4994 -3.9393 -18.2497 48.5982 -6.2645
# 6 2.1747 -4.0694 2.7788 -0.4409 -6.2645 20.0436
#
#
#
# Elastic Compliance Matrix: (Units=1/GPa)
#
#
# Indices 1 2 3 4 5 6 
#
# 1 0.008262 -0.001263 -0.001141 -0.001126 0.004100 0.000262
# 2 -0.001263 0.023890 0.010243 0.016498 0.005341 0.005599
# 3 -0.001141 0.010243 0.032417 0.025928 0.011238 0.001792
# 4 -0.001126 0.016498 0.025928 0.062324 0.024868 0.009020
# 5 0.004100 0.005341 0.011238 0.024868 0.033992 0.010252
# 6 0.000262 0.005599 0.001792 0.009020 0.010252 0.054154
#
#
# Mechanical properties :
#
#
# Convention : Reuss Voigt Hill
#
# Bulk Modulus (GPa) = 12.46125 26.51509 19.48817
# Shear Modulus (GPa) = 22.11324 36.32163 29.21743
#
# Velocity S-wave (km/s) = 3.05952 3.92112 3.51680
# Velocity P-wave (km/s) = 4.21376 5.63242 4.97393
#
# Compressibility (1/GPa) = 0.08024876
#
# Stress axis : x y z
#
# Youngs Moduli (GPa) = 121.03877 41.85774 30.84806
#
# Poissons Ratio (x) = 0.05286 0.03519
# Poissons Ratio (y) = 0.15286 -0.31599
# Poissons Ratio (z) = 0.13807 -0.42876
#
# Static dielectric constant tensor:
#      x y z
#    x 1.872420 -0.017200 0.058980 
#    y -0.017200 1.895880 0.033340 
#    z 0.058980 0.033340 1.995480 
# 
# From -- ./inp_files/547622.got.cif
#   From: 2010.05.17/outbox.cif.g08.bks.cpg/sg2_274_cif.got.tgz:547622.got - 2010.06.03 11:33:40.
