data_PCOD9048902
_publ_section_title
;
Structure prediction by ZEFSAII (Michael W. Deem and Ramdas Pophale) SiO2 
 PCOD9048902
Probable space group: P -1
;
_chemical_formula_sum "Si O2"
_cell_formula_units_Z 10
_cell_length_a 7.965093
_cell_length_b 9.498282
_cell_length_c 7.533197
_cell_angle_alpha 102.152334
_cell_angle_beta 68.964006
_cell_angle_gamma 52.384297
_cell_volume 342.926057
_symmetry_space_group_name_H-M "P -1"
_symmetry_group_IT_number 2
_symmetry_cell_setting 'triclinic'
loop_
_space_group_symop_operation_xyz
x,y,z
-x,-y,-z
loop_
_atom_site_type_symbol
_atom_site_label
_atom_site_fract_x
_atom_site_fract_y
_atom_site_fract_z
Si Si1 0.638612 0.289245 0.235824
Si Si2 0.964622 0.713707 0.778728
Si Si3 0.202384 0.503741 0.179855
Si Si4 0.783812 0.078975 0.750122
Si Si5 0.723585 0.948483 0.291259
O O1 0.347058 0.472564 0.296285
O O2 0.768345 0.357969 0.276561
O O3 0.639545 0.164623 0.350809
O O4 0.812348 0.123218 0.954847
O O5 0.960356 0.544442 0.728178
O O6 0.833560 0.879454 0.708840
O O7 0.755139 0.868894 0.061136
O O8 0.007104 0.733359 0.220902
O O9 0.466677 0.311253 0.901892
O O10 0.000000 0.000000 0.500000
O O11 0.500000 0.000000 0.500000
#
# Coordination Sequence:
#
# PCOD9048902 Si02
#       5
#     2   2   2   2   2
#     4   9  24  47  69 104 151 182 240 303 348 427
#     4  11  22  48  70 106 147 181 241 305 344 432
#     4  10  24  45  75 102 146 191 232 298 367 413
#     4   9  20  42  71 103 146 190 234 295 362 423
#     4  11  24  45  73 107 144 190 241 293 359 431
#
# _framework density 29.160805
#
# number of rings (size 3 to 8) (size 9 to 14) (size 15 to 20)
#    1.200    0.800    0.000    3.600    0.000    4.800 
#    0.000    9.000    0.000    1.200    0.000    0.000 
#    0.000    0.000    0.000    0.000    0.000    0.000 
#
# Total GULP energy -56086.606849 kJ/mol
# GULP energy per Si atom -5608.660685 kJ/mol
# Density = 2.909443 g / cm^3
# Si number density = 29.160805 Si / 1000 Ang^3
#
#
#
# Elastic Constant Matrix: (Units=GPa)
#
#
# Indices 1 2 3 4 5 6 
#
# 1 183.9773 88.8049 70.2494 -9.9465 -35.0519 18.9147
# 2 88.8049 261.5973 104.2815 -7.8925 -43.9301 12.3273
# 3 70.2494 104.2815 175.9386 -16.7264 -26.4455 6.5252
# 4 -9.9465 -7.8925 -16.7264 61.5847 -1.3159 -15.9009
# 5 -35.0519 -43.9301 -26.4455 -1.3159 66.0767 5.7962
# 6 18.9147 12.3273 6.5252 -15.9009 5.7962 55.1976
#
#
#
# Elastic Compliance Matrix: (Units=1/GPa)
#
#
# Indices 1 2 3 4 5 6 
#
# 1 0.007458 -0.001293 -0.001731 0.000023 0.002609 -0.002330
# 2 -0.001293 0.005651 -0.002514 -0.000340 0.002132 -0.000843
# 3 -0.001731 -0.002514 0.008105 0.001779 0.000634 0.000642
# 4 0.000023 -0.000340 0.001779 0.017979 0.000419 0.004993
# 5 0.002609 0.002132 0.000634 0.000419 0.018484 -0.003265
# 6 -0.002330 -0.000843 0.000642 0.004993 -0.003265 0.020809
#
#
# Mechanical properties :
#
#
# Convention : Reuss Voigt Hill
#
# Bulk Modulus (GPa) = 98.62458 127.57609 113.10033
# Shear Modulus (GPa) = 53.79674 60.45028 57.12351
#
# Velocity S-wave (km/s) = 4.29981 4.55796 4.43076
# Velocity P-wave (km/s) = 7.65150 8.45838 8.06504
#
# Compressibility (1/GPa) = 0.01013946
#
# Stress axis : x y z
#
# Youngs Moduli (GPa) = 134.07695 176.94777 123.37586
#
# Poissons Ratio (x) = 0.22888 0.21352
# Poissons Ratio (y) = 0.17342 0.31013
# Poissons Ratio (z) = 0.23204 0.44479
#
# Static dielectric constant tensor:
#      x y z
#    x 2.326090 -0.060890 -0.009190 
#    y -0.060890 2.154620 0.051310 
#    z -0.009190 0.051310 2.414320 
# 
# From -- ./inp_files/164670.got.cif
#   From: 2010.05.17/outbox.cif.g08.bks.cpg/sg2_83_cif.got.tgz:164670.got - 2010.06.03 11:33:40.
