data_PCOD9048595
_publ_section_title
;
Structure prediction by ZEFSAII (Michael W. Deem and Ramdas Pophale) SiO2 
 PCOD9048595
Probable space group: P -1
;
_chemical_formula_sum "Si O2"
_cell_formula_units_Z 16
_cell_length_a 22.614184
_cell_length_b 20.039184
_cell_length_c 9.330909
_cell_angle_alpha 29.945639
_cell_angle_beta 136.685642
_cell_angle_gamma 157.555317
_cell_volume 743.954272
_symmetry_space_group_name_H-M "P -1"
_symmetry_group_IT_number 2
_symmetry_cell_setting 'triclinic'
loop_
_space_group_symop_operation_xyz
x,y,z
-x,-y,-z
loop_
_atom_site_type_symbol
_atom_site_label
_atom_site_fract_x
_atom_site_fract_y
_atom_site_fract_z
Si Si1 0.691520 0.296756 0.281643
Si Si2 0.002075 0.155235 0.663121
Si Si3 0.751882 0.584353 0.619678
Si Si4 0.351733 0.260755 0.791722
Si Si5 0.139279 0.736087 0.414124
Si Si6 0.451555 0.083347 0.816232
Si Si7 0.367307 0.219912 0.223672
Si Si8 0.156813 0.547299 0.430368
O O1 0.765260 0.271402 0.366895
O O2 0.772469 0.409921 0.372069
O O3 0.500000 0.000000 0.500000
O O4 0.719630 0.470277 0.925247
O O5 0.080976 0.251672 0.464363
O O6 0.135957 0.409733 0.526739
O O7 0.818214 0.975513 0.692122
O O8 0.000000 0.000000 0.000000
O O9 0.754581 0.747017 0.346772
O O10 0.595914 0.338512 0.697298
O O11 0.500000 0.500000 0.500000
O O12 0.397657 0.266612 0.019603
O O13 0.246073 0.993890 0.045863
O O14 0.000000 0.500000 0.500000
O O15 0.033324 0.656186 0.504271
O O16 0.408570 0.129572 0.528545
O O17 0.282017 0.830739 0.076994
O O18 0.500000 0.000000 0.000000
O O19 0.500000 0.500000 0.000000
#
# Coordination Sequence:
#
# PCOD9048595 Si02
#       8
#     2   2   2   2   2   2   2   2
#     4  11  24  44  72 106 143 190 240 298 367 428
#     4  12  24  49  74 101 150 189 242 307 363 440
#     4  12  25  47  71 111 148 190 242 303 361 440
#     4  12  26  48  75 103 147 190 243 299 367 435
#     4  10  24  45  70 102 145 187 242 299 362 436
#     4  12  26  43  74 110 144 190 245 297 362 435
#     4  12  27  49  75 106 144 196 244 301 375 431
#     4  11  24  45  73 102 148 189 240 302 364 430
#
# _framework density 21.506698
#
# number of rings (size 3 to 8) (size 9 to 14) (size 15 to 20)
#    0.000    0.500    6.250    0.750    5.250    1.500 
#    2.250    3.125    0.000    0.000    0.000    0.000 
#    0.000    0.000    0.000    0.000    0.000    0.000 
#
# Total GULP energy -89403.041639 kJ/mol
# GULP energy per Si atom -5587.690102 kJ/mol
# Density = 2.145775 g / cm^3
# Si number density = 21.506698 Si / 1000 Ang^3
#
#
#
# Elastic Constant Matrix: (Units=GPa)
#
#
# Indices 1 2 3 4 5 6 
#
# 1 62.9587 22.9125 20.5566 8.8779 2.1318 -2.1571
# 2 22.9125 86.8280 38.3843 -0.9881 0.0310 2.7773
# 3 20.5566 38.3843 149.2692 17.1648 -0.2281 -4.0583
# 4 8.8779 -0.9881 17.1648 47.0115 1.0026 3.8653
# 5 2.1318 0.0310 -0.2281 1.0026 49.8175 -5.2681
# 6 -2.1571 2.7773 -4.0583 3.8653 -5.2681 32.5355
#
#
#
# Elastic Compliance Matrix: (Units=1/GPa)
#
#
# Indices 1 2 3 4 5 6 
#
# 1 0.018393 -0.004538 -0.000931 -0.003366 -0.000530 0.001805
# 2 -0.004538 0.014329 -0.003421 0.002597 -0.000124 -0.002279
# 3 -0.000931 -0.003421 0.008097 -0.002994 0.000313 0.001647
# 4 -0.003366 0.002597 -0.002994 0.023376 -0.000735 -0.003714
# 5 -0.000530 -0.000124 0.000313 -0.000735 0.020474 0.003417
# 6 0.001805 -0.002279 0.001647 -0.003714 0.003417 0.032250
#
#
# Mechanical properties :
#
#
# Convention : Reuss Voigt Hill
#
# Bulk Modulus (GPa) = 43.40206 51.41807 47.41007
# Shear Modulus (GPa) = 35.11790 40.35306 37.73548
#
# Velocity S-wave (km/s) = 4.04528 4.33633 4.19333
# Velocity P-wave (km/s) = 6.48410 7.00225 6.74815
#
# Compressibility (1/GPa) = 0.02304038
#
# Stress axis : x y z
#
# Youngs Moduli (GPa) = 54.36760 69.78762 123.50767
#
# Poissons Ratio (x) = 0.31670 0.11495
# Poissons Ratio (y) = 0.24672 0.42247
# Poissons Ratio (z) = 0.05060 0.23871
#
# Static dielectric constant tensor:
#      x y z
#    x 2.242820 0.099150 0.147700 
#    y 0.099150 1.844420 0.035750 
#    z 0.147700 0.035750 1.846370 
# 
# From -- ./inp_files/355260.got.cif
#   From: 2010.05.17/outbox.cif.g08.bks.cpg/sg2_178_cif.got.tgz:355260.got - 2010.06.03 11:33:40.
