data_PCOD9048967
_publ_section_title
;
Structure prediction by ZEFSAII (Michael W. Deem and Ramdas Pophale) SiO2 
 PCOD9048967
Probable space group: P -1
;
_chemical_formula_sum "Si O2"
_cell_formula_units_Z 12
_cell_length_a 7.391024
_cell_length_b 9.017297
_cell_length_c 11.339428
_cell_angle_alpha 91.702609
_cell_angle_beta 57.856243
_cell_angle_gamma 57.032537
_cell_volume 479.598547
_symmetry_space_group_name_H-M "P -1"
_symmetry_group_IT_number 2
_symmetry_cell_setting 'triclinic'
loop_
_space_group_symop_operation_xyz
x,y,z
-x,-y,-z
loop_
_atom_site_type_symbol
_atom_site_label
_atom_site_fract_x
_atom_site_fract_y
_atom_site_fract_z
Si Si1 0.288928 0.249087 0.331646
Si Si2 0.906423 0.940910 0.197000
Si Si3 0.170257 0.704865 0.648383
Si Si4 0.801186 0.516278 0.168479
Si Si5 0.476484 0.592440 0.886790
Si Si6 0.250966 0.232480 0.606750
O O1 0.614781 0.040145 0.228677
O O2 0.318746 0.373676 0.233840
O O3 0.054832 0.235944 0.373414
O O4 0.781931 0.675488 0.506019
O O5 0.847940 0.117734 0.295923
O O6 0.828590 0.183061 0.985966
O O7 0.978132 0.776675 0.262432
O O8 0.500000 0.500000 0.500000
O O9 0.045426 0.669157 0.802011
O O10 0.561676 0.523616 0.194678
O O11 0.686892 0.687390 0.305227
O O12 0.000000 0.500000 0.000000
O O13 0.500000 0.500000 0.000000
O O14 0.500000 0.000000 0.500000
#
# Coordination Sequence:
#
# PCOD9048967 Si02
#       6
#     2   2   2   2   2   2
#     4  11  26  49  80 112 158 207 259 323 392 461
#     4  11  25  51  75 116 159 206 260 324 387 466
#     4  12  28  48  80 116 154 209 264 322 391 465
#     4  12  25  47  75 111 155 206 259 315 388 468
#     4  12  27  48  79 118 160 206 260 325 397 466
#     4  10  24  45  78 111 154 201 255 324 383 457
#
# _framework density 25.020925999999999
#
# number of rings (size 3 to 8) (size 9 to 14) (size 15 to 20)
#    0.000    0.667    3.333    3.500    0.000    8.000 
#    0.000    0.000    0.000    0.000    0.000    0.000 
#    0.000    0.000    0.000    0.000    0.000    0.000 
#
# Total GULP energy -67009.404383 kJ/mol
# GULP energy per Si atom -5584.117032 kJ/mol
# Density = 2.496398 g / cm^3
# Si number density = 25.020926 Si / 1000 Ang^3
#
#
#
# Elastic Constant Matrix: (Units=GPa)
#
#
# Indices 1 2 3 4 5 6 
#
# 1 185.2444 38.4861 57.4277 20.3553 17.2399 18.7777
# 2 38.4861 128.4564 41.9652 -19.6152 12.2673 21.2810
# 3 57.4277 41.9652 151.7191 0.8406 -5.8090 -0.1907
# 4 20.3553 -19.6152 0.8406 59.6571 2.2262 5.8160
# 5 17.2399 12.2673 -5.8090 2.2262 64.1510 9.2463
# 6 18.7777 21.2810 -0.1907 5.8160 9.2463 45.2012
#
#
#
# Elastic Compliance Matrix: (Units=1/GPa)
#
#
# Indices 1 2 3 4 5 6 
#
# 1 0.006980 -0.001303 -0.002327 -0.002559 -0.001510 -0.001658
# 2 -0.001303 0.010603 -0.002523 0.004481 -0.001376 -0.004757
# 3 -0.002327 -0.002523 0.008236 -0.000398 0.001591 0.001915
# 4 -0.002559 0.004481 -0.000398 0.019468 -0.000380 -0.003476
# 5 -0.001510 -0.001376 0.001591 -0.000380 0.016715 -0.002089
# 6 -0.001658 -0.004757 0.001915 -0.003476 -0.002089 0.025934
#
#
# Mechanical properties :
#
#
# Convention : Reuss Voigt Hill
#
# Bulk Modulus (GPa) = 74.00857 82.35310 78.18084
# Shear Modulus (GPa) = 47.73396 55.63791 51.68593
#
# Velocity S-wave (km/s) = 4.37253 4.72068 4.54994
# Velocity P-wave (km/s) = 7.42529 7.91822 7.67571
#
# Compressibility (1/GPa) = 0.01351195
#
# Stress axis : x y z
#
# Youngs Moduli (GPa) = 143.26007 94.31207 121.42507
#
# Poissons Ratio (x) = 0.12288 0.28261
# Poissons Ratio (y) = 0.18666 0.30637
# Poissons Ratio (z) = 0.33343 0.23796
#
# Static dielectric constant tensor:
#      x y z
#    x 1.887390 0.081980 0.090110 
#    y 0.081980 1.975680 -0.094380 
#    z 0.090110 -0.094380 2.113070 
# 
# From -- ./inp_files/376279.got.cif
#   From: 2010.05.17/outbox.cif.g08.bks.cpg/sg2_189_cif.got.tgz:376279.got - 2010.06.03 11:33:40.
