data_PCOD9048413
_publ_section_title
;
Structure prediction by ZEFSAII (Michael W. Deem and Ramdas Pophale) SiO2 
 PCOD9048413
Probable space group: P -1
;
_chemical_formula_sum "Si O2"
_cell_formula_units_Z 16
_cell_length_a 8.048787
_cell_length_b 8.637734
_cell_length_c 20.225735
_cell_angle_alpha 53.830292
_cell_angle_beta 143.152595
_cell_angle_gamma 127.668069
_cell_volume 652.154696
_symmetry_space_group_name_H-M "P -1"
_symmetry_group_IT_number 2
_symmetry_cell_setting 'triclinic'
loop_
_space_group_symop_operation_xyz
x,y,z
-x,-y,-z
loop_
_atom_site_type_symbol
_atom_site_label
_atom_site_fract_x
_atom_site_fract_y
_atom_site_fract_z
Si Si1 0.796473 0.942474 0.679930
Si Si2 0.117357 0.390352 0.692918
Si Si3 0.179391 0.635406 0.251326
Si Si4 0.216805 0.702275 0.881165
Si Si5 0.255911 0.070996 0.484443
Si Si6 0.790452 0.682076 0.470533
Si Si7 0.687020 0.518972 0.912380
Si Si8 0.706985 0.933603 0.881334
O O1 0.711439 0.869842 0.596426
O O2 0.005144 0.167681 0.686333
O O3 0.505235 0.971025 0.611177
O O4 0.978044 0.807484 0.803821
O O5 0.458150 0.454752 0.797097
O O6 0.977091 0.392222 0.720622
O O7 0.994998 0.538761 0.572923
O O8 0.485160 0.587094 0.363479
O O9 0.961307 0.495449 0.165306
O O10 0.275152 0.869395 0.204387
O O11 0.431294 0.857142 0.861195
O O12 0.397032 0.633272 0.013380
O O13 0.957454 0.898150 0.440008
O O14 0.267542 0.256448 0.488413
O O15 0.699689 0.740144 0.884195
O O16 0.000000 0.500000 0.000000
O O17 0.000000 0.000000 0.000000
#
# Coordination Sequence:
#
# PCOD9048413 Si02
#       8
#     2   2   2   2   2   2   2   2
#     4  11  26  44  70 103 150 187 236 306 363 420
#     4  12  27  45  72 107 151 191 245 301 365 430
#     4  12  25  47  79 109 144 195 245 296 361 443
#     4  12  27  51  75 107 147 194 246 300 362 437
#     4  10  24  45  68 107 143 193 239 295 360 436
#     4  11  25  44  75 105 144 195 243 291 364 440
#     4  12  30  48  75 110 148 189 245 309 364 428
#     4  12  26  50  79 107 142 196 250 295 367 436
#
# _framework density 24.534056
#
# number of rings (size 3 to 8) (size 9 to 14) (size 15 to 20)
#    0.000    0.500    3.750    3.000   12.250    2.000 
#    0.000    0.000    0.000    0.000    0.000    0.000 
#    0.000    0.000    0.000    0.000    0.000    0.000 
#
# Total GULP energy -89731.642685 kJ/mol
# GULP energy per Si atom -5608.227668 kJ/mol
# Density = 2.447822 g / cm^3
# Si number density = 24.534056 Si / 1000 Ang^3
#
#
#
# Elastic Constant Matrix: (Units=GPa)
#
#
# Indices 1 2 3 4 5 6 
#
# 1 48.3581 2.2868 9.9015 -0.5772 13.0051 4.7524
# 2 2.2868 78.7738 16.2512 -13.5672 14.6649 -0.1093
# 3 9.9015 16.2512 129.3478 -2.5147 23.1364 2.0010
# 4 -0.5772 -13.5672 -2.5147 50.3784 7.3889 1.9843
# 5 13.0051 14.6649 23.1364 7.3889 36.4895 4.8435
# 6 4.7524 -0.1093 2.0010 1.9843 4.8435 39.3318
#
#
#
# Elastic Compliance Matrix: (Units=1/GPa)
#
#
# Indices 1 2 3 4 5 6 
#
# 1 0.023245 0.001366 -0.000311 0.001980 -0.008798 -0.001806
# 2 0.001366 0.014998 -0.000606 0.005063 -0.007227 0.000542
# 3 -0.000311 -0.000606 0.008830 0.001071 -0.005489 0.000209
# 4 0.001980 0.005063 0.001071 0.022467 -0.007911 -0.000439
# 5 -0.008798 -0.007227 -0.005489 -0.007911 0.038936 -0.003073
# 6 -0.001806 0.000542 0.000209 -0.000439 -0.003073 0.026034
#
#
# Mechanical properties :
#
#
# Convention : Reuss Voigt Hill
#
# Bulk Modulus (GPa) = 20.84583 34.81763 27.83173
# Shear Modulus (GPa) = 33.42159 40.44264 36.93212
#
# Velocity S-wave (km/s) = 3.69488 4.06449 3.88408
# Velocity P-wave (km/s) = 5.16894 6.02072 5.61102
#
# Compressibility (1/GPa) = 0.04797123
#
# Stress axis : x y z
#
# Youngs Moduli (GPa) = 43.01958 66.67460 113.24405
#
# Poissons Ratio (x) = -0.09106 0.03521
# Poissons Ratio (y) = -0.05875 0.06864
# Poissons Ratio (z) = 0.01338 0.04041
#
# Static dielectric constant tensor:
#      x y z
#    x 2.016340 0.037010 -0.010060 
#    y 0.037010 1.882500 -0.029110 
#    z -0.010060 -0.029110 1.942500 
# 
# From -- ./inp_files/273766.got.cif
#   From: 2010.05.17/outbox.cif.g08.bks.cpg/sg2_137_cif.got.tgz:273766.got - 2010.06.03 11:33:40.
