data_PCOD9048284
_publ_section_title
;
Structure prediction by ZEFSAII (Michael W. Deem and Ramdas Pophale) SiO2 
 PCOD9048284
Probable space group: P -1
;
_chemical_formula_sum "Si O2"
_cell_formula_units_Z 10
_cell_length_a 9.153871
_cell_length_b 12.268273
_cell_length_c 7.794977
_cell_angle_alpha 99.425054
_cell_angle_beta 47.295913
_cell_angle_gamma 63.395958
_cell_volume 404.195542
_symmetry_space_group_name_H-M "P -1"
_symmetry_group_IT_number 2
_symmetry_cell_setting 'triclinic'
loop_
_space_group_symop_operation_xyz
x,y,z
-x,-y,-z
loop_
_atom_site_type_symbol
_atom_site_label
_atom_site_fract_x
_atom_site_fract_y
_atom_site_fract_z
Si Si1 0.328268 0.183790 0.121688
Si Si2 0.378105 0.935564 0.513297
Si Si3 0.348154 0.394546 0.661398
Si Si4 0.222457 0.834323 0.150133
Si Si5 0.386023 0.522407 0.314195
O O1 0.959944 0.328853 0.448717
O O2 0.432022 0.165147 0.839889
O O3 0.477494 0.216085 0.125450
O O4 0.500000 0.000000 0.000000
O O5 0.445680 0.804544 0.548523
O O6 0.500000 0.000000 0.500000
O O7 0.015146 0.093663 0.793920
O O8 0.360087 0.460571 0.495478
O O9 0.475750 0.420670 0.716782
O O10 0.000000 0.500000 0.000000
O O11 0.374758 0.652568 0.035239
O O12 0.000000 0.000000 0.500000
#
# Coordination Sequence:
#
# PCOD9048284 Si02
#       5
#     2   2   2   2   2
#     4  11  24  45  67 105 146 187 240 291 363 431
#     4  11  24  44  71 104 146 187 239 299 355 425
#     4  11  23  43  72 109 143 179 245 301 357 424
#     4  10  24  45  66 102 143 188 237 292 361 423
#     4  11  24  44  75 104 142 193 238 295 361 427
#
# _framework density 24.740497999999999
#
# number of rings (size 3 to 8) (size 9 to 14) (size 15 to 20)
#    0.000    1.200    2.000    3.000    5.600    0.800 
#    0.000    8.000    0.000    0.000    0.000    0.000 
#    0.000    0.000    0.000    0.000    0.000    0.000 
#
# Total GULP energy -55997.823462 kJ/mol
# GULP energy per Si atom -5599.782346 kJ/mol
# Density = 2.468419 g / cm^3
# Si number density = 24.740498 Si / 1000 Ang^3
#
#
#
# Elastic Constant Matrix: (Units=GPa)
#
#
# Indices 1 2 3 4 5 6 
#
# 1 206.1463 74.9512 76.0467 11.7787 -63.2495 19.7329
# 2 74.9512 155.8065 59.8452 28.7645 -36.9212 10.4670
# 3 76.0467 59.8452 158.5098 13.3612 -42.2974 -12.1413
# 4 11.7787 28.7645 13.3612 62.5345 -13.3356 -5.1503
# 5 -63.2495 -36.9212 -42.2974 -13.3356 65.0496 -3.6481
# 6 19.7329 10.4670 -12.1413 -5.1503 -3.6481 50.7422
#
#
#
# Elastic Compliance Matrix: (Units=1/GPa)
#
#
# Indices 1 2 3 4 5 6 
#
# 1 0.008206 -0.001761 -0.002045 0.000667 0.005627 -0.002845
# 2 -0.001761 0.009130 -0.002126 -0.003296 0.001303 -0.001948
# 3 -0.002045 -0.002126 0.009155 0.000358 0.003037 0.003679
# 4 0.000667 -0.003296 0.000358 0.018128 0.002869 0.002553
# 5 0.005627 0.001303 0.003037 0.002869 0.024164 0.000298
# 6 -0.002845 -0.001948 0.003679 0.002553 0.000298 0.022377
#
#
# Mechanical properties :
#
#
# Convention : Reuss Voigt Hill
#
# Bulk Modulus (GPa) = 68.36369 104.68320 86.52345
# Shear Modulus (GPa) = 46.34024 56.30654 51.32339
#
# Velocity S-wave (km/s) = 4.33257 4.77580 4.55957
# Velocity P-wave (km/s) = 7.26089 8.53319 7.92262
#
# Compressibility (1/GPa) = 0.01462765
#
# Stress axis : x y z
#
# Youngs Moduli (GPa) = 121.85906 109.52964 109.23487
#
# Poissons Ratio (x) = 0.19285 0.22336
# Poissons Ratio (y) = 0.21456 0.23224
# Poissons Ratio (z) = 0.24917 0.23287
#
# Static dielectric constant tensor:
#      x y z
#    x 1.865400 -0.178620 0.235850 
#    y -0.178620 1.795260 0.138980 
#    z 0.235850 0.138980 1.885980 
# 
# From -- ./inp_files/57380.got.cif
#   From: 2010.05.17/outbox.cif.g08.bks.cpg/sg2_29_cif.got.tgz:57380.got - 2010.06.03 11:33:40.
