data_PCOD9048577
_publ_section_title
;
Structure prediction by ZEFSAII (Michael W. Deem and Ramdas Pophale) SiO2 
 PCOD9048577
Probable space group: P -1
;
_chemical_formula_sum "Si O2"
_cell_formula_units_Z 14
_cell_length_a 14.680934
_cell_length_b 30.119288
_cell_length_c 23.707263
_cell_angle_alpha 10.104119
_cell_angle_beta 160.075288
_cell_angle_gamma 160.225347
_cell_volume 605.387826
_symmetry_space_group_name_H-M "P -1"
_symmetry_group_IT_number 2
_symmetry_cell_setting 'triclinic'
loop_
_space_group_symop_operation_xyz
x,y,z
-x,-y,-z
loop_
_atom_site_type_symbol
_atom_site_label
_atom_site_fract_x
_atom_site_fract_y
_atom_site_fract_z
Si Si1 0.189501 0.430865 0.845685
Si Si2 0.797527 0.714104 0.746010
Si Si3 0.618184 0.144505 0.830646
Si Si4 0.334113 0.224800 0.777005
Si Si5 0.186844 0.605849 0.746874
Si Si6 0.383158 0.975189 0.237845
Si Si7 0.677169 0.438596 0.903250
O O1 0.124995 0.419284 0.889459
O O2 0.947253 0.240752 0.908527
O O3 0.150679 0.727155 0.437084
O O4 0.476929 0.336469 0.125953
O O5 0.678893 0.534823 0.848115
O O6 0.558149 0.784866 0.553473
O O7 0.932451 0.545006 0.077108
O O8 0.000000 0.000000 0.500000
O O9 0.474971 0.379093 0.447445
O O10 0.500000 0.000000 0.000000
O O11 0.568663 0.981066 0.948543
O O12 0.500000 0.500000 0.500000
O O13 0.001446 0.192230 0.620854
O O14 0.375178 0.160080 0.947897
O O15 0.527012 0.147521 0.158956
O O16 0.000000 0.500000 0.000000
#
# Coordination Sequence:
#
# PCOD9048577 Si02
#       7
#     2   2   2   2   2   2   2
#     4  10  25  50  71 101 142 190 243 293 365 428
#     4  11  22  43  70 104 144 180 238 293 349 427
#     4  12  28  46  72 104 142 185 246 302 358 435
#     4  12  25  45  73 108 148 186 240 298 358 419
#     4  10  24  45  70 101 143 188 230 296 355 420
#     4  11  24  47  71 101 146 187 232 297 355 426
#     4  12  26  42  73 108 137 191 237 291 365 421
#
# _framework density 23.125671000000001
#
# number of rings (size 3 to 8) (size 9 to 14) (size 15 to 20)
#    0.000    0.857    2.857    3.429    4.000    4.571 
#    5.143    0.000    0.000    0.000    0.000    0.000 
#    0.000    0.000    0.000    0.000    0.000    0.000 
#
# Total GULP energy -77998.146222 kJ/mol
# GULP energy per Si atom -5571.296159 kJ/mol
# Density = 2.307304 g / cm^3
# Si number density = 23.125671 Si / 1000 Ang^3
#
#
#
# Elastic Constant Matrix: (Units=GPa)
#
#
# Indices 1 2 3 4 5 6 
#
# 1 69.2955 16.1556 24.4383 -12.5377 2.0036 -21.7222
# 2 16.1556 89.9842 27.0530 -4.4404 2.0246 -15.9546
# 3 24.4383 27.0530 63.9203 10.8327 15.9901 -10.2636
# 4 -12.5377 -4.4404 10.8327 42.4938 -6.1855 11.7177
# 5 2.0036 2.0246 15.9901 -6.1855 44.2422 9.4952
# 6 -21.7222 -15.9546 -10.2636 11.7177 9.4952 31.7424
#
#
#
# Elastic Compliance Matrix: (Units=1/GPa)
#
#
# Indices 1 2 3 4 5 6 
#
# 1 0.021203 0.000592 -0.007795 0.005587 0.000445 0.010091
# 2 0.000592 0.013615 -0.005812 0.001978 0.000782 0.004405
# 3 -0.007795 -0.005812 0.029158 -0.015556 -0.014510 0.011255
# 4 0.005587 0.001978 -0.015556 0.036350 0.014198 -0.017878
# 5 0.000445 0.000782 -0.014510 0.014198 0.033937 -0.019387
# 6 0.010091 0.004405 0.011255 -0.017878 -0.019387 0.056661
#
#
# Mechanical properties :
#
#
# Convention : Reuss Voigt Hill
#
# Bulk Modulus (GPa) = 26.35356 39.83264 33.09310
# Shear Modulus (GPa) = 21.77665 34.06590 27.92127
#
# Velocity S-wave (km/s) = 3.07199 3.84223 3.47849
# Velocity P-wave (km/s) = 4.89932 6.07828 5.52036
#
# Compressibility (1/GPa) = 0.03794554
#
# Stress axis : x y z
#
# Youngs Moduli (GPa) = 47.16247 73.44721 34.29626
#
# Poissons Ratio (x) = -0.04345 0.26733
# Poissons Ratio (y) = -0.02790 0.19933
# Poissons Ratio (z) = 0.36762 0.42689
#
# Static dielectric constant tensor:
#      x y z
#    x -1.936490 -3.284250 1.751450 
#    y -3.284250 -0.878580 1.512340 
#    z 1.751450 1.512340 1.028370 
# 
# From -- ./inp_files/612471.got.cif
#   From: 2010.05.17/outbox.cif.g08.bks.cpg/sg2_307_cif.got.tgz:612471.got - 2010.06.03 11:33:40.
