data_PCOD9048670
_publ_section_title
;
Structure prediction by ZEFSAII (Michael W. Deem and Ramdas Pophale) SiO2 
 PCOD9048670
Probable space group: P -1
;
_chemical_formula_sum "Si O2"
_cell_formula_units_Z 14
_cell_length_a 12.855837
_cell_length_b 12.182912
_cell_length_c 11.400387
_cell_angle_alpha 145.560218
_cell_angle_beta 143.941421
_cell_angle_gamma 47.638135
_cell_volume 594.243932
_symmetry_space_group_name_H-M "P -1"
_symmetry_group_IT_number 2
_symmetry_cell_setting 'triclinic'
loop_
_space_group_symop_operation_xyz
x,y,z
-x,-y,-z
loop_
_atom_site_type_symbol
_atom_site_label
_atom_site_fract_x
_atom_site_fract_y
_atom_site_fract_z
Si Si1 0.442806 0.907841 0.182834
Si Si2 0.408236 0.754583 0.253941
Si Si3 0.405318 0.202049 0.119488
Si Si4 0.994173 0.266398 0.779911
Si Si5 0.827095 0.002629 0.596239
Si Si6 0.430923 0.461969 0.593760
Si Si7 0.145481 0.750274 0.620154
O O1 0.424215 0.741268 0.118367
O O2 0.438121 0.101982 0.430316
O O3 0.638122 0.914046 0.312176
O O4 0.292278 0.884246 0.930370
O O5 0.227529 0.867673 0.226265
O O6 0.441560 0.575943 0.213282
O O7 0.493130 0.365431 0.262948
O O8 0.428699 0.279910 0.342931
O O9 0.197577 0.199456 0.902585
O O10 0.500000 0.000000 0.000000
O O11 0.899036 0.153522 0.698735
O O12 0.895365 0.222744 0.530428
O O13 0.000000 0.500000 0.000000
O O14 0.965245 0.825596 0.582898
O O15 0.235719 0.535646 0.521402
#
# Coordination Sequence:
#
# PCOD9048670 Si02
#       7
#     2   2   2   2   2   2   2
#     4   9  24  48  75  98 139 192 242 297 361 407
#     4   9  22  49  73 101 138 187 247 295 349 428
#     4  11  26  44  72 102 151 193 230 288 365 436
#     4  12  25  44  63 109 148 179 236 291 356 440
#     4  10  24  45  71 101 141 189 234 295 361 427
#     4  11  25  43  71 108 141 191 241 291 360 424
#     4  12  26  42  71 107 142 186 237 293 362 428
#
# _framework density 23.559349000000001
#
# number of rings (size 3 to 8) (size 9 to 14) (size 15 to 20)
#    0.857    0.571    1.429    2.143   10.000    1.714 
#    0.000    0.714    0.000    0.000    0.000    0.000 
#    0.000    0.000    0.000    0.000    0.000    0.000 
#
# Total GULP energy -78256.960049 kJ/mol
# GULP energy per Si atom -5589.782861 kJ/mol
# Density = 2.350573 g / cm^3
# Si number density = 23.559349 Si / 1000 Ang^3
#
#
#
# Elastic Constant Matrix: (Units=GPa)
#
#
# Indices 1 2 3 4 5 6 
#
# 1 120.0035 73.7594 46.5591 -7.0951 0.3213 -8.8669
# 2 73.7594 145.9567 47.2109 3.0117 7.5874 -35.0056
# 3 46.5591 47.2109 119.3421 -14.2807 -13.9692 -9.6991
# 4 -7.0951 3.0117 -14.2807 48.2299 -11.9951 1.3762
# 5 0.3213 7.5874 -13.9692 -11.9951 29.6935 -1.7789
# 6 -8.8669 -35.0056 -9.6991 1.3762 -1.7789 47.2230
#
#
#
# Elastic Compliance Matrix: (Units=1/GPa)
#
#
# Indices 1 2 3 4 5 6 
#
# 1 0.013326 -0.006792 -0.002385 0.002042 0.001112 -0.003040
# 2 -0.006792 0.013795 -0.003477 -0.004743 -0.006516 0.008129
# 3 -0.002385 -0.003477 0.012420 0.005812 0.009087 -0.000301
# 4 0.002042 -0.004743 0.005812 0.026744 0.014598 -0.002168
# 5 0.001112 -0.006516 0.009087 0.014598 0.045414 -0.001470
# 6 -0.003040 0.008129 -0.000301 -0.002168 -0.001470 0.026577
#
#
# Mechanical properties :
#
#
# Convention : Reuss Voigt Hill
#
# Bulk Modulus (GPa) = 70.25723 80.04010 75.14867
# Shear Modulus (GPa) = 29.70412 39.54746 34.62579
#
# Velocity S-wave (km/s) = 3.55466 4.10156 3.83786
# Velocity P-wave (km/s) = 6.83619 7.51518 7.18371
#
# Compressibility (1/GPa) = 0.01423341
#
# Stress axis : x y z
#
# Youngs Moduli (GPa) = 75.04065 72.49256 80.51791
#
# Poissons Ratio (x) = 0.49238 0.19200
# Poissons Ratio (y) = 0.50969 0.27994
# Poissons Ratio (z) = 0.17894 0.25204
#
# Static dielectric constant tensor:
#      x y z
#    x 1.925660 0.021300 0.005230 
#    y 0.021300 1.983420 0.078240 
#    z 0.005230 0.078240 1.906230 
# 
# From -- ./inp_files/533942.got.cif
#   From: 2010.05.17/outbox.cif.g08.bks.cpg/sg2_267_cif.got.tgz:533942.got - 2010.06.03 11:33:40.
