data_PCOD9048425
_publ_section_title
;
Structure prediction by ZEFSAII (Michael W. Deem and Ramdas Pophale) SiO2 
 PCOD9048425
Probable space group: P -1
;
_chemical_formula_sum "Si O2"
_cell_formula_units_Z 14
_cell_length_a 19.350341
_cell_length_b 6.750768
_cell_length_c 8.005537
_cell_angle_alpha 111.116249
_cell_angle_beta 46.056162
_cell_angle_gamma 120.937587
_cell_volume 645.832050
_symmetry_space_group_name_H-M "P -1"
_symmetry_group_IT_number 2
_symmetry_cell_setting 'triclinic'
loop_
_space_group_symop_operation_xyz
x,y,z
-x,-y,-z
loop_
_atom_site_type_symbol
_atom_site_label
_atom_site_fract_x
_atom_site_fract_y
_atom_site_fract_z
Si Si1 0.538600 0.210768 0.250684
Si Si2 0.008126 0.172738 0.799001
Si Si3 0.273400 0.842215 0.241245
Si Si4 0.940971 0.229067 0.553101
Si Si5 0.581744 0.637704 0.763684
Si Si6 0.164926 0.692608 0.732676
Si Si7 0.627788 0.242570 0.479287
O O1 0.479472 0.349617 0.299042
O O2 0.572212 0.238900 0.395743
O O3 0.453204 0.944984 0.317406
O O4 0.646152 0.264921 0.988845
O O5 0.977733 0.199452 0.666979
O O6 0.099149 0.416629 0.776042
O O7 0.909672 0.169669 0.071150
O O8 0.035012 0.945153 0.669562
O O9 0.181614 0.825838 0.264632
O O10 0.215000 0.736033 0.478114
O O11 0.348483 0.106416 0.222480
O O12 0.000000 0.500000 0.500000
O O13 0.654374 0.497935 0.577500
O O14 0.500000 0.500000 0.000000
O O15 0.264486 0.790165 0.718303
#
# Coordination Sequence:
#
# PCOD9048425 Si02
#       7
#     2   2   2   2   2   2   2
#     4  11  24  42  64  95 135 171 221 274 330 402
#     4  10  24  45  68  94 134 174 225 277 334 398
#     4  12  23  42  67  97 131 176 221 274 335 394
#     4  11  23  45  66  98 132 173 220 279 335 400
#     4  12  23  42  66  95 132 178 222 271 330 396
#     4  11  22  44  69  97 132 178 225 278 331 399
#     4  11  23  43  65  95 136 172 219 277 330 402
#
# _framework density 21.677461000000001
#
# number of rings (size 3 to 8) (size 9 to 14) (size 15 to 20)
#    0.000    0.857    4.286    3.429    0.000    0.571 
#    5.143    0.000    0.000    0.000    0.000    0.000 
#    0.000    0.000    0.000    0.000    0.000    0.000 
#
# Total GULP energy -78161.428507 kJ/mol
# GULP energy per Si atom -5582.959179 kJ/mol
# Density = 2.162812 g / cm^3
# Si number density = 21.677461 Si / 1000 Ang^3
#
#
#
# Elastic Constant Matrix: (Units=GPa)
#
#
# Indices 1 2 3 4 5 6 
#
# 1 98.4058 18.1406 12.2754 -13.3349 -17.9224 -6.9024
# 2 18.1406 71.5440 38.6704 -2.0869 -8.5724 -5.0981
# 3 12.2754 38.6704 112.1694 -2.8459 -22.4057 -14.9015
# 4 -13.3349 -2.0869 -2.8459 25.5545 -2.3399 2.0321
# 5 -17.9224 -8.5724 -22.4057 -2.3399 40.1214 -9.6689
# 6 -6.9024 -5.0981 -14.9015 2.0321 -9.6689 29.1857
#
#
#
# Elastic Compliance Matrix: (Units=1/GPa)
#
#
# Indices 1 2 3 4 5 6 
#
# 1 0.013389 -0.002941 0.002243 0.007289 0.008502 0.006107
# 2 -0.002941 0.017847 -0.006272 -0.000805 -0.001331 -0.001165
# 3 0.002243 -0.006272 0.014230 0.002384 0.010131 0.009891
# 4 0.007289 -0.000805 0.002384 0.043644 0.007503 0.002247
# 5 0.008502 -0.001331 0.010131 0.007503 0.039213 0.019420
# 6 0.006107 -0.001165 0.009891 0.002247 0.019420 0.046831
#
#
# Mechanical properties :
#
#
# Convention : Reuss Voigt Hill
#
# Bulk Modulus (GPa) = 31.71891 46.69909 39.20900
# Shear Modulus (GPa) = 25.04974 33.17451 29.11212
#
# Velocity S-wave (km/s) = 3.40305 3.91624 3.66863
# Velocity P-wave (km/s) = 5.48680 6.48372 6.00598
#
# Compressibility (1/GPa) = 0.03152694
#
# Stress axis : x y z
#
# Youngs Moduli (GPa) = 74.68877 56.03113 70.27363
#
# Poissons Ratio (x) = 0.16478 -0.15764
# Poissons Ratio (y) = 0.21964 0.44076
# Poissons Ratio (z) = -0.16754 0.35143
#
# Static dielectric constant tensor:
#      x y z
#    x 1.837490 -0.007650 0.005330 
#    y -0.007650 1.775110 0.041250 
#    z 0.005330 0.041250 1.801970 
# 
# From -- ./inp_files/36085.got.cif
#   From: 2010.05.17/outbox.cif.g08.bks.cpg/sg2_19_cif.got.tgz:36085.got - 2010.06.03 11:33:40.
