data_PCOD9048793
_publ_section_title
;
Structure prediction by ZEFSAII (Michael W. Deem and Ramdas Pophale) SiO2 
 PCOD9048793
Probable space group: P -1
;
_chemical_formula_sum "Si O2"
_cell_formula_units_Z 16
_cell_length_a 15.937858
_cell_length_b 14.174725
_cell_length_c 8.780063
_cell_angle_alpha 78.749402
_cell_angle_beta 62.013405
_cell_angle_gamma 28.284312
_cell_volume 708.276400
_symmetry_space_group_name_H-M "P -1"
_symmetry_group_IT_number 2
_symmetry_cell_setting 'triclinic'
loop_
_space_group_symop_operation_xyz
x,y,z
-x,-y,-z
loop_
_atom_site_type_symbol
_atom_site_label
_atom_site_fract_x
_atom_site_fract_y
_atom_site_fract_z
Si Si1 0.575205 0.027109 0.625739
Si Si2 0.037103 0.686853 0.492106
Si Si3 0.967512 0.184652 0.827902
Si Si4 0.328210 0.417232 0.864537
Si Si5 0.729789 0.048681 0.894555
Si Si6 0.357259 0.687010 0.937575
Si Si7 0.483026 0.144195 0.315571
Si Si8 0.522107 0.372299 0.457219
O O1 0.373123 0.267604 0.816759
O O2 0.564687 0.069852 0.444924
O O3 0.548580 0.937493 0.678533
O O4 0.814755 0.839909 0.556032
O O5 0.103381 0.709105 0.309830
O O6 0.242171 0.423289 0.423004
O O7 0.945399 0.815511 0.686458
O O8 0.911411 0.325933 0.942006
O O9 0.814639 0.236523 0.000311
O O10 0.221914 0.909425 0.675992
O O11 0.522024 0.257015 0.882121
O O12 0.381106 0.433575 0.667984
O O13 0.772015 0.106826 0.934097
O O14 0.647409 0.045375 0.086352
O O15 0.520459 0.578613 0.701419
O O16 0.500000 0.500000 0.000000
O O17 0.500000 0.500000 0.500000
#
# Coordination Sequence:
#
# PCOD9048793 Si02
#       8
#     2   2   2   2   2   2   2   2
#     4  10  24  45  73 100 139 175 226 280 344 404
#     4  11  24  45  69 100 138 180 226 278 337 411
#     4  12  24  43  66  96 134 176 227 263 341 397
#     4  11  22  44  66  96 136 174 219 281 335 402
#     4  11  23  43  64 100 135 171 230 277 334 399
#     4  12  24  42  65  95 132 178 220 280 326 399
#     4  11  23  48  69 103 136 177 224 286 340 402
#     4  12  24  43  64  92 133 174 226 274 328 402
#
# _framework density 22.590053000000001
#
# number of rings (size 3 to 8) (size 9 to 14) (size 15 to 20)
#    0.000    0.750    6.250    1.500    0.000    3.500 
#    4.500    1.250    0.000    0.000    0.000    0.000 
#    0.000    0.000    0.000    0.000    0.000    0.000 
#
# Total GULP energy -89571.017776 kJ/mol
# GULP energy per Si atom -5598.188611 kJ/mol
# Density = 2.253864 g / cm^3
# Si number density = 22.590053 Si / 1000 Ang^3
#
#
#
# Elastic Constant Matrix: (Units=GPa)
#
#
# Indices 1 2 3 4 5 6 
#
# 1 84.0168 35.0183 39.3218 0.9289 17.8527 21.1852
# 2 35.0183 146.1157 73.0135 -3.6469 8.4165 20.5835
# 3 39.3218 73.0135 168.5571 7.8647 27.3144 21.7529
# 4 0.9289 -3.6469 7.8647 42.6032 7.7533 8.3354
# 5 17.8527 8.4165 27.3144 7.7533 33.1229 4.2209
# 6 21.1852 20.5835 21.7529 8.3354 4.2209 41.2268
#
#
#
# Elastic Compliance Matrix: (Units=1/GPa)
#
#
# Indices 1 2 3 4 5 6 
#
# 1 0.016384 -0.002006 -0.001051 0.002254 -0.007143 -0.006588
# 2 -0.002006 0.009419 -0.003660 0.001673 0.001600 -0.002243
# 3 -0.001051 -0.003660 0.008892 -0.000613 -0.005484 -0.001639
# 4 0.002254 0.001673 -0.000613 0.026081 -0.006438 -0.006284
# 5 -0.007143 0.001600 -0.005484 -0.006438 0.039275 0.003046
# 6 -0.006588 -0.002243 -0.001639 -0.006284 0.003046 0.030585
#
#
# Mechanical properties :
#
#
# Convention : Reuss Voigt Hill
#
# Bulk Modulus (GPa) = 47.03247 77.04408 62.03827
# Shear Modulus (GPa) = 33.07830 40.14633 36.61231
#
# Velocity S-wave (km/s) = 3.83075 4.22022 4.03019
# Velocity P-wave (km/s) = 6.35857 7.61094 7.01277
#
# Compressibility (1/GPa) = 0.02126191
#
# Stress axis : x y z
#
# Youngs Moduli (GPa) = 61.03445 106.16762 112.46018
#
# Poissons Ratio (x) = 0.21295 0.11818
# Poissons Ratio (y) = 0.12242 0.41160
# Poissons Ratio (z) = 0.06414 0.38857
#
# Static dielectric constant tensor:
#      x y z
#    x 1.857400 -0.052220 0.006090 
#    y -0.052220 1.849940 0.007250 
#    z 0.006090 0.007250 1.819750 
# 
# From -- ./inp_files/222693.got.cif
#   From: 2010.05.17/outbox.cif.g08.bks.cpg/sg2_112_cif.got.tgz:222693.got - 2010.06.03 11:33:40.
