data_PCOD9048612
_publ_section_title
;
Structure prediction by ZEFSAII (Michael W. Deem and Ramdas Pophale) SiO2 
 PCOD9048612
Probable space group: P -1
;
_chemical_formula_sum "Si O2"
_cell_formula_units_Z 12
_cell_length_a 10.582636
_cell_length_b 14.760284
_cell_length_c 5.053059
_cell_angle_alpha 123.980607
_cell_angle_beta 69.018447
_cell_angle_gamma 131.793434
_cell_volume 487.838748
_symmetry_space_group_name_H-M "P -1"
_symmetry_group_IT_number 2
_symmetry_cell_setting 'triclinic'
loop_
_space_group_symop_operation_xyz
x,y,z
-x,-y,-z
loop_
_atom_site_type_symbol
_atom_site_label
_atom_site_fract_x
_atom_site_fract_y
_atom_site_fract_z
Si Si1 0.063629 0.925672 0.991141
Si Si2 0.918051 0.340401 0.798897
Si Si3 0.575883 0.220997 0.640688
Si Si4 0.254874 0.937003 0.352308
Si Si5 0.495176 0.664171 0.608008
Si Si6 0.224248 0.346350 0.395029
O O1 0.184097 0.929404 0.685666
O O2 0.892511 0.773053 0.923336
O O3 0.167430 0.974635 0.264972
O O4 0.000000 0.000000 0.000000
O O5 0.772322 0.284581 0.595739
O O6 0.806535 0.217678 0.897923
O O7 0.083595 0.345982 0.656375
O O8 0.000000 0.500000 0.000000
O O9 0.525068 0.285356 0.568471
O O10 0.453026 0.059155 0.413549
O O11 0.540772 0.265410 0.018517
O O12 0.359476 0.499480 0.443090
O O13 0.674705 0.694650 0.580691
#
# Coordination Sequence:
#
# PCOD9048612 Si02
#       6
#     2   2   2   2   2   2
#     4  11  23  42  72 100 142 179 235 285 352 413
#     4  11  25  47  73 103 145 186 238 286 350 415
#     4  12  25  47  73 104 142 183 234 286 356 413
#     4  11  25  43  69 103 139 183 231 288 346 416
#     4  11  26  44  74 102 143 181 234 291 352 416
#     4  10  24  45  70 106 138 186 235 290 349 413
#
# _framework density 24.598293999999999
#
# number of rings (size 3 to 8) (size 9 to 14) (size 15 to 20)
#    0.000    1.000    1.667    4.000    2.333   10.000 
#    0.000    5.833    0.000    0.000    0.000    0.000 
#    0.000    0.000    0.000    0.000    0.000    0.000 
#
# Total GULP energy -67053.801344 kJ/mol
# GULP energy per Si atom -5587.816779 kJ/mol
# Density = 2.454231 g / cm^3
# Si number density = 24.598294 Si / 1000 Ang^3
#
#
#
# Elastic Constant Matrix: (Units=GPa)
#
#
# Indices 1 2 3 4 5 6 
#
# 1 245.7646 122.7972 373.7128 -190.1181 204.7297 -169.4677
# 2 122.7972 197.8676 384.1169 -159.1755 218.5178 -173.3550
# 3 373.7128 384.1169 1748.4498 -979.1687 965.3100 -855.5655
# 4 -190.1181 -159.1755 -979.1687 620.3362 -554.5119 511.6449
# 5 204.7297 218.5178 965.3100 -554.5119 583.0164 -480.7638
# 6 -169.4677 -173.3550 -855.5655 511.6449 -480.7638 492.3450
#
#
#
# Elastic Compliance Matrix: (Units=1/GPa)
#
#
# Indices 1 2 3 4 5 6 
#
# 1 0.006688 -0.002785 -0.001141 0.000972 0.000671 -0.001016
# 2 -0.002785 0.017273 -0.006886 -0.015260 -0.006029 0.003127
# 3 -0.001141 -0.006886 0.013439 0.010962 -0.006689 0.002613
# 4 0.000972 -0.015260 0.010962 0.031849 0.009142 -0.010159
# 5 0.000671 -0.006029 -0.006689 0.009142 0.023258 -0.000306
# 6 -0.001016 0.003127 0.002613 -0.010159 -0.000306 0.017582
#
#
# Mechanical properties :
#
#
# Convention : Reuss Voigt Hill
#
# Bulk Modulus (GPa) = 63.38939 439.25955 251.32447
# Shear Modulus (GPa) = 36.50402 426.56987 231.53694
#
# Velocity S-wave (km/s) = 3.85646 13.18298 9.71244
# Velocity P-wave (km/s) = 6.75688 20.26529 15.10526
#
# Compressibility (1/GPa) = 0.01577551
#
# Stress axis : x y z
#
# Youngs Moduli (GPa) = 149.53064 57.89423 74.40848
#
# Poissons Ratio (x) = 0.16122 0.08491
# Poissons Ratio (y) = 0.41640 0.51239
# Poissons Ratio (z) = 0.17064 0.39867
#
# Static dielectric constant tensor:
#      x y z
#    x 1.930420 -0.008710 -0.062670 
#    y -0.008710 1.994020 0.063390 
#    z -0.062670 0.063390 2.019990 
# 
# From -- ./inp_files/32969.got.cif
#   From: 2010.05.17/outbox.cif.g08.bks.cpg/sg2_17_cif.got.tgz:32969.got - 2010.06.03 11:33:40.
