data_PCOD9048827
_publ_section_title
;
Structure prediction by ZEFSAII (Michael W. Deem and Ramdas Pophale) SiO2 
 PCOD9048827
Probable space group: P -1
;
_chemical_formula_sum "Si O2"
_cell_formula_units_Z 12
_cell_length_a 9.164244
_cell_length_b 10.451062
_cell_length_c 11.401473
_cell_angle_alpha 144.418227
_cell_angle_beta 92.191886
_cell_angle_gamma 110.345435
_cell_volume 481.705693
_symmetry_space_group_name_H-M "P -1"
_symmetry_group_IT_number 2
_symmetry_cell_setting 'triclinic'
loop_
_space_group_symop_operation_xyz
x,y,z
-x,-y,-z
loop_
_atom_site_type_symbol
_atom_site_label
_atom_site_fract_x
_atom_site_fract_y
_atom_site_fract_z
Si Si1 0.682495 0.304624 0.064930
Si Si2 0.048801 0.895170 0.536081
Si Si3 0.595731 0.360254 0.430955
Si Si4 0.991244 0.119546 0.214659
Si Si5 0.411931 0.398564 0.165681
Si Si6 0.487294 0.193483 0.729480
O O1 0.620014 0.278033 0.908519
O O2 0.561524 0.975880 0.854773
O O3 0.600193 0.440875 0.227551
O O4 0.909128 0.543889 0.265229
O O5 0.003964 0.969242 0.716126
O O6 0.265083 0.019652 0.624791
O O7 0.000000 0.000000 0.500000
O O8 0.500000 0.500000 0.500000
O O9 0.816330 0.543744 0.533306
O O10 0.613545 0.418052 0.614291
O O11 0.000000 0.000000 0.000000
O O12 0.763275 0.945461 0.080104
O O13 0.435128 0.524476 0.132515
O O14 0.500000 0.000000 0.500000
#
# Coordination Sequence:
#
# PCOD9048827 Si02
#       6
#     2   2   2   2   2   2
#     4  12  25  46  77 107 152 203 250 321 385 454
#     4  12  25  45  81 116 149 201 260 318 389 458
#     4  11  26  45  67 109 149 195 262 313 374 459
#     4  10  24  45  73 105 150 201 250 310 380 455
#     4  11  22  46  72 102 148 196 250 312 380 454
#     4  12  25  46  74 112 155 195 255 318 390 458
#
# _framework density 24.911477000000001
#
# number of rings (size 3 to 8) (size 9 to 14) (size 15 to 20)
#    0.000    0.667    5.000    2.500    0.000    5.333 
#    3.000    0.000    0.000    0.000    0.000    0.000 
#    0.000    0.000    0.000    0.000    0.000    0.000 
#
# Total GULP energy -66961.923333 kJ/mol
# GULP energy per Si atom -5580.160278 kJ/mol
# Density = 2.485478 g / cm^3
# Si number density = 24.911477 Si / 1000 Ang^3
#
#
#
# Elastic Constant Matrix: (Units=GPa)
#
#
# Indices 1 2 3 4 5 6 
#
# 1 58.4374 37.2174 48.4605 9.9171 11.7581 15.9025
# 2 37.2174 171.2573 60.1815 -11.1181 5.1316 19.1746
# 3 48.4605 60.1815 167.2553 30.3617 21.8734 20.3250
# 4 9.9171 -11.1181 30.3617 65.8669 7.4252 7.4762
# 5 11.7581 5.1316 21.8734 7.4252 47.3397 7.7165
# 6 15.9025 19.1746 20.3250 7.4762 7.7165 38.7031
#
#
#
# Elastic Compliance Matrix: (Units=1/GPa)
#
#
# Indices 1 2 3 4 5 6 
#
# 1 0.025522 -0.003148 -0.005045 -0.001128 -0.002586 -0.005544
# 2 -0.003148 0.007718 -0.002262 0.002958 0.000866 -0.002087
# 3 -0.005045 -0.002262 0.009249 -0.003584 -0.002124 -0.000548
# 4 -0.001128 0.002958 -0.003584 0.017867 -0.000794 -0.002413
# 5 -0.002586 0.000866 -0.002124 -0.000794 0.023223 -0.002728
# 6 -0.005544 -0.002087 -0.000548 -0.002413 -0.002728 0.030447
#
#
# Mechanical properties :
#
#
# Convention : Reuss Voigt Hill
#
# Bulk Modulus (GPa) = 46.34243 76.51876 61.43059
# Shear Modulus (GPa) = 35.17933 47.12132 41.15033
#
# Velocity S-wave (km/s) = 3.76197 4.35391 4.06872
# Velocity P-wave (km/s) = 6.12479 7.48721 6.84001
#
# Compressibility (1/GPa) = 0.02157850
#
# Stress axis : x y z
#
# Youngs Moduli (GPa) = 39.18245 129.56991 108.11492
#
# Poissons Ratio (x) = 0.40794 0.54546
# Poissons Ratio (y) = 0.12336 0.24451
# Poissons Ratio (z) = 0.19768 0.29303
#
# Static dielectric constant tensor:
#      x y z
#    x 1.907160 -0.027500 -0.015280 
#    y -0.027500 2.113390 -0.047240 
#    z -0.015280 -0.047240 2.006320 
# 
# From -- ./inp_files/424495.got.cif
#   From: 2010.05.17/outbox.cif.g08.bks.cpg/sg2_213_cif.got.tgz:424495.got - 2010.06.03 11:33:40.
