data_PCOD9048880
_publ_section_title
;
Structure prediction by ZEFSAII (Michael W. Deem and Ramdas Pophale) SiO2 
 PCOD9048880
Probable space group: P -1
;
_chemical_formula_sum "Si O2"
_cell_formula_units_Z 14
_cell_length_a 11.933346
_cell_length_b 5.031921
_cell_length_c 9.780875
_cell_angle_alpha 78.898508
_cell_angle_beta 110.569969
_cell_angle_gamma 106.143876
_cell_volume 525.243840
_symmetry_space_group_name_H-M "P -1"
_symmetry_group_IT_number 2
_symmetry_cell_setting 'triclinic'
loop_
_space_group_symop_operation_xyz
x,y,z
-x,-y,-z
loop_
_atom_site_type_symbol
_atom_site_label
_atom_site_fract_x
_atom_site_fract_y
_atom_site_fract_z
Si Si1 0.533523 0.188810 0.131465
Si Si2 0.955396 0.080216 0.779884
Si Si3 0.630614 0.802059 0.422443
Si Si4 0.831236 0.452559 0.867636
Si Si5 0.404944 0.354527 0.293224
Si Si6 0.200235 0.482775 0.833157
Si Si7 0.878343 0.103360 0.456667
O O1 0.417244 0.260442 0.152823
O O2 0.651559 0.447614 0.133836
O O3 0.579759 0.010601 0.285640
O O4 0.500000 0.000000 0.000000
O O5 0.908003 0.751339 0.814434
O O6 0.102831 0.183924 0.814505
O O7 0.899355 0.222731 0.866478
O O8 0.892660 0.196413 0.611142
O O9 0.541196 0.511858 0.379430
O O10 0.632445 0.863604 0.578623
O O11 0.767938 0.831322 0.429741
O O12 0.691980 0.449352 0.759767
O O13 0.819307 0.433953 0.027410
O O14 0.148578 0.673618 0.682818
O O15 0.000000 0.000000 0.500000
#
# Coordination Sequence:
#
# PCOD9048880 Si02
#       7
#     2   2   2   2   2   2   2
#     4  11  26  47  73 112 154 200 253 327 393 456
#     4  12  27  52  77 113 154 210 259 311 388 467
#     4  10  24  45  74 108 149 206 260 315 386 465
#     4  12  28  50  81 112 156 208 258 320 383 470
#     4  11  25  46  76 109 151 204 264 313 387 469
#     4  11  27  46  76 113 155 199 259 323 392 450
#     4  11  25  48  78 115 156 203 257 327 386 461
#
# _framework density 26.654285999999999
#
# number of rings (size 3 to 8) (size 9 to 14) (size 15 to 20)
#    0.000    0.857    1.429    3.429    6.000    8.000 
#    0.000    0.000    0.000    0.000    0.000    0.000 
#    0.000    0.000    0.000    0.000    0.000    0.000 
#
# Total GULP energy -78410.237494 kJ/mol
# GULP energy per Si atom -5600.731250 kJ/mol
# Density = 2.659362 g / cm^3
# Si number density = 26.654286 Si / 1000 Ang^3
#
#
#
# Elastic Constant Matrix: (Units=GPa)
#
#
# Indices 1 2 3 4 5 6 
#
# 1 168.1139 34.9539 11.5375 3.1948 -13.8247 26.1085
# 2 34.9539 62.2995 9.1934 4.3004 -8.0658 8.1864
# 3 11.5375 9.1934 185.1607 -17.8092 -9.7788 1.1055
# 4 3.1948 4.3004 -17.8092 39.0739 -2.7795 -0.2625
# 5 -13.8247 -8.0658 -9.7788 -2.7795 43.5489 -0.2057
# 6 26.1085 8.1864 1.1055 -0.2625 -0.2057 39.9504
#
#
#
# Elastic Compliance Matrix: (Units=1/GPa)
#
#
# Indices 1 2 3 4 5 6 
#
# 1 0.007452 -0.003371 -0.000208 -0.000243 0.001659 -0.004166
# 2 -0.003371 0.018678 -0.000791 -0.002003 0.002076 -0.001605
# 3 -0.000208 -0.000791 0.005792 0.002835 0.001270 0.000163
# 4 -0.000243 -0.002003 0.002835 0.027267 0.001932 0.000680
# 5 0.001659 0.002076 0.001270 0.001932 0.024276 -0.001407
# 6 -0.004166 -0.001605 0.000163 0.000680 -0.001407 0.028075
#
#
# Mechanical properties :
#
#
# Convention : Reuss Voigt Hill
#
# Bulk Modulus (GPa) = 43.13778 58.54933 50.84355
# Shear Modulus (GPa) = 39.06079 48.50728 43.78403
#
# Velocity S-wave (km/s) = 3.83229 4.27062 4.05738
# Velocity P-wave (km/s) = 5.98341 6.80672 6.40830
#
# Compressibility (1/GPa) = 0.02318154
#
# Stress axis : x y z
#
# Youngs Moduli (GPa) = 134.19883 53.54028 172.66052
#
# Poissons Ratio (x) = 0.18049 0.03588
# Poissons Ratio (y) = 0.45240 0.13654
# Poissons Ratio (z) = 0.02789 0.04234
#
# Static dielectric constant tensor:
#      x y z
#    x 2.103970 0.026130 -0.014750 
#    y 0.026130 2.134980 0.084310 
#    z -0.014750 0.084310 2.165700 
# 
# From -- ./inp_files/104831.got.cif
#   From: 2010.05.17/outbox.cif.g08.bks.cpg/sg2_53_cif.got.tgz:104831.got - 2010.06.03 11:33:40.
