data_PCOD9048638
_publ_section_title
;
Structure prediction by ZEFSAII (Michael W. Deem and Ramdas Pophale) SiO2 
 PCOD9048638
Probable space group: P -1
;
_chemical_formula_sum "Si O2"
_cell_formula_units_Z 15
_cell_length_a 7.527844
_cell_length_b 12.503687
_cell_length_c 15.552244
_cell_angle_alpha 27.905686
_cell_angle_beta 65.285994
_cell_angle_gamma 62.377520
_cell_volume 606.904013
_symmetry_space_group_name_H-M "P -1"
_symmetry_group_IT_number 2
_symmetry_cell_setting 'triclinic'
loop_
_space_group_symop_operation_xyz
x,y,z
-x,-y,-z
loop_
_atom_site_type_symbol
_atom_site_label
_atom_site_fract_x
_atom_site_fract_y
_atom_site_fract_z
Si Si1 0.000000 0.500000 0.000000
Si Si2 0.071241 0.098982 0.003009
Si Si3 0.204659 0.541179 0.595578
Si Si4 0.585382 0.749944 0.563055
Si Si5 0.669474 0.373359 0.671560
Si Si6 0.620862 0.515352 0.080679
Si Si7 0.156559 0.982081 0.405334
Si Si8 0.257657 0.838857 0.828761
O O1 0.800982 0.530796 0.096186
O O2 0.118566 0.241788 0.192545
O O3 0.266487 0.903427 0.128989
O O4 0.911823 0.102036 0.108510
O O5 0.096635 0.356182 0.792279
O O6 0.000000 0.000000 0.000000
O O7 0.438948 0.446930 0.638051
O O8 0.199171 0.555187 0.483317
O O9 0.134684 0.797706 0.467157
O O10 0.683897 0.524893 0.645884
O O11 0.520666 0.650276 0.736470
O O12 0.376570 0.881711 0.469651
O O13 0.715629 0.944223 0.388900
O O14 0.777872 0.368324 0.081057
O O15 0.463362 0.724143 0.919743
O O16 0.000000 0.000000 0.500000
#
# Coordination Sequence:
#
# PCOD9048638 Si02
#       8
#     1   2   2   2   2   2   2   2
#     4  12  24  44  68 100 130 170 226 272 338 390
#     4  12  26  44  69 100 136 181 223 274 330 401
#     4  10  25  46  69 101 133 174 229 275 336 388
#     4  11  22  44  66  95 135 174 219 272 332 391
#     4  10  24  45  70  97 129 181 221 283 323 393
#     4  11  25  42  67  97 131 176 220 275 334 394
#     4  11  24  40  71 100 131 169 218 281 332 391
#     4  11  26  42  64  97 137 176 217 275 328 402
#
# _framework density 24.715605
#
# number of rings (size 3 to 8) (size 9 to 14) (size 15 to 20)
#    0.000    1.067    2.667    2.400    3.733    3.200 
#    2.400    0.000    0.000    0.000    0.000    0.000 
#    0.000    0.000    0.000    0.000    0.000    0.000 
#
# Total GULP energy -83789.652569 kJ/mol
# GULP energy per Si atom -5585.976838 kJ/mol
# Density = 2.465935 g / cm^3
# Si number density = 24.715605 Si / 1000 Ang^3
#
#
#
# Elastic Constant Matrix: (Units=GPa)
#
#
# Indices 1 2 3 4 5 6 
#
# 1 77.5285 12.4913 4.1321 -4.8520 15.2173 -27.4754
# 2 12.4913 108.2821 -13.0521 21.4544 -6.7059 3.8395
# 3 4.1321 -13.0521 106.0703 16.0719 -5.4538 -0.7582
# 4 -4.8520 21.4544 16.0719 32.1963 -7.4703 -1.8800
# 5 15.2173 -6.7059 -5.4538 -7.4703 39.8043 -6.6714
# 6 -27.4754 3.8395 -0.7582 -1.8800 -6.6714 33.4940
#
#
#
# Elastic Compliance Matrix: (Units=1/GPa)
#
#
# Indices 1 2 3 4 5 6 
#
# 1 0.021775 -0.005437 -0.002896 0.008209 -0.005103 0.017864
# 2 -0.005437 0.012798 0.003505 -0.011084 0.001604 -0.006150
# 3 -0.002896 0.003505 0.011269 -0.008272 0.001230 -0.002742
# 4 0.008209 -0.011084 -0.008272 0.045458 0.004273 0.011220
# 5 -0.005103 0.001604 0.001230 0.004273 0.028581 0.001591
# 6 0.017864 -0.006150 -0.002742 0.011220 0.001591 0.046100
#
#
# Mechanical properties :
#
#
# Convention : Reuss Voigt Hill
#
# Bulk Modulus (GPa) = 27.63518 33.22485 30.43002
# Shear Modulus (GPa) = 26.63826 40.31956 33.47891
#
# Velocity S-wave (km/s) = 3.28653 4.04337 3.68444
# Velocity P-wave (km/s) = 5.06036 5.93889 5.51714
#
# Compressibility (1/GPa) = 0.03618576
#
# Stress axis : x y z
#
# Youngs Moduli (GPa) = 45.92394 78.13514 88.74114
#
# Poissons Ratio (x) = 0.42482 0.25698
# Poissons Ratio (y) = 0.24969 -0.31101
# Poissons Ratio (z) = 0.13299 -0.27383
#
# Static dielectric constant tensor:
#      x y z
#    x -1.203780 -0.747900 0.754730 
#    y -0.747900 1.815830 0.282310 
#    z 0.754730 0.282310 1.844110 
# 
# From -- ./inp_files/400055.got.cif
#   From: 2010.05.17/outbox.cif.g08.bks.cpg/sg2_201_cif.got.tgz:400055.got - 2010.06.03 11:33:40.
