data_PCOD9048143
_publ_section_title
;
Structure prediction by ZEFSAII (Michael W. Deem and Ramdas Pophale) SiO2 
 PCOD9048143
Probable space group: P -1
;
_chemical_formula_sum "Si O2"
_cell_formula_units_Z 15
_cell_length_a 15.079408
_cell_length_b 14.679157
_cell_length_c 26.751625
_cell_angle_alpha 157.962616
_cell_angle_beta 159.976366
_cell_angle_gamma 20.438102
_cell_volume 652.205338
_symmetry_space_group_name_H-M "P -1"
_symmetry_group_IT_number 2
_symmetry_cell_setting 'triclinic'
loop_
_space_group_symop_operation_xyz
x,y,z
-x,-y,-z
loop_
_atom_site_type_symbol
_atom_site_label
_atom_site_fract_x
_atom_site_fract_y
_atom_site_fract_z
Si Si1 0.450459 0.750078 0.920049
Si Si2 0.426197 0.537049 0.371462
Si Si3 0.279166 0.384622 0.833751
Si Si4 0.240557 0.096417 0.762527
Si Si5 0.500000 0.000000 0.500000
Si Si6 0.704922 0.465963 0.815399
Si Si7 0.688189 0.876524 0.724822
Si Si8 0.788081 0.093728 0.791128
O O1 0.451631 0.716112 0.843796
O O2 0.643101 0.427805 0.877712
O O3 0.627799 0.891661 0.107782
O O4 0.120323 0.913346 0.851782
O O5 0.353015 0.507765 0.260642
O O6 0.614872 0.688187 0.554239
O O7 0.116023 0.733724 0.335695
O O8 0.611408 0.229727 0.337882
O O9 0.323301 0.254093 0.845375
O O10 0.945338 0.650719 0.782839
O O11 0.396441 0.121829 0.723593
O O12 0.500000 0.500000 0.000000
O O13 0.668158 0.195743 0.674616
O O14 0.576278 0.015770 0.606747
O O15 0.000000 0.500000 0.000000
O O16 0.805534 0.022729 0.822726
#
# Coordination Sequence:
#
# PCOD9048143 Si02
#       8
#     2   2   2   2   1   2   2   2
#     4  11  25  43  73 104 149 193 245 311 361 444
#     4  12  27  46  73 108 152 196 243 307 381 459
#     4  12  27  48  77 107 138 194 251 316 380 450
#     4  12  26  46  71 107 143 191 252 306 376 442
#     4  10  24  44  74 108 148 194 250 302 368 446
#     4  11  24  49  74 114 151 205 253 305 379 450
#     4  12  25  47  72 107 148 188 243 313 374 451
#     4  11  23  44  68 106 146 191 240 304 375 433
#
# _framework density 22.998892000000001
#
# number of rings (size 3 to 8) (size 9 to 14) (size 15 to 20)
#    0.000    0.533    2.667    5.200    1.867    8.000 
#    2.400    0.000    0.000    0.000    0.000    0.000 
#    0.000    0.000    0.000    0.000    0.000    0.000 
#
# Total GULP energy -83573.280210 kJ/mol
# GULP energy per Si atom -5571.552014 kJ/mol
# Density = 2.294655 g / cm^3
# Si number density = 22.998892 Si / 1000 Ang^3
#
#
#
# Elastic Constant Matrix: (Units=GPa)
#
#
# Indices 1 2 3 4 5 6 
#
# 1 9.5805 34.5741 33.7382 -53.4907 7.3033 55.9351
# 2 34.5741 155.0114 15.8648 28.0243 17.1480 -8.9573
# 3 33.7382 15.8648 87.1371 42.5996 10.3093 -8.4624
# 4 -53.4907 28.0243 42.5996 -24.6102 -0.7108 39.5991
# 5 7.3033 17.1480 10.3093 -0.7108 35.2028 7.9344
# 6 55.9351 -8.9573 -8.4624 39.5991 7.9344 9.7264
#
#
#
# Elastic Compliance Matrix: (Units=1/GPa)
#
#
# Indices 1 2 3 4 5 6 
#
# 1 0.010189 0.000346 0.003133 -0.013311 -0.003876 0.001805
# 2 0.000346 0.006497 -0.001844 0.001387 -0.002370 -0.001327
# 3 0.003133 -0.001844 0.010530 -0.000761 -0.001434 -0.006289
# 4 -0.013311 0.001387 -0.000761 0.015125 -0.001102 0.016489
# 5 -0.003876 -0.002370 -0.001434 -0.001102 0.031245 -0.002141
# 6 0.001805 -0.001327 -0.006289 0.016489 -0.002141 0.020352
#
#
# Mechanical properties :
#
#
# Convention : Reuss Voigt Hill
#
# Bulk Modulus (GPa) = 32.80011 46.67590 39.73801
# Shear Modulus (GPa) = 49.58914 15.23393 32.41153
#
# Velocity S-wave (km/s) = 4.64848 2.57646 3.75809
# Velocity P-wave (km/s) = 6.56534 5.40276 6.01221
#
# Compressibility (1/GPa) = 0.03048771
#
# Stress axis : x y z
#
# Youngs Moduli (GPa) = 98.14482 153.91138 94.97063
#
# Poissons Ratio (x) = -0.05330 -0.29758
# Poissons Ratio (y) = -0.03399 0.17510
# Poissons Ratio (z) = -0.30752 0.28378
#
# Static dielectric constant tensor:
#      x y z
#    x 1.884890 0.019030 0.003640 
#    y 0.019030 1.833950 0.003570 
#    z 0.003640 0.003570 1.876280 
# 
# From -- ./inp_files/619650.got.cif
#   From: 2010.05.17/outbox.cif.g08.bks.cpg/sg2_310_cif.got.tgz:619650.got - 2010.06.03 11:33:40.
