data_PCOD9048443
_publ_section_title
;
Structure prediction by ZEFSAII (Michael W. Deem and Ramdas Pophale) SiO2 
 PCOD9048443
Probable space group: P -1
;
_chemical_formula_sum "Si O2"
_cell_formula_units_Z 14
_cell_length_a 14.055214
_cell_length_b 9.803249
_cell_length_c 12.406938
_cell_angle_alpha 129.439788
_cell_angle_beta 121.022723
_cell_angle_gamma 30.210872
_cell_volume 661.836402
_symmetry_space_group_name_H-M "P -1"
_symmetry_group_IT_number 2
_symmetry_cell_setting 'triclinic'
loop_
_space_group_symop_operation_xyz
x,y,z
-x,-y,-z
loop_
_atom_site_type_symbol
_atom_site_label
_atom_site_fract_x
_atom_site_fract_y
_atom_site_fract_z
Si Si1 0.996859 0.208379 0.381498
Si Si2 0.009997 0.580678 0.161332
Si Si3 0.580222 0.460058 0.640102
Si Si4 0.405230 0.805530 0.069295
Si Si5 0.741542 0.198296 0.225034
Si Si6 0.084397 0.347125 0.302825
Si Si7 0.550958 0.909168 0.859638
O O1 0.023604 0.284683 0.325227
O O2 0.847029 0.245895 0.291151
O O3 0.922577 0.449920 0.545283
O O4 0.197373 0.867473 0.370569
O O5 0.964113 0.521106 0.208805
O O6 0.228645 0.356899 0.180494
O O7 0.872899 0.923925 0.248602
O O8 0.000000 0.500000 0.000000
O O9 0.500000 0.500000 0.500000
O O10 0.463269 0.519574 0.698537
O O11 0.519728 0.743413 0.743236
O O12 0.285685 0.025010 0.211832
O O13 0.531696 0.810102 0.107797
O O14 0.500000 0.500000 0.000000
O O15 0.280194 0.901059 0.941465
O O16 0.500000 0.000000 0.000000
#
# Coordination Sequence:
#
# PCOD9048443 Si02
#       7
#     2   2   2   2   2   2   2
#     4  11  26  48  69 101 147 184 231 289 350 425
#     4  11  20  41  71 100 133 177 236 284 341 416
#     4  12  26  43  71 107 140 184 236 286 347 419
#     4  11  24  45  69 103 140 181 234 290 349 413
#     4  12  24  44  72 104 136 184 235 288 347 415
#     4  10  24  45  68  97 143 187 227 289 353 410
#     4  11  22  42  67  99 140 178 226 292 341 407
#
# _framework density 21.153262000000002
#
# number of rings (size 3 to 8) (size 9 to 14) (size 15 to 20)
#    0.000    0.857    5.714    1.714    4.000    1.714 
#   10.286    3.571    0.000    0.000    0.000    0.000 
#    0.000    0.000    0.000    0.000    0.000    0.000 
#
# Total GULP energy -78047.883679 kJ/mol
# GULP energy per Si atom -5574.848834 kJ/mol
# Density = 2.110512 g / cm^3
# Si number density = 21.153262 Si / 1000 Ang^3
#
#
#
# Elastic Constant Matrix: (Units=GPa)
#
#
# Indices 1 2 3 4 5 6 
#
# 1 135.3407 36.9445 73.4232 7.8861 6.9931 16.3413
# 2 36.9445 73.0369 19.7784 16.0102 -0.6100 24.7142
# 3 73.4232 19.7784 152.4104 13.1536 -1.7729 11.8375
# 4 7.8861 16.0102 13.1536 37.0228 3.2573 -0.4859
# 5 6.9931 -0.6100 -1.7729 3.2573 39.2296 3.1294
# 6 16.3413 24.7142 11.8375 -0.4859 3.1294 45.1452
#
#
#
# Elastic Compliance Matrix: (Units=1/GPa)
#
#
# Indices 1 2 3 4 5 6 
#
# 1 0.011496 -0.004825 -0.005085 0.001664 -0.002493 0.000004
# 2 -0.004825 0.021392 0.001182 -0.009031 0.002839 -0.010568
# 3 -0.005085 0.001182 0.009232 -0.002875 0.001690 -0.001375
# 4 0.001664 -0.009031 -0.002875 0.031981 -0.003677 0.005695
# 5 -0.002493 0.002839 0.001690 -0.003677 0.026599 -0.002979
# 6 0.000004 -0.010568 -0.001375 0.005695 -0.002979 0.028563
#
#
# Mechanical properties :
#
#
# Convention : Reuss Voigt Hill
#
# Bulk Modulus (GPa) = 40.54602 69.00892 54.77747
# Shear Modulus (GPa) = 32.27070 39.65564 35.96317
#
# Velocity S-wave (km/s) = 3.91009 4.33446 4.12773
# Velocity P-wave (km/s) = 6.29241 7.59896 6.97634
#
# Compressibility (1/GPa) = 0.02466334
#
# Stress axis : x y z
#
# Youngs Moduli (GPa) = 86.98900 46.74707 108.31842
#
# Poissons Ratio (x) = 0.22555 0.55078
# Poissons Ratio (y) = 0.41971 -0.12799
# Poissons Ratio (z) = 0.44232 -0.05524
#
# Static dielectric constant tensor:
#      x y z
#    x 1.782700 0.028880 0.015830 
#    y 0.028880 1.891380 0.024190 
#    z 0.015830 0.024190 1.820490 
# 
# From -- ./inp_files/244003.got.cif
#   From: 2010.05.17/outbox.cif.g08.bks.cpg/sg2_123_cif.got.tgz:244003.got - 2010.06.03 11:33:40.
