data_PCOD9048196
_publ_section_title
;
Structure prediction by ZEFSAII (Michael W. Deem and Ramdas Pophale) SiO2 
 PCOD9048196
Probable space group: P -1
;
_chemical_formula_sum "Si O2"
_cell_formula_units_Z 16
_cell_length_a 8.014405
_cell_length_b 15.477822
_cell_length_c 9.337237
_cell_angle_alpha 36.110526
_cell_angle_beta 104.489198
_cell_angle_gamma 87.068475
_cell_volume 592.221221
_symmetry_space_group_name_H-M "P -1"
_symmetry_group_IT_number 2
_symmetry_cell_setting 'triclinic'
loop_
_space_group_symop_operation_xyz
x,y,z
-x,-y,-z
loop_
_atom_site_type_symbol
_atom_site_label
_atom_site_fract_x
_atom_site_fract_y
_atom_site_fract_z
Si Si1 0.657252 0.861344 0.823294
Si Si2 0.209565 0.809692 0.733736
Si Si3 0.095408 0.717940 0.554407
Si Si4 0.631972 0.622856 0.944715
Si Si5 0.737546 0.706719 0.551162
Si Si6 0.048452 0.802746 0.114397
Si Si7 0.706209 0.472458 0.640698
Si Si8 0.307577 0.945731 0.828111
O O1 0.744998 0.696003 0.970608
O O2 0.836024 0.889449 0.881763
O O3 0.500000 0.000000 0.500000
O O4 0.525996 0.852344 0.938229
O O5 0.086589 0.825160 0.545698
O O6 0.420725 0.724561 0.823945
O O7 0.194886 0.956851 0.636279
O O8 0.211329 0.670547 0.028302
O O9 0.967796 0.626839 0.694011
O O10 0.301609 0.568759 0.769145
O O11 0.025640 0.814250 0.264233
O O12 0.655283 0.663187 0.732879
O O13 0.679266 0.635650 0.496713
O O14 0.692176 0.896643 0.306085
O O15 0.209859 0.860291 0.022787
O O16 0.143346 0.611104 0.343467
O O17 0.500000 0.500000 0.500000
#
# Coordination Sequence:
#
# PCOD9048196 Si02
#       8
#     2   2   2   2   2   2   2   2
#     4  11  24  48  81 117 156 213 269 326 398 471
#     4  10  24  44  76 108 152 210 258 307 402 473
#     4  12  26  45  77 115 156 206 261 324 394 482
#     4  11  23  43  77 115 149 199 265 332 383 464
#     4  12  26  44  79 114 152 197 265 329 391 462
#     4  11  28  50  79 115 165 211 262 326 401 472
#     4  11  25  48  81 116 155 208 264 331 399 471
#     4  10  26  51  78 115 157 205 264 327 390 476
#
# _framework density 27.016933000000002
#
# number of rings (size 3 to 8) (size 9 to 14) (size 15 to 20)
#    0.000    1.000    2.500    2.250    5.250    8.500 
#    0.000    5.625    5.500    0.000    0.000    0.000 
#    0.000    0.000    0.000    0.000    0.000    0.000 
#
# Total GULP energy -89559.444400 kJ/mol
# GULP energy per Si atom -5597.465275 kJ/mol
# Density = 2.695544 g / cm^3
# Si number density = 27.016933 Si / 1000 Ang^3
#
#
#
# Elastic Constant Matrix: (Units=GPa)
#
#
# Indices 1 2 3 4 5 6 
#
# 1 135.3032 59.6060 27.8138 7.6683 -2.2547 -5.2461
# 2 59.6060 260.3313 88.1647 -20.6249 -3.1421 0.4798
# 3 27.8138 88.1647 91.8754 -1.6163 -4.7927 -8.3691
# 4 7.6683 -20.6249 -1.6163 47.7368 -8.9899 -0.5976
# 5 -2.2547 -3.1421 -4.7927 -8.9899 42.1131 -0.2453
# 6 -5.2461 0.4798 -8.3691 -0.5976 -0.2453 56.9526
#
#
#
# Elastic Compliance Matrix: (Units=1/GPa)
#
#
# Indices 1 2 3 4 5 6 
#
# 1 0.008523 -0.001870 -0.000778 -0.002241 -0.000246 0.000662
# 2 -0.001870 0.006406 -0.005603 0.002933 0.000360 -0.001017
# 3 -0.000778 -0.005603 0.016751 -0.001483 0.001144 0.002426
# 4 -0.002241 0.002933 -0.001483 0.023453 0.004935 -0.000182
# 5 -0.000246 0.000360 0.001144 0.004935 0.024945 0.000302
# 6 0.000662 -0.001017 0.002426 -0.000182 0.000302 0.017984
#
#
# Mechanical properties :
#
#
# Convention : Reuss Voigt Hill
#
# Bulk Modulus (GPa) = 65.88372 93.18654 79.53513
# Shear Modulus (GPa) = 41.79834 50.15554 45.97694
#
# Velocity S-wave (km/s) = 3.93761 4.31333 4.12974
# Velocity P-wave (km/s) = 6.71655 7.70540 7.22790
#
# Compressibility (1/GPa) = 0.01517826
#
# Stress axis : x y z
#
# Youngs Moduli (GPa) = 117.32943 156.11524 59.69725
#
# Poissons Ratio (x) = 0.29190 0.04644
# Poissons Ratio (y) = 0.21938 0.33449
# Poissons Ratio (z) = 0.09128 0.87472
#
# Static dielectric constant tensor:
#      x y z
#    x 2.123310 0.060180 0.031390 
#    y 0.060180 2.105070 -0.016110 
#    z 0.031390 -0.016110 2.180200 
# 
# From -- ./inp_files/398448.got.cif
#   From: 2010.05.17/outbox.cif.g08.bks.cpg/sg2_200_cif.got.tgz:398448.got - 2010.06.03 11:33:40.
