data_PCOD9048509
_publ_section_title
;
Structure prediction by ZEFSAII (Michael W. Deem and Ramdas Pophale) SiO2 
 PCOD9048509
Probable space group: P -1
;
_chemical_formula_sum "Si O2"
_cell_formula_units_Z 12
_cell_length_a 5.318629
_cell_length_b 8.763451
_cell_length_c 14.991346
_cell_angle_alpha 126.999098
_cell_angle_beta 121.443847
_cell_angle_gamma 66.954448
_cell_volume 473.005427
_symmetry_space_group_name_H-M "P -1"
_symmetry_group_IT_number 2
_symmetry_cell_setting 'triclinic'
loop_
_space_group_symop_operation_xyz
x,y,z
-x,-y,-z
loop_
_atom_site_type_symbol
_atom_site_label
_atom_site_fract_x
_atom_site_fract_y
_atom_site_fract_z
Si Si1 0.869801 0.655776 0.263392
Si Si2 0.318241 0.088327 0.082505
Si Si3 0.180591 0.013763 0.398003
Si Si4 0.365342 0.953303 0.229928
Si Si5 0.847071 0.412959 0.526630
Si Si6 0.941984 0.383308 0.033845
O O1 0.601700 0.820273 0.284912
O O2 0.760326 0.511763 0.119075
O O3 0.094111 0.795533 0.311435
O O4 0.996838 0.547885 0.336459
O O5 0.235585 0.309110 0.118388
O O6 0.466680 0.058255 0.196667
O O7 0.500000 0.000000 0.000000
O O8 0.000000 0.000000 0.000000
O O9 0.194610 0.076819 0.318634
O O10 0.500000 0.000000 0.500000
O O11 0.939448 0.178214 0.455006
O O12 0.180358 0.798947 0.095788
O O13 0.500000 0.500000 0.500000
O O14 0.000000 0.500000 0.500000
O O15 0.000000 0.500000 0.000000
#
# Coordination Sequence:
#
# PCOD9048509 Si02
#       6
#     2   2   2   2   2   2
#     4  12  26  47  79 109 153 203 255 320 382 465
#     4  10  24  45  69 107 153 201 251 306 377 457
#     4  12  26  51  79 110 153 205 265 317 388 464
#     4  11  25  46  79 110 151 205 253 316 384 465
#     4  12  30  51  77 115 154 203 263 326 389 458
#     4  11  23  46  73 116 151 196 252 311 390 459
#
# _framework density 25.369686000000002
#
# number of rings (size 3 to 8) (size 9 to 14) (size 15 to 20)
#    0.000    0.667    3.333    3.000    7.000    1.333 
#    0.000    0.000    0.000    0.000    0.000    0.000 
#    0.000    0.000    0.000    0.000    0.000    0.000 
#
# Total GULP energy -66993.698947 kJ/mol
# GULP energy per Si atom -5582.808246 kJ/mol
# Density = 2.531194 g / cm^3
# Si number density = 25.369686 Si / 1000 Ang^3
#
#
#
# Elastic Constant Matrix: (Units=GPa)
#
#
# Indices 1 2 3 4 5 6 
#
# 1 128.0577 45.2388 43.7928 -23.4277 -27.2949 -5.4048
# 2 45.2388 150.8525 32.6867 -38.9270 -15.5395 4.9722
# 3 43.7928 32.6867 151.5760 -26.6624 -31.7823 2.7820
# 4 -23.4277 -38.9270 -26.6624 52.3957 3.0407 -13.6490
# 5 -27.2949 -15.5395 -31.7823 3.0407 49.5651 -2.7324
# 6 -5.4048 4.9722 2.7820 -13.6490 -2.7324 47.5444
#
#
#
# Elastic Compliance Matrix: (Units=1/GPa)
#
#
# Indices 1 2 3 4 5 6 
#
# 1 0.010456 -0.001668 -0.001216 0.003244 0.004401 0.002618
# 2 -0.001668 0.008778 -0.000096 0.005812 0.001451 0.000650
# 3 -0.001216 -0.000096 0.008566 0.003654 0.004606 0.000684
# 4 0.003244 0.005812 0.003654 0.028529 0.004643 0.008004
# 5 0.004401 0.001451 0.004606 0.004643 0.025882 0.002899
# 6 0.002618 0.000650 0.000684 0.008004 0.002899 0.023687
#
#
# Mechanical properties :
#
#
# Convention : Reuss Voigt Hill
#
# Bulk Modulus (GPa) = 45.79062 74.88030 60.33546
# Shear Modulus (GPa) = 41.96819 50.48557 46.22688
#
# Velocity S-wave (km/s) = 4.07168 4.46578 4.27327
# Velocity P-wave (km/s) = 6.33982 7.49471 6.94132
#
# Compressibility (1/GPa) = 0.02183854
#
# Stress axis : x y z
#
# Youngs Moduli (GPa) = 95.63857 113.92367 116.74738
#
# Poissons Ratio (x) = 0.19003 0.14196
# Poissons Ratio (y) = 0.15953 0.01125
# Poissons Ratio (z) = 0.11629 0.01098
#
# Static dielectric constant tensor:
#      x y z
#    x 1.655240 0.117730 -0.098030 
#    y 0.117730 1.999150 0.069440 
#    z -0.098030 0.069440 2.017270 
# 
# From -- ./inp_files/36759.got.cif
#   From: 2010.05.17/outbox.cif.g08.bks.cpg/sg2_19_cif.got.tgz:36759.got - 2010.06.03 11:33:40.
