data_PCOD9048355
_publ_section_title
;
Structure prediction by ZEFSAII (Michael W. Deem and Ramdas Pophale) SiO2 
 PCOD9048355
Probable space group: P -1
;
_chemical_formula_sum "Si O2"
_cell_formula_units_Z 14
_cell_length_a 12.177453
_cell_length_b 5.786296
_cell_length_c 12.136395
_cell_angle_alpha 104.273639
_cell_angle_beta 43.589024
_cell_angle_gamma 115.848416
_cell_volume 527.311269
_symmetry_space_group_name_H-M "P -1"
_symmetry_group_IT_number 2
_symmetry_cell_setting 'triclinic'
loop_
_space_group_symop_operation_xyz
x,y,z
-x,-y,-z
loop_
_atom_site_type_symbol
_atom_site_label
_atom_site_fract_x
_atom_site_fract_y
_atom_site_fract_z
Si Si1 0.824135 0.663174 0.376705
Si Si2 0.191513 0.515851 0.393005
Si Si3 0.337368 0.475016 0.746440
Si Si4 0.515680 0.797268 0.053799
Si Si5 0.874786 0.864133 0.783052
Si Si6 0.013057 0.357662 0.117402
Si Si7 0.614239 0.006738 0.310540
O O1 0.786118 0.497951 0.494806
O O2 0.683316 0.603478 0.377573
O O3 0.976249 0.609691 0.197834
O O4 0.925873 0.956843 0.365721
O O5 0.353245 0.742040 0.246866
O O6 0.191868 0.259947 0.301819
O O7 0.000000 0.500000 0.500000
O O8 0.416155 0.786670 0.725360
O O9 0.415510 0.289778 0.728556
O O10 0.148363 0.391922 0.927593
O O11 0.500000 0.500000 0.000000
O O12 0.717741 0.929929 0.954459
O O13 0.500000 0.000000 0.000000
O O14 0.900734 0.686686 0.839133
O O15 0.820900 0.142802 0.206816
O O16 0.500000 0.000000 0.500000
#
# Coordination Sequence:
#
# PCOD9048355 Si02
#       7
#     2   2   2   2   2   2   2
#     4  11  22  41  70  99 133 178 231 276 342 399
#     4  11  22  43  69  99 135 177 223 284 341 402
#     4  11  25  45  71  96 139 182 228 274 336 414
#     4  10  24  45  67  98 133 176 226 275 331 403
#     4  11  23  42  71  95 135 179 229 281 334 409
#     4  11  24  44  68 100 134 184 229 272 339 408
#     4  11  23  45  69 100 138 175 226 285 337 395
#
# _framework density 26.549783999999999
#
# number of rings (size 3 to 8) (size 9 to 14) (size 15 to 20)
#    0.000    1.143    2.857    3.857    4.000    1.143 
#    7.714    0.000    0.000    0.000    0.000    0.000 
#    0.000    0.000    0.000    0.000    0.000    0.000 
#
# Total GULP energy -78161.839750 kJ/mol
# GULP energy per Si atom -5582.988554 kJ/mol
# Density = 2.648936 g / cm^3
# Si number density = 26.549784 Si / 1000 Ang^3
#
#
#
# Elastic Constant Matrix: (Units=GPa)
#
#
# Indices 1 2 3 4 5 6 
#
# 1 103.7297 39.3777 49.7752 -8.9549 -16.9814 -0.8691
# 2 39.3777 120.4404 45.5230 -28.2065 2.7639 -22.9499
# 3 49.7752 45.5230 184.3131 -24.5721 -17.2331 -4.7559
# 4 -8.9549 -28.2065 -24.5721 30.2648 2.6354 -2.7236
# 5 -16.9814 2.7639 -17.2331 2.6354 48.4374 -5.6934
# 6 -0.8691 -22.9499 -4.7559 -2.7236 -5.6934 47.7842
#
#
#
# Elastic Compliance Matrix: (Units=1/GPa)
#
#
# Indices 1 2 3 4 5 6 
#
# 1 0.012837 -0.004340 -0.002448 -0.002728 0.003814 -0.001796
# 2 -0.004340 0.014299 -0.000768 0.012272 -0.002442 0.007121
# 3 -0.002448 -0.000768 0.006993 0.004168 0.001529 0.000702
# 4 -0.002728 0.012272 0.004168 0.047999 -0.001753 0.008786
# 5 0.003814 -0.002442 0.001529 -0.001753 0.022959 0.001685
# 6 -0.001796 0.007121 0.000702 0.008786 0.001685 0.025086
#
#
# Mechanical properties :
#
#
# Convention : Reuss Voigt Hill
#
# Bulk Modulus (GPa) = 52.58653 75.31498 63.95076
# Shear Modulus (GPa) = 32.97603 43.55112 38.26358
#
# Velocity S-wave (km/s) = 3.52809 4.05453 3.80043
# Velocity P-wave (km/s) = 6.03708 7.09563 6.58765
#
# Compressibility (1/GPa) = 0.01901628
#
# Stress axis : x y z
#
# Youngs Moduli (GPa) = 77.90179 69.93381 142.99815
#
# Poissons Ratio (x) = 0.30353 0.35007
# Poissons Ratio (y) = 0.33812 0.10983
# Poissons Ratio (z) = 0.19071 0.05371
#
# Static dielectric constant tensor:
#      x y z
#    x 2.165210 0.174040 -0.032780 
#    y 0.174040 2.408880 0.001220 
#    z -0.032780 0.001220 2.103560 
# 
# From -- ./inp_files/442040.got.cif
#   From: 2010.05.17/outbox.cif.g08.bks.cpg/sg2_222_cif.got.tgz:442040.got - 2010.06.03 11:33:40.
