data_PCOD9048264
_publ_section_title
;
Structure prediction by ZEFSAII (Michael W. Deem and Ramdas Pophale) SiO2 
 PCOD9048264
Probable space group: P -1
;
_chemical_formula_sum "Si O2"
_cell_formula_units_Z 16
_cell_length_a 8.279276
_cell_length_b 18.570875
_cell_length_c 5.047168
_cell_angle_alpha 121.170962
_cell_angle_beta 61.143897
_cell_angle_gamma 110.592490
_cell_volume 576.135261
_symmetry_space_group_name_H-M "P -1"
_symmetry_group_IT_number 2
_symmetry_cell_setting 'triclinic'
loop_
_space_group_symop_operation_xyz
x,y,z
-x,-y,-z
loop_
_atom_site_type_symbol
_atom_site_label
_atom_site_fract_x
_atom_site_fract_y
_atom_site_fract_z
Si Si1 0.344249 0.505322 0.365730
Si Si2 0.668103 0.775514 0.214963
Si Si3 0.773593 0.932593 0.759719
Si Si4 0.593035 0.137736 0.820263
Si Si5 0.140751 0.441920 0.906221
Si Si6 0.899756 0.093273 0.161463
Si Si7 0.998245 0.291189 0.432735
Si Si8 0.321781 0.691175 0.648676
O O1 0.314311 0.459111 0.588548
O O2 0.334103 0.604323 0.625250
O O3 0.500000 0.500000 0.000000
O O4 0.177931 0.464277 0.223861
O O5 0.795757 0.855072 0.401440
O O6 0.538032 0.819001 0.198643
O O7 0.525408 0.720219 0.416695
O O8 0.803171 0.715761 0.869838
O O9 0.906608 0.920720 0.882706
O O10 0.555014 0.913169 0.960959
O O11 0.842770 0.031690 0.840870
O O12 0.720630 0.076216 0.464665
O O13 0.710311 0.221404 0.015642
O O14 0.050467 0.344125 0.757334
O O15 0.000000 0.500000 0.000000
O O16 0.911647 0.193263 0.318498
O O17 0.838871 0.331866 0.483839
#
# Coordination Sequence:
#
# PCOD9048264 Si02
#       8
#     2   2   2   2   2   2   2   2
#     4  12  28  49  77 109 148 197 248 311 374 446
#     4  11  24  44  67 103 136 179 233 294 351 430
#     4  10  24  45  65 101 139 180 232 288 357 423
#     4  11  23  42  67  97 137 176 231 290 348 426
#     4  12  28  49  75 110 151 195 246 313 372 440
#     4  11  23  43  70  98 138 184 230 289 356 436
#     4  12  25  45  72 101 140 186 236 295 364 430
#     4  11  26  44  71  99 137 186 237 292 360 438
#
# _framework density 27.771255
#
# number of rings (size 3 to 8) (size 9 to 14) (size 15 to 20)
#    0.000    0.750    3.750    2.625    5.250    2.000 
#    2.250    0.000    0.000    0.000    0.000    0.000 
#    0.000    0.000    0.000    0.000    0.000    0.000 
#
# Total GULP energy -89601.494645 kJ/mol
# GULP energy per Si atom -5600.093415 kJ/mol
# Density = 2.770805 g / cm^3
# Si number density = 27.771255 Si / 1000 Ang^3
#
#
#
# Elastic Constant Matrix: (Units=GPa)
#
#
# Indices 1 2 3 4 5 6 
#
# 1 82.3767 9.8590 17.5282 -1.1325 2.6579 5.5627
# 2 9.8590 125.3422 22.0324 20.2389 10.6918 15.8496
# 3 17.5282 22.0324 129.3774 9.6590 -3.6940 19.7991
# 4 -1.1325 20.2389 9.6590 48.3462 8.7760 4.5445
# 5 2.6579 10.6918 -3.6940 8.7760 56.7099 -2.9719
# 6 5.5627 15.8496 19.7991 4.5445 -2.9719 37.5460
#
#
#
# Elastic Compliance Matrix: (Units=1/GPa)
#
#
# Indices 1 2 3 4 5 6 
#
# 1 0.012662 -0.000719 -0.001555 0.001140 -0.000786 -0.000953
# 2 -0.000719 0.009197 -0.000802 -0.003158 -0.001425 -0.003084
# 3 -0.001555 -0.000802 0.008780 -0.001236 0.000785 -0.003850
# 4 0.001140 -0.003158 -0.001236 0.022967 -0.003156 -0.001214
# 5 -0.000786 -0.001425 0.000785 -0.003156 0.018592 0.002158
# 6 -0.000953 -0.003084 -0.003850 -0.001214 0.002158 0.030425
#
#
# Mechanical properties :
#
#
# Convention : Reuss Voigt Hill
#
# Bulk Modulus (GPa) = 40.83727 48.43728 44.63728
# Shear Modulus (GPa) = 42.75825 47.69885 45.22855
#
# Velocity S-wave (km/s) = 3.92810 4.14884 4.03998
# Velocity P-wave (km/s) = 5.94223 6.35845 6.15386
#
# Compressibility (1/GPa) = 0.02448743
#
# Stress axis : x y z
#
# Youngs Moduli (GPa) = 78.97887 108.72938 113.89146
#
# Poissons Ratio (x) = 0.07821 0.17707
# Poissons Ratio (y) = 0.05681 0.09132
# Poissons Ratio (z) = 0.12279 0.08718
#
# Static dielectric constant tensor:
#      x y z
#    x 2.207760 0.054590 -0.061900 
#    y 0.054590 2.259540 -0.099460 
#    z -0.061900 -0.099460 2.191040 
# 
# From -- ./inp_files/49181.got.cif
#   From: 2010.05.17/outbox.cif.g08.bks.cpg/sg2_25_cif.got.tgz:49181.got - 2010.06.03 11:33:40.
