data_PCOD9048368
_publ_section_title
;
Structure prediction by ZEFSAII (Michael W. Deem and Ramdas Pophale) SiO2 
 PCOD9048368
Probable space group: P -1
;
_chemical_formula_sum "Si O2"
_cell_formula_units_Z 14
_cell_length_a 19.929359
_cell_length_b 14.707337
_cell_length_c 12.155283
_cell_angle_alpha 32.090099
_cell_angle_beta 150.088954
_cell_angle_gamma 158.283351
_cell_volume 640.173281
_symmetry_space_group_name_H-M "P -1"
_symmetry_group_IT_number 2
_symmetry_cell_setting 'triclinic'
loop_
_space_group_symop_operation_xyz
x,y,z
-x,-y,-z
loop_
_atom_site_type_symbol
_atom_site_label
_atom_site_fract_x
_atom_site_fract_y
_atom_site_fract_z
Si Si1 0.592673 0.227613 0.252007
Si Si2 0.141874 0.213780 0.893146
Si Si3 0.419946 0.616862 0.471393
Si Si4 0.583254 0.776135 0.193797
Si Si5 0.412100 0.141124 0.320062
Si Si6 0.177187 0.913670 0.571337
Si Si7 0.696064 0.307728 0.969734
O O1 0.748414 0.525800 0.159876
O O2 0.484409 0.165547 0.276533
O O3 0.683955 0.123689 0.497407
O O4 0.443086 0.110585 0.056932
O O5 0.287159 0.197254 0.081804
O O6 0.014503 0.168544 0.658513
O O7 0.000000 0.000000 0.000000
O O8 0.394673 0.391369 0.651368
O O9 0.417495 0.664573 0.546102
O O10 0.639782 0.866520 0.476618
O O11 0.272304 0.583797 0.216255
O O12 0.753766 0.968920 0.328275
O O13 0.377867 0.608123 0.143717
O O14 0.148855 0.680802 0.772614
O O15 0.500000 0.000000 0.000000
#
# Coordination Sequence:
#
# PCOD9048368 Si02
#       7
#     2   2   2   2   2   2   2
#     4  11  24  42  66  87 119 172 210 241 297 372
#     4  12  24  40  61  97 129 152 197 264 316 351
#     4  10  17  34  58  89 113 161 208 247 293 360
#     4  10  18  33  60  85 115 162 207 244 293 362
#     4  11  23  42  64  87 125 166 211 240 296 379
#     4  10  19  35  54  89 123 150 196 258 311 346
#     4   8  16  29  52  79 117 150 198 244 290 354
#
# _framework density 21.869078999999999
#
# number of rings (size 3 to 8) (size 9 to 14) (size 15 to 20)
#    0.000    2.000    2.857    4.714    0.000    0.571 
#    5.143    0.714    0.000    2.571    0.000    0.000 
#    0.000    0.000    0.000    0.000    0.000    0.000 
#
# Total GULP energy -78127.760809 kJ/mol
# GULP energy per Si atom -5580.554344 kJ/mol
# Density = 2.181930 g / cm^3
# Si number density = 21.869079 Si / 1000 Ang^3
#
#
#
# Elastic Constant Matrix: (Units=GPa)
#
#
# Indices 1 2 3 4 5 6 
#
# 1 49.2722 7.8719 9.7397 15.4410 -21.6173 -25.7612
# 2 7.8719 39.7357 29.6050 -3.9143 0.7318 -16.2209
# 3 9.7397 29.6050 158.4327 14.7717 -6.6644 -16.2537
# 4 15.4410 -3.9143 14.7717 25.7869 -18.7344 -11.0866
# 5 -21.6173 0.7318 -6.6644 -18.7344 36.0013 -0.5835
# 6 -25.7612 -16.2209 -16.2537 -11.0866 -0.5835 21.4402
#
#
#
# Elastic Compliance Matrix: (Units=1/GPa)
#
#
# Indices 1 2 3 4 5 6 
#
# 1 -0.018678 -0.041300 0.004376 -0.069517 -0.047161 -0.087601
# 2 -0.041300 0.011236 -0.004948 -0.025105 -0.039963 -0.058944
# 3 0.004376 -0.004948 0.008003 -0.003865 0.002290 0.005646
# 4 -0.069517 -0.025105 -0.003865 0.003178 -0.041995 -0.104951
# 5 -0.047161 -0.039963 0.002290 -0.041995 -0.022901 -0.107502
# 6 -0.087601 -0.058944 0.005646 -0.104951 -0.107502 -0.156125
#
#
# Mechanical properties :
#
#
# Convention : Reuss Voigt Hill
#
# Bulk Modulus (GPa) = -12.02172 37.98597 12.98213
# Shear Modulus (GPa) = -41.92177 29.99393 -5.96392
#
# Velocity S-wave (km/s) = -4.38304 3.70742 -1.65319
# Velocity P-wave (km/s) = 5.57887 5.97780 1.51827
#
# Compressibility (1/GPa) = -0.08318279
#
# Stress axis : x y z
#
# Youngs Moduli (GPa) = -53.54026 89.00353 124.94860
#
# Poissons Ratio (x) = 3.67588 -0.54682
# Poissons Ratio (y) = -2.21123 0.61824
# Poissons Ratio (z) = 0.23431 0.44039
#
# Static dielectric constant tensor:
#      x y z
#    x 1.812260 -0.006730 0.014310 
#    y -0.006730 1.817180 0.000260 
#    z 0.014310 0.000260 1.880060 
# 
# From -- ./inp_files/268472.got.cif
#   From: 2010.05.17/outbox.cif.g08.bks.cpg/sg2_135_cif.got.tgz:268472.got - 2010.06.03 11:33:40.
