data_PCOD9048073
_publ_section_title
;
Structure prediction by ZEFSAII (Michael W. Deem and Ramdas Pophale) SiO2 
 PCOD9048073
Probable space group: P -1
;
_chemical_formula_sum "Si O2"
_cell_formula_units_Z 14
_cell_length_a 18.513016
_cell_length_b 7.599211
_cell_length_c 6.958055
_cell_angle_alpha 96.549277
_cell_angle_beta 89.079195
_cell_angle_gamma 35.731632
_cell_volume 557.881346
_symmetry_space_group_name_H-M "P -1"
_symmetry_group_IT_number 2
_symmetry_cell_setting 'triclinic'
loop_
_space_group_symop_operation_xyz
x,y,z
-x,-y,-z
loop_
_atom_site_type_symbol
_atom_site_label
_atom_site_fract_x
_atom_site_fract_y
_atom_site_fract_z
Si Si1 0.114306 0.697114 0.327220
Si Si2 0.689112 0.314856 0.491060
Si Si3 0.765492 0.516041 0.336293
Si Si4 0.671556 0.147012 0.119812
Si Si5 0.924780 0.426774 0.060770
Si Si6 0.817024 0.066057 0.810702
Si Si7 0.470650 0.903519 0.840766
O O1 0.214458 0.432339 0.450273
O O2 0.174158 0.742402 0.214174
O O3 0.070722 0.640279 0.169473
O O4 0.000000 0.000000 0.500000
O O5 0.760417 0.319458 0.362126
O O6 0.621471 0.326116 0.343041
O O7 0.588100 0.614226 0.667991
O O8 0.704165 0.229354 0.972453
O O9 0.880326 0.344615 0.175303
O O10 0.639409 0.816921 0.266636
O O11 0.585428 0.157820 0.058557
O O12 0.807286 0.793787 0.128907
O O13 0.789789 0.031922 0.600870
O O14 0.052101 0.239093 0.127563
O O15 0.500000 0.000000 0.000000
#
# Coordination Sequence:
#
# PCOD9048073 Si02
#       7
#     2   2   2   2   2   2   2
#     4  11  23  40  73 105 141 189 228 280 340 414
#     4  11  26  46  72 103 140 187 232 285 355 404
#     4  10  24  44  73 103 141 180 239 286 342 414
#     4  11  27  46  69 101 148 180 229 292 355 411
#     4  11  24  43  70 108 145 182 232 281 346 417
#     4  11  25  43  71 104 146 184 230 284 346 416
#     4  11  27  50  75 101 133 186 241 295 344 407
#
# _framework density 25.094942
#
# number of rings (size 3 to 8) (size 9 to 14) (size 15 to 20)
#    0.000    1.143    1.429    2.571   14.000    3.429 
#    2.571    0.000    0.000    0.000    0.000    0.000 
#    0.000    0.000    0.000    0.000    0.000    0.000 
#
# Total GULP energy -78407.185425 kJ/mol
# GULP energy per Si atom -5600.513245 kJ/mol
# Density = 2.503782 g / cm^3
# Si number density = 25.094942 Si / 1000 Ang^3
#
#
#
# Elastic Constant Matrix: (Units=GPa)
#
#
# Indices 1 2 3 4 5 6 
#
# 1 161.7712 33.8101 77.8067 -2.8044 -7.1383 -14.0055
# 2 33.8101 70.9141 40.7828 -9.5339 4.2441 -20.1492
# 3 77.8067 40.7828 146.2036 -10.2359 -3.0503 11.5613
# 4 -2.8044 -9.5339 -10.2359 39.1682 -4.3541 5.8978
# 5 -7.1383 4.2441 -3.0503 -4.3541 26.6365 5.5276
# 6 -14.0055 -20.1492 11.5613 5.8978 5.5276 28.4384
#
#
#
# Elastic Compliance Matrix: (Units=1/GPa)
#
#
# Indices 1 2 3 4 5 6 
#
# 1 0.009670 0.001296 -0.006355 -0.002030 -0.000497 0.008782
# 2 0.001296 0.028187 -0.011067 -0.001357 -0.011360 0.027598
# 3 -0.006355 -0.011067 0.015295 0.004500 0.006573 -0.019400
# 4 -0.002030 -0.001357 0.004500 0.028709 0.007192 -0.011143
# 5 -0.000497 -0.011360 0.006573 0.007192 0.045571 -0.021315
# 6 0.008782 0.027598 -0.019400 -0.011143 -0.021315 0.073384
#
#
# Mechanical properties :
#
#
# Convention : Reuss Voigt Hill
#
# Bulk Modulus (GPa) = 47.84342 75.96533 61.90438
# Shear Modulus (GPa) = 20.83033 33.94790 27.38911
#
# Velocity S-wave (km/s) = 2.88420 3.68200 3.30725
# Velocity P-wave (km/s) = 5.49526 6.95795 6.26941
#
# Compressibility (1/GPa) = 0.02090152
#
# Stress axis : x y z
#
# Youngs Moduli (GPa) = 103.40853 35.47696 65.38035
#
# Poissons Ratio (x) = -0.04599 0.41549
# Poissons Ratio (y) = -0.13405 0.72356
# Poissons Ratio (z) = 0.65716 0.39262
#
# Static dielectric constant tensor:
#      x y z
#    x 2.010740 0.012280 0.019630 
#    y 0.012280 2.046000 -0.055840 
#    z 0.019630 -0.055840 1.989110 
# 
# From -- ./inp_files/116246.got.cif
#   From: 2010.05.17/outbox.cif.g08.bks.cpg/sg2_59_cif.got.tgz:116246.got - 2010.06.03 11:33:40.
