data_PCOD9048179
_publ_section_title
;
Structure prediction by ZEFSAII (Michael W. Deem and Ramdas Pophale) SiO2 
 PCOD9048179
Probable space group: P -1
;
_chemical_formula_sum "Si O2"
_cell_formula_units_Z 14
_cell_length_a 4.898485
_cell_length_b 15.845382
_cell_length_c 10.164817
_cell_angle_alpha 124.264134
_cell_angle_beta 72.836862
_cell_angle_gamma 124.557088
_cell_volume 536.662253
_symmetry_space_group_name_H-M "P -1"
_symmetry_group_IT_number 2
_symmetry_cell_setting 'triclinic'
loop_
_space_group_symop_operation_xyz
x,y,z
-x,-y,-z
loop_
_atom_site_type_symbol
_atom_site_label
_atom_site_fract_x
_atom_site_fract_y
_atom_site_fract_z
Si Si1 0.764396 0.775318 0.662831
Si Si2 0.309094 0.290095 0.789172
Si Si3 0.635876 0.240158 0.926514
Si Si4 0.939906 0.504638 0.854671
Si Si5 0.236034 0.101571 0.456033
Si Si6 0.962567 0.389264 0.488987
Si Si7 0.636454 0.014879 0.139746
O O1 0.950785 0.851816 0.572024
O O2 0.389662 0.716310 0.611736
O O3 0.805644 0.667022 0.607652
O O4 0.975398 0.882485 0.826945
O O5 0.387466 0.267708 0.906234
O O6 0.539165 0.426274 0.833204
O O7 0.426193 0.214865 0.621750
O O8 0.925306 0.246446 0.797785
O O9 0.447825 0.111636 0.902709
O O10 0.857717 0.356387 0.087305
O O11 0.026198 0.435851 0.672649
O O12 0.000000 0.500000 0.000000
O O13 0.426410 0.055943 0.297253
O O14 0.000000 0.000000 0.500000
O O15 0.000000 0.500000 0.500000
O O16 0.500000 0.000000 0.000000
#
# Coordination Sequence:
#
# PCOD9048179 Si02
#       7
#     2   2   2   2   2   2   2
#     4  12  27  52  80 107 155 204 263 325 383 468
#     4  11  23  44  74 108 146 191 256 311 384 451
#     4  11  26  44  71 111 151 196 245 315 384 460
#     4  10  24  44  75 111 151 191 250 328 392 448
#     4  12  25  46  79 111 151 202 261 318 384 460
#     4  12  28  51  79 113 149 210 264 318 389 479
#     4  12  29  50  73 112 157 206 257 319 392 463
#
# _framework density 26.087171999999999
#
# number of rings (size 3 to 8) (size 9 to 14) (size 15 to 20)
#    0.000    0.571    4.286    1.714    8.000    4.000 
#    5.143    0.000    0.000    0.000    0.000    0.000 
#    0.000    0.000    0.000    0.000    0.000    0.000 
#
# Total GULP energy -78165.869917 kJ/mol
# GULP energy per Si atom -5583.276423 kJ/mol
# Density = 2.602780 g / cm^3
# Si number density = 26.087172 Si / 1000 Ang^3
#
#
#
# Elastic Constant Matrix: (Units=GPa)
#
#
# Indices 1 2 3 4 5 6 
#
# 1 97.4651 -2.7324 28.3190 2.1591 9.6417 -0.0469
# 2 -2.7324 108.0791 25.7367 41.0213 -0.0693 -11.9834
# 3 28.3190 25.7367 120.6484 22.8279 7.6113 28.4397
# 4 2.1591 41.0213 22.8279 46.8383 -4.5306 6.6977
# 5 9.6417 -0.0693 7.6113 -4.5306 42.7686 -5.9465
# 6 -0.0469 -11.9834 28.4397 6.6977 -5.9465 24.8447
#
#
#
# Elastic Compliance Matrix: (Units=1/GPa)
#
#
# Indices 1 2 3 4 5 6 
#
# 1 0.011831 0.002902 -0.004598 -0.001945 -0.001084 0.006951
# 2 0.002902 0.020323 -0.007370 -0.017493 0.002099 0.023462
# 3 -0.004598 -0.007370 0.016723 0.001497 -0.005178 -0.024349
# 4 -0.001945 -0.017493 0.001497 0.039080 0.001455 -0.020341
# 5 -0.001084 0.002099 -0.005178 0.001455 0.026497 0.012888
# 6 0.006951 0.023462 -0.024349 -0.020341 0.012888 0.088020
#
#
# Mechanical properties :
#
#
# Convention : Reuss Voigt Hill
#
# Bulk Modulus (GPa) = 32.52488 47.64878 40.08683
# Shear Modulus (GPa) = 21.65869 41.21496 31.43682
#
# Velocity S-wave (km/s) = 2.88452 3.97910 3.47518
# Velocity P-wave (km/s) = 4.85683 6.27820 5.61269
#
# Compressibility (1/GPa) = 0.03074569
#
# Stress axis : x y z
#
# Youngs Moduli (GPa) = 84.52290 49.20560 59.79763
#
# Poissons Ratio (x) = -0.14280 0.27496
# Poissons Ratio (y) = -0.24530 0.44069
# Poissons Ratio (z) = 0.38865 0.36263
#
# Static dielectric constant tensor:
#      x y z
#    x 2.079630 0.053670 -0.031090 
#    y 0.053670 2.156260 -0.041970 
#    z -0.031090 -0.041970 2.213840 
# 
# From -- ./inp_files/135728.got.cif
#   From: 2010.05.17/outbox.cif.g08.bks.cpg/sg2_68_cif.got.tgz:135728.got - 2010.06.03 11:33:40.
