data_PCOD9048442
_publ_section_title
;
Structure prediction by ZEFSAII (Michael W. Deem and Ramdas Pophale) SiO2 
 PCOD9048442
Probable space group: P -1
;
_chemical_formula_sum "Si O2"
_cell_formula_units_Z 14
_cell_length_a 9.620234
_cell_length_b 10.922765
_cell_length_c 14.041615
_cell_angle_alpha 148.348753
_cell_angle_beta 107.418858
_cell_angle_gamma 89.086749
_cell_volume 649.240572
_symmetry_space_group_name_H-M "P -1"
_symmetry_group_IT_number 2
_symmetry_cell_setting 'triclinic'
loop_
_space_group_symop_operation_xyz
x,y,z
-x,-y,-z
loop_
_atom_site_type_symbol
_atom_site_label
_atom_site_fract_x
_atom_site_fract_y
_atom_site_fract_z
Si Si1 0.905017 0.634418 0.126275
Si Si2 0.364650 0.356762 0.457840
Si Si3 0.004477 0.219991 0.541966
Si Si4 0.528391 0.017595 0.249691
Si Si5 0.470217 0.775729 0.267184
Si Si6 0.127822 0.528447 0.460792
Si Si7 0.620421 0.485211 0.228428
O O1 0.989409 0.725817 0.308217
O O2 0.714754 0.405871 0.931110
O O3 0.908583 0.913949 0.282588
O O4 0.000000 0.500000 0.000000
O O5 0.500000 0.500000 0.500000
O O6 0.187211 0.308924 0.350669
O O7 0.411590 0.532308 0.678185
O O8 0.405650 0.122192 0.335727
O O9 0.190928 0.299673 0.603762
O O10 0.960789 0.432164 0.623612
O O11 0.579051 0.914877 0.287532
O O12 0.689135 0.217726 0.353841
O O13 0.414784 0.791042 0.004370
O O14 0.516196 0.580369 0.205254
O O15 0.500000 0.000000 0.500000
O O16 0.000000 0.500000 0.500000
#
# Coordination Sequence:
#
# PCOD9048442 Si02
#       7
#     2   2   2   2   2   2   2
#     4  11  26  43  68 105 142 179 223 286 357 414
#     4  10  24  45  68  97 138 183 239 283 335 414
#     4  11  25  44  69  99 143 180 226 286 347 414
#     4  11  25  44  73 100 137 182 238 283 350 422
#     4  12  24  42  73 106 139 180 228 286 355 422
#     4  11  24  46  70  96 136 187 232 290 340 400
#     4  12  23  43  72 101 139 184 228 287 351 417
#
# _framework density 21.563656000000002
#
# number of rings (size 3 to 8) (size 9 to 14) (size 15 to 20)
#    0.000    0.857    4.286    2.143    6.000    2.286 
#    0.000    2.143    0.000    0.000    0.000    0.000 
#    0.000    0.000    0.000    0.000    0.000    0.000 
#
# Total GULP energy -77970.977217 kJ/mol
# GULP energy per Si atom -5569.355515 kJ/mol
# Density = 2.151458 g / cm^3
# Si number density = 21.563656 Si / 1000 Ang^3
#
#
#
# Elastic Constant Matrix: (Units=GPa)
#
#
# Indices 1 2 3 4 5 6 
#
# 1 105.0636 18.1281 11.7641 -13.9213 1.4319 6.0518
# 2 18.1281 82.7399 -6.3137 -37.5535 2.4317 9.2791
# 3 11.7641 -6.3137 90.9835 -27.1691 4.0013 23.4081
# 4 -13.9213 -37.5535 -27.1691 4.0085 26.0005 7.4282
# 5 1.4319 2.4317 4.0013 26.0005 24.5847 -6.2011
# 6 6.0518 9.2791 23.4081 7.4282 -6.2011 41.8383
#
#
#
# Elastic Compliance Matrix: (Units=1/GPa)
#
#
# Indices 1 2 3 4 5 6 
#
# 1 0.010078 -0.002464 -0.001578 -0.000272 0.000215 0.000052
# 2 -0.002464 0.008349 -0.002473 -0.007816 0.008631 0.002555
# 3 -0.001578 -0.002473 0.008899 -0.007736 0.006603 -0.001850
# 4 -0.000272 -0.007816 -0.007736 -0.012213 0.017712 0.010895
# 5 0.000215 0.008631 0.006603 0.017712 0.018478 -0.006046
# 6 0.000052 0.002555 -0.001850 0.010895 -0.006046 0.021532
#
#
# Mechanical properties :
#
#
# Convention : Reuss Voigt Hill
#
# Bulk Modulus (GPa) = 69.95233 36.21599 53.08416
# Shear Modulus (GPa) = 68.56932 31.10018 49.83475
#
# Velocity S-wave (km/s) = 5.64514 3.80182 4.81256
# Velocity P-wave (km/s) = 8.66028 6.00859 7.45331
#
# Compressibility (1/GPa) = 0.01429545
#
# Stress axis : x y z
#
# Youngs Moduli (GPa) = 99.22662 119.76791 112.37362
#
# Poissons Ratio (x) = 0.29514 0.17735
# Poissons Ratio (y) = 0.24452 0.27790
# Poissons Ratio (z) = 0.15660 0.29618
#
# Static dielectric constant tensor:
#      x y z
#    x 1.790850 -0.080650 0.032610 
#    y -0.080650 1.930450 0.084800 
#    z 0.032610 0.084800 1.747870 
# 
# From -- ./inp_files/501267.got.cif
#   From: 2010.05.17/outbox.cif.g08.bks.cpg/sg2_251_cif.got.tgz:501267.got - 2010.06.03 11:33:40.
