data_PCOD9048649
_publ_section_title
;
Structure prediction by ZEFSAII (Michael W. Deem and Ramdas Pophale) SiO2 
 PCOD9048649
Probable space group: P -1
;
_chemical_formula_sum "Si O2"
_cell_formula_units_Z 13
_cell_length_a 8.985149
_cell_length_b 13.888978
_cell_length_c 10.658580
_cell_angle_alpha 148.773913
_cell_angle_beta 111.816597
_cell_angle_gamma 87.703984
_cell_volume 522.828503
_symmetry_space_group_name_H-M "P -1"
_symmetry_group_IT_number 2
_symmetry_cell_setting 'triclinic'
loop_
_space_group_symop_operation_xyz
x,y,z
-x,-y,-z
loop_
_atom_site_type_symbol
_atom_site_label
_atom_site_fract_x
_atom_site_fract_y
_atom_site_fract_z
Si Si1 0.500000 0.500000 0.000000
Si Si2 0.172904 0.268030 0.830855
Si Si3 0.492161 0.082509 0.229656
Si Si4 0.366726 0.006368 0.360487
Si Si5 0.093276 0.757814 0.484548
Si Si6 0.922377 0.622850 0.822285
Si Si7 0.820919 0.851136 0.873951
O O1 0.374085 0.340983 0.910417
O O2 0.448781 0.268400 0.659037
O O3 0.085118 0.345629 0.781952
O O4 0.192222 0.381994 0.096412
O O5 0.000000 0.000000 0.500000
O O6 0.371630 0.917039 0.123733
O O7 0.713016 0.188071 0.462029
O O8 0.380458 0.200817 0.298961
O O9 0.500000 0.000000 0.000000
O O10 0.500000 0.000000 0.500000
O O11 0.140537 0.850406 0.153582
O O12 0.058013 0.585048 0.391094
O O13 0.127498 0.981236 0.804802
O O14 0.819803 0.641224 0.689670
O O15 0.000000 0.000000 0.000000
#
# Coordination Sequence:
#
# PCOD9048649 Si02
#       7
#     1   2   2   2   2   2   2
#     4  12  26  42  72 108 146 186 236 298 362 434
#     4  12  23  45  72 107 145 187 232 299 367 426
#     4  10  24  45  70  98 146 191 234 303 356 431
#     4  12  24  43  70 107 139 188 244 293 365 430
#     4  11  24  45  69 104 142 186 236 293 363 429
#     4  12  24  43  74 101 143 193 233 303 360 430
#     4  11  23  45  68  99 143 185 247 296 351 433
#
# _framework density 24.864749
#
# number of rings (size 3 to 8) (size 9 to 14) (size 15 to 20)
#    0.000    0.615    4.615    3.231    0.000    1.231 
#    0.000    0.000    0.000    0.000    0.000    0.000 
#    0.000    0.000    0.000    0.000    0.000    0.000 
#
# Total GULP energy -72390.461633 kJ/mol
# GULP energy per Si atom -5568.497049 kJ/mol
# Density = 2.480816 g / cm^3
# Si number density = 24.864749 Si / 1000 Ang^3
#
#
#
# Elastic Constant Matrix: (Units=GPa)
#
#
# Indices 1 2 3 4 5 6 
#
# 1 92.3351 36.0156 11.1005 -3.9433 10.3046 12.9897
# 2 36.0156 139.0640 4.0236 -5.3260 -11.0197 -0.1031
# 3 11.1005 4.0236 62.7021 15.3405 -1.9883 3.5724
# 4 -3.9433 -5.3260 15.3405 47.3849 -3.6410 2.4733
# 5 10.3046 -11.0197 -1.9883 -3.6410 26.4365 3.5039
# 6 12.9897 -0.1031 3.5724 2.4733 3.5039 57.9295
#
#
#
# Elastic Compliance Matrix: (Units=1/GPa)
#
#
# Indices 1 2 3 4 5 6 
#
# 1 0.013871 -0.004013 -0.002544 0.001143 -0.006769 -0.002600
# 2 -0.004013 0.008684 0.000043 0.001003 0.005252 0.000552
# 3 -0.002544 0.000043 0.017902 -0.005860 0.001599 -0.000380
# 4 0.001143 0.001003 -0.005860 0.023488 0.002909 -0.001072
# 5 -0.006769 0.005252 0.001599 0.002909 0.043350 -0.001318
# 6 -0.002600 0.000552 -0.000380 -0.001072 -0.001318 0.017995
#
#
# Mechanical properties :
#
#
# Convention : Reuss Voigt Hill
#
# Bulk Modulus (GPa) = 36.45873 44.04228 40.25051
# Shear Modulus (GPa) = 33.90676 42.54764 38.22720
#
# Velocity S-wave (km/s) = 3.69677 4.14111 3.92523
# Velocity P-wave (km/s) = 5.73725 6.37309 6.06351
#
# Compressibility (1/GPa) = 0.02742827
#
# Stress axis : x y z
#
# Youngs Moduli (GPa) = 72.09049 115.15233 55.85929
#
# Poissons Ratio (x) = 0.46216 0.14212
# Poissons Ratio (y) = 0.28933 -0.00240
# Poissons Ratio (z) = 0.18342 -0.00495
#
# Static dielectric constant tensor:
#      x y z
#    x 2.052580 0.022070 -0.014170 
#    y 0.022070 1.994640 0.016470 
#    z -0.014170 0.016470 2.090770 
# 
# From -- ./inp_files/168181.got.cif
#   From: 2010.05.17/outbox.cif.g08.bks.cpg/sg2_85_cif.got.tgz:168181.got - 2010.06.03 11:33:40.
