data_PCOD9048997
_publ_section_title
;
Structure prediction by ZEFSAII (Michael W. Deem and Ramdas Pophale) SiO2 
 PCOD9048997
Probable space group: P -1
;
_chemical_formula_sum "Si O2"
_cell_formula_units_Z 16
_cell_length_a 17.106565
_cell_length_b 13.970461
_cell_length_c 11.242432
_cell_angle_alpha 33.448057
_cell_angle_beta 126.705967
_cell_angle_gamma 149.649683
_cell_volume 672.237922
_symmetry_space_group_name_H-M "P -1"
_symmetry_group_IT_number 2
_symmetry_cell_setting 'triclinic'
loop_
_space_group_symop_operation_xyz
x,y,z
-x,-y,-z
loop_
_atom_site_type_symbol
_atom_site_label
_atom_site_fract_x
_atom_site_fract_y
_atom_site_fract_z
Si Si1 0.341447 0.293896 0.391414
Si Si2 0.011379 0.967728 0.306034
Si Si3 0.845461 0.401094 0.606258
Si Si4 0.523766 0.083444 0.571583
Si Si5 0.308977 0.518755 0.325122
Si Si6 0.654677 0.090017 0.190849
Si Si7 0.393613 0.402196 0.889592
Si Si8 0.979138 0.257767 0.828084
O O1 0.382380 0.476659 0.350302
O O2 0.501042 0.499833 0.233455
O O3 0.276024 0.003058 0.664907
O O4 0.189469 0.170757 0.313549
O O5 0.929863 0.683186 0.459771
O O6 0.864973 0.803083 0.438762
O O7 0.036252 0.166247 0.036579
O O8 0.639407 0.112717 0.716664
O O9 0.931456 0.347212 0.778368
O O10 0.889550 0.490128 0.414512
O O11 0.619893 0.409795 0.320118
O O12 0.500000 0.000000 0.500000
O O13 0.356704 0.874884 0.716712
O O14 0.457508 0.783020 0.280889
O O15 0.267288 0.635592 0.095382
O O16 0.500000 0.500000 0.000000
O O17 0.203631 0.047088 0.086035
#
# Coordination Sequence:
#
# PCOD9048997 Si02
#       8
#     2   2   2   2   2   2   2   2
#     4  11  26  41  68  98 137 173 227 281 335 398
#     4  12  24  44  66  98 137 178 225 282 337 407
#     4  11  24  43  66  97 136 184 217 281 341 402
#     4  11  23  41  69  99 139 173 223 281 339 403
#     4  11  24  44  72  94 134 183 228 276 340 396
#     4  10  24  46  65 101 134 174 231 280 332 407
#     4  11  23  41  65 102 132 178 228 277 335 405
#     4  11  25  42  68  96 136 181 228 269 351 406
#
# _framework density 23.801096999999999
#
# number of rings (size 3 to 8) (size 9 to 14) (size 15 to 20)
#    0.000    1.000    2.500    3.375    5.250    5.500 
#    0.000    0.000    0.000    0.000    0.000    0.000 
#    0.000    0.000    0.000    0.000    0.000    0.000 
#
# Total GULP energy -89618.734547 kJ/mol
# GULP energy per Si atom -5601.170909 kJ/mol
# Density = 2.374692 g / cm^3
# Si number density = 23.801097 Si / 1000 Ang^3
#
#
#
# Elastic Constant Matrix: (Units=GPa)
#
#
# Indices 1 2 3 4 5 6 
#
# 1 115.8496 19.9409 1.4285 -1.4445 14.4600 -19.5993
# 2 19.9409 65.0841 -1.4562 6.8448 9.8122 3.6445
# 3 1.4285 -1.4562 60.6779 8.6628 16.8889 -3.4419
# 4 -1.4445 6.8448 8.6628 27.9364 5.0154 0.2737
# 5 14.4600 9.8122 16.8889 5.0154 34.5651 1.0187
# 6 -19.5993 3.6445 -3.4419 0.2737 1.0187 38.7270
#
#
#
# Elastic Compliance Matrix: (Units=1/GPa)
#
#
# Indices 1 2 3 4 5 6 
#
# 1 0.010745 -0.003101 0.001023 0.001756 -0.004544 0.005928
# 2 -0.003101 0.017583 0.002062 -0.004364 -0.003983 -0.002905
# 3 0.001023 0.002062 0.020193 -0.004899 -0.010240 0.002422
# 4 0.001756 -0.004364 -0.004899 0.038967 -0.002775 0.000662
# 5 -0.004544 -0.003983 -0.010240 -0.002775 0.037481 -0.003801
# 6 0.005928 -0.002905 0.002422 0.000662 -0.003801 0.029406
#
#
# Mechanical properties :
#
#
# Convention : Reuss Voigt Hill
#
# Bulk Modulus (GPa) = 20.62318 31.27086 25.94702
# Shear Modulus (GPa) = 29.31366 35.02560 32.16963
#
# Velocity S-wave (km/s) = 3.51324 3.84030 3.68040
# Velocity P-wave (km/s) = 5.01405 5.72982 5.38384
#
# Compressibility (1/GPa) = 0.04848912
#
# Stress axis : x y z
#
# Youngs Moduli (GPa) = 93.06727 56.87309 49.52221
#
# Poissons Ratio (x) = 0.17635 -0.05066
# Poissons Ratio (y) = 0.28858 -0.10211
# Poissons Ratio (z) = -0.09521 -0.11726
#
# Static dielectric constant tensor:
#      x y z
#    x 1.963360 0.005360 0.018650 
#    y 0.005360 1.903760 0.010780 
#    z 0.018650 0.010780 1.895510 
# 
# From -- ./inp_files/466036.got.cif
#   From: 2010.05.17/outbox.cif.g08.bks.cpg/sg2_234_cif.got.tgz:466036.got - 2010.06.03 11:33:40.
