data_PCOD9048759
_publ_section_title
;
Structure prediction by ZEFSAII (Michael W. Deem and Ramdas Pophale) SiO2 
 PCOD9048759
Probable space group: P -1
;
_chemical_formula_sum "Si O2"
_cell_formula_units_Z 11
_cell_length_a 9.350545
_cell_length_b 12.567388
_cell_length_c 9.198170
_cell_angle_alpha 47.118198
_cell_angle_beta 113.612654
_cell_angle_gamma 146.293516
_cell_volume 401.460789
_symmetry_space_group_name_H-M "P -1"
_symmetry_group_IT_number 2
_symmetry_cell_setting 'triclinic'
loop_
_space_group_symop_operation_xyz
x,y,z
-x,-y,-z
loop_
_atom_site_type_symbol
_atom_site_label
_atom_site_fract_x
_atom_site_fract_y
_atom_site_fract_z
Si Si1 0.000000 0.000000 0.000000
Si Si2 0.046486 0.421325 0.960037
Si Si3 0.156056 0.342710 0.501250
Si Si4 0.277818 0.735219 0.291717
Si Si5 0.578241 0.887546 0.544167
Si Si6 0.383886 0.422639 0.228161
O O1 0.078179 0.199751 0.747662
O O2 0.315469 0.265687 0.963044
O O3 0.317608 0.688216 0.732507
O O4 0.809469 0.228650 0.912013
O O5 0.144575 0.338244 0.133889
O O6 0.000000 0.500000 0.000000
O O7 0.328796 0.621533 0.340122
O O8 0.311067 0.369277 0.418846
O O9 0.859905 0.157009 0.484026
O O10 0.514157 0.928308 0.332782
O O11 0.000000 0.500000 0.500000
O O12 0.614867 0.743908 0.659498
#
# Coordination Sequence:
#
# PCOD9048759 Si02
#       6
#     1   2   2   2   2   2
#     4  12  26  44  78 106 148 200 248 314 368 432
#     4  11  23  45  74 105 157 198 241 311 375 444
#     4  12  25  46  78 109 154 194 250 315 376 439
#     4  10  24  45  72 106 153 198 243 302 375 450
#     4  11  25  47  77 109 154 198 252 313 367 451
#     4  12  25  49  76 113 148 196 259 307 374 446
#
# _framework density 27.399934999999999
#
# number of rings (size 3 to 8) (size 9 to 14) (size 15 to 20)
#    0.000    0.727    5.455    1.636    0.000    2.909 
#    0.000    0.909    0.000    0.000    0.000    0.000 
#    0.000    0.000    0.000    0.000    0.000    0.000 
#
# Total GULP energy -61453.608463 kJ/mol
# GULP energy per Si atom -5586.691678 kJ/mol
# Density = 2.733757 g / cm^3
# Si number density = 27.399935 Si / 1000 Ang^3
#
#
#
# Elastic Constant Matrix: (Units=GPa)
#
#
# Indices 1 2 3 4 5 6 
#
# 1 167.1763 34.5316 35.1972 18.9114 16.5212 -20.1622
# 2 34.5316 171.5941 50.6260 36.0245 23.3388 24.5465
# 3 35.1972 50.6260 147.2991 40.1163 26.1175 7.0108
# 4 18.9114 36.0245 40.1163 70.7605 1.8361 11.5522
# 5 16.5212 23.3388 26.1175 1.8361 36.5075 13.7878
# 6 -20.1622 24.5465 7.0108 11.5522 13.7878 43.2733
#
#
#
# Elastic Compliance Matrix: (Units=1/GPa)
#
#
# Indices 1 2 3 4 5 6 
#
# 1 0.007839 -0.001309 -0.000260 -0.002230 -0.004903 0.006595
# 2 -0.001309 0.007699 -0.001187 -0.002267 -0.002032 -0.003532
# 3 -0.000260 -0.001187 0.009719 -0.005066 -0.006759 0.002484
# 4 -0.002230 -0.002267 -0.005066 0.019634 0.007585 -0.006590
# 5 -0.004903 -0.002032 -0.006759 0.007585 0.041086 -0.015152
# 6 0.006595 -0.003532 0.002484 -0.006590 -0.015152 0.034370
#
#
# Mechanical properties :
#
#
# Convention : Reuss Voigt Hill
#
# Bulk Modulus (GPa) = 50.64870 80.75324 65.70097
# Shear Modulus (GPa) = 37.75223 54.48924 46.12074
#
# Velocity S-wave (km/s) = 3.71593 4.46428 4.10718
# Velocity P-wave (km/s) = 6.07749 7.49060 6.82074
#
# Compressibility (1/GPa) = 0.01974384
#
# Stress axis : x y z
#
# Youngs Moduli (GPa) = 127.56542 129.88537 102.88825
#
# Poissons Ratio (x) = 0.17002 0.02679
# Poissons Ratio (y) = 0.16698 0.12218
# Poissons Ratio (z) = 0.03321 0.15424
#
# Static dielectric constant tensor:
#      x y z
#    x 2.276220 0.105770 0.063980 
#    y 0.105770 2.268510 0.109860 
#    z 0.063980 0.109860 2.254040 
# 
# From -- ./inp_files/174605.got.cif
#   From: 2010.05.17/outbox.cif.g08.bks.cpg/sg2_88_cif.got.tgz:174605.got - 2010.06.03 11:33:40.
