data_PCOD9048867
_publ_section_title
;
Structure prediction by ZEFSAII (Michael W. Deem and Ramdas Pophale) SiO2 
 PCOD9048867
Probable space group: P -1
;
_chemical_formula_sum "Si O2"
_cell_formula_units_Z 14
_cell_length_a 10.594553
_cell_length_b 10.889768
_cell_length_c 11.284587
_cell_angle_alpha 94.337805
_cell_angle_beta 154.730234
_cell_angle_gamma 85.576707
_cell_volume 554.059465
_symmetry_space_group_name_H-M "P -1"
_symmetry_group_IT_number 2
_symmetry_cell_setting 'triclinic'
loop_
_space_group_symop_operation_xyz
x,y,z
-x,-y,-z
loop_
_atom_site_type_symbol
_atom_site_label
_atom_site_fract_x
_atom_site_fract_y
_atom_site_fract_z
Si Si1 0.661024 0.239668 0.231168
Si Si2 0.206710 0.879680 0.415965
Si Si3 0.734565 0.509929 0.369460
Si Si4 0.188678 0.739169 0.167821
Si Si5 0.683588 0.775725 0.281700
Si Si6 0.713419 0.039850 0.889929
Si Si7 0.267765 0.416166 0.366557
O O1 0.734032 0.160414 0.402701
O O2 0.581519 0.379321 0.214343
O O3 0.962367 0.233056 0.408332
O O4 0.399846 0.196306 0.923088
O O5 0.517079 0.940161 0.648428
O O6 0.141243 0.763473 0.268050
O O7 0.944266 0.975502 0.170305
O O8 0.568453 0.637797 0.202769
O O9 0.829976 0.523797 0.588069
O O10 0.000000 0.500000 0.500000
O O11 0.993618 0.632174 0.939899
O O12 0.131244 0.866826 0.060334
O O13 0.530833 0.702870 0.438395
O O14 0.523172 0.877506 0.231396
O O15 0.500000 0.500000 0.500000
#
# Coordination Sequence:
#
# PCOD9048867 Si02
#       7
#     2   2   2   2   2   2   2
#     4  11  25  43  68 101 144 180 236 294 362 417
#     4  12  26  45  69 105 142 191 236 301 350 420
#     4  10  24  45  74 105 143 187 239 295 363 438
#     4  12  26  47  72 102 145 186 245 288 360 431
#     4  11  24  43  70 102 136 189 234 292 356 432
#     4  12  25  44  74  99 144 189 246 286 354 425
#     4  12  26  45  75 110 146 187 235 302 367 430
#
# _framework density 25.268048
#
# number of rings (size 3 to 8) (size 9 to 14) (size 15 to 20)
#    0.000    0.571    1.429    6.000    4.000    6.857 
#    0.000    0.000    0.000    0.000    0.000    0.000 
#    0.000    0.000    0.000    0.000    0.000    0.000 
#
# Total GULP energy -78455.587933 kJ/mol
# GULP energy per Si atom -5603.970567 kJ/mol
# Density = 2.521054 g / cm^3
# Si number density = 25.268048 Si / 1000 Ang^3
#
#
#
# Elastic Constant Matrix: (Units=GPa)
#
#
# Indices 1 2 3 4 5 6 
#
# 1 92.2860 38.5698 23.0816 4.8597 -14.6986 -0.8070
# 2 38.5698 59.7799 23.5167 -11.0235 -6.4542 -4.9616
# 3 23.0816 23.5167 120.8582 7.7912 -9.3000 -5.5796
# 4 4.8597 -11.0235 7.7912 45.0860 -1.6646 -3.6452
# 5 -14.6986 -6.4542 -9.3000 -1.6646 39.9028 -4.9361
# 6 -0.8070 -4.9616 -5.5796 -3.6452 -4.9361 45.7590
#
#
#
# Elastic Compliance Matrix: (Units=1/GPa)
#
#
# Indices 1 2 3 4 5 6 
#
# 1 0.016278 -0.010744 -0.000488 -0.004224 0.003862 -0.000857
# 2 -0.010744 0.026941 -0.003584 0.008619 0.000297 0.003013
# 3 -0.000488 -0.003584 0.009357 -0.002331 0.001412 0.000710
# 4 -0.004224 0.008619 -0.002331 0.025387 0.000685 0.002672
# 5 0.003862 0.000297 0.001412 0.000685 0.027294 0.003271
# 6 -0.000857 0.003013 0.000710 0.002672 0.003271 0.022818
#
#
# Mechanical properties :
#
#
# Convention : Reuss Voigt Hill
#
# Bulk Modulus (GPa) = 43.58455 49.25115 46.41785
# Shear Modulus (GPa) = 30.23813 38.66662 34.45238
#
# Velocity S-wave (km/s) = 3.46308 3.91609 3.69653
# Velocity P-wave (km/s) = 5.76861 6.32309 6.05221
#
# Compressibility (1/GPa) = 0.02294391
#
# Stress axis : x y z
#
# Youngs Moduli (GPa) = 61.43167 37.11789 106.87728
#
# Poissons Ratio (x) = 0.39878 0.05220
# Poissons Ratio (y) = 0.65999 0.38306
# Poissons Ratio (z) = 0.03001 0.13303
#
# Static dielectric constant tensor:
#      x y z
#    x 2.051480 0.021010 -0.007630 
#    y 0.021010 2.033050 -0.004490 
#    z -0.007630 -0.004490 1.942870 
# 
# From -- ./inp_files/426271.got.cif
#   From: 2010.05.17/outbox.cif.g08.bks.cpg/sg2_214_cif.got.tgz:426271.got - 2010.06.03 11:33:40.
