data_PCOD9048026
_publ_section_title
;
Structure prediction by ZEFSAII (Michael W. Deem and Ramdas Pophale) SiO2 
 PCOD9048026
Probable space group: P -1
;
_chemical_formula_sum "Si O2"
_cell_formula_units_Z 16
_cell_length_a 11.726048
_cell_length_b 11.888690
_cell_length_c 7.923885
_cell_angle_alpha 52.755867
_cell_angle_beta 63.223355
_cell_angle_gamma 99.205499
_cell_volume 622.854907
_symmetry_space_group_name_H-M "P -1"
_symmetry_group_IT_number 2
_symmetry_cell_setting 'triclinic'
loop_
_space_group_symop_operation_xyz
x,y,z
-x,-y,-z
loop_
_atom_site_type_symbol
_atom_site_label
_atom_site_fract_x
_atom_site_fract_y
_atom_site_fract_z
Si Si1 0.263244 0.305866 0.474056
Si Si2 0.078946 0.200935 0.204711
Si Si3 0.263359 0.020737 0.889381
Si Si4 0.398735 0.831049 0.596900
Si Si5 0.372382 0.014747 0.164959
Si Si6 0.993880 0.685379 0.197309
Si Si7 0.403315 0.338709 0.981236
Si Si8 0.934364 0.526335 0.846389
O O1 0.195528 0.123247 0.780432
O O2 0.271619 0.308040 0.966818
O O3 0.255153 0.631278 0.924116
O O4 0.135276 0.343703 0.556398
O O5 0.313257 0.292526 0.264203
O O6 0.052070 0.300841 0.275629
O O7 0.021849 0.229406 0.039776
O O8 0.000000 0.000000 0.500000
O O9 0.453989 0.153976 0.600005
O O10 0.253551 0.983547 0.126678
O O11 0.169718 0.836728 0.017895
O O12 0.311176 0.876587 0.481738
O O13 0.430666 0.467798 0.297598
O O14 0.500000 0.000000 0.500000
O O15 0.439797 0.200985 0.036751
O O16 0.500000 0.000000 0.000000
O O17 0.973483 0.507723 0.321666
O O18 0.000000 0.500000 0.000000
#
# Coordination Sequence:
#
# PCOD9048026 Si02
#       8
#     2   2   2   2   2   2   2   2
#     4  11  25  45  72 103 149 194 249 311 377 445
#     4  11  25  45  77 109 148 193 252 311 374 451
#     4  11  22  43  71 106 146 196 243 308 372 443
#     4  11  21  42  75 103 150 195 246 305 370 446
#     4  10  25  41  69 109 139 186 249 304 370 442
#     4  11  24  46  70 108 151 197 246 306 381 443
#     4  11  25  47  71 105 141 195 254 307 373 455
#     4  10  24  44  72 110 146 200 246 302 380 441
#
# _framework density 25.688168000000001
#
# number of rings (size 3 to 8) (size 9 to 14) (size 15 to 20)
#    0.000    1.250    1.250    3.375    3.500    8.000 
#    0.000    0.625    0.000    0.000    0.000    0.000 
#    0.000    0.000    0.000    0.000    0.000    0.000 
#
# Total GULP energy -89592.629895 kJ/mol
# GULP energy per Si atom -5599.539368 kJ/mol
# Density = 2.562970 g / cm^3
# Si number density = 25.688168 Si / 1000 Ang^3
#
#
#
# Elastic Constant Matrix: (Units=GPa)
#
#
# Indices 1 2 3 4 5 6 
#
# 1 101.9890 40.0318 36.6021 0.0200 -19.8926 4.1698
# 2 40.0318 211.1974 60.0259 -16.3730 -0.9814 -17.6242
# 3 36.6021 60.0259 95.2603 -6.2891 3.6255 5.0747
# 4 0.0200 -16.3730 -6.2891 41.9942 -3.1223 5.1012
# 5 -19.8926 -0.9814 3.6255 -3.1223 41.9784 4.5367
# 6 4.1698 -17.6242 5.0747 5.1012 4.5367 52.9369
#
#
#
# Elastic Compliance Matrix: (Units=1/GPa)
#
#
# Indices 1 2 3 4 5 6 
#
# 1 0.013351 -0.001411 -0.004448 -0.000518 0.006815 -0.001629
# 2 -0.001411 0.006305 -0.003439 0.001624 -0.000364 0.002415
# 3 -0.004448 -0.003439 0.014658 0.000865 -0.003172 -0.002011
# 4 -0.000518 0.001624 0.000865 0.024960 0.001797 -0.002061
# 5 0.006815 -0.000364 -0.003172 0.001797 0.027765 -0.002907
# 6 -0.001629 0.002415 -0.002011 -0.002061 -0.002907 0.020463
#
#
# Mechanical properties :
#
#
# Convention : Reuss Voigt Hill
#
# Bulk Modulus (GPa) = 63.61236 75.75183 69.68209
# Shear Modulus (GPa) = 38.07018 45.50103 41.78561
#
# Velocity S-wave (km/s) = 3.85387 4.21323 4.03755
# Velocity P-wave (km/s) = 6.67983 7.29530 6.99434
#
# Compressibility (1/GPa) = 0.01572022
#
# Stress axis : x y z
#
# Youngs Moduli (GPa) = 74.90068 158.59541 68.22134
#
# Poissons Ratio (x) = 0.22378 0.30342
# Poissons Ratio (y) = 0.10569 0.23458
# Poissons Ratio (z) = 0.33313 0.54534
#
# Static dielectric constant tensor:
#      x y z
#    x 2.031710 -0.036900 0.031890 
#    y -0.036900 2.050500 0.024940 
#    z 0.031890 0.024940 2.059910 
# 
# From -- ./inp_files/256353.got.cif
#   From: 2010.05.17/outbox.cif.g08.bks.cpg/sg2_129_cif.got.tgz:256353.got - 2010.06.03 11:33:40.
