data_PCOD9048201
_publ_section_title
;
Structure prediction by ZEFSAII (Michael W. Deem and Ramdas Pophale) SiO2 
 PCOD9048201
Probable space group: P -1
;
_chemical_formula_sum "Si O2"
_cell_formula_units_Z 10
_cell_length_a 12.560376
_cell_length_b 16.415570
_cell_length_c 4.880517
_cell_angle_alpha 125.965151
_cell_angle_beta 63.213046
_cell_angle_gamma 152.102803
_cell_volume 374.816696
_symmetry_space_group_name_H-M "P -1"
_symmetry_group_IT_number 2
_symmetry_cell_setting 'triclinic'
loop_
_space_group_symop_operation_xyz
x,y,z
-x,-y,-z
loop_
_atom_site_type_symbol
_atom_site_label
_atom_site_fract_x
_atom_site_fract_y
_atom_site_fract_z
Si Si1 0.702918 0.219523 0.608286
Si Si2 0.931316 0.752803 0.357089
Si Si3 0.424651 0.187592 0.553921
Si Si4 0.176797 0.512609 0.692027
Si Si5 0.170292 0.192251 0.876901
O O1 0.594891 0.232291 0.588244
O O2 0.932903 0.331248 0.452341
O O3 0.500000 0.000000 0.500000
O O4 0.788416 0.342977 0.017086
O O5 0.871578 0.598119 0.219893
O O6 0.763235 0.676532 0.168695
O O7 0.924182 0.815120 0.766888
O O8 0.189761 0.952842 0.328379
O O9 0.574740 0.335513 0.418057
O O10 0.341183 0.231034 0.872604
O O11 0.000000 0.000000 0.500000
#
# Coordination Sequence:
#
# PCOD9048201 Si02
#       5
#     2   2   2   2   2
#     4  11  25  49  71 104 146 193 250 309 370 433
#     4  11  25  47  75 112 149 194 244 304 368 444
#     4  11  24  44  75 100 150 192 238 305 370 431
#     4  11  27  45  74 109 141 194 254 302 370 445
#     4  10  24  44  76 110 150 194 243 297 374 442
#
# _framework density 26.679705999999999
#
# number of rings (size 3 to 8) (size 9 to 14) (size 15 to 20)
#    0.000    1.200    2.000    3.000   11.200    2.400 
#    0.000    0.000    0.000    0.000    0.000    0.000 
#    0.000    0.000    0.000    0.000    0.000    0.000 
#
# Total GULP energy -55823.245975 kJ/mol
# GULP energy per Si atom -5582.324598 kJ/mol
# Density = 2.661898 g / cm^3
# Si number density = 26.679706 Si / 1000 Ang^3
#
#
#
# Elastic Constant Matrix: (Units=GPa)
#
#
# Indices 1 2 3 4 5 6 
#
# 1 193.8707 64.9713 17.7369 2.5506 6.9533 -30.2019
# 2 64.9713 203.9978 68.3350 27.4395 -18.3935 -25.1112
# 3 17.7369 68.3350 104.5421 6.4166 -9.2801 0.2171
# 4 2.5506 27.4395 6.4166 40.7262 -11.1315 -8.1771
# 5 6.9533 -18.3935 -9.2801 -11.1315 34.4204 -2.2559
# 6 -30.2019 -25.1112 0.2171 -8.1771 -2.2559 37.5501
#
#
#
# Elastic Compliance Matrix: (Units=1/GPa)
#
#
# Indices 1 2 3 4 5 6 
#
# 1 0.006470 -0.001814 -0.000142 0.001225 -0.001646 0.004159
# 2 -0.001814 0.008104 -0.004564 -0.003210 0.002655 0.003447
# 3 -0.000142 -0.004564 0.012624 0.000778 0.001048 -0.003007
# 4 0.001225 -0.003210 0.000778 0.029969 0.008323 0.005860
# 5 -0.001646 0.002655 0.001048 0.008323 0.034060 0.004304
# 6 0.004159 0.003447 -0.003007 0.005860 0.004304 0.033834
#
#
# Mechanical properties :
#
#
# Convention : Reuss Voigt Hill
#
# Bulk Modulus (GPa) = 70.62945 89.38854 80.00899
# Shear Modulus (GPa) = 35.00890 45.96382 40.48636
#
# Velocity S-wave (km/s) = 3.62635 4.15517 3.89973
# Velocity P-wave (km/s) = 6.63811 7.52314 7.09444
#
# Compressibility (1/GPa) = 0.01415840
#
# Stress axis : x y z
#
# Youngs Moduli (GPa) = 154.56139 123.39379 79.21156
#
# Poissons Ratio (x) = 0.22388 0.01122
# Poissons Ratio (y) = 0.28042 0.36152
# Poissons Ratio (z) = 0.02190 0.56317
#
# Static dielectric constant tensor:
#      x y z
#    x 2.168490 0.103390 0.001390 
#    y 0.103390 2.160480 -0.063570 
#    z 0.001390 -0.063570 2.306000 
# 
# From -- ./inp_files/21141.got.cif
#   From: 2010.05.17/outbox.cif.g08.bks.cpg/sg2_11_cif.got.tgz:21141.got - 2010.06.03 11:33:40.
