data_PCOD9048538
_publ_section_title
;
Structure prediction by ZEFSAII (Michael W. Deem and Ramdas Pophale) SiO2 
 PCOD9048538
Probable space group: P -1
;
_chemical_formula_sum "Si O2"
_cell_formula_units_Z 16
_cell_length_a 21.165447
_cell_length_b 5.417632
_cell_length_c 12.585040
_cell_angle_alpha 94.736495
_cell_angle_beta 25.305511
_cell_angle_gamma 90.842966
_cell_volume 608.616670
_symmetry_space_group_name_H-M "P -1"
_symmetry_group_IT_number 2
_symmetry_cell_setting 'triclinic'
loop_
_space_group_symop_operation_xyz
x,y,z
-x,-y,-z
loop_
_atom_site_type_symbol
_atom_site_label
_atom_site_fract_x
_atom_site_fract_y
_atom_site_fract_z
Si Si1 0.901145 0.780517 0.153055
Si Si2 0.197509 0.303210 0.317393
Si Si3 0.331424 0.462628 0.898129
Si Si4 0.149425 0.223433 0.991724
Si Si5 0.176832 0.505327 0.567710
Si Si6 0.443211 0.920371 0.970112
Si Si7 0.431122 0.633392 0.320722
Si Si8 0.909628 0.131829 0.742520
O O1 0.826033 0.765750 0.382084
O O2 0.789462 0.823085 0.223669
O O3 0.000000 0.500000 0.000000
O O4 0.000000 0.000000 0.000000
O O5 0.247662 0.364317 0.125584
O O6 0.253449 0.462770 0.334654
O O7 0.018651 0.341113 0.599901
O O8 0.266403 0.019008 0.231736
O O9 0.267346 0.352007 0.885784
O O10 0.260174 0.752227 0.017726
O O11 0.506937 0.401502 0.653889
O O12 0.987593 0.361846 0.205824
O O13 0.103235 0.013663 0.133725
O O14 0.266746 0.643824 0.522733
O O15 0.510697 0.115834 0.797532
O O16 0.493222 0.633420 0.854268
O O17 0.500000 0.000000 0.000000
O O18 0.000000 0.000000 0.500000
#
# Coordination Sequence:
#
# PCOD9048538 Si02
#       8
#     2   2   2   2   2   2   2   2
#     4  10  24  45  69  98 128 168 220 279 334 373
#     4  11  21  36  61  94 131 166 221 259 325 389
#     4  11  24  40  58  96 133 176 205 267 334 393
#     4  11  24  41  67  93 129 168 220 275 332 382
#     4  11  23  43  67  96 126 171 223 275 315 396
#     4  11  23  39  58  91 135 179 207 265 326 388
#     4  11  26  41  63  92 135 174 219 259 330 394
#     4  12  21  35  63  93 129 168 217 265 322 396
#
# _framework density 26.289124999999999
#
# number of rings (size 3 to 8) (size 9 to 14) (size 15 to 20)
#    0.000    1.000    3.750    3.000    7.000    2.000 
#    0.000    0.625    0.000    0.750    0.000    0.000 
#    0.000    0.000    0.000    0.000    0.000    0.000 
#
# Total GULP energy -89261.928544 kJ/mol
# GULP energy per Si atom -5578.870534 kJ/mol
# Density = 2.622929 g / cm^3
# Si number density = 26.289125 Si / 1000 Ang^3
#
#
#
# Elastic Constant Matrix: (Units=GPa)
#
#
# Indices 1 2 3 4 5 6 
#
# 1 228.8998 35.7306 30.4879 -3.0559 -5.3630 -6.0884
# 2 35.7306 86.2271 22.8781 -12.8510 11.6962 -14.1519
# 3 30.4879 22.8781 44.8559 -8.2095 -5.3771 -7.5962
# 4 -3.0559 -12.8510 -8.2095 35.0800 -5.8242 -1.9282
# 5 -5.3630 11.6962 -5.3771 -5.8242 51.0574 -10.9560
# 6 -6.0884 -14.1519 -7.5962 -1.9282 -10.9560 56.4701
#
#
#
# Elastic Compliance Matrix: (Units=1/GPa)
#
#
# Indices 1 2 3 4 5 6 
#
# 1 0.004964 -0.001536 -0.002682 -0.000686 0.000483 -0.000140
# 2 -0.001536 0.015216 -0.006078 0.003582 -0.003386 0.002295
# 3 -0.002682 -0.006078 0.029483 0.005555 0.005585 0.003427
# 4 -0.000686 0.003582 0.005555 0.031925 0.004075 0.003452
# 5 0.000483 -0.003386 0.005585 0.004075 0.022419 0.004443
# 6 -0.000140 0.002295 0.003427 0.003452 0.004443 0.019709
#
#
# Mechanical properties :
#
#
# Convention : Reuss Voigt Hill
#
# Bulk Modulus (GPa) = 34.39892 59.79734 47.09813
# Shear Modulus (GPa) = 32.46749 46.58059 39.52404
#
# Velocity S-wave (km/s) = 3.51809 4.21391 3.88162
# Velocity P-wave (km/s) = 5.44205 6.81700 6.16796
#
# Compressibility (1/GPa) = 0.02907068
#
# Stress axis : x y z
#
# Youngs Moduli (GPa) = 201.44452 65.71824 33.91765
#
# Poissons Ratio (x) = 0.10095 0.09097
# Poissons Ratio (y) = 0.30944 0.20617
# Poissons Ratio (z) = 0.54027 0.39947
#
# Static dielectric constant tensor:
#      x y z
#    x 2.205720 0.125880 0.044290 
#    y 0.125880 2.161660 0.102210 
#    z 0.044290 0.102210 2.348900 
# 
# From -- ./inp_files/93952.got.cif
#   From: 2010.05.17/outbox.cif.g08.bks.cpg/sg2_47_cif.got.tgz:93952.got - 2010.06.03 11:33:40.
