data_PCOD9048080
_publ_section_title
;
Structure prediction by ZEFSAII (Michael W. Deem and Ramdas Pophale) SiO2 
 PCOD9048080
Probable space group: P -1
;
_chemical_formula_sum "Si O2"
_cell_formula_units_Z 16
_cell_length_a 19.901255
_cell_length_b 11.290675
_cell_length_c 5.295911
_cell_angle_alpha 105.365041
_cell_angle_beta 61.350823
_cell_angle_gamma 143.009083
_cell_volume 612.455544
_symmetry_space_group_name_H-M "P -1"
_symmetry_group_IT_number 2
_symmetry_cell_setting 'triclinic'
loop_
_space_group_symop_operation_xyz
x,y,z
-x,-y,-z
loop_
_atom_site_type_symbol
_atom_site_label
_atom_site_fract_x
_atom_site_fract_y
_atom_site_fract_z
Si Si1 0.252049 0.016516 0.405372
Si Si2 0.919500 0.863962 0.815732
Si Si3 0.661877 0.089791 0.184372
Si Si4 0.885211 0.341956 0.303053
Si Si5 0.784013 0.432156 0.799895
Si Si6 0.615698 0.359913 0.676873
Si Si7 0.507087 0.365298 0.354832
Si Si8 0.263830 0.307791 0.589688
O O1 0.126029 0.807564 0.642036
O O2 0.363258 0.147571 0.485319
O O3 0.256911 0.165486 0.400852
O O4 0.286599 0.960686 0.103222
O O5 0.868998 0.661039 0.817534
O O6 0.794166 0.780351 0.078543
O O7 0.000000 0.000000 0.500000
O O8 0.000000 0.000000 0.000000
O O9 0.752996 0.198988 0.320883
O O10 0.512178 0.874882 0.333894
O O11 0.702328 0.270245 0.083452
O O12 0.881319 0.447229 0.567358
O O13 0.000000 0.500000 0.000000
O O14 0.677053 0.332355 0.734020
O O15 0.761438 0.611204 0.498150
O O16 0.559887 0.387929 0.005599
O O17 0.500000 0.500000 0.500000
O O18 0.599148 0.446410 0.465918
#
# Coordination Sequence:
#
# PCOD9048080 Si02
#       8
#     2   2   2   2   2   2   2   2
#     4   9  22  41  63 105 135 186 244 299 372 442
#     4  12  29  48  73 108 147 197 253 312 382 452
#     4  10  24  44  73 104 147 194 246 308 381 448
#     4  11  26  44  70  96 141 197 254 309 366 446
#     4  11  26  47  71 105 147 189 253 310 377 452
#     4  11  22  42  72 112 147 191 245 308 392 453
#     4   9  19  37  63  97 144 178 232 296 367 442
#     4  11  23  40  71 101 147 189 241 309 375 445
#
# _framework density 26.124348999999999
#
# number of rings (size 3 to 8) (size 9 to 14) (size 15 to 20)
#    0.000    1.500    1.250    1.875    5.250   10.000 
#    0.000    0.000    0.000    0.000    0.000    0.000 
#    0.000    0.000    0.000    0.000    0.000    0.000 
#
# Total GULP energy -89117.221348 kJ/mol
# GULP energy per Si atom -5569.826334 kJ/mol
# Density = 2.606489 g / cm^3
# Si number density = 26.124349 Si / 1000 Ang^3
#
#
#
# Elastic Constant Matrix: (Units=GPa)
#
#
# Indices 1 2 3 4 5 6 
#
# 1 56.6929 51.9190 20.9059 -15.7092 16.2392 -4.0514
# 2 51.9190 216.0263 71.4532 -17.3551 12.5762 -12.1785
# 3 20.9059 71.4532 128.5162 -27.5188 1.1497 -21.0240
# 4 -15.7092 -17.3551 -27.5188 50.5402 -7.2710 6.7372
# 5 16.2392 12.5762 1.1497 -7.2710 28.7778 1.7575
# 6 -4.0514 -12.1785 -21.0240 6.7372 1.7575 45.8281
#
#
#
# Elastic Compliance Matrix: (Units=1/GPa)
#
#
# Indices 1 2 3 4 5 6 
#
# 1 0.027468 -0.005411 -0.000231 0.004746 -0.011967 0.000646
# 2 -0.005411 0.006904 -0.003175 -0.001064 -0.000109 0.000060
# 3 -0.000231 -0.003175 0.011149 0.004742 0.002058 0.003475
# 4 0.004746 -0.001064 0.004742 0.024210 0.003799 -0.001393
# 5 -0.011967 -0.000109 0.002058 0.003799 0.042570 -0.002334
# 6 0.000646 0.000060 0.003475 -0.001393 -0.002334 0.023782
#
#
# Mechanical properties :
#
#
# Convention : Reuss Voigt Hill
#
# Bulk Modulus (GPa) = 35.85819 76.64351 56.25085
# Shear Modulus (GPa) = 30.67220 42.15970 36.41595
#
# Velocity S-wave (km/s) = 3.43021 4.02158 3.73761
# Velocity P-wave (km/s) = 5.42625 7.13903 6.34074
#
# Compressibility (1/GPa) = 0.02788763
#
# Stress axis : x y z
#
# Youngs Moduli (GPa) = 36.40544 144.84184 89.69079
#
# Poissons Ratio (x) = 0.78373 0.02071
# Poissons Ratio (y) = 0.19699 0.28480
# Poissons Ratio (z) = 0.00841 0.45992
#
# Static dielectric constant tensor:
#      x y z
#    x -1.813880 -9.081460 0.767690 
#    y -9.081460 -18.379550 1.440740 
#    z 0.767690 1.440740 2.515470 
# 
# From -- ./inp_files/123736.got.cif
#   From: 2010.05.17/outbox.cif.g08.bks.cpg/sg2_62_cif.got.tgz:123736.got - 2010.06.03 11:33:40.
