data_PCOD9048837
_publ_section_title
;
Structure prediction by ZEFSAII (Michael W. Deem and Ramdas Pophale) SiO2 
 PCOD9048837
Probable space group: P -1
;
_chemical_formula_sum "Si O2"
_cell_formula_units_Z 12
_cell_length_a 9.666635
_cell_length_b 4.836052
_cell_length_c 18.827576
_cell_angle_alpha 107.120202
_cell_angle_beta 33.668110
_cell_angle_gamma 95.306547
_cell_volume 446.583289
_symmetry_space_group_name_H-M "P -1"
_symmetry_group_IT_number 2
_symmetry_cell_setting 'triclinic'
loop_
_space_group_symop_operation_xyz
x,y,z
-x,-y,-z
loop_
_atom_site_type_symbol
_atom_site_label
_atom_site_fract_x
_atom_site_fract_y
_atom_site_fract_z
Si Si1 0.861828 0.789657 0.779897
Si Si2 0.223327 0.517980 0.349467
Si Si3 0.519409 0.001230 0.270832
Si Si4 0.500000 0.500000 0.000000
Si Si5 0.000000 0.000000 0.000000
Si Si6 0.105863 0.442448 0.099184
Si Si7 0.343454 0.966457 0.633296
O O1 0.857041 0.588303 0.698914
O O2 0.763903 0.655506 0.883107
O O3 0.155026 0.770369 0.676463
O O4 0.700532 0.134011 0.863681
O O5 0.306714 0.823844 0.337003
O O6 0.000000 0.500000 0.500000
O O7 0.480561 0.271336 0.251155
O O8 0.814019 0.822626 0.111508
O O9 0.496181 0.129546 0.370359
O O10 0.354111 0.549212 0.981725
O O11 0.953307 0.828970 0.934907
O O12 0.846565 0.705735 0.240848
O O13 0.500000 0.000000 0.500000
#
# Coordination Sequence:
#
# PCOD9048837 Si02
#       7
#     2   2   2   1   1   2   2
#     4  10  24  46  70 109 141 197 244 313 370 445
#     4  12  28  48  77 108 156 200 258 309 381 457
#     4  12  28  48  75 115 148 207 244 326 379 451
#     4   8  20  44  68 106 142 188 250 302 374 440
#     4  12  24  50  72 112 150 190 254 310 386 448
#     4  10  24  45  73 109 144 197 244 316 370 445
#     4  12  27  46  76 109 152 196 254 306 384 457
#
# _framework density 26.870688999999999
#
# number of rings (size 3 to 8) (size 9 to 14) (size 15 to 20)
#    1.000    0.000    1.667    3.500    4.667    5.333 
#    0.000    0.000    0.000    0.000    0.000    0.000 
#    0.000    0.000    0.000    0.000    0.000    0.000 
#
# Total GULP energy -66916.395000 kJ/mol
# GULP energy per Si atom -5576.366250 kJ/mol
# Density = 2.680953 g / cm^3
# Si number density = 26.870689 Si / 1000 Ang^3
#
#
#
# Elastic Constant Matrix: (Units=GPa)
#
#
# Indices 1 2 3 4 5 6 
#
# 1 194.9623 72.4522 46.4320 6.6883 49.8095 52.9340
# 2 72.4522 133.4075 49.3102 -22.6285 10.5676 35.2470
# 3 46.4320 49.3102 86.8108 -28.3058 23.0680 14.2546
# 4 6.6883 -22.6285 -28.3058 50.3908 -8.2241 -9.2606
# 5 49.8095 10.5676 23.0680 -8.2241 44.8962 1.7036
# 6 52.9340 35.2470 14.2546 -9.2606 1.7036 73.0230
#
#
#
# Elastic Compliance Matrix: (Units=1/GPa)
#
#
# Indices 1 2 3 4 5 6 
#
# 1 0.013469 -0.004774 -0.002453 -0.009014 -0.013914 -0.007799
# 2 -0.004774 0.012294 -0.004225 0.004445 0.005434 -0.001211
# 3 -0.002453 -0.004225 0.019033 0.008619 -0.004533 0.001301
# 4 -0.009014 0.004445 0.008619 0.030664 0.009902 0.006364
# 5 -0.013914 0.005434 -0.004533 0.009902 0.040246 0.008665
# 6 -0.007799 -0.001211 0.001301 0.006364 0.008665 0.020283
#
#
# Mechanical properties :
#
#
# Convention : Reuss Voigt Hill
#
# Bulk Modulus (GPa) = 45.68332 83.50772 64.59552
# Shear Modulus (GPa) = 30.08551 50.12774 40.10663
#
# Velocity S-wave (km/s) = 3.34973 4.32385 3.86758
# Velocity P-wave (km/s) = 5.65677 7.48817 6.63595
#
# Compressibility (1/GPa) = 0.02188983
#
# Stress axis : x y z
#
# Youngs Moduli (GPa) = 74.24246 81.33928 52.54082
#
# Poissons Ratio (x) = 0.38835 0.12891
# Poissons Ratio (y) = 0.35447 0.22200
# Poissons Ratio (z) = 0.18215 0.34369
#
# Static dielectric constant tensor:
#      x y z
#    x 2.296500 -0.070830 -0.128670 
#    y -0.070830 2.013840 -0.020490 
#    z -0.128670 -0.020490 2.296760 
# 
# From -- ./inp_files/58435.got.cif
#   From: 2010.05.17/outbox.cif.g08.bks.cpg/sg2_30_cif.got.tgz:58435.got - 2010.06.03 11:33:40.
