data_PCOD9048300
_publ_section_title
;
Structure prediction by ZEFSAII (Michael W. Deem and Ramdas Pophale) SiO2 
 PCOD9048300
Probable space group: P -1
;
_chemical_formula_sum "Si O2"
_cell_formula_units_Z 12
_cell_length_a 15.285937
_cell_length_b 9.171510
_cell_length_c 5.758279
_cell_angle_alpha 120.614643
_cell_angle_beta 115.019787
_cell_angle_gamma 49.586182
_cell_volume 523.646527
_symmetry_space_group_name_H-M "P -1"
_symmetry_group_IT_number 2
_symmetry_cell_setting 'triclinic'
loop_
_space_group_symop_operation_xyz
x,y,z
-x,-y,-z
loop_
_atom_site_type_symbol
_atom_site_label
_atom_site_fract_x
_atom_site_fract_y
_atom_site_fract_z
Si Si1 0.908188 0.260747 0.359529
Si Si2 0.306545 0.378257 0.769844
Si Si3 0.015666 0.206681 0.932075
Si Si4 0.467156 0.710059 0.242576
Si Si5 0.744550 0.869216 0.748176
Si Si6 0.413828 0.222901 0.195588
O O1 0.770435 0.420912 0.304708
O O2 0.950570 0.297554 0.684336
O O3 0.946417 0.028220 0.218486
O O4 0.954223 0.289740 0.184587
O O5 0.440873 0.249492 0.737614
O O6 0.250940 0.246433 0.576002
O O7 0.323460 0.408277 0.078287
O O8 0.132272 0.203166 0.071954
O O9 0.503270 0.714805 0.549806
O O10 0.336395 0.890342 0.192030
O O11 0.500000 0.500000 0.000000
O O12 0.671930 0.810127 0.775600
O O13 0.500000 0.000000 0.000000
#
# Coordination Sequence:
#
# PCOD9048300 Si02
#       6
#     2   2   2   2   2   2
#     4  10  24  45  66  94 132 174 221 277 331 389
#     4  11  23  41  65  93 129 172 216 270 332 394
#     4  10  24  45  66  94 132 173 222 277 331 389
#     4  11  23  40  63  97 128 168 219 273 332 395
#     4  11  23  40  65  94 131 170 218 273 331 394
#     4  11  21  42  63  93 135 173 212 270 333 397
#
# _framework density 22.916222999999999
#
# number of rings (size 3 to 8) (size 9 to 14) (size 15 to 20)
#    0.000    1.333    3.333    2.000    7.000    2.000 
#    3.000    0.000    0.000    0.000    0.000    0.000 
#    0.000    0.000    0.000    0.000    0.000    0.000 
#
# Total GULP energy -66866.371108 kJ/mol
# GULP energy per Si atom -5572.197592 kJ/mol
# Density = 2.286406 g / cm^3
# Si number density = 22.916223 Si / 1000 Ang^3
#
#
#
# Elastic Constant Matrix: (Units=GPa)
#
#
# Indices 1 2 3 4 5 6 
#
# 1 62.6213 -3.9972 23.4629 -10.2337 4.1186 -7.1086
# 2 -3.9972 101.5483 48.1802 -20.9006 -4.1690 -9.4499
# 3 23.4629 48.1802 133.8088 -18.8240 10.4032 2.8714
# 4 -10.2337 -20.9006 -18.8240 48.0861 -1.3318 0.7111
# 5 4.1186 -4.1690 10.4032 -1.3318 28.5067 -0.0481
# 6 -7.1086 -9.4499 2.8714 0.7111 -0.0481 17.4966
#
#
#
# Elastic Compliance Matrix: (Units=1/GPa)
#
#
# Indices 1 2 3 4 5 6 
#
# 1 0.020236 0.005173 -0.005033 0.004410 -0.000105 0.011662
# 2 0.005173 0.015293 -0.006227 0.005257 0.004026 0.011181
# 3 -0.005033 -0.006227 0.011166 0.000584 -0.004244 -0.007276
# 4 0.004410 0.005257 0.000584 0.024224 0.001056 0.003553
# 5 -0.000105 0.004026 -0.004244 0.001056 0.037286 0.002888
# 6 0.011662 0.011181 -0.007276 0.003553 0.002888 0.068988
#
#
# Mechanical properties :
#
#
# Convention : Reuss Voigt Hill
#
# Bulk Modulus (GPa) = 28.96732 48.14113 38.55423
# Shear Modulus (GPa) = 24.89103 34.17339 29.53221
#
# Velocity S-wave (km/s) = 3.29929 3.86584 3.59375
# Velocity P-wave (km/s) = 5.21361 6.40151 5.83785
#
# Compressibility (1/GPa) = 0.03452166
#
# Stress axis : x y z
#
# Youngs Moduli (GPa) = 49.41649 65.38807 89.55646
#
# Poissons Ratio (x) = -0.33824 0.45071
# Poissons Ratio (y) = -0.25562 0.55768
# Poissons Ratio (z) = 0.24870 0.40718
#
# Static dielectric constant tensor:
#      x y z
#    x 1.918620 0.030890 -0.188120 
#    y 0.030890 1.884000 -0.009570 
#    z -0.188120 -0.009570 2.052860 
# 
# From -- ./inp_files/20107.got.cif
#   From: 2010.05.17/outbox.cif.g08.bks.cpg/sg2_11_cif.got.tgz:20107.got - 2010.06.03 11:33:40.
