data_PCOD9048125
_publ_section_title
;
Structure prediction by ZEFSAII (Michael W. Deem and Ramdas Pophale) SiO2 
 PCOD9048125
Probable space group: P -1
;
_chemical_formula_sum "Si O2"
_cell_formula_units_Z 14
_cell_length_a 8.362562
_cell_length_b 9.049274
_cell_length_c 11.577640
_cell_angle_alpha 72.844114
_cell_angle_beta 120.418884
_cell_angle_gamma 127.326859
_cell_volume 600.701479
_symmetry_space_group_name_H-M "P -1"
_symmetry_group_IT_number 2
_symmetry_cell_setting 'triclinic'
loop_
_space_group_symop_operation_xyz
x,y,z
-x,-y,-z
loop_
_atom_site_type_symbol
_atom_site_label
_atom_site_fract_x
_atom_site_fract_y
_atom_site_fract_z
Si Si1 0.836155 0.308220 0.055770
Si Si2 0.313152 0.380365 0.554497
Si Si3 0.676931 0.905739 0.996946
Si Si4 0.882409 0.743871 0.264199
Si Si5 0.966905 0.444976 0.316815
Si Si6 0.708609 0.932074 0.517846
Si Si7 0.508320 0.861674 0.694706
O O1 0.578289 0.234679 0.013553
O O2 0.961104 0.355445 0.213260
O O3 0.000000 0.500000 0.000000
O O4 0.789559 0.120269 0.025365
O O5 0.500000 0.500000 0.500000
O O6 0.331525 0.375274 0.700972
O O7 0.237805 0.176863 0.527033
O O8 0.146707 0.445471 0.459889
O O9 0.657106 0.900691 0.852439
O O10 0.819492 0.836227 0.122195
O O11 0.979340 0.634237 0.267138
O O12 0.073003 0.887349 0.389887
O O13 0.731479 0.309887 0.320350
O O14 0.593753 0.821775 0.619309
O O15 0.541080 0.979949 0.388206
#
# Coordination Sequence:
#
# PCOD9048125 Si02
#       7
#     2   2   2   2   2   2   2
#     4  10  24  44  74 102 145 185 240 288 359 421
#     4  12  27  42  72 102 139 186 243 289 351 425
#     4  10  25  46  72 106 144 190 230 302 354 427
#     4  12  26  45  72 104 144 183 237 290 363 417
#     4  11  25  47  67 101 141 186 234 301 343 428
#     4  11  25  43  73 102 134 189 230 294 351 429
#     4  10  24  46  72  98 145 179 237 286 367 416
#
# _framework density 23.306083999999998
#
# number of rings (size 3 to 8) (size 9 to 14) (size 15 to 20)
#    0.000    1.143    1.429    2.571   14.000    2.857 
#    5.143    0.000    0.000    0.000    0.000    0.000 
#    0.000    0.000    0.000    0.000    0.000    0.000 
#
# Total GULP energy -78205.659544 kJ/mol
# GULP energy per Si atom -5586.118539 kJ/mol
# Density = 2.325304 g / cm^3
# Si number density = 23.306084 Si / 1000 Ang^3
#
#
#
# Elastic Constant Matrix: (Units=GPa)
#
#
# Indices 1 2 3 4 5 6 
#
# 1 67.4898 25.0535 47.6476 -7.2456 -8.5085 -6.5831
# 2 25.0535 77.3776 30.9639 -7.0480 -1.8609 10.2344
# 3 47.6476 30.9639 164.3219 -18.1270 -4.8403 -15.4283
# 4 -7.2456 -7.0480 -18.1270 28.1770 -7.1076 -4.9976
# 5 -8.5085 -1.8609 -4.8403 -7.1076 30.6374 -8.3627
# 6 -6.5831 10.2344 -15.4283 -4.9976 -8.3627 44.3766
#
#
#
# Elastic Compliance Matrix: (Units=1/GPa)
#
#
# Indices 1 2 3 4 5 6 
#
# 1 0.021584 -0.005435 -0.004084 0.004287 0.007352 0.004904
# 2 -0.005435 0.016213 -0.002143 -0.000393 -0.002541 -0.005814
# 3 -0.004084 -0.002143 0.008707 0.005334 0.002434 0.003975
# 4 0.004287 -0.000393 0.005334 0.045733 0.015528 0.010658
# 5 0.007352 -0.002541 0.002434 0.015528 0.041832 0.012155
# 6 0.004904 -0.005814 0.003975 0.010658 0.012155 0.029475
#
#
# Mechanical properties :
#
#
# Convention : Reuss Voigt Hill
#
# Bulk Modulus (GPa) = 43.14390 57.39102 50.26746
# Shear Modulus (GPa) = 25.69429 34.33981 30.01705
#
# Velocity S-wave (km/s) = 3.32395 3.84269 3.59269
# Velocity P-wave (km/s) = 5.76919 6.66083 6.23098
#
# Compressibility (1/GPa) = 0.02317825
#
# Stress axis : x y z
#
# Youngs Moduli (GPa) = 46.33114 61.67836 114.84868
#
# Poissons Ratio (x) = 0.33524 0.46909
# Poissons Ratio (y) = 0.25182 0.24614
# Poissons Ratio (z) = 0.18924 0.13219
#
# Static dielectric constant tensor:
#      x y z
#    x 2.044560 0.028170 0.010480 
#    y 0.028170 2.039720 -0.025410 
#    z 0.010480 -0.025410 1.864760 
# 
# From -- ./inp_files/242271.got.cif
#   From: 2010.05.17/outbox.cif.g08.bks.cpg/sg2_122_cif.got.tgz:242271.got - 2010.06.03 11:33:40.
