data_PCOD9048341
_publ_section_title
;
Structure prediction by ZEFSAII (Michael W. Deem and Ramdas Pophale) SiO2 
 PCOD9048341
Probable space group: P -1
;
_chemical_formula_sum "Si O2"
_cell_formula_units_Z 14
_cell_length_a 18.253836
_cell_length_b 12.633686
_cell_length_c 7.762216
_cell_angle_alpha 126.666731
_cell_angle_beta 52.580569
_cell_angle_gamma 150.756361
_cell_volume 684.108809
_symmetry_space_group_name_H-M "P -1"
_symmetry_group_IT_number 2
_symmetry_cell_setting 'triclinic'
loop_
_space_group_symop_operation_xyz
x,y,z
-x,-y,-z
loop_
_atom_site_type_symbol
_atom_site_label
_atom_site_fract_x
_atom_site_fract_y
_atom_site_fract_z
Si Si1 0.409574 0.523306 0.716973
Si Si2 0.621061 0.999951 0.979453
Si Si3 0.325545 0.333213 0.027451
Si Si4 0.447950 0.019420 0.424016
Si Si5 0.096659 0.508473 0.981091
Si Si6 0.268750 0.466546 0.535505
Si Si7 0.793821 0.095443 0.177548
O O1 0.500000 0.500000 0.500000
O O2 0.283844 0.411827 0.644048
O O3 0.340155 0.418609 0.903392
O O4 0.535560 0.783941 0.798184
O O5 0.488416 0.954654 0.165718
O O6 0.754908 0.237649 0.928576
O O7 0.702120 0.030264 0.066434
O O8 0.247532 0.340455 0.287033
O O9 0.500000 0.500000 0.000000
O O10 0.243466 0.097736 0.910607
O O11 0.566756 0.275950 0.484787
O O12 0.500000 0.000000 0.500000
O O13 0.281023 0.889660 0.563969
O O14 0.152104 0.453016 0.723529
O O15 0.000000 0.500000 0.000000
O O16 0.975598 0.320223 0.111267
#
# Coordination Sequence:
#
# PCOD9048341 Si02
#       7
#     2   2   2   2   2   2   2
#     4  12  22  36  62  94 121 151 202 257 296 350
#     4   9  18  33  56  85 115 153 200 248 302 349
#     4  12  20  37  62  91 118 158 199 247 301 349
#     4   9  16  30  56  83 112 149 196 246 287 339
#     4   9  21  37  59  88 122 161 200 242 301 366
#     4  11  22  38  60  92 122 156 202 250 298 352
#     4  10  17  34  58  87 120 157 200 243 293 361
#
# _framework density 20.464579000000001
#
# number of rings (size 3 to 8) (size 9 to 14) (size 15 to 20)
#    0.000    1.714    4.286    1.714    0.000    2.857 
#    0.000    0.714    0.000   13.714    0.000    0.000 
#    0.000    0.000    0.000    0.000    0.000    0.000 
#
# Total GULP energy -78121.814244 kJ/mol
# GULP energy per Si atom -5580.129589 kJ/mol
# Density = 2.041800 g / cm^3
# Si number density = 20.464579 Si / 1000 Ang^3
#
#
#
# Elastic Constant Matrix: (Units=GPa)
#
#
# Indices 1 2 3 4 5 6 
#
# 1 94.2360 21.1704 49.9446 -7.7849 6.0491 -13.8667
# 2 21.1704 133.2292 72.7903 -5.9211 -13.9693 -16.9573
# 3 49.9446 72.7903 168.7621 0.4077 -27.7312 0.9334
# 4 -7.7849 -5.9211 0.4077 35.6229 -3.8345 -6.6482
# 5 6.0491 -13.9693 -27.7312 -3.8345 38.7333 -4.3991
# 6 -13.8667 -16.9573 0.9334 -6.6482 -4.3991 20.9431
#
#
#
# Elastic Compliance Matrix: (Units=1/GPa)
#
#
# Indices 1 2 3 4 5 6 
#
# 1 0.016651 0.002904 -0.006970 0.006524 -0.004208 0.014874
# 2 0.002904 0.012735 -0.006117 0.005794 0.002010 0.014768
# 3 -0.006970 -0.006117 0.011622 -0.003959 0.005658 -0.010154
# 4 0.006524 0.005794 -0.003959 0.034888 0.004089 0.021121
# 5 -0.004208 0.002010 0.005658 0.004089 0.032416 0.006696
# 6 0.014874 0.014768 -0.010154 0.021121 0.006696 0.078118
#
#
# Mechanical properties :
#
#
# Convention : Reuss Voigt Hill
#
# Bulk Modulus (GPa) = 48.44658 76.00421 62.22540
# Shear Modulus (GPa) = 23.39983 35.88134 29.64058
#
# Velocity S-wave (km/s) = 3.38513 4.19183 3.80989
# Velocity P-wave (km/s) = 6.24529 7.78772 7.05876
#
# Compressibility (1/GPa) = 0.02064129
#
# Stress axis : x y z
#
# Youngs Moduli (GPa) = 60.05629 78.52595 86.04176
#
# Poissons Ratio (x) = -0.22804 0.59970
# Poissons Ratio (y) = -0.17441 0.52636
# Poissons Ratio (z) = 0.41859 0.48038
#
# Static dielectric constant tensor:
#      x y z
#    x 1.768840 -0.030610 0.048120 
#    y -0.030610 1.734910 -0.024580 
#    z 0.048120 -0.024580 1.705110 
# 
# From -- ./inp_files/333700.got.cif
#   From: 2010.05.17/outbox.cif.g08.bks.cpg/sg2_167_cif.got.tgz:333700.got - 2010.06.03 11:33:40.
