data_PCOD9048154
_publ_section_title
;
Structure prediction by ZEFSAII (Michael W. Deem and Ramdas Pophale) SiO2 
 PCOD9048154
Probable space group: P -1
;
_chemical_formula_sum "Si O2"
_cell_formula_units_Z 12
_cell_length_a 12.816483
_cell_length_b 18.800055
_cell_length_c 22.106077
_cell_angle_alpha 162.151530
_cell_angle_beta 19.662310
_cell_angle_gamma 152.314675
_cell_volume 546.267455
_symmetry_space_group_name_H-M "P -1"
_symmetry_group_IT_number 2
_symmetry_cell_setting 'triclinic'
loop_
_space_group_symop_operation_xyz
x,y,z
-x,-y,-z
loop_
_atom_site_type_symbol
_atom_site_label
_atom_site_fract_x
_atom_site_fract_y
_atom_site_fract_z
Si Si1 0.753053 0.467054 0.284327
Si Si2 0.799811 0.192668 0.725160
Si Si3 0.829883 0.004500 0.290555
Si Si4 0.650339 0.440664 0.126287
Si Si5 0.264088 0.932313 0.749954
Si Si6 0.600264 0.785426 0.816913
O O1 0.500000 0.500000 0.500000
O O2 0.551473 0.430835 0.305161
O O3 0.959071 0.678033 0.340176
O O4 0.976173 0.234611 0.987997
O O5 0.549723 0.076824 0.728898
O O6 0.644167 0.381503 0.010950
O O7 0.000000 0.000000 0.500000
O O8 0.500000 0.000000 0.500000
O O9 0.823872 0.012898 0.227672
O O10 0.032205 0.209224 0.369395
O O11 0.399900 0.659789 0.455255
O O12 0.560143 0.215512 0.030512
O O13 0.000000 0.500000 0.000000
O O14 0.000000 0.000000 0.000000
O O15 0.500000 0.000000 0.000000
#
# Coordination Sequence:
#
# PCOD9048154 Si02
#       6
#     2   2   2   2   2   2
#     4  11  26  44  72 104 137 186 242 288 351 429
#     4  12  26  45  78 107 142 190 246 295 352 435
#     4  11  27  46  71 105 145 186 236 299 365 419
#     4  12  24  47  76 105 140 190 245 289 357 431
#     4  12  29  47  72 110 151 185 239 303 366 421
#     4  10  24  44  74  98 140 184 239 289 355 420
#
# _framework density 21.967258999999999
#
# number of rings (size 3 to 8) (size 9 to 14) (size 15 to 20)
#    0.000    0.667    3.333    2.000   14.000    4.667 
#    0.000    0.000    0.000    0.000    0.000    0.000 
#    0.000    0.000    0.000    0.000    0.000    0.000 
#
# Total GULP energy -67086.317005 kJ/mol
# GULP energy per Si atom -5590.526417 kJ/mol
# Density = 2.191726 g / cm^3
# Si number density = 21.967259 Si / 1000 Ang^3
#
#
#
# Elastic Constant Matrix: (Units=GPa)
#
#
# Indices 1 2 3 4 5 6 
#
# 1 130.0876 49.9393 32.3094 -17.4434 -7.8105 10.1307
# 2 49.9393 160.4922 44.1309 -29.0127 -12.7344 -4.4233
# 3 32.3094 44.1309 134.0197 -18.8627 10.0282 -4.2926
# 4 -17.4434 -29.0127 -18.8627 40.4761 -3.1977 4.0446
# 5 -7.8105 -12.7344 10.0282 -3.1977 29.0749 -8.8873
# 6 10.1307 -4.4233 -4.2926 4.0446 -8.8873 48.2576
#
#
#
# Elastic Compliance Matrix: (Units=1/GPa)
#
#
# Indices 1 2 3 4 5 6 
#
# 1 0.009412 -0.002035 -0.001480 0.002261 0.001735 -0.002164
# 2 -0.002035 0.008702 -0.002042 0.004644 0.004959 0.001567
# 3 -0.001480 -0.002042 0.009058 0.001786 -0.004219 0.000003
# 4 0.002261 0.004644 0.001786 0.030382 0.004898 -0.001535
# 5 0.001735 0.004959 -0.004219 0.004898 0.041128 0.006879
# 6 -0.002164 0.001567 0.000003 -0.001535 0.006879 0.022716
#
#
# Mechanical properties :
#
#
# Convention : Reuss Voigt Hill
#
# Bulk Modulus (GPa) = 62.27492 75.26208 68.76850
# Shear Modulus (GPa) = 36.26796 43.44304 39.85550
#
# Velocity S-wave (km/s) = 4.06766 4.45188 4.26410
# Velocity P-wave (km/s) = 7.10434 7.79493 7.45764
#
# Compressibility (1/GPa) = 0.01605783
#
# Stress axis : x y z
#
# Youngs Moduli (GPa) = 106.25069 114.92095 110.40091
#
# Poissons Ratio (x) = 0.23386 0.16337
# Poissons Ratio (y) = 0.21622 0.22544
# Poissons Ratio (z) = 0.15722 0.23467
#
# Static dielectric constant tensor:
#      x y z
#    x 1.536490 0.196270 -0.047320 
#    y 0.196270 1.735220 0.070650 
#    z -0.047320 0.070650 1.793450 
# 
# From -- ./inp_files/183413.got.cif
#   From: 2010.05.17/outbox.cif.g08.bks.cpg/sg2_92_cif.got.tgz:183413.got - 2010.06.03 11:33:40.
