data_PCOD9048717
_publ_section_title
;
Structure prediction by ZEFSAII (Michael W. Deem and Ramdas Pophale) SiO2 
 PCOD9048717
Probable space group: P -1
;
_chemical_formula_sum "Si O2"
_cell_formula_units_Z 16
_cell_length_a 9.173322
_cell_length_b 16.133675
_cell_length_c 12.258403
_cell_angle_alpha 140.942263
_cell_angle_beta 87.520057
_cell_angle_gamma 121.780898
_cell_volume 710.026522
_symmetry_space_group_name_H-M "P -1"
_symmetry_group_IT_number 2
_symmetry_cell_setting 'triclinic'
loop_
_space_group_symop_operation_xyz
x,y,z
-x,-y,-z
loop_
_atom_site_type_symbol
_atom_site_label
_atom_site_fract_x
_atom_site_fract_y
_atom_site_fract_z
Si Si1 0.907518 0.679323 0.983611
Si Si2 0.200637 0.663485 0.253021
Si Si3 0.282393 0.059663 0.518067
Si Si4 0.946103 0.159037 0.482140
Si Si5 0.600784 0.218237 0.200560
Si Si6 0.970180 0.630579 0.712747
Si Si7 0.892367 0.044824 0.119178
Si Si8 0.430358 0.431766 0.807476
O O1 0.831967 0.476750 0.803409
O O2 0.018307 0.760069 0.944353
O O3 0.672543 0.599885 0.907923
O O4 0.084978 0.837081 0.235671
O O5 0.462961 0.827785 0.364942
O O6 0.175413 0.785127 0.438714
O O7 0.000000 0.500000 0.000000
O O8 0.316997 0.207367 0.588141
O O9 0.175545 0.012824 0.593087
O O10 0.934682 0.085086 0.288526
O O11 0.221565 0.376876 0.721657
O O12 0.713197 0.382931 0.463249
O O13 0.839188 0.351427 0.264520
O O14 0.500000 0.000000 0.000000
O O15 0.389196 0.148999 0.085282
O O16 0.007484 0.749209 0.727379
O O17 0.000000 0.000000 0.000000
O O18 0.500000 0.500000 0.000000
#
# Coordination Sequence:
#
# PCOD9048717 Si02
#       8
#     2   2   2   2   2   2   2   2
#     4  11  25  41  72  97 134 178 222 279 337 415
#     4  11  24  43  66 107 141 165 223 284 347 404
#     4  11  24  44  70 100 133 179 224 269 352 412
#     4  12  25  44  69  98 143 175 218 289 336 399
#     4   9  22  45  69  93 126 177 238 278 327 402
#     4  10  24  45  71  94 131 182 233 278 336 401
#     4  11  28  45  63 101 141 181 230 279 338 398
#     4  11  24  45  65  99 135 176 228 268 333 420
#
# _framework density 22.534369999999999
#
# number of rings (size 3 to 8) (size 9 to 14) (size 15 to 20)
#    0.000    1.250    2.500    1.500   10.500    2.500 
#    2.250    0.000    0.000    0.000    0.000    0.000 
#    0.000    0.000    0.000    0.000    0.000    0.000 
#
# Total GULP energy -89302.042735 kJ/mol
# GULP energy per Si atom -5581.377671 kJ/mol
# Density = 2.248308 g / cm^3
# Si number density = 22.534370 Si / 1000 Ang^3
#
#
#
# Elastic Constant Matrix: (Units=GPa)
#
#
# Indices 1 2 3 4 5 6 
#
# 1 88.9496 19.6477 43.1520 1.2900 17.1171 33.4184
# 2 19.6477 86.0438 46.2405 -25.0382 9.5087 13.8469
# 3 43.1520 46.2405 115.4367 -9.0681 18.3918 18.1717
# 4 1.2900 -25.0382 -9.0681 40.1481 0.9773 -6.6838
# 5 17.1171 9.5087 18.3918 0.9773 48.5794 12.3444
# 6 33.4184 13.8469 18.1717 -6.6838 12.3444 34.1177
#
#
#
# Elastic Compliance Matrix: (Units=1/GPa)
#
#
# Indices 1 2 3 4 5 6 
#
# 1 0.020883 -0.000575 -0.005001 -0.005203 -0.000580 -0.018367
# 2 -0.000575 0.018090 -0.005895 0.009761 -0.000951 -0.001382
# 3 -0.005001 -0.005895 0.013061 -0.000326 -0.002303 0.001104
# 4 -0.005203 0.009761 -0.000326 0.032609 -0.002825 0.008719
# 5 -0.000580 -0.000951 -0.002303 -0.002825 0.023667 -0.006935
# 6 -0.018367 -0.001382 0.001104 0.008719 -0.006935 0.051492
#
#
# Mechanical properties :
#
#
# Convention : Reuss Voigt Hill
#
# Bulk Modulus (GPa) = 34.37437 56.50117 45.43777
# Shear Modulus (GPa) = 25.98198 36.66171 31.32185
#
# Velocity S-wave (km/s) = 3.39926 4.03789 3.73226
# Velocity P-wave (km/s) = 5.54021 6.84596 6.22740
#
# Compressibility (1/GPa) = 0.02909144
#
# Stress axis : x y z
#
# Youngs Moduli (GPa) = 47.88517 55.28067 76.56269
#
# Poissons Ratio (x) = 0.03179 0.38289
# Poissons Ratio (y) = 0.02753 0.45135
# Poissons Ratio (z) = 0.23948 0.32589
#
# Static dielectric constant tensor:
#      x y z
#    x 1.861810 0.004140 -0.073680 
#    y 0.004140 1.868120 0.038450 
#    z -0.073680 0.038450 1.946870 
# 
# From -- ./inp_files/364274.got.cif
#   From: 2010.05.17/outbox.cif.g08.bks.cpg/sg2_183_cif.got.tgz:364274.got - 2010.06.03 11:33:40.
