data_PCOD9048117
_publ_section_title
;
Structure prediction by ZEFSAII (Michael W. Deem and Ramdas Pophale) SiO2 
 PCOD9048117
Probable space group: P -1
;
_chemical_formula_sum "Si O2"
_cell_formula_units_Z 15
_cell_length_a 11.424800
_cell_length_b 5.167543
_cell_length_c 12.494507
_cell_angle_alpha 74.038724
_cell_angle_beta 65.735585
_cell_angle_gamma 53.802808
_cell_volume 542.166908
_symmetry_space_group_name_H-M "P -1"
_symmetry_group_IT_number 2
_symmetry_cell_setting 'triclinic'
loop_
_space_group_symop_operation_xyz
x,y,z
-x,-y,-z
loop_
_atom_site_type_symbol
_atom_site_label
_atom_site_fract_x
_atom_site_fract_y
_atom_site_fract_z
Si Si1 0.211766 0.761760 0.614720
Si Si2 0.889948 0.849792 0.201425
Si Si3 0.332909 0.649606 0.095211
Si Si4 0.641895 0.232742 0.693067
Si Si5 0.635176 0.797624 0.230912
Si Si6 0.988375 0.676207 0.595360
Si Si7 0.500000 0.500000 0.500000
Si Si8 0.181948 0.396704 0.029278
O O1 0.350673 0.401466 0.641364
O O2 0.329965 0.868342 0.540189
O O3 0.102263 0.799133 0.557567
O O4 0.113611 0.897360 0.744351
O O5 0.717831 0.979502 0.212627
O O6 0.948701 0.565465 0.298757
O O7 0.004401 0.683453 0.078286
O O8 0.357262 0.602014 0.217218
O O9 0.258297 0.480846 0.085944
O O10 0.227871 0.033337 0.069094
O O11 0.500000 0.500000 0.000000
O O12 0.530389 0.100432 0.757197
O O13 0.572783 0.490004 0.593929
O O14 0.812954 0.933347 0.652545
O O15 0.740478 0.601111 0.110836
O O16 0.000000 0.500000 0.500000
#
# Coordination Sequence:
#
# PCOD9048117 Si02
#       8
#     2   2   2   2   2   2   1   2
#     4  10  24  46  67 105 143 191 252 305 382 447
#     4  11  24  43  69 101 147 194 243 309 374 448
#     4  12  26  46  75 112 152 198 251 311 374 450
#     4  11  23  48  71 107 146 189 257 305 383 447
#     4  10  25  43  68 104 148 192 243 308 368 452
#     4  11  24  43  70 102 139 189 246 315 372 448
#     4  10  24  44  74 100 138 198 242 318 376 448
#     4  12  26  45  75 112 148 204 252 304 376 447
#
# _framework density 27.666757
#
# number of rings (size 3 to 8) (size 9 to 14) (size 15 to 20)
#    0.000    1.067    2.667    2.400    3.733    4.800 
#    0.000    4.000    0.000    0.000    0.000    0.000 
#    0.000    0.000    0.000    0.000    0.000    0.000 
#
# Total GULP energy -83730.469908 kJ/mol
# GULP energy per Si atom -5582.031327 kJ/mol
# Density = 2.760379 g / cm^3
# Si number density = 27.666757 Si / 1000 Ang^3
#
#
#
# Elastic Constant Matrix: (Units=GPa)
#
#
# Indices 1 2 3 4 5 6 
#
# 1 199.3770 52.6736 49.4101 25.8898 21.5558 -33.6441
# 2 52.6736 77.0471 42.1741 13.0315 7.7757 -12.7265
# 3 49.4101 42.1741 174.8307 20.5026 28.1072 -4.8919
# 4 25.8898 13.0315 20.5026 55.9530 -8.7163 -2.4631
# 5 21.5558 7.7757 28.1072 -8.7163 59.4684 10.9159
# 6 -33.6441 -12.7265 -4.8919 -2.4631 10.9159 45.5546
#
#
#
# Elastic Compliance Matrix: (Units=1/GPa)
#
#
# Indices 1 2 3 4 5 6 
#
# 1 0.007656 -0.003315 -0.000275 -0.002999 -0.003644 0.005410
# 2 -0.003315 0.017507 -0.003026 -0.001380 -0.000245 0.002102
# 3 -0.000275 -0.003026 0.007368 -0.002381 -0.003415 0.000432
# 4 -0.002999 -0.001380 -0.002381 0.021263 0.006091 -0.003166
# 5 -0.003644 -0.000245 -0.003415 0.006091 0.022164 -0.008108
# 6 0.005410 0.002102 0.000432 -0.003166 -0.008108 0.028352
#
#
# Mechanical properties :
#
#
# Convention : Reuss Voigt Hill
#
# Bulk Modulus (GPa) = 51.81691 82.19674 67.00683
# Shear Modulus (GPa) = 40.33054 52.66166 46.49610
#
# Velocity S-wave (km/s) = 3.82216 4.36756 4.10393
# Velocity P-wave (km/s) = 6.18451 7.43022 6.83580
#
# Compressibility (1/GPa) = 0.01929872
#
# Stress axis : x y z
#
# Youngs Moduli (GPa) = 130.61941 57.11932 135.72333
#
# Poissons Ratio (x) = 0.18934 0.03734
# Poissons Ratio (y) = 0.43297 0.41073
# Poissons Ratio (z) = 0.03593 0.17286
#
# Static dielectric constant tensor:
#      x y z
#    x 1.264840 0.157080 0.877930 
#    y 0.157080 3.347870 1.625300 
#    z 0.877930 1.625300 4.669710 
# 
# From -- ./inp_files/34582.got.cif
#   From: 2010.05.17/outbox.cif.g08.bks.cpg/sg2_18_cif.got.tgz:34582.got - 2010.06.03 11:33:40.
