data_PCOD9048190
_publ_section_title
;
Structure prediction by ZEFSAII (Michael W. Deem and Ramdas Pophale) SiO2 
 PCOD9048190
Probable space group: P -1
;
_chemical_formula_sum "Si O2"
_cell_formula_units_Z 14
_cell_length_a 14.423433
_cell_length_b 5.395654
_cell_length_c 22.788567
_cell_angle_alpha 106.453420
_cell_angle_beta 157.486633
_cell_angle_gamma 64.847330
_cell_volume 583.252099
_symmetry_space_group_name_H-M "P -1"
_symmetry_group_IT_number 2
_symmetry_cell_setting 'triclinic'
loop_
_space_group_symop_operation_xyz
x,y,z
-x,-y,-z
loop_
_atom_site_type_symbol
_atom_site_label
_atom_site_fract_x
_atom_site_fract_y
_atom_site_fract_z
Si Si1 0.614029 0.585461 0.723255
Si Si2 0.553379 0.680961 0.490773
Si Si3 0.623658 0.085304 0.994243
Si Si4 0.896729 0.311136 0.989712
Si Si5 0.162502 0.455327 0.842205
Si Si6 0.096403 0.089498 0.501086
Si Si7 0.605402 0.637930 0.234020
O O1 0.605352 0.335688 0.661313
O O2 0.839429 0.664924 0.832024
O O3 0.306464 0.828075 0.567675
O O4 0.729822 0.520563 0.852807
O O5 0.500000 0.500000 0.500000
O O6 0.871082 0.525155 0.652109
O O7 0.500000 0.000000 0.500000
O O8 0.810657 0.251685 0.111239
O O9 0.780935 0.757689 0.083831
O O10 0.395189 0.266409 0.919989
O O11 0.466923 0.134003 0.844902
O O12 0.672446 0.356518 0.909055
O O13 0.000000 0.000000 0.000000
O O14 0.268730 0.260359 0.632196
O O15 0.830222 0.318630 0.327542
O O16 0.000000 0.000000 0.500000
#
# Coordination Sequence:
#
# PCOD9048190 Si02
#       7
#     2   2   2   2   2   2   2
#     4  11  27  47  77 102 157 196 254 320 378 460
#     4  12  30  50  76 110 149 209 258 315 377 459
#     4  10  24  44  76 103 143 193 242 322 363 454
#     4  11  24  46  71 112 145 202 244 308 390 459
#     4  10  24  47  69 106 142 190 260 298 384 427
#     4  11  24  44  68 116 144 191 253 309 392 459
#     4  11  25  40  75 107 152 192 251 313 384 464
#
# _framework density 24.003343999999998
#
# number of rings (size 3 to 8) (size 9 to 14) (size 15 to 20)
#    0.000    1.143    2.857    0.857    8.000    4.571 
#    0.000    0.000    0.000    0.000    0.000    0.000 
#    0.000    0.000    0.000    0.000    0.000    0.000 
#
# Total GULP energy -78357.575284 kJ/mol
# GULP energy per Si atom -5596.969663 kJ/mol
# Density = 2.394871 g / cm^3
# Si number density = 24.003344 Si / 1000 Ang^3
#
#
#
# Elastic Constant Matrix: (Units=GPa)
#
#
# Indices 1 2 3 4 5 6 
#
# 1 66.8061 38.2696 37.4644 6.6976 7.2428 8.1340
# 2 38.2696 132.1429 53.6437 14.7090 16.0015 -2.9723
# 3 37.4644 53.6437 121.6327 10.8566 22.0843 -0.5358
# 4 6.6976 14.7090 10.8566 36.2065 2.7084 -4.7352
# 5 7.2428 16.0015 22.0843 2.7084 37.2697 0.8753
# 6 8.1340 -2.9723 -0.5358 -4.7352 0.8753 39.1635
#
#
#
# Elastic Compliance Matrix: (Units=1/GPa)
#
#
# Indices 1 2 3 4 5 6 
#
# 1 0.020533 -0.004145 -0.004512 -0.001444 0.000682 -0.004831
# 2 -0.004145 0.010404 -0.002756 -0.002312 -0.001893 0.001376
# 3 -0.004512 -0.002756 0.011816 -0.001111 -0.004881 0.000865
# 4 -0.001444 -0.002312 -0.001111 0.029666 -0.000311 0.003703
# 5 0.000682 -0.001893 -0.004881 -0.000311 0.030452 -0.001070
# 6 -0.004831 0.001376 0.000865 0.003703 -0.001070 0.027125
#
#
# Mechanical properties :
#
#
# Convention : Reuss Voigt Hill
#
# Bulk Modulus (GPa) = 50.18465 64.37078 57.27772
# Shear Modulus (GPa) = 31.35491 35.27488 33.31490
#
# Velocity S-wave (km/s) = 3.61816 3.83767 3.72953
# Velocity P-wave (km/s) = 6.19738 6.82001 6.51614
#
# Compressibility (1/GPa) = 0.01992641
#
# Stress axis : x y z
#
# Youngs Moduli (GPa) = 48.70273 96.11472 84.63195
#
# Poissons Ratio (x) = 0.39840 0.38189
# Poissons Ratio (y) = 0.20188 0.23322
# Poissons Ratio (z) = 0.21977 0.26487
#
# Static dielectric constant tensor:
#      x y z
#    x 1.992170 0.038290 -0.210740 
#    y 0.038290 1.962480 0.011450 
#    z -0.210740 0.011450 2.768640 
# 
# From -- ./inp_files/611306.got.cif
#   From: 2010.05.17/outbox.cif.g08.bks.cpg/sg2_306_cif.got.tgz:611306.got - 2010.06.03 11:33:40.
