data_PCOD9048792
_publ_section_title
;
Structure prediction by ZEFSAII (Michael W. Deem and Ramdas Pophale) SiO2 
 PCOD9048792
Probable space group: P -1
;
_chemical_formula_sum "Si O2"
_cell_formula_units_Z 16
_cell_length_a 11.953967
_cell_length_b 9.747847
_cell_length_c 13.667126
_cell_angle_alpha 120.962938
_cell_angle_beta 64.108547
_cell_angle_gamma 65.312188
_cell_volume 680.362029
_symmetry_space_group_name_H-M "P -1"
_symmetry_group_IT_number 2
_symmetry_cell_setting 'triclinic'
loop_
_space_group_symop_operation_xyz
x,y,z
-x,-y,-z
loop_
_atom_site_type_symbol
_atom_site_label
_atom_site_fract_x
_atom_site_fract_y
_atom_site_fract_z
Si Si1 0.545324 0.012696 0.273904
Si Si2 0.839180 0.822864 0.710406
Si Si3 0.306025 0.372797 0.087770
Si Si4 0.193824 0.351000 0.796409
Si Si5 0.764452 0.230249 0.820807
Si Si6 0.043426 0.502327 0.685296
Si Si7 0.672399 0.232542 0.261676
Si Si8 0.181061 0.727671 0.960757
O O1 0.289572 0.231874 0.446140
O O2 0.603057 0.120172 0.241615
O O3 0.603942 0.966967 0.350005
O O4 0.673519 0.735599 0.065612
O O5 0.000000 0.500000 0.500000
O O6 0.929350 0.768695 0.766028
O O7 0.870404 0.940551 0.669141
O O8 0.566986 0.095137 0.921120
O O9 0.182173 0.675497 0.232973
O O10 0.143658 0.433084 0.232625
O O11 0.099659 0.444610 0.757568
O O12 0.267059 0.454442 0.821325
O O13 0.000000 0.500000 0.000000
O O14 0.500000 0.500000 0.000000
O O15 0.800620 0.239923 0.922797
O O16 0.500000 0.500000 0.500000
O O17 0.683978 0.306952 0.179874
O O18 0.921490 0.988667 0.121687
#
# Coordination Sequence:
#
# PCOD9048792 Si02
#       8
#     2   2   2   2   2   2   2   2
#     4  12  24  43  68  99 140 181 235 278 344 417
#     4  11  25  46  75 104 137 181 238 291 343 412
#     4  11  23  48  72  98 140 184 229 287 346 412
#     4  12  22  43  69 100 139 182 224 281 347 417
#     4  10  24  45  73 100 138 183 230 288 345 411
#     4  12  25  42  73 102 137 186 231 283 349 411
#     4  11  26  40  65 105 140 176 227 287 344 413
#     4  11  23  44  70  96 139 181 222 282 357 403
#
# _framework density 23.516888999999999
#
# number of rings (size 3 to 8) (size 9 to 14) (size 15 to 20)
#    0.000    0.750    5.000    1.500    7.000    0.000 
#    0.000    0.625    2.750    0.000    0.000    0.000 
#    0.000    0.000    0.000    0.000    0.000    0.000 
#
# Total GULP energy -89273.344896 kJ/mol
# GULP energy per Si atom -5579.584056 kJ/mol
# Density = 2.346336 g / cm^3
# Si number density = 23.516889 Si / 1000 Ang^3
#
#
#
# Elastic Constant Matrix: (Units=GPa)
#
#
# Indices 1 2 3 4 5 6 
#
# 1 57.0620 27.3250 31.6407 5.3585 -12.3018 4.4815
# 2 27.3250 154.4635 45.6605 11.7364 -10.1075 15.8395
# 3 31.6407 45.6605 98.1040 0.5114 -10.9299 15.2743
# 4 5.3585 11.7364 0.5114 27.7083 4.0576 6.8106
# 5 -12.3018 -10.1075 -10.9299 4.0576 29.4797 7.7501
# 6 4.4815 15.8395 15.2743 6.8106 7.7501 52.8374
#
#
#
# Elastic Compliance Matrix: (Units=1/GPa)
#
#
# Indices 1 2 3 4 5 6 
#
# 1 0.023778 -0.001500 -0.006002 -0.004928 0.007957 -0.000364
# 2 -0.001500 0.008068 -0.002837 -0.003014 0.001860 -0.001355
# 3 -0.006002 -0.002837 0.014232 0.002601 0.002344 -0.003433
# 4 -0.004928 -0.003014 0.002601 0.040143 -0.006699 -0.003622
# 5 0.007957 0.001860 0.002344 -0.006699 0.041548 -0.007141
# 6 -0.000364 -0.001355 -0.003433 -0.003622 -0.007141 0.021870
#
#
# Mechanical properties :
#
#
# Convention : Reuss Voigt Hill
#
# Bulk Modulus (GPa) = 39.37130 57.65356 48.51243
# Shear Modulus (GPa) = 27.96688 35.67198 31.81943
#
# Velocity S-wave (km/s) = 3.45226 3.89892 3.68237
# Velocity P-wave (km/s) = 5.71566 6.69611 6.22522
#
# Compressibility (1/GPa) = 0.02539922
#
# Stress axis : x y z
#
# Youngs Moduli (GPa) = 42.05603 123.95041 70.26523
#
# Poissons Ratio (x) = 0.18589 0.42173
# Poissons Ratio (y) = 0.06307 0.19937
# Poissons Ratio (z) = 0.25242 0.35170
#
# Static dielectric constant tensor:
#      x y z
#    x 1.940880 0.042680 -0.012570 
#    y 0.042680 1.760580 0.179980 
#    z -0.012570 0.179980 1.825770 
# 
# From -- ./inp_files/516081.got.cif
#   From: 2010.05.17/outbox.cif.g08.bks.cpg/sg2_259_cif.got.tgz:516081.got - 2010.06.03 11:33:40.
