data_PCOD9048731
_publ_section_title
;
Structure prediction by ZEFSAII (Michael W. Deem and Ramdas Pophale) SiO2 
 PCOD9048731
Probable space group: P -1
;
_chemical_formula_sum "Si O2"
_cell_formula_units_Z 16
_cell_length_a 9.788767
_cell_length_b 9.390074
_cell_length_c 11.204681
_cell_angle_alpha 89.157414
_cell_angle_beta 85.452694
_cell_angle_gamma 46.574292
_cell_volume 744.502445
_symmetry_space_group_name_H-M "P -1"
_symmetry_group_IT_number 2
_symmetry_cell_setting 'triclinic'
loop_
_space_group_symop_operation_xyz
x,y,z
-x,-y,-z
loop_
_atom_site_type_symbol
_atom_site_label
_atom_site_fract_x
_atom_site_fract_y
_atom_site_fract_z
Si Si1 0.182020 0.812279 0.560549
Si Si2 0.544553 0.686686 0.901547
Si Si3 0.041661 0.831572 0.832578
Si Si4 0.146772 0.319033 0.656178
Si Si5 0.744088 0.265084 0.936574
Si Si6 0.903680 0.614143 0.882681
Si Si7 0.575354 0.131986 0.332908
Si Si8 0.213225 0.500316 0.464079
O O1 0.125940 0.788926 0.695029
O O2 0.321331 0.841657 0.579256
O O3 0.270183 0.621976 0.478792
O O4 0.000000 0.000000 0.500000
O O5 0.668138 0.456520 0.869584
O O6 0.403042 0.822669 0.802274
O O7 0.688364 0.714161 0.902743
O O8 0.424010 0.725819 0.023913
O O9 0.928820 0.763458 0.852752
O O10 0.183546 0.732740 0.938077
O O11 0.907952 0.063618 0.861529
O O12 0.023464 0.442444 0.778227
O O13 0.209938 0.420012 0.589965
O O14 0.998259 0.351753 0.575514
O O15 0.326719 0.090541 0.666326
O O16 0.000000 0.500000 0.000000
O O17 0.353897 0.307603 0.374579
#
# Coordination Sequence:
#
# PCOD9048731 Si02
#       8
#     2   2   2   2   2   2   2   2
#     4  12  25  44  70 104 137 181 236 286 344 409
#     4  11  24  43  68 103 139 178 231 284 344 414
#     4  11  24  45  72  99 137 185 230 286 351 410
#     4  11  25  45  70  97 140 182 224 284 350 409
#     4  10  24  45  71  99 137 181 230 286 348 414
#     4  12  25  44  70 100 140 182 228 288 348 412
#     4  12  25  43  72 100 136 184 232 279 347 412
#     4  11  24  47  69  97 139 180 227 291 340 407
#
# _framework density 21.490863000000001
#
# number of rings (size 3 to 8) (size 9 to 14) (size 15 to 20)
#    0.000    0.750    6.250    0.750    5.250    0.500 
#    2.250    0.000    0.000    0.000    0.000    0.000 
#    0.000    0.000    0.000    0.000    0.000    0.000 
#
# Total GULP energy -89434.818461 kJ/mol
# GULP energy per Si atom -5589.676154 kJ/mol
# Density = 2.144195 g / cm^3
# Si number density = 21.490863 Si / 1000 Ang^3
#
#
#
# Elastic Constant Matrix: (Units=GPa)
#
#
# Indices 1 2 3 4 5 6 
#
# 1 60.0559 -0.6375 -6.3881 4.6880 -1.0107 2.2035
# 2 -0.6375 106.6107 16.2980 -13.5040 14.2400 -0.1606
# 3 -6.3881 16.2980 55.5847 -10.1006 1.8630 8.9983
# 4 4.6880 -13.5040 -10.1006 24.6845 -5.1924 1.2784
# 5 -1.0107 14.2400 1.8630 -5.1924 26.3012 0.6361
# 6 2.2035 -0.1606 8.9983 1.2784 0.6361 24.5932
#
#
#
# Elastic Compliance Matrix: (Units=1/GPa)
#
#
# Indices 1 2 3 4 5 6 
#
# 1 0.017144 -0.000583 0.002012 -0.002561 0.000379 -0.002153
# 2 -0.000583 0.010936 -0.002547 0.003947 -0.005007 0.000980
# 3 0.002012 -0.002547 0.021745 0.007923 0.001689 -0.008609
# 4 -0.002561 0.003947 0.007923 0.048111 0.006830 -0.005321
# 5 0.000379 -0.005007 0.001689 0.006830 0.042027 -0.002126
# 6 -0.002153 0.000980 -0.008609 -0.005321 -0.002126 0.044342
#
#
# Mechanical properties :
#
#
# Convention : Reuss Voigt Hill
#
# Bulk Modulus (GPa) = 21.01342 26.75513 23.88427
# Shear Modulus (GPa) = 24.70273 29.31436 27.00855
#
# Velocity S-wave (km/s) = 3.39404 3.69730 3.54891
# Velocity P-wave (km/s) = 5.01581 5.54105 5.28496
#
# Compressibility (1/GPa) = 0.04758865
#
# Stress axis : x y z
#
# Youngs Moduli (GPa) = 58.32873 91.44007 45.98658
#
# Poissons Ratio (x) = 0.05333 -0.09251
# Poissons Ratio (y) = 0.03402 0.11713
# Poissons Ratio (z) = -0.11734 0.23291
#
# Static dielectric constant tensor:
#      x y z
#    x 1.812380 -0.020610 -0.002140 
#    y -0.020610 1.745860 0.007190 
#    z -0.002140 0.007190 1.804460 
# 
# From -- ./inp_files/381957.got.cif
#   From: 2010.05.17/outbox.cif.g08.bks.cpg/sg2_191_cif.got.tgz:381957.got - 2010.06.03 11:33:40.
