data_PCOD9048387
_publ_section_title
;
Structure prediction by ZEFSAII (Michael W. Deem and Ramdas Pophale) SiO2 
 PCOD9048387
Probable space group: P -1
;
_chemical_formula_sum "Si O2"
_cell_formula_units_Z 12
_cell_length_a 9.760526
_cell_length_b 5.552586
_cell_length_c 16.643394
_cell_angle_alpha 113.073160
_cell_angle_beta 120.779182
_cell_angle_gamma 110.397756
_cell_volume 512.850461
_symmetry_space_group_name_H-M "P -1"
_symmetry_group_IT_number 2
_symmetry_cell_setting 'triclinic'
loop_
_space_group_symop_operation_xyz
x,y,z
-x,-y,-z
loop_
_atom_site_type_symbol
_atom_site_label
_atom_site_fract_x
_atom_site_fract_y
_atom_site_fract_z
Si Si1 0.876949 0.135164 0.466466
Si Si2 0.368450 0.074643 0.921903
Si Si3 0.317065 0.012458 0.446111
Si Si4 0.350385 0.159210 0.302691
Si Si5 0.932459 0.931562 0.063748
Si Si6 0.483414 0.125655 0.791592
O O1 0.000000 0.500000 0.500000
O O2 0.835451 0.201742 0.551290
O O3 0.647726 0.840589 0.307516
O O4 0.000000 0.000000 0.500000
O O5 0.164090 0.929048 0.898308
O O6 0.337007 0.931102 0.802942
O O7 0.500000 0.500000 0.000000
O O8 0.500000 0.000000 0.000000
O O9 0.236773 0.925322 0.319611
O O10 0.442142 0.426846 0.555963
O O11 0.500000 0.000000 0.500000
O O12 0.453914 0.059620 0.263430
O O13 0.156176 0.097264 0.194933
O O14 0.720874 0.497572 0.942509
O O15 0.000000 0.000000 0.000000
#
# Coordination Sequence:
#
# PCOD9048387 Si02
#       6
#     2   2   2   2   2   2
#     4  12  28  47  74 106 145 200 247 302 371 442
#     4  10  24  45  68 101 147 190 232 293 361 433
#     4  11  25  48  73 105 149 193 250 309 364 440
#     4  11  24  45  78 107 147 194 248 307 374 440
#     4  11  24  43  77 111 143 193 244 303 373 442
#     4  11  24  49  71 107 152 189 244 308 368 440
#
# _framework density 23.398637000000001
#
# number of rings (size 3 to 8) (size 9 to 14) (size 15 to 20)
#    0.000    1.000    1.667    3.500    4.667    5.333 
#    3.000    0.000    0.000    0.000    0.000    0.000 
#    0.000    0.000    0.000    0.000    0.000    0.000 
#
# Total GULP energy -67037.347922 kJ/mol
# GULP energy per Si atom -5586.445660 kJ/mol
# Density = 2.334538 g / cm^3
# Si number density = 23.398637 Si / 1000 Ang^3
#
#
#
# Elastic Constant Matrix: (Units=GPa)
#
#
# Indices 1 2 3 4 5 6 
#
# 1 260.6273 74.7980 61.2922 -43.6560 -28.3635 12.5875
# 2 74.7980 116.6795 24.0800 -21.2231 -9.3853 20.8651
# 3 61.2922 24.0800 64.5497 -27.8543 -6.3015 11.9551
# 4 -43.6560 -21.2231 -27.8543 64.5476 1.5682 -6.2904
# 5 -28.3635 -9.3853 -6.3015 1.5682 51.3751 -15.6749
# 6 12.5875 20.8651 11.9551 -6.2904 -15.6749 53.5879
#
#
#
# Elastic Compliance Matrix: (Units=1/GPa)
#
#
# Indices 1 2 3 4 5 6 
#
# 1 0.006096 -0.002848 -0.004098 0.001505 0.002779 0.001581
# 2 -0.002848 0.011309 -0.000334 0.001303 -0.000721 -0.003718
# 3 -0.004098 -0.000334 0.022972 0.006712 -0.000769 -0.003469
# 4 0.001505 0.001303 0.006712 0.019838 0.001403 0.000381
# 5 0.002779 -0.000721 -0.000769 0.001403 0.022749 0.006619
# 6 0.001581 -0.003718 -0.003469 0.000381 0.006619 0.022492
#
#
# Mechanical properties :
#
#
# Convention : Reuss Voigt Hill
#
# Bulk Modulus (GPa) = 38.73503 84.68854 61.71178
# Shear Modulus (GPa) = 38.87367 52.68121 45.77744
#
# Velocity S-wave (km/s) = 4.08041 4.75011 4.42794
# Velocity P-wave (km/s) = 6.22816 8.14598 7.25076
#
# Compressibility (1/GPa) = 0.02581643
#
# Stress axis : x y z
#
# Youngs Moduli (GPa) = 164.04039 88.42684 43.53159
#
# Poissons Ratio (x) = 0.25180 0.17841
# Poissons Ratio (y) = 0.46711 0.01455
# Poissons Ratio (z) = 0.67229 0.02956
#
# Static dielectric constant tensor:
#      x y z
#    x 2.258710 1.026950 0.285300 
#    y 1.026950 4.517190 0.843970 
#    z 0.285300 0.843970 2.119260 
# 
# From -- ./inp_files/27436.got.cif
#   From: 2010.05.17/outbox.cif.g08.bks.cpg/sg2_14_cif.got.tgz:27436.got - 2010.06.03 11:33:40.
