data_PCOD9048788
_publ_section_title
;
Structure prediction by ZEFSAII (Michael W. Deem and Ramdas Pophale) SiO2 
 PCOD9048788
Probable space group: P -1
;
_chemical_formula_sum "Si O2"
_cell_formula_units_Z 14
_cell_length_a 14.239015
_cell_length_b 14.396125
_cell_length_c 26.214288
_cell_angle_alpha 21.364297
_cell_angle_beta 160.491005
_cell_angle_gamma 149.717926
_cell_volume 649.233220
_symmetry_space_group_name_H-M "P -1"
_symmetry_group_IT_number 2
_symmetry_cell_setting 'triclinic'
loop_
_space_group_symop_operation_xyz
x,y,z
-x,-y,-z
loop_
_atom_site_type_symbol
_atom_site_label
_atom_site_fract_x
_atom_site_fract_y
_atom_site_fract_z
Si Si1 0.488970 0.327734 0.739697
Si Si2 0.384096 0.729088 0.561549
Si Si3 0.277700 0.234540 0.825714
Si Si4 0.728451 0.066158 0.364445
Si Si5 0.689259 0.507726 0.644366
Si Si6 0.872530 0.738980 0.073000
Si Si7 0.104704 0.533195 0.677265
O O1 0.538209 0.586202 0.664017
O O2 0.616234 0.343618 0.739652
O O3 0.151306 0.345523 0.550555
O O4 0.580941 0.059821 0.952341
O O5 0.395571 0.477294 0.733674
O O6 0.047952 0.783025 0.349224
O O7 0.500000 0.000000 0.500000
O O8 0.287662 0.326863 0.842240
O O9 0.761516 0.250507 0.334461
O O10 0.658000 0.806204 0.486979
O O11 0.463982 0.200105 0.128200
O O12 0.000000 0.000000 0.500000
O O13 0.500000 0.500000 0.500000
O O14 0.009418 0.424467 0.831484
O O15 0.006464 0.614944 0.256191
O O16 0.000000 0.000000 0.000000
#
# Coordination Sequence:
#
# PCOD9048788 Si02
#       7
#     2   2   2   2   2   2   2
#     4  11  23  45  72 100 137 186 225 283 357 409
#     4  10  24  48  73 103 135 172 233 294 355 424
#     4  10  24  45  72  99 137 178 226 295 356 415
#     4  12  25  40  62  95 139 187 237 284 341 403
#     4  12  23  41  63  97 140 184 229 276 333 420
#     4  12  23  40  64  89 137 187 230 279 334 403
#     4  11  24  39  64  97 137 176 231 285 341 410
#
# _framework density 21.563898999999999
#
# number of rings (size 3 to 8) (size 9 to 14) (size 15 to 20)
#    0.000    0.857    4.286    1.714    4.000    1.714 
#    2.571    0.000    0.000    0.000    0.000    0.000 
#    0.000    0.000    0.000    0.000    0.000    0.000 
#
# Total GULP energy -78026.710806 kJ/mol
# GULP energy per Si atom -5573.336486 kJ/mol
# Density = 2.151482 g / cm^3
# Si number density = 21.563899 Si / 1000 Ang^3
#
#
#
# Elastic Constant Matrix: (Units=GPa)
#
#
# Indices 1 2 3 4 5 6 
#
# 1 91.5189 33.0179 23.4499 -6.0009 -2.5429 -6.8980
# 2 33.0179 143.2363 46.6079 -29.6757 -7.9712 -15.7118
# 3 23.4499 46.6079 131.6893 -18.3044 -2.0186 0.3785
# 4 -6.0009 -29.6757 -18.3044 42.2576 11.2546 1.4119
# 5 -2.5429 -7.9712 -2.0186 11.2546 31.2835 -5.2999
# 6 -6.8980 -15.7118 0.3785 1.4119 -5.2999 32.9928
#
#
#
# Elastic Compliance Matrix: (Units=1/GPa)
#
#
# Indices 1 2 3 4 5 6 
#
# 1 0.012222 -0.002269 -0.001474 -0.000788 0.000886 0.001668
# 2 -0.002269 0.009861 -0.002364 0.005165 0.001028 0.004193
# 3 -0.001474 -0.002364 0.009019 0.002455 -0.001338 -0.001858
# 4 -0.000788 0.005165 0.002455 0.030875 -0.009804 -0.000630
# 5 0.000886 0.001028 -0.001338 -0.009804 0.036934 0.007043
# 6 0.001668 0.004193 -0.001858 -0.000630 0.007043 0.033835
#
#
# Mechanical properties :
#
#
# Convention : Reuss Voigt Hill
#
# Bulk Modulus (GPa) = 52.94552 63.62178 58.28365
# Shear Modulus (GPa) = 33.05677 38.86469 35.96073
#
# Velocity S-wave (km/s) = 3.91956 4.24996 4.08810
# Velocity P-wave (km/s) = 6.71492 7.32467 7.02641
#
# Compressibility (1/GPa) = 0.01888734
#
# Stress axis : x y z
#
# Youngs Moduli (GPa) = 81.82279 101.41035 110.87589
#
# Poissons Ratio (x) = 0.23005 0.16344
# Poissons Ratio (y) = 0.18562 0.26216
# Poissons Ratio (z) = 0.12062 0.23978
#
# Static dielectric constant tensor:
#      x y z
#    x 1.858750 -0.019960 0.042200 
#    y -0.019960 1.881130 -0.113890 
#    z 0.042200 -0.113890 1.939350 
# 
# From -- ./inp_files/619568.got.cif
#   From: 2010.05.17/outbox.cif.g08.bks.cpg/sg2_310_cif.got.tgz:619568.got - 2010.06.03 11:33:40.
