data_PCOD9048060
_publ_section_title
;
Structure prediction by ZEFSAII (Michael W. Deem and Ramdas Pophale) SiO2 
 PCOD9048060
Probable space group: P -1
;
_chemical_formula_sum "Si O2"
_cell_formula_units_Z 16
_cell_length_a 9.631628
_cell_length_b 12.911549
_cell_length_c 11.277603
_cell_angle_alpha 90.970666
_cell_angle_beta 58.124762
_cell_angle_gamma 47.472139
_cell_volume 703.831423
_symmetry_space_group_name_H-M "P -1"
_symmetry_group_IT_number 2
_symmetry_cell_setting 'triclinic'
loop_
_space_group_symop_operation_xyz
x,y,z
-x,-y,-z
loop_
_atom_site_type_symbol
_atom_site_label
_atom_site_fract_x
_atom_site_fract_y
_atom_site_fract_z
Si Si1 0.307465 0.057048 0.739868
Si Si2 0.447965 0.514297 0.683818
Si Si3 0.056994 0.951944 0.115813
Si Si4 0.981729 0.096550 0.406904
Si Si5 0.836140 0.463968 0.369009
Si Si6 0.154163 0.297047 0.639946
Si Si7 0.620928 0.921936 0.814894
Si Si8 0.467212 0.431271 0.113678
O O1 0.610154 0.879135 0.545991
O O2 0.365826 0.019391 0.850925
O O3 0.112311 0.066423 0.782066
O O4 0.187457 0.226553 0.751695
O O5 0.699778 0.303451 0.564365
O O6 0.577828 0.546823 0.558022
O O7 0.190927 0.589619 0.739815
O O8 0.390332 0.588005 0.838946
O O9 0.983447 0.060762 0.265668
O O10 0.377208 0.755938 0.982470
O O11 0.000000 0.000000 0.000000
O O12 0.238051 0.045444 0.298662
O O13 0.000000 0.000000 0.500000
O O14 0.803093 0.602364 0.371574
O O15 0.125395 0.288805 0.297099
O O16 0.856264 0.424648 0.721605
O O17 0.500000 0.000000 0.000000
O O18 0.500000 0.500000 0.000000
#
# Coordination Sequence:
#
# PCOD9048060 Si02
#       8
#     2   2   2   2   2   2   2   2
#     4  11  26  46  71 101 143 183 236 292 358 438
#     4  10  24  44  73 100 137 182 239 288 349 439
#     4  12  28  45  76 109 146 186 240 307 369 419
#     4  11  25  46  75 102 141 197 241 285 363 448
#     4  10  24  44  72  99 134 182 237 287 352 432
#     4  11  25  45  72 102 137 187 239 290 355 432
#     4  11  26  44  66 102 144 179 232 301 357 421
#     4  12  26  47  68 103 145 184 235 303 359 418
#
# _framework density 22.732717000000001
#
# number of rings (size 3 to 8) (size 9 to 14) (size 15 to 20)
#    0.000    1.000    1.250    3.750   17.500    1.000 
#    0.000    1.250    0.000    0.000    0.000    0.000 
#    0.000    0.000    0.000    0.000    0.000    0.000 
#
# Total GULP energy -89453.724047 kJ/mol
# GULP energy per Si atom -5590.857753 kJ/mol
# Density = 2.268098 g / cm^3
# Si number density = 22.732717 Si / 1000 Ang^3
#
#
#
# Elastic Constant Matrix: (Units=GPa)
#
#
# Indices 1 2 3 4 5 6 
#
# 1 87.8331 21.7945 -9.1900 -12.7672 8.2645 5.6786
# 2 21.7945 111.8834 10.1762 0.9309 -9.1155 16.4445
# 3 -9.1900 10.1762 51.5484 6.2511 5.2500 4.6948
# 4 -12.7672 0.9309 6.2511 25.3512 3.6534 -7.5733
# 5 8.2645 -9.1155 5.2500 3.6534 37.8333 -3.8917
# 6 5.6786 16.4445 4.6948 -7.5733 -3.8917 37.9831
#
#
#
# Elastic Compliance Matrix: (Units=1/GPa)
#
#
# Indices 1 2 3 4 5 6 
#
# 1 0.014061 -0.003460 0.002825 0.007225 -0.004997 -0.000025
# 2 -0.003460 0.010750 -0.002322 -0.003316 0.003562 -0.004146
# 3 0.002825 -0.002322 0.021597 -0.004226 -0.004110 -0.003350
# 4 0.007225 -0.003316 -0.004226 0.047982 -0.005407 0.009891
# 5 -0.004997 0.003562 -0.004110 -0.005407 0.029646 0.001673
# 6 -0.000025 -0.004146 -0.003350 0.009891 0.001673 0.030684
#
#
# Mechanical properties :
#
#
# Convention : Reuss Voigt Hill
#
# Bulk Modulus (GPa) = 24.69394 32.98068 28.83731
# Shear Modulus (GPa) = 28.71372 35.46580 32.08976
#
# Velocity S-wave (km/s) = 3.55787 3.95412 3.76122
# Velocity P-wave (km/s) = 5.26918 5.94864 5.61919
#
# Compressibility (1/GPa) = 0.04049576
#
# Stress axis : x y z
#
# Youngs Moduli (GPa) = 71.11751 93.02166 46.30166
#
# Poissons Ratio (x) = 0.32182 -0.13080
# Poissons Ratio (y) = 0.24604 0.10751
# Poissons Ratio (z) = -0.20090 0.21599
#
# Static dielectric constant tensor:
#      x y z
#    x 1.808450 -0.011890 0.007950 
#    y -0.011890 1.843060 -0.001330 
#    z 0.007950 -0.001330 1.864340 
# 
# From -- ./inp_files/392576.got.cif
#   From: 2010.05.17/outbox.cif.g08.bks.cpg/sg2_197_cif.got.tgz:392576.got - 2010.06.03 11:33:40.
