data_PCOD9048728
_publ_section_title
;
Structure prediction by ZEFSAII (Michael W. Deem and Ramdas Pophale) SiO2 
 PCOD9048728
Probable space group: P -1
;
_chemical_formula_sum "Si O2"
_cell_formula_units_Z 16
_cell_length_a 18.184513
_cell_length_b 6.360880
_cell_length_c 14.538747
_cell_angle_alpha 68.157245
_cell_angle_beta 151.581989
_cell_angle_gamma 104.133329
_cell_volume 729.614830
_symmetry_space_group_name_H-M "P -1"
_symmetry_group_IT_number 2
_symmetry_cell_setting 'triclinic'
loop_
_space_group_symop_operation_xyz
x,y,z
-x,-y,-z
loop_
_atom_site_type_symbol
_atom_site_label
_atom_site_fract_x
_atom_site_fract_y
_atom_site_fract_z
Si Si1 0.120367 0.104013 0.871599
Si Si2 0.282686 0.839254 0.912628
Si Si3 0.230003 0.011362 0.473716
Si Si4 0.606209 0.132976 0.663247
Si Si5 0.689730 0.832057 0.261629
Si Si6 0.567929 0.458589 0.280361
Si Si7 0.968142 0.403591 0.382804
Si Si8 0.331279 0.409702 0.437430
O O1 0.099416 0.375902 0.788604
O O2 0.202752 0.968142 0.893873
O O3 0.943331 0.053150 0.697977
O O4 0.243506 0.032751 0.101126
O O5 0.149400 0.771622 0.712589
O O6 0.367062 0.003970 0.914777
O O7 0.394735 0.593181 0.095109
O O8 0.296057 0.059336 0.639727
O O9 0.215181 0.226411 0.350752
O O10 0.369738 0.807903 0.625117
O O11 0.488271 0.250531 0.594563
O O12 0.675837 0.348360 0.662273
O O13 0.500000 0.000000 0.500000
O O14 0.609345 0.608010 0.215975
O O15 0.869993 0.726589 0.456675
O O16 0.664185 0.513167 0.465208
O O17 0.000000 0.500000 0.500000
#
# Coordination Sequence:
#
# PCOD9048728 Si02
#       8
#     2   2   2   2   2   2   2   2
#     4  12  25  44  73 103 136 191 232 280 352 410
#     4  12  25  41  69 100 140 188 242 277 333 415
#     4  11  24  44  69  99 144 184 224 287 343 409
#     4  11  25  47  75 105 135 175 231 296 351 415
#     4  11  23  42  64  99 147 183 229 286 333 403
#     4  11  24  43  68 101 138 184 230 284 344 406
#     4  12  24  40  68 102 143 186 233 281 338 408
#     4  10  24  45  71  98 140 175 223 296 347 408
#
# _framework density 21.929379999999998
#
# number of rings (size 3 to 8) (size 9 to 14) (size 15 to 20)
#    0.000    0.750    5.000    2.250    3.500    1.000 
#    0.000    2.500    0.000    0.000    0.000    0.000 
#    0.000    0.000    0.000    0.000    0.000    0.000 
#
# Total GULP energy -89219.045639 kJ/mol
# GULP energy per Si atom -5576.190352 kJ/mol
# Density = 2.187947 g / cm^3
# Si number density = 21.929380 Si / 1000 Ang^3
#
#
#
# Elastic Constant Matrix: (Units=GPa)
#
#
# Indices 1 2 3 4 5 6 
#
# 1 70.1598 40.0961 -1.2668 -9.8556 -2.3089 15.7936
# 2 40.0961 102.2258 33.5530 -17.4653 -9.0281 8.8103
# 3 -1.2668 33.5530 78.7115 -19.9923 -21.6405 11.1441
# 4 -9.8556 -17.4653 -19.9923 37.4271 1.2220 2.8931
# 5 -2.3089 -9.0281 -21.6405 1.2220 17.9602 -4.1570
# 6 15.7936 8.8103 11.1441 2.8931 -4.1570 53.1939
#
#
#
# Elastic Compliance Matrix: (Units=1/GPa)
#
#
# Indices 1 2 3 4 5 6 
#
# 1 0.022477 -0.009421 0.008893 0.006575 0.006848 -0.006799
# 2 -0.009421 0.015749 -0.007384 0.000867 -0.001894 0.001540
# 3 0.008893 -0.007384 0.028288 0.013499 0.029257 -0.005792
# 4 0.006575 0.000867 0.013499 0.036066 0.013747 -0.005811
# 5 0.006848 -0.001894 0.029257 0.013747 0.089554 -0.001598
# 6 -0.006799 0.001540 -0.005792 -0.005811 -0.001598 0.021967
#
#
# Mechanical properties :
#
#
# Convention : Reuss Voigt Hill
#
# Bulk Modulus (GPa) = 19.72732 43.98462 31.85597
# Shear Modulus (GPa) = 20.25759 33.63056 26.94407
#
# Velocity S-wave (km/s) = 3.04265 3.92035 3.50905
# Velocity P-wave (km/s) = 4.62158 6.37127 5.56561
#
# Compressibility (1/GPa) = 0.05069113
#
# Stress axis : x y z
#
# Youngs Moduli (GPa) = 44.48903 63.49528 35.35116
#
# Poissons Ratio (x) = 0.59820 -0.31439
# Poissons Ratio (y) = 0.41914 0.26102
# Poissons Ratio (z) = -0.39565 0.46883
#
# Static dielectric constant tensor:
#      x y z
#    x 1.821020 0.075170 0.001570 
#    y 0.075170 1.843990 -0.042900 
#    z 0.001570 -0.042900 1.843410 
# 
# From -- ./inp_files/47453.got.cif
#   From: 2010.05.17/outbox.cif.g08.bks.cpg/sg2_24_cif.got.tgz:47453.got - 2010.06.03 11:33:40.
