data_PCOD9048057
_publ_section_title
;
Structure prediction by ZEFSAII (Michael W. Deem and Ramdas Pophale) SiO2 
 PCOD9048057
Probable space group: P -1
;
_chemical_formula_sum "Si O2"
_cell_formula_units_Z 15
_cell_length_a 14.445749
_cell_length_b 9.577442
_cell_length_c 9.555962
_cell_angle_alpha 139.063082
_cell_angle_beta 83.838964
_cell_angle_gamma 118.877575
_cell_volume 677.868630
_symmetry_space_group_name_H-M "P -1"
_symmetry_group_IT_number 2
_symmetry_cell_setting 'triclinic'
loop_
_space_group_symop_operation_xyz
x,y,z
-x,-y,-z
loop_
_atom_site_type_symbol
_atom_site_label
_atom_site_fract_x
_atom_site_fract_y
_atom_site_fract_z
Si Si1 0.417795 0.037023 0.949968
Si Si2 0.216437 0.367165 0.095379
Si Si3 0.687775 0.796248 0.509435
Si Si4 0.425277 0.591086 0.025606
Si Si5 0.781229 0.560384 0.520193
Si Si6 0.898500 0.374440 0.807300
Si Si7 0.964834 0.248883 0.412220
Si Si8 0.500000 0.500000 0.500000
O O1 0.288511 0.752520 0.747936
O O2 0.477747 0.128603 0.856576
O O3 0.431826 0.278885 0.211132
O O4 0.500000 0.000000 0.000000
O O5 0.231008 0.427935 0.303392
O O6 0.134027 0.434648 0.092755
O O7 0.339762 0.551496 0.131290
O O8 0.147598 0.045819 0.844533
O O9 0.658964 0.616574 0.241863
O O10 0.719441 0.667301 0.527857
O O11 0.574075 0.743927 0.557089
O O12 0.785484 0.103035 0.688967
O O13 0.500000 0.500000 0.000000
O O14 0.918759 0.735192 0.592873
O O15 0.935942 0.296291 0.605339
O O16 0.000000 0.500000 0.000000
O O17 0.000000 0.500000 0.500000
#
# Coordination Sequence:
#
# PCOD9048057 Si02
#       8
#     2   2   2   2   2   2   2   1
#     4  11  25  47  70 111 140 195 246 299 364 439
#     4  12  29  51  74 113 148 194 251 305 378 445
#     4  11  26  47  73 113 142 197 246 302 371 439
#     4  11  27  47  74 103 156 190 240 306 369 439
#     4  12  27  46  80 106 148 200 247 304 370 450
#     4  12  29  48  79 111 145 195 247 313 373 436
#     4  12  28  51  75 107 153 193 249 308 373 447
#     4  10  24  44  72  98 154 182 244 288 360 432
#
# _framework density 22.128181999999999
#
# number of rings (size 3 to 8) (size 9 to 14) (size 15 to 20)
#    0.000    0.533    5.333    1.200   14.933    1.600 
#    0.000    0.000    0.000    0.000    0.000    0.000 
#    0.000    0.000    0.000    0.000    0.000    0.000 
#
# Total GULP energy -83666.756953 kJ/mol
# GULP energy per Si atom -5577.783797 kJ/mol
# Density = 2.207782 g / cm^3
# Si number density = 22.128182 Si / 1000 Ang^3
#
#
#
# Elastic Constant Matrix: (Units=GPa)
#
#
# Indices 1 2 3 4 5 6 
#
# 1 59.2437 19.6464 10.8918 -18.1057 -7.4942 -17.0606
# 2 19.6464 151.9023 45.6306 -6.1635 -0.3640 5.0492
# 3 10.8918 45.6306 90.3415 -11.2219 1.5537 3.8805
# 4 -18.1057 -6.1635 -11.2219 40.4556 4.2090 -0.2316
# 5 -7.4942 -0.3640 1.5537 4.2090 25.0921 -3.5111
# 6 -17.0606 5.0492 3.8805 -0.2316 -3.5111 53.6166
#
#
#
# Elastic Compliance Matrix: (Units=1/GPa)
#
#
# Indices 1 2 3 4 5 6 
#
# 1 0.024158 -0.002758 -0.000821 0.009503 0.006821 0.008494
# 2 -0.002758 0.008089 -0.003810 -0.001015 -0.000496 -0.001400
# 3 -0.000821 -0.003810 0.013537 0.002986 -0.001778 -0.000986
# 4 0.009503 -0.001015 0.002986 0.029866 -0.001965 0.002904
# 5 0.006821 -0.000496 -0.001778 -0.001965 0.043044 0.005156
# 6 0.008494 -0.001400 -0.000986 0.002904 0.005156 0.021907
#
#
# Mechanical properties :
#
#
# Convention : Reuss Voigt Hill
#
# Bulk Modulus (GPa) = 32.25425 50.42504 41.33964
# Shear Modulus (GPa) = 30.17232 38.85411 34.51321
#
# Velocity S-wave (km/s) = 3.69660 4.19485 3.95358
# Velocity P-wave (km/s) = 5.72953 6.80438 6.28996
#
# Compressibility (1/GPa) = 0.03100367
#
# Stress axis : x y z
#
# Youngs Moduli (GPa) = 41.39408 123.62906 73.87404
#
# Poissons Ratio (x) = 0.34100 0.06066
# Poissons Ratio (y) = 0.11418 0.28149
# Poissons Ratio (z) = 0.03399 0.47108
#
# Static dielectric constant tensor:
#      x y z
#    x 1.852050 -0.013370 -0.048300 
#    y -0.013370 1.774290 -0.013360 
#    z -0.048300 -0.013360 1.792390 
# 
# From -- ./inp_files/299843.got.cif
#   From: 2010.05.17/outbox.cif.g08.bks.cpg/sg2_150_cif.got.tgz:299843.got - 2010.06.03 11:33:40.
