data_PCOD9048951
_publ_section_title
;
Structure prediction by ZEFSAII (Michael W. Deem and Ramdas Pophale) SiO2 
 PCOD9048951
Probable space group: P -1
;
_chemical_formula_sum "Si O2"
_cell_formula_units_Z 14
_cell_length_a 8.929973
_cell_length_b 22.252079
_cell_length_c 17.802166
_cell_angle_alpha 18.356837
_cell_angle_beta 149.179117
_cell_angle_gamma 151.758463
_cell_volume 521.047316
_symmetry_space_group_name_H-M "P -1"
_symmetry_group_IT_number 2
_symmetry_cell_setting 'triclinic'
loop_
_space_group_symop_operation_xyz
x,y,z
-x,-y,-z
loop_
_atom_site_type_symbol
_atom_site_label
_atom_site_fract_x
_atom_site_fract_y
_atom_site_fract_z
Si Si1 0.201728 0.292961 0.091837
Si Si2 0.810847 0.664256 0.671065
Si Si3 0.171528 0.502108 0.390513
Si Si4 0.169680 0.842179 0.764008
Si Si5 0.382961 0.818797 0.228709
Si Si6 0.274321 0.199385 0.005661
Si Si7 0.757971 0.173390 0.481185
O O1 0.388436 0.141754 0.351506
O O2 0.951120 0.264522 0.083202
O O3 0.500000 0.500000 0.000000
O O4 0.017857 0.344392 0.884162
O O5 0.658454 0.833294 0.388777
O O6 0.512037 0.443207 0.820469
O O7 0.020772 0.708763 0.783584
O O8 0.031415 0.698220 0.651175
O O9 0.500000 0.500000 0.500000
O O10 0.289256 0.590081 0.420674
O O11 0.917690 0.300715 0.475542
O O12 0.543898 0.897303 0.857219
O O13 0.000000 0.000000 0.500000
O O14 0.082058 0.826999 0.132092
O O15 0.500000 0.000000 0.000000
O O16 0.243374 0.054733 0.237063
#
# Coordination Sequence:
#
# PCOD9048951 Si02
#       7
#     2   2   2   2   2   2   2
#     4  10  24  45  77 107 145 195 250 310 370 442
#     4  12  28  51  74 115 158 191 259 317 379 456
#     4  11  23  45  79 106 151 197 258 302 370 457
#     4  12  28  49  75 112 150 196 256 315 378 450
#     4  12  27  48  75 113 151 209 250 312 385 452
#     4  12  26  47  77 109 154 199 249 313 387 442
#     4  11  24  50  78 112 148 205 250 311 383 449
#
# _framework density 26.868962
#
# number of rings (size 3 to 8) (size 9 to 14) (size 15 to 20)
#    0.000    0.571    4.286    2.571    8.000    0.571 
#    0.000    1.429    0.000    0.000    0.000    0.000 
#    0.000    0.000    0.000    0.000    0.000    0.000 
#
# Total GULP energy -78142.204269 kJ/mol
# GULP energy per Si atom -5581.586019 kJ/mol
# Density = 2.680781 g / cm^3
# Si number density = 26.868962 Si / 1000 Ang^3
#
#
#
# Elastic Constant Matrix: (Units=GPa)
#
#
# Indices 1 2 3 4 5 6 
#
# 1 110.0069 55.8183 12.0189 3.8209 29.1807 23.6271
# 2 55.8183 123.6140 38.5546 13.9136 3.3068 10.8599
# 3 12.0189 38.5546 105.8033 11.7934 36.5404 6.9118
# 4 3.8209 13.9136 11.7934 63.4415 22.3956 12.7647
# 5 29.1807 3.3068 36.5404 22.3956 55.0045 20.2195
# 6 23.6271 10.8599 6.9118 12.7647 20.2195 57.0603
#
#
#
# Elastic Compliance Matrix: (Units=1/GPa)
#
#
# Indices 1 2 3 4 5 6 
#
# 1 0.017374 -0.009718 0.005919 0.005357 -0.013886 -0.002339
# 2 -0.009718 0.015343 -0.008004 -0.005361 0.012107 -0.001018
# 3 0.005919 -0.008004 0.016654 0.003518 -0.015847 0.001884
# 4 0.005357 -0.005361 0.003518 0.020792 -0.012666 -0.001787
# 5 -0.013886 0.012107 -0.015847 -0.012666 0.043105 -0.007076
# 6 -0.002339 -0.001018 0.001884 -0.001787 -0.007076 0.021367
#
#
# Mechanical properties :
#
#
# Convention : Reuss Voigt Hill
#
# Bulk Modulus (GPa) = 38.81229 61.35641 50.08435
# Shear Modulus (GPa) = 29.97064 50.63676 40.30370
#
# Velocity S-wave (km/s) = 3.34344 4.34589 3.87720
# Velocity P-wave (km/s) = 5.42044 6.93306 6.22288
#
# Compressibility (1/GPa) = 0.02576504
#
# Stress axis : x y z
#
# Youngs Moduli (GPa) = 57.55612 65.17551 60.04663
#
# Poissons Ratio (x) = 0.63334 -0.35541
# Poissons Ratio (y) = 0.55930 0.48064
# Poissons Ratio (z) = -0.34067 0.52170
#
# Static dielectric constant tensor:
#      x y z
#    x 2.164180 -0.002700 0.029200 
#    y -0.002700 2.113050 -0.049930 
#    z 0.029200 -0.049930 2.220040 
# 
# From -- ./inp_files/563297.got.cif
#   From: 2010.05.17/outbox.cif.g08.bks.cpg/sg2_282_cif.got.tgz:563297.got - 2010.06.03 11:33:40.
