data_PCOD9048082
_publ_section_title
;
Structure prediction by ZEFSAII (Michael W. Deem and Ramdas Pophale) SiO2 
 PCOD9048082
Probable space group: P -1
;
_chemical_formula_sum "Si O2"
_cell_formula_units_Z 16
_cell_length_a 7.272349
_cell_length_b 11.802437
_cell_length_c 9.662323
_cell_angle_alpha 79.824102
_cell_angle_beta 91.132022
_cell_angle_gamma 117.875329
_cell_volume 719.684859
_symmetry_space_group_name_H-M "P -1"
_symmetry_group_IT_number 2
_symmetry_cell_setting 'triclinic'
loop_
_space_group_symop_operation_xyz
x,y,z
-x,-y,-z
loop_
_atom_site_type_symbol
_atom_site_label
_atom_site_fract_x
_atom_site_fract_y
_atom_site_fract_z
Si Si1 0.330404 0.238248 0.730605
Si Si2 0.434474 0.920586 0.158420
Si Si3 0.982405 0.754555 0.758020
Si Si4 0.011703 0.281143 0.905610
Si Si5 0.341473 0.518716 0.191709
Si Si6 0.325050 0.575721 0.873902
Si Si7 0.791206 0.866290 0.536683
Si Si8 0.427463 0.851748 0.679912
O O1 0.399181 0.128645 0.788828
O O2 0.538859 0.376567 0.712621
O O3 0.229289 0.215626 0.583341
O O4 0.174686 0.242768 0.842673
O O5 0.208135 0.797553 0.157005
O O6 0.440202 0.024524 0.247560
O O7 0.500000 0.000000 0.000000
O O8 0.877416 0.602375 0.748646
O O9 0.824768 0.804522 0.690985
O O10 0.199543 0.839596 0.665085
O O11 0.009675 0.758243 0.923525
O O12 0.118805 0.439111 0.866338
O O13 0.488641 0.455209 0.160945
O O14 0.326862 0.590010 0.036867
O O15 0.362905 0.710197 0.778279
O O16 0.573005 0.869115 0.548163
O O17 0.000000 0.000000 0.500000
#
# Coordination Sequence:
#
# PCOD9048082 Si02
#       8
#     2   2   2   2   2   2   2   2
#     4  11  26  45  69  99 137 183 224 283 335 400
#     4  12  25  40  67 108 135 172 223 285 338 392
#     4  11  24  42  73 103 130 184 221 281 346 398
#     4  10  24  44  73 105 136 171 230 288 340 395
#     4   9  19  40  70 100 135 169 228 282 339 396
#     4   9  19  40  70 103 133 176 218 287 344 392
#     4  12  28  48  66  93 141 193 222 272 340 412
#     4  12  25  43  69 102 139 178 230 274 341 416
#
# _framework density 22.231952
#
# number of rings (size 3 to 8) (size 9 to 14) (size 15 to 20)
#    0.000    1.250    2.500    3.000    3.500    5.000 
#    0.000    0.625    0.000    0.000    0.000    0.000 
#    0.000    0.000    0.000    0.000    0.000    0.000 
#
# Total GULP energy -89465.408970 kJ/mol
# GULP energy per Si atom -5591.588061 kJ/mol
# Density = 2.218135 g / cm^3
# Si number density = 22.231952 Si / 1000 Ang^3
#
#
#
# Elastic Constant Matrix: (Units=GPa)
#
#
# Indices 1 2 3 4 5 6 
#
# 1 96.5884 31.9317 20.5981 -3.8359 -8.5013 9.1979
# 2 31.9317 134.6423 37.4821 13.3794 0.1736 21.8656
# 3 20.5981 37.4821 39.5158 7.5887 -3.5437 1.5581
# 4 -3.8359 13.3794 7.5887 28.9180 0.2000 2.0980
# 5 -8.5013 0.1736 -3.5437 0.2000 27.2479 -4.0013
# 6 9.1979 21.8656 1.5581 2.0980 -4.0013 48.7768
#
#
#
# Elastic Compliance Matrix: (Units=1/GPa)
#
#
# Indices 1 2 3 4 5 6 
#
# 1 0.012612 -0.001645 -0.005447 0.003943 0.003004 -0.001390
# 2 -0.001645 0.011506 -0.009584 -0.002673 -0.002493 -0.004631
# 3 -0.005447 -0.009584 0.038733 -0.006824 0.004142 0.004720
# 4 0.003943 -0.002673 -0.006824 0.038202 -0.000064 -0.000976
# 5 0.003004 -0.002493 0.004142 -0.000064 0.038721 0.003598
# 6 -0.001390 -0.004631 0.004720 -0.000976 0.003598 0.023026
#
#
# Mechanical properties :
#
#
# Convention : Reuss Voigt Hill
#
# Bulk Modulus (GPa) = 33.90023 50.08560 41.99292
# Shear Modulus (GPa) = 24.27355 33.03750 28.65553
#
# Velocity S-wave (km/s) = 3.30787 3.85910 3.59407
# Velocity P-wave (km/s) = 5.46543 6.51417 6.01271
#
# Compressibility (1/GPa) = 0.02949833
#
# Stress axis : x y z
#
# Youngs Moduli (GPa) = 79.28980 86.90963 25.81793
#
# Poissons Ratio (x) = 0.14293 0.14064
# Poissons Ratio (y) = 0.13040 0.24745
# Poissons Ratio (z) = 0.43192 0.83298
#
# Static dielectric constant tensor:
#      x y z
#    x 1.883820 -0.009690 0.017210 
#    y -0.009690 1.824670 -0.019940 
#    z 0.017210 -0.019940 1.784540 
# 
# From -- ./inp_files/186833.got.cif
#   From: 2010.05.17/outbox.cif.g08.bks.cpg/sg2_94_cif.got.tgz:186833.got - 2010.06.03 11:33:40.
