data_PCOD9048381
_publ_section_title
;
Structure prediction by ZEFSAII (Michael W. Deem and Ramdas Pophale) SiO2 
 PCOD9048381
Probable space group: P -1
;
_chemical_formula_sum "Si O2"
_cell_formula_units_Z 16
_cell_length_a 11.169077
_cell_length_b 15.133083
_cell_length_c 15.808268
_cell_angle_alpha 153.234858
_cell_angle_beta 121.317572
_cell_angle_gamma 42.874258
_cell_volume 735.537848
_symmetry_space_group_name_H-M "P -1"
_symmetry_group_IT_number 2
_symmetry_cell_setting 'triclinic'
loop_
_space_group_symop_operation_xyz
x,y,z
-x,-y,-z
loop_
_atom_site_type_symbol
_atom_site_label
_atom_site_fract_x
_atom_site_fract_y
_atom_site_fract_z
Si Si1 0.990536 0.311259 0.953795
Si Si2 0.321224 0.101388 0.629661
Si Si3 0.383299 0.942319 0.860485
Si Si4 0.280039 0.720954 0.066584
Si Si5 0.833480 0.322279 0.193132
Si Si6 0.433846 0.502117 0.597595
Si Si7 0.765775 0.789955 0.506791
Si Si8 0.807149 0.100079 0.477167
O O1 0.869413 0.263315 0.919277
O O2 0.823912 0.625407 0.134975
O O3 0.167765 0.230874 0.003791
O O4 0.106208 0.115816 0.750169
O O5 0.242656 0.201006 0.590585
O O6 0.541687 0.958528 0.593667
O O7 0.298133 0.908942 0.492775
O O8 0.339518 0.784649 0.761777
O O9 0.507723 0.726503 0.643010
O O10 0.500000 0.000000 0.000000
O O11 0.199748 0.021607 0.291441
O O12 0.500000 0.500000 0.000000
O O13 0.277062 0.638499 0.900025
O O14 0.697285 0.454422 0.338635
O O15 0.893761 0.488106 0.334351
O O16 0.000000 0.000000 0.000000
O O17 0.636451 0.386921 0.613842
O O18 0.000000 0.000000 0.500000
#
# Coordination Sequence:
#
# PCOD9048381 Si02
#       8
#     2   2   2   2   2   2   2   2
#     4  11  23  42  67 103 137 181 242 287 353 447
#     4  11  21  42  64  99 141 176 233 292 353 427
#     4  10  24  48  72  97 138 191 230 294 368 426
#     4  12  24  44  74 104 143 193 236 292 369 428
#     4  12  26  47  69 103 146 185 246 302 347 431
#     4  10  24  45  68 101 141 176 239 298 347 433
#     4  11  23  42  71  97 140 191 227 291 365 419
#     4  11  24  38  65 102 141 179 228 297 357 424
#
# _framework density 21.752790000000001
#
# number of rings (size 3 to 8) (size 9 to 14) (size 15 to 20)
#    0.000    1.000    3.750    2.625    3.500    1.500 
#    4.500    0.000    0.000    0.000    0.000    0.000 
#    0.000    0.000    0.000    0.000    0.000    0.000 
#
# Total GULP energy -89332.125948 kJ/mol
# GULP energy per Si atom -5583.257872 kJ/mol
# Density = 2.170328 g / cm^3
# Si number density = 21.752790 Si / 1000 Ang^3
#
#
#
# Elastic Constant Matrix: (Units=GPa)
#
#
# Indices 1 2 3 4 5 6 
#
# 1 93.5670 26.1558 15.6019 -17.5830 -2.1536 7.9118
# 2 26.1558 77.7340 19.5494 -1.0912 -0.7357 -3.2791
# 3 15.6019 19.5494 66.2786 9.6260 13.7305 4.9837
# 4 -17.5830 -1.0912 9.6260 29.1773 -4.3345 2.4992
# 5 -2.1536 -0.7357 13.7305 -4.3345 31.9217 -4.7538
# 6 7.9118 -3.2791 4.9837 2.4992 -4.7538 39.2051
#
#
#
# Elastic Compliance Matrix: (Units=1/GPa)
#
#
# Indices 1 2 3 4 5 6 
#
# 1 0.014990 -0.003804 -0.004651 0.011277 0.004011 -0.002985
# 2 -0.003804 0.015372 -0.004318 -0.000190 0.002361 0.002901
# 3 -0.004651 -0.004318 0.021815 -0.011669 -0.011810 -0.002884
# 4 0.011277 -0.000190 -0.011669 0.046866 0.011787 -0.002367
# 5 0.004011 0.002361 -0.011810 0.011787 0.039058 0.004874
# 6 -0.002985 0.002901 -0.002884 -0.002367 0.004874 0.027460
#
#
# Mechanical properties :
#
#
# Convention : Reuss Voigt Hill
#
# Bulk Modulus (GPa) = 37.55075 40.02154 38.78615
# Shear Modulus (GPa) = 25.00186 31.81231 28.40708
#
# Velocity S-wave (km/s) = 3.39390 3.82834 3.61765
# Velocity P-wave (km/s) = 5.71473 6.16278 5.94298
#
# Compressibility (1/GPa) = 0.02663063
#
# Stress axis : x y z
#
# Youngs Moduli (GPa) = 66.70964 65.05171 45.84061
#
# Poissons Ratio (x) = 0.24745 0.21321
# Poissons Ratio (y) = 0.25375 0.19796
# Poissons Ratio (z) = 0.31028 0.28092
#
# Static dielectric constant tensor:
#      x y z
#    x 1.925290 -0.635610 0.054250 
#    y -0.635610 2.382150 -0.329370 
#    z 0.054250 -0.329370 1.832570 
# 
# From -- ./inp_files/522665.got.cif
#   From: 2010.05.17/outbox.cif.g08.bks.cpg/sg2_262_cif.got.tgz:522665.got - 2010.06.03 11:33:40.
