data_PCOD9048483
_publ_section_title
;
Structure prediction by ZEFSAII (Michael W. Deem and Ramdas Pophale) SiO2 
 PCOD9048483
Probable space group: P -1
;
_chemical_formula_sum "Si O2"
_cell_formula_units_Z 15
_cell_length_a 13.801920
_cell_length_b 19.171712
_cell_length_c 10.764719
_cell_angle_alpha 28.136106
_cell_angle_beta 126.468803
_cell_angle_gamma 145.900228
_cell_volume 646.075548
_symmetry_space_group_name_H-M "P -1"
_symmetry_group_IT_number 2
_symmetry_cell_setting 'triclinic'
loop_
_space_group_symop_operation_xyz
x,y,z
-x,-y,-z
loop_
_atom_site_type_symbol
_atom_site_label
_atom_site_fract_x
_atom_site_fract_y
_atom_site_fract_z
Si Si1 0.369393 0.721538 0.329002
Si Si2 0.790805 0.094837 0.771542
Si Si3 0.653491 0.722495 0.601043
Si Si4 0.692562 0.408083 0.792496
Si Si5 0.000000 0.500000 0.500000
Si Si6 0.299712 0.157703 0.273404
Si Si7 0.279012 0.827621 0.650941
Si Si8 0.090777 0.087922 0.747933
O O1 0.506196 0.714586 0.470085
O O2 0.280781 0.622157 0.279322
O O3 0.180192 0.551849 0.541489
O O4 0.500000 0.000000 0.000000
O O5 0.835325 0.224900 0.474206
O O6 0.852837 0.256862 0.679364
O O7 0.550463 0.828259 0.005835
O O8 0.897478 0.042886 0.950677
O O9 0.746423 0.854270 0.598723
O O10 0.805968 0.851673 0.400929
O O11 0.515194 0.441377 0.957764
O O12 0.778500 0.652818 0.500701
O O13 0.790272 0.388779 0.994135
O O14 0.297331 0.981708 0.518440
O O15 0.132024 0.073253 0.195619
O O16 0.500000 0.000000 0.500000
#
# Coordination Sequence:
#
# PCOD9048483 Si02
#       8
#     2   2   2   2   1   2   2   2
#     4  12  24  45  72 102 144 189 240 289 359 426
#     4  11  24  46  74 103 144 190 235 297 358 420
#     4  11  24  46  71 100 145 189 233 299 359 420
#     4  11  24  46  73 104 145 189 235 296 362 421
#     4  12  26  44  70 110 138 186 242 296 344 434
#     4  11  26  44  71 105 141 190 238 294 361 421
#     4  10  24  45  69 103 142 188 233 292 358 420
#     4  12  25  47  73 110 139 186 246 295 350 434
#
# _framework density 23.217098
#
# number of rings (size 3 to 8) (size 9 to 14) (size 15 to 20)
#    0.000    0.800    2.667    4.000    5.600    1.067 
#    7.200    0.000    0.000    0.000    0.000    0.000 
#    0.000    0.000    0.000    0.000    0.000    0.000 
#
# Total GULP energy -83801.293716 kJ/mol
# GULP energy per Si atom -5586.752914 kJ/mol
# Density = 2.316425 g / cm^3
# Si number density = 23.217098 Si / 1000 Ang^3
#
#
#
# Elastic Constant Matrix: (Units=GPa)
#
#
# Indices 1 2 3 4 5 6 
#
# 1 89.4626 24.2512 28.6303 -4.4572 13.7234 3.7726
# 2 24.2512 124.3230 45.5103 0.1260 10.9194 -18.2192
# 3 28.6303 45.5103 96.0940 15.0102 18.0712 -18.8620
# 4 -4.4572 0.1260 15.0102 40.1068 2.0725 6.1935
# 5 13.7234 10.9194 18.0712 2.0725 34.8074 -8.4404
# 6 3.7726 -18.2192 -18.8620 6.1935 -8.4404 36.4850
#
#
#
# Elastic Compliance Matrix: (Units=1/GPa)
#
#
# Indices 1 2 3 4 5 6 
#
# 1 0.014309 -0.001663 -0.004608 0.004565 -0.004582 -0.006527
# 2 -0.001663 0.010238 -0.003874 0.000729 0.000188 0.003201
# 3 -0.004608 -0.003874 0.017049 -0.007925 -0.003430 0.007908
# 4 0.004565 0.000729 -0.007925 0.030022 -0.002073 -0.009781
# 5 -0.004582 0.000188 -0.003430 -0.002073 0.034086 0.007032
# 6 -0.006527 0.003201 0.007908 -0.009781 0.007032 0.037057
#
#
# Mechanical properties :
#
#
# Convention : Reuss Voigt Hill
#
# Bulk Modulus (GPa) = 46.93583 56.29592 51.61587
# Shear Modulus (GPa) = 29.38505 36.37904 32.88204
#
# Velocity S-wave (km/s) = 3.56148 3.96271 3.76744
# Velocity P-wave (km/s) = 6.09689 6.72590 6.41910
#
# Compressibility (1/GPa) = 0.02130569
#
# Stress axis : x y z
#
# Youngs Moduli (GPa) = 69.88640 97.67505 58.65331
#
# Poissons Ratio (x) = 0.16244 0.27028
# Poissons Ratio (y) = 0.11622 0.22723
# Poissons Ratio (z) = 0.32205 0.37840
#
# Static dielectric constant tensor:
#      x y z
#    x 1.921980 0.027600 -0.073360 
#    y 0.027600 1.848650 0.002880 
#    z -0.073360 0.002880 1.846270 
# 
# From -- ./inp_files/457582.got.cif
#   From: 2010.05.17/outbox.cif.g08.bks.cpg/sg2_229_cif.got.tgz:457582.got - 2010.06.03 11:33:40.
