data_PCOD9048787
_publ_section_title
;
Structure prediction by ZEFSAII (Michael W. Deem and Ramdas Pophale) SiO2 
 PCOD9048787
Probable space group: P -1
;
_chemical_formula_sum "Si O2"
_cell_formula_units_Z 14
_cell_length_a 13.984344
_cell_length_b 5.626945
_cell_length_c 9.216968
_cell_angle_alpha 86.418211
_cell_angle_beta 81.420342
_cell_angle_gamma 48.034177
_cell_volume 532.553035
_symmetry_space_group_name_H-M "P -1"
_symmetry_group_IT_number 2
_symmetry_cell_setting 'triclinic'
loop_
_space_group_symop_operation_xyz
x,y,z
-x,-y,-z
loop_
_atom_site_type_symbol
_atom_site_label
_atom_site_fract_x
_atom_site_fract_y
_atom_site_fract_z
Si Si1 0.263052 0.388910 0.252428
Si Si2 0.985860 0.902664 0.769282
Si Si3 0.417522 0.339848 0.593705
Si Si4 0.864456 0.644268 0.454700
Si Si5 0.600249 0.430971 0.702201
Si Si6 0.794699 0.149968 0.208978
Si Si7 0.778317 0.915333 0.929686
O O1 0.237049 0.250518 0.397983
O O2 0.400701 0.298957 0.235645
O O3 0.235937 0.335733 0.098648
O O4 0.140666 0.766921 0.283195
O O5 0.922448 0.773199 0.861182
O O6 0.087883 0.663031 0.632692
O O7 0.067928 0.948585 0.845722
O O8 0.494441 0.423228 0.660322
O O9 0.341994 0.578814 0.464180
O O10 0.307233 0.477221 0.732566
O O11 0.500000 0.000000 0.500000
O O12 0.000000 0.500000 0.500000
O O13 0.817828 0.913138 0.337471
O O14 0.674850 0.179107 0.823833
O O15 0.747427 0.078108 0.084011
#
# Coordination Sequence:
#
# PCOD9048787 Si02
#       7
#     2   2   2   2   2   2   2
#     4  11  22  42  69  99 143 185 229 283 347 413
#     4  11  23  40  68 102 145 183 230 281 347 424
#     4  11  25  49  74 102 132 180 244 301 342 405
#     4  12  23  41  66 103 141 184 232 284 343 415
#     4  10  24  45  72  99 135 179 233 291 347 404
#     4  12  27  43  69 103 143 186 235 286 351 418
#     4  11  24  44  67 103 147 187 223 281 356 430
#
# _framework density 26.288461999999999
#
# number of rings (size 3 to 8) (size 9 to 14) (size 15 to 20)
#    0.000    0.857    2.857    3.429    2.000    8.571 
#    0.000    1.429    0.000    0.000    0.000    0.000 
#    0.000    0.000    0.000    0.000    0.000    0.000 
#
# Total GULP energy -78006.480175 kJ/mol
# GULP energy per Si atom -5571.891441 kJ/mol
# Density = 2.622863 g / cm^3
# Si number density = 26.288462 Si / 1000 Ang^3
#
#
#
# Elastic Constant Matrix: (Units=GPa)
#
#
# Indices 1 2 3 4 5 6 
#
# 1 157.5859 17.9880 47.6881 11.9965 53.5545 10.5646
# 2 17.9880 88.9079 60.3530 12.0802 14.0027 -2.1640
# 3 47.6881 60.3530 139.8020 15.2777 41.8605 -5.5730
# 4 11.9965 12.0802 15.2777 34.6292 3.5487 8.1371
# 5 53.5545 14.0027 41.8605 3.5487 48.3566 2.2403
# 6 10.5646 -2.1640 -5.5730 8.1371 2.2403 26.5411
#
#
#
# Elastic Compliance Matrix: (Units=1/GPa)
#
#
# Indices 1 2 3 4 5 6 
#
# 1 0.010550 -0.000132 -0.000061 -0.001781 -0.011336 -0.002720
# 2 -0.000132 0.016264 -0.007206 -0.002770 0.001851 0.000558
# 3 -0.000061 -0.007206 0.013734 -0.003524 -0.009671 0.004217
# 4 -0.001781 -0.002770 -0.003524 0.034225 0.003826 -0.011073
# 5 -0.011336 0.001851 -0.009671 0.003826 0.040881 -0.001991
# 6 -0.002720 0.000558 0.004217 -0.011073 -0.001991 0.043254
#
#
# Mechanical properties :
#
#
# Convention : Reuss Voigt Hill
#
# Bulk Modulus (GPa) = 38.83531 70.92822 54.88177
# Shear Modulus (GPa) = 27.42915 39.25650 33.34282
#
# Velocity S-wave (km/s) = 3.23366 3.86851 3.56525
# Velocity P-wave (km/s) = 5.36161 6.85516 6.15386
#
# Compressibility (1/GPa) = 0.02574976
#
# Stress axis : x y z
#
# Youngs Moduli (GPa) = 94.79017 61.48548 72.81434
#
# Poissons Ratio (x) = 0.00809 0.00447
# Poissons Ratio (y) = 0.01248 0.52468
# Poissons Ratio (z) = 0.00582 0.44304
#
# Static dielectric constant tensor:
#      x y z
#    x 2.219420 0.188580 0.051000 
#    y 0.188580 2.302860 0.009690 
#    z 0.051000 0.009690 2.049660 
# 
# From -- ./inp_files/288837.got.cif
#   From: 2010.05.17/outbox.cif.g08.bks.cpg/sg2_145_cif.got.tgz:288837.got - 2010.06.03 11:33:40.
