data_PCOD9048885
_publ_section_title
;
Structure prediction by ZEFSAII (Michael W. Deem and Ramdas Pophale) SiO2 
 PCOD9048885
Probable space group: P -1
;
_chemical_formula_sum "Si O2"
_cell_formula_units_Z 15
_cell_length_a 19.940574
_cell_length_b 11.603092
_cell_length_c 5.713974
_cell_angle_alpha 77.098448
_cell_angle_beta 87.716369
_cell_angle_gamma 29.997071
_cell_volume 611.478377
_symmetry_space_group_name_H-M "P -1"
_symmetry_group_IT_number 2
_symmetry_cell_setting 'triclinic'
loop_
_space_group_symop_operation_xyz
x,y,z
-x,-y,-z
loop_
_atom_site_type_symbol
_atom_site_label
_atom_site_fract_x
_atom_site_fract_y
_atom_site_fract_z
Si Si1 0.718927 0.973920 0.598770
Si Si2 0.796118 0.091332 0.731151
Si Si3 0.449802 0.454437 0.134095
Si Si4 0.807833 0.604808 0.639184
Si Si5 0.077108 0.784616 0.925722
Si Si6 0.575069 0.860616 0.302373
Si Si7 0.679865 0.468165 0.271633
Si Si8 0.000000 0.500000 0.500000
O O1 0.732862 0.814300 0.731701
O O2 0.837257 0.794167 0.458238
O O3 0.772994 0.987166 0.767590
O O4 0.564277 0.245720 0.409641
O O5 0.709294 0.278496 0.874897
O O6 0.716645 0.281132 0.444398
O O7 0.956034 0.887026 0.793338
O O8 0.500000 0.500000 0.000000
O O9 0.436883 0.370764 0.984901
O O10 0.827056 0.449881 0.826807
O O11 0.712618 0.731345 0.367183
O O12 0.955623 0.435646 0.626567
O O13 0.176516 0.696108 0.769125
O O14 0.000000 0.000000 0.000000
O O15 0.622990 0.649627 0.383399
O O16 0.500000 0.000000 0.500000
O O17 0.500000 0.000000 0.000000
#
# Coordination Sequence:
#
# PCOD9048885 Si02
#       8
#     2   2   2   2   2   2   2   1
#     4  10  24  45  74 110 155 194 263 323 397 485
#     4  12  27  45  79 113 153 204 270 331 411 473
#     4  12  26  47  76 114 153 203 264 329 408 484
#     4  10  25  46  76 109 160 200 268 321 410 471
#     4  12  26  47  77 113 162 211 272 333 401 492
#     4  12  28  50  80 114 165 212 267 334 412 492
#     4  12  28  46  77 113 154 208 268 331 411 480
#     4   8  24  44  76 102 154 202 256 328 400 468
#
# _framework density 24.530712999999999
#
# number of rings (size 3 to 8) (size 9 to 14) (size 15 to 20)
#    0.800    0.000    2.667    3.200    9.333    0.533 
#    0.000    1.333    0.000    0.000    0.000    0.000 
#    0.000    0.000    0.000    0.000    0.000    0.000 
#
# Total GULP energy -83652.376275 kJ/mol
# GULP energy per Si atom -5576.825085 kJ/mol
# Density = 2.447488 g / cm^3
# Si number density = 24.530713 Si / 1000 Ang^3
#
#
#
# Elastic Constant Matrix: (Units=GPa)
#
#
# Indices 1 2 3 4 5 6 
#
# 1 101.6295 44.3954 21.9817 11.8140 15.7425 22.5388
# 2 44.3954 109.4110 22.3024 6.4391 3.3447 9.8109
# 3 21.9817 22.3024 69.2826 0.8068 9.6337 7.9969
# 4 11.8140 6.4391 0.8068 29.5076 0.4510 -3.2358
# 5 15.7425 3.3447 9.6337 0.4510 47.3585 5.3684
# 6 22.5388 9.8109 7.9969 -3.2358 5.3684 54.4134
#
#
#
# Elastic Compliance Matrix: (Units=1/GPa)
#
#
# Indices 1 2 3 4 5 6 
#
# 1 0.014523 -0.004634 -0.002010 -0.005227 -0.003492 -0.004851
# 2 -0.004634 0.011504 -0.002400 -0.000603 0.001217 0.000042
# 3 -0.002010 -0.002400 0.016263 0.000828 -0.002383 -0.000840
# 4 -0.005227 -0.000603 0.000828 0.036545 0.000782 0.004248
# 5 -0.003492 0.001217 -0.002383 0.000782 0.022738 -0.000620
# 6 -0.004851 0.000042 -0.000840 0.004248 -0.000620 0.020817
#
#
# Mechanical properties :
#
#
# Convention : Reuss Voigt Hill
#
# Bulk Modulus (GPa) = 41.31870 50.85358 46.08614
# Shear Modulus (GPa) = 33.65999 39.03214 36.34606
#
# Velocity S-wave (km/s) = 3.70828 3.99325 3.85340
# Velocity P-wave (km/s) = 5.93425 6.48360 6.21500
#
# Compressibility (1/GPa) = 0.02420212
#
# Stress axis : x y z
#
# Youngs Moduli (GPa) = 68.85647 86.92708 61.49074
#
# Poissons Ratio (x) = 0.40281 0.12358
# Poissons Ratio (y) = 0.31907 0.14758
# Poissons Ratio (z) = 0.13839 0.20862
#
# Static dielectric constant tensor:
#      x y z
#    x 1.947730 0.015860 -0.002210 
#    y 0.015860 1.963140 0.008700 
#    z -0.002210 0.008700 1.973610 
# 
# From -- ./inp_files/118164.got.cif
#   From: 2010.05.17/outbox.cif.g08.bks.cpg/sg2_60_cif.got.tgz:118164.got - 2010.06.03 11:33:40.
