data_PCOD9048846
_publ_section_title
;
Structure prediction by ZEFSAII (Michael W. Deem and Ramdas Pophale) SiO2 
 PCOD9048846
Probable space group: P -1
;
_chemical_formula_sum "Si O2"
_cell_formula_units_Z 13
_cell_length_a 11.763528
_cell_length_b 9.040815
_cell_length_c 6.383692
_cell_angle_alpha 113.161952
_cell_angle_beta 78.246422
_cell_angle_gamma 109.686962
_cell_volume 585.717624
_symmetry_space_group_name_H-M "P -1"
_symmetry_group_IT_number 2
_symmetry_cell_setting 'triclinic'
loop_
_space_group_symop_operation_xyz
x,y,z
-x,-y,-z
loop_
_atom_site_type_symbol
_atom_site_label
_atom_site_fract_x
_atom_site_fract_y
_atom_site_fract_z
Si Si1 0.614903 0.773583 0.603094
Si Si2 0.936026 0.195057 0.563935
Si Si3 0.186676 0.307603 0.284861
Si Si4 0.710265 0.335201 0.689442
Si Si5 0.423397 0.539036 0.854230
Si Si6 0.500000 0.000000 0.500000
Si Si7 0.932597 0.881190 0.146768
O O1 0.738879 0.809528 0.708698
O O2 0.509877 0.679508 0.752389
O O3 0.622304 0.633698 0.351269
O O4 0.587345 0.931142 0.592868
O O5 0.834335 0.286207 0.621071
O O6 0.059665 0.280423 0.436371
O O7 0.977747 0.187684 0.783174
O O8 0.887950 0.005440 0.384857
O O9 0.267216 0.499249 0.370510
O O10 0.163208 0.261432 0.023337
O O11 0.598722 0.187182 0.565160
O O12 0.675418 0.385273 0.961003
O O13 0.500000 0.500000 0.000000
O O14 0.000000 0.000000 0.000000
#
# Coordination Sequence:
#
# PCOD9048846 Si02
#       7
#     2   2   2   2   2   1   2
#     4  11  25  46  73 102 142 187 249 298 363 425
#     4  10  24  45  73 113 145 187 235 298 365 435
#     4  11  24  46  76 106 146 196 231 302 364 439
#     4  12  26  45  72 107 147 186 247 298 354 435
#     4  11  22  49  70  98 140 197 244 294 361 426
#     4  12  28  46  70 110 140 190 248 304 352 428
#     4   9  22  45  70 106 143 192 234 285 372 424
#
# _framework density 22.194994000000001
#
# number of rings (size 3 to 8) (size 9 to 14) (size 15 to 20)
#    0.000    1.231    3.077    1.385    8.615    2.462 
#   11.077    0.000    0.000    0.000    0.000    0.000 
#    0.000    0.000    0.000    0.000    0.000    0.000 
#
# Total GULP energy -72468.916703 kJ/mol
# GULP energy per Si atom -5574.532054 kJ/mol
# Density = 2.214448 g / cm^3
# Si number density = 22.194994 Si / 1000 Ang^3
#
#
#
# Elastic Constant Matrix: (Units=GPa)
#
#
# Indices 1 2 3 4 5 6 
#
# 1 113.7682 37.6080 43.6555 -3.1100 4.4007 -18.3554
# 2 37.6080 124.1334 21.0397 -3.9622 8.0562 7.4678
# 3 43.6555 21.0397 71.1716 -16.0046 19.6275 6.0143
# 4 -3.1100 -3.9622 -16.0046 22.3918 6.1187 6.3806
# 5 4.4007 8.0562 19.6275 6.1187 44.4285 -7.5480
# 6 -18.3554 7.4678 6.0143 6.3806 -7.5480 47.4848
#
#
#
# Elastic Compliance Matrix: (Units=1/GPa)
#
#
# Indices 1 2 3 4 5 6 
#
# 1 0.019844 -0.005057 -0.020572 -0.021169 0.013689 0.016092
# 2 -0.005057 0.009850 0.003290 0.006186 -0.004520 -0.005470
# 3 -0.020572 0.003290 0.046435 0.046248 -0.029739 -0.025292
# 4 -0.021169 0.006186 0.046248 0.096082 -0.038472 -0.034039
# 5 0.013689 -0.004520 -0.029739 -0.038472 0.044138 0.021954
# 6 0.016092 -0.005470 -0.025292 -0.034039 0.021954 0.039407
#
#
# Mechanical properties :
#
#
# Convention : Reuss Voigt Hill
#
# Bulk Modulus (GPa) = 31.79598 57.07553 44.43575
# Shear Modulus (GPa) = 16.08145 36.64570 26.36357
#
# Velocity S-wave (km/s) = 2.69467 4.06776 3.45021
# Velocity P-wave (km/s) = 4.90291 6.91618 5.99467
#
# Compressibility (1/GPa) = 0.03145052
#
# Stress axis : x y z
#
# Youngs Moduli (GPa) = 50.39416 101.51977 21.53550
#
# Poissons Ratio (x) = 0.51342 0.44302
# Poissons Ratio (y) = 0.25486 -0.07085
# Poissons Ratio (z) = 1.03670 -0.33400
#
# Static dielectric constant tensor:
#      x y z
#    x 1.811570 0.053980 0.001590 
#    y 0.053980 1.829120 0.015800 
#    z 0.001590 0.015800 1.846510 
# 
# From -- ./inp_files/24826.got.cif
#   From: 2010.05.17/outbox.cif.g08.bks.cpg/sg2_13_cif.got.tgz:24826.got - 2010.06.03 11:33:40.
