data_PCOD9048204
_publ_section_title
;
Structure prediction by ZEFSAII (Michael W. Deem and Ramdas Pophale) SiO2 
 PCOD9048204
Probable space group: P -1
;
_chemical_formula_sum "Si O2"
_cell_formula_units_Z 12
_cell_length_a 16.275244
_cell_length_b 14.377971
_cell_length_c 4.687875
_cell_angle_alpha 70.238781
_cell_angle_beta 114.862482
_cell_angle_gamma 154.859072
_cell_volume 420.277328
_symmetry_space_group_name_H-M "P -1"
_symmetry_group_IT_number 2
_symmetry_cell_setting 'triclinic'
loop_
_space_group_symop_operation_xyz
x,y,z
-x,-y,-z
loop_
_atom_site_type_symbol
_atom_site_label
_atom_site_fract_x
_atom_site_fract_y
_atom_site_fract_z
Si Si1 0.736985 0.624062 0.094926
Si Si2 0.099675 0.908470 0.716925
Si Si3 0.339829 0.659124 0.905985
Si Si4 0.558066 0.959329 0.448431
Si Si5 0.025461 0.622036 0.717490
Si Si6 0.683471 0.789685 0.756362
O O1 0.729097 0.520954 0.986306
O O2 0.535444 0.425231 0.199461
O O3 0.471235 0.151458 0.236342
O O4 0.735429 0.726859 0.826192
O O5 0.292257 0.115691 0.575680
O O6 0.043496 0.738370 0.815219
O O7 0.156157 0.014110 0.983271
O O8 0.922177 0.790610 0.408433
O O9 0.404690 0.778905 0.160361
O O10 0.160002 0.539272 0.599372
O O11 0.772262 0.181384 0.381721
O O12 0.500000 0.000000 0.500000
O O13 0.000000 0.500000 0.000000
#
# Coordination Sequence:
#
# PCOD9048204 Si02
#       6
#     2   2   2   2   2   2
#     4  10  24  44  76 112 150 195 250 300 383 454
#     4  11  25  48  72 107 154 194 251 309 376 442
#     4  11  28  50  76 112 157 202 256 319 385 459
#     4  12  29  52  76 110 154 202 258 324 385 453
#     4  11  29  51  81 111 154 207 264 315 387 458
#     4  11  24  44  75 112 150 197 243 311 373 455
#
# _framework density 28.552574
#
# number of rings (size 3 to 8) (size 9 to 14) (size 15 to 20)
#    0.000    1.000    0.000    3.500    4.667   13.333 
#    0.000    0.000    0.000    0.000    0.000    0.000 
#    0.000    0.000    0.000    0.000    0.000    0.000 
#
# Total GULP energy -67575.799791 kJ/mol
# GULP energy per Si atom -5631.316649 kJ/mol
# Density = 2.848759 g / cm^3
# Si number density = 28.552574 Si / 1000 Ang^3
#
#
#
# Elastic Constant Matrix: (Units=GPa)
#
#
# Indices 1 2 3 4 5 6 
#
# 1 158.2029 88.7412 58.1615 4.3357 -5.5343 -15.5279
# 2 88.7412 207.5213 101.4614 -1.7426 3.6396 -20.8013
# 3 58.1615 101.4614 186.0722 7.1505 -11.8595 -19.8639
# 4 4.3357 -1.7426 7.1505 76.7434 -3.6588 7.3174
# 5 -5.5343 3.6396 -11.8595 -3.6588 53.7713 -4.1871
# 6 -15.5279 -20.8013 -19.8639 7.3174 -4.1871 69.2836
#
#
#
# Elastic Compliance Matrix: (Units=1/GPa)
#
#
# Indices 1 2 3 4 5 6 
#
# 1 0.008532 -0.003225 -0.000737 -0.000521 0.000964 0.000846
# 2 -0.003225 0.007937 -0.003381 0.000553 -0.001535 0.000540
# 3 -0.000737 -0.003381 0.007731 -0.000783 0.001901 0.001234
# 4 -0.000521 0.000553 -0.000783 0.013318 0.000522 -0.001550
# 5 0.000964 -0.001535 0.001901 0.000522 0.019365 0.001415
# 6 0.000846 0.000540 0.001234 -0.001550 0.001415 0.015388
#
#
# Mechanical properties :
#
#
# Convention : Reuss Voigt Hill
#
# Bulk Modulus (GPa) = 105.10360 116.50274 110.80317
# Shear Modulus (GPa) = 55.47707 60.18847 57.83277
#
# Velocity S-wave (km/s) = 4.41271 4.59626 4.50542
# Velocity P-wave (km/s) = 7.92799 8.31017 8.12133
#
# Compressibility (1/GPa) = 0.00951442
#
# Stress axis : x y z
#
# Youngs Moduli (GPa) = 117.20972 126.00001 129.34718
#
# Poissons Ratio (x) = 0.40631 0.09528
# Poissons Ratio (y) = 0.37797 0.43734
# Poissons Ratio (z) = 0.08634 0.42602
#
# Static dielectric constant tensor:
#      x y z
#    x 2.292090 0.063340 0.010400 
#    y 0.063340 2.204010 -0.035900 
#    z 0.010400 -0.035900 2.122960 
# 
# From -- ./inp_files/107999.got.cif
#   From: 2010.05.17/outbox.cif.g08.bks.cpg/sg2_54_cif.got.tgz:107999.got - 2010.06.03 11:33:40.
