data_PCOD9048293
_publ_section_title
;
Structure prediction by ZEFSAII (Michael W. Deem and Ramdas Pophale) SiO2 
 PCOD9048293
Probable space group: P -1
;
_chemical_formula_sum "Si O2"
_cell_formula_units_Z 14
_cell_length_a 11.569803
_cell_length_b 9.958096
_cell_length_c 12.969062
_cell_angle_alpha 145.708694
_cell_angle_beta 44.619945
_cell_angle_gamma 123.243357
_cell_volume 588.299217
_symmetry_space_group_name_H-M "P -1"
_symmetry_group_IT_number 2
_symmetry_cell_setting 'triclinic'
loop_
_space_group_symop_operation_xyz
x,y,z
-x,-y,-z
loop_
_atom_site_type_symbol
_atom_site_label
_atom_site_fract_x
_atom_site_fract_y
_atom_site_fract_z
Si Si1 0.074722 0.681925 0.945079
Si Si2 0.175693 0.844803 0.552966
Si Si3 0.176927 0.849859 0.777234
Si Si4 0.380391 0.636227 0.863333
Si Si5 0.373144 0.118029 0.283981
Si Si6 0.465944 0.102245 0.449773
Si Si7 0.993713 0.753373 0.409713
O O1 0.191398 0.723776 0.798462
O O2 0.197689 0.628833 0.927964
O O3 0.980315 0.465152 0.824816
O O4 0.948169 0.910653 0.198267
O O5 0.355855 0.927136 0.467710
O O6 0.167538 0.717142 0.588467
O O7 0.111640 0.723192 0.414421
O O8 0.341074 0.985478 0.745170
O O9 0.000000 0.000000 0.000000
O O10 0.490077 0.746361 0.774451
O O11 0.450516 0.368410 0.676320
O O12 0.388112 0.833883 0.072213
O O13 0.383972 0.148899 0.418540
O O14 0.196564 0.222283 0.417575
O O15 0.000000 0.000000 0.500000
#
# Coordination Sequence:
#
# PCOD9048293 Si02
#       7
#     2   2   2   2   2   2   2
#     4  11  22  41  64  91 132 166 210 252 312 375
#     4  11  25  40  63  93 131 168 208 256 307 374
#     4  10  24  45  66  87 122 176 216 253 305 374
#     4  11  22  36  65  97 124 164 204 260 319 369
#     4  11  22  36  61  98 127 158 202 258 313 377
#     4  12  22  41  67  92 128 160 210 262 317 364
#     4  12  23  37  63  96 130 161 203 260 320 369
#
# _framework density 23.797414
#
# number of rings (size 3 to 8) (size 9 to 14) (size 15 to 20)
#    0.000    0.857    5.714    1.714    2.000    1.714 
#    0.000    2.857    0.000    6.000    0.000    0.000 
#    0.000    0.000    0.000    0.000    0.000    0.000 
#
# Total GULP energy -78289.100535 kJ/mol
# GULP energy per Si atom -5592.078610 kJ/mol
# Density = 2.374325 g / cm^3
# Si number density = 23.797414 Si / 1000 Ang^3
#
#
#
# Elastic Constant Matrix: (Units=GPa)
#
#
# Indices 1 2 3 4 5 6 
#
# 1 106.6879 49.3192 19.4759 -13.8768 -2.3335 12.4821
# 2 49.3192 78.5926 37.9666 -23.8153 13.2324 8.3669
# 3 19.4759 37.9666 74.1649 -5.8900 -2.3466 17.8602
# 4 -13.8768 -23.8153 -5.8900 38.1065 2.6375 6.4682
# 5 -2.3335 13.2324 -2.3466 2.6375 31.4763 -6.5165
# 6 12.4821 8.3669 17.8602 6.4682 -6.5165 34.8690
#
#
#
# Elastic Compliance Matrix: (Units=1/GPa)
#
#
# Indices 1 2 3 4 5 6 
#
# 1 0.014429 -0.011574 0.002788 -0.001530 0.005763 -0.002455
# 2 -0.011574 0.035612 -0.013263 0.018102 -0.019281 -0.004570
# 3 0.002788 -0.013263 0.021133 -0.003271 0.006209 -0.006873
# 4 -0.001530 0.018102 -0.003271 0.039485 -0.013764 -0.012017
# 5 0.005763 -0.019281 0.006209 -0.013764 0.044023 0.010164
# 6 -0.002455 -0.004570 -0.006873 -0.012017 0.010164 0.038303
#
#
# Mechanical properties :
#
#
# Convention : Reuss Voigt Hill
#
# Bulk Modulus (GPa) = 36.93409 52.55209 44.74309
# Shear Modulus (GPa) = 20.31626 31.06926 25.69276
#
# Velocity S-wave (km/s) = 2.92501 3.61719 3.28936
# Velocity P-wave (km/s) = 5.19245 6.29098 5.76793
#
# Compressibility (1/GPa) = 0.02707526
#
# Stress axis : x y z
#
# Youngs Moduli (GPa) = 69.30588 28.08045 47.31957
#
# Poissons Ratio (x) = 0.32500 -0.13193
# Poissons Ratio (y) = 0.80214 0.62761
# Poissons Ratio (z) = -0.19322 0.37244
#
# Static dielectric constant tensor:
#      x y z
#    x 1.922850 -0.006800 -0.002570 
#    y -0.006800 1.962080 -0.010280 
#    z -0.002570 -0.010280 1.896210 
# 
# From -- ./inp_files/189646.got.cif
#   From: 2010.05.17/outbox.cif.g08.bks.cpg/sg2_95_cif.got.tgz:189646.got - 2010.06.03 11:33:40.
