data_PCOD9048078
_publ_section_title
;
Structure prediction by ZEFSAII (Michael W. Deem and Ramdas Pophale) SiO2 
 PCOD9048078
Probable space group: P -1
;
_chemical_formula_sum "Si O2"
_cell_formula_units_Z 12
_cell_length_a 20.062335
_cell_length_b 5.223109
_cell_length_c 5.715551
_cell_angle_alpha 126.066395
_cell_angle_beta 114.735685
_cell_angle_gamma 68.549910
_cell_volume 433.859149
_symmetry_space_group_name_H-M "P -1"
_symmetry_group_IT_number 2
_symmetry_cell_setting 'triclinic'
loop_
_space_group_symop_operation_xyz
x,y,z
-x,-y,-z
loop_
_atom_site_type_symbol
_atom_site_label
_atom_site_fract_x
_atom_site_fract_y
_atom_site_fract_z
Si Si1 0.082009 0.647056 0.453588
Si Si2 0.767342 0.872395 0.610756
Si Si3 0.932272 0.339443 0.059827
Si Si4 0.550365 0.192617 0.021733
Si Si5 0.217331 0.149590 0.880564
Si Si6 0.349566 0.351955 0.400779
O O1 0.159640 0.404486 0.432803
O O2 0.075495 0.825989 0.789957
O O3 0.011046 0.462684 0.246326
O O4 0.075723 0.827597 0.291801
O O5 0.770366 0.025407 0.442873
O O6 0.692333 0.723924 0.463575
O O7 0.773117 0.042842 0.963366
O O8 0.862687 0.628635 0.114388
O O9 0.610585 0.343164 0.344666
O O10 0.500000 0.500000 0.000000
O O11 0.500000 0.000000 0.000000
O O12 0.591042 0.952287 0.756953
O O13 0.283593 0.359867 0.117552
#
# Coordination Sequence:
#
# PCOD9048078 Si02
#       6
#     2   2   2   2   2   2
#     4   8  12  20  39  74 122 174 228 284 342 412
#     4   8  16  31  55  91 132 184 234 294 358 426
#     4   8  12  20  39  74 122 174 228 284 342 412
#     4  12  28  52  78 112 149 196 247 310 386 470
#     4   8  16  31  55  91 132 184 234 294 358 426
#     4  10  24  44  73 104 144 188 242 304 373 450
#
# _framework density 27.658743000000001
#
# number of rings (size 3 to 8) (size 9 to 14) (size 15 to 20)
#    1.000    2.000    0.000    1.000    2.333    0.000 
#    0.000    0.000    0.000    0.000    0.000    4.667 
#    0.000   10.667    0.000    1.333    0.000    0.667 
#
# Total GULP energy -67129.373371 kJ/mol
# GULP energy per Si atom -5594.114448 kJ/mol
# Density = 2.759579 g / cm^3
# Si number density = 27.658743 Si / 1000 Ang^3
#
#
#
# Elastic Constant Matrix: (Units=GPa)
#
#
# Indices 1 2 3 4 5 6 
#
# 1 228.7838 70.9439 75.1321 7.3953 16.5373 7.3797
# 2 70.9439 108.4755 78.9947 -5.4687 -14.1856 -11.4998
# 3 75.1321 78.9947 191.8916 -33.0056 -40.8354 38.0469
# 4 7.3953 -5.4687 -33.0056 35.5236 22.6537 -13.8718
# 5 16.5373 -14.1856 -40.8354 22.6537 78.4307 -1.3049
# 6 7.3797 -11.4998 38.0469 -13.8718 -1.3049 54.8430
#
#
#
# Elastic Compliance Matrix: (Units=1/GPa)
#
#
# Indices 1 2 3 4 5 6 
#
# 1 0.006242 -0.003301 -0.001771 -0.002473 -0.002137 -0.000980
# 2 -0.003301 0.018546 -0.008409 -0.000278 -0.000079 0.010094
# 3 -0.001771 -0.008409 0.012867 0.004939 0.003974 -0.009108
# 4 -0.002473 -0.000278 0.004939 0.041673 -0.008875 0.007178
# 5 -0.002137 -0.000079 0.003974 -0.008875 0.017747 -0.004309
# 6 -0.000980 0.010094 -0.009108 0.007178 -0.004309 0.028514
#
#
# Mechanical properties :
#
#
# Convention : Reuss Voigt Hill
#
# Bulk Modulus (GPa) = 93.50358 108.81026 101.15692
# Shear Modulus (GPa) = 32.02735 54.03147 43.02941
#
# Velocity S-wave (km/s) = 3.40655 4.42464 3.94855
# Velocity P-wave (km/s) = 7.02512 8.09500 7.57896
#
# Compressibility (1/GPa) = 0.01069478
#
# Stress axis : x y z
#
# Youngs Moduli (GPa) = 160.20236 53.91854 77.71607
#
# Poissons Ratio (x) = 0.17796 0.13765
# Poissons Ratio (y) = 0.52876 0.65350
# Poissons Ratio (z) = 0.28376 0.45339
#
# Static dielectric constant tensor:
#      x y z
#    x 2.107900 -0.005430 0.014020 
#    y -0.005430 2.103750 -0.073510 
#    z 0.014020 -0.073510 2.138520 
# 
# From -- ./inp_files/113616.got.cif
#   From: 2010.05.17/outbox.cif.g08.bks.cpg/sg2_57_cif.got.tgz:113616.got - 2010.06.03 11:33:40.
