data_PCOD9048940
_publ_section_title
;
Structure prediction by ZEFSAII (Michael W. Deem and Ramdas Pophale) SiO2 
 PCOD9048940
Probable space group: P -1
;
_chemical_formula_sum "Si O2"
_cell_formula_units_Z 11
_cell_length_a 16.299329
_cell_length_b 5.075911
_cell_length_c 11.091363
_cell_angle_alpha 126.309865
_cell_angle_beta 146.622290
_cell_angle_gamma 55.299101
_cell_volume 400.980317
_symmetry_space_group_name_H-M "P -1"
_symmetry_group_IT_number 2
_symmetry_cell_setting 'triclinic'
loop_
_space_group_symop_operation_xyz
x,y,z
-x,-y,-z
loop_
_atom_site_type_symbol
_atom_site_label
_atom_site_fract_x
_atom_site_fract_y
_atom_site_fract_z
Si Si1 0.686420 0.373533 0.702230
Si Si2 0.578128 0.762862 0.883399
Si Si3 0.987017 0.991284 0.335862
Si Si4 0.379504 0.305850 0.628717
Si Si5 0.767912 0.559011 0.277227
Si Si6 0.000000 0.500000 0.000000
O O1 0.500000 0.500000 0.500000
O O2 0.707638 0.545251 0.902480
O O3 0.697162 0.975361 0.606579
O O4 0.822383 0.442499 0.801900
O O5 0.446604 0.543006 0.685265
O O6 0.510580 0.088870 0.814017
O O7 0.644712 0.781020 0.102929
O O8 0.010319 0.673464 0.193521
O O9 0.822295 0.217326 0.181907
O O10 0.100680 0.225250 0.490501
O O11 0.000000 0.000000 0.500000
O O12 0.279964 0.505134 0.663746
#
# Coordination Sequence:
#
# PCOD9048940 Si02
#       6
#     2   2   2   2   2   1
#     4  10  24  45  76 114 156 207 271 333 404 488
#     4  11  25  44  78 113 159 207 268 338 409 483
#     4  11  27  47  76 111 159 215 271 339 405 496
#     4  11  24  46  75 116 154 211 264 339 408 484
#     4  11  25  46  69 114 152 208 277 325 410 493
#     4  12  24  52  82 112 168 212 272 342 416 472
#
# _framework density 27.432769
#
# number of rings (size 3 to 8) (size 9 to 14) (size 15 to 20)
#    0.000    1.091    1.818    2.727   10.182    0.000 
#    3.273    2.727    0.000    0.000    0.000    0.000 
#    0.000    0.000    0.000    0.000    0.000    0.000 
#
# Total GULP energy -61279.155784 kJ/mol
# GULP energy per Si atom -5570.832344 kJ/mol
# Density = 2.737033 g / cm^3
# Si number density = 27.432769 Si / 1000 Ang^3
#
#
#
# Elastic Constant Matrix: (Units=GPa)
#
#
# Indices 1 2 3 4 5 6 
#
# 1 257.8113 48.4764 63.3473 6.3047 15.7486 -13.8863
# 2 48.4764 81.1358 44.8317 -5.7924 0.2355 -4.2182
# 3 63.3473 44.8317 113.8337 18.2174 16.0127 -0.2628
# 4 6.3047 -5.7924 18.2174 28.9450 1.8369 -3.7953
# 5 15.7486 0.2355 16.0127 1.8369 68.4148 16.2516
# 6 -13.8863 -4.2182 -0.2628 -3.7953 16.2516 42.9179
#
#
#
# Elastic Compliance Matrix: (Units=1/GPa)
#
#
# Indices 1 2 3 4 5 6 
#
# 1 0.004826 -0.001765 -0.001841 0.000060 -0.001103 0.001800
# 2 -0.001765 0.018539 -0.008022 0.009222 0.001641 0.001396
# 3 -0.001841 -0.008022 0.015021 -0.010672 -0.002469 -0.001301
# 4 0.000060 0.009222 -0.010672 0.043698 0.000172 0.004660
# 5 -0.001103 0.001641 -0.002469 0.000172 0.017015 -0.006639
# 6 0.001800 0.001396 -0.001301 0.004660 -0.006639 0.026938
#
#
# Mechanical properties :
#
#
# Convention : Reuss Voigt Hill
#
# Bulk Modulus (GPa) = 66.09900 85.12129 75.61015
# Shear Modulus (GPa) = 32.39708 47.79724 40.09716
#
# Velocity S-wave (km/s) = 3.44024 4.17866 3.82730
# Velocity P-wave (km/s) = 6.31883 7.37415 6.86679
#
# Compressibility (1/GPa) = 0.01512882
#
# Stress axis : x y z
#
# Youngs Moduli (GPa) = 207.21829 53.94128 66.57482
#
# Poissons Ratio (x) = 0.09522 0.12254
# Poissons Ratio (y) = 0.36579 0.53409
# Poissons Ratio (z) = 0.38141 0.43274
#
# Static dielectric constant tensor:
#      x y z
#    x 2.072270 -0.060000 0.009870 
#    y -0.060000 2.219440 -0.080310 
#    z 0.009870 -0.080310 2.248740 
# 
# From -- ./inp_files/440168.got.cif
#   From: 2010.05.17/outbox.cif.g08.bks.cpg/sg2_221_cif.got.tgz:440168.got - 2010.06.03 11:33:40.
