data_PCOD9048228
_publ_section_title
;
Structure prediction by ZEFSAII (Michael W. Deem and Ramdas Pophale) SiO2 
 PCOD9048228
Probable space group: P -1
;
_chemical_formula_sum "Si O2"
_cell_formula_units_Z 15
_cell_length_a 13.759352
_cell_length_b 9.345530
_cell_length_c 13.667615
_cell_angle_alpha 38.536832
_cell_angle_beta 34.152754
_cell_angle_gamma 50.658876
_cell_volume 614.257566
_symmetry_space_group_name_H-M "P -1"
_symmetry_group_IT_number 2
_symmetry_cell_setting 'triclinic'
loop_
_space_group_symop_operation_xyz
x,y,z
-x,-y,-z
loop_
_atom_site_type_symbol
_atom_site_label
_atom_site_fract_x
_atom_site_fract_y
_atom_site_fract_z
Si Si1 0.133669 0.597994 0.994336
Si Si2 0.054909 0.746828 0.365184
Si Si3 0.226730 0.182520 0.276046
Si Si4 0.594658 0.539199 0.297461
Si Si5 0.613273 0.095503 0.264826
Si Si6 0.500000 0.500000 0.000000
Si Si7 0.194204 0.156843 0.916554
Si Si8 0.650853 0.194282 0.756058
O O1 0.261457 0.620563 0.781872
O O2 0.208333 0.789620 0.904002
O O3 0.937486 0.648496 0.105800
O O4 0.160373 0.353615 0.154893
O O5 0.229970 0.739319 0.287036
O O6 0.000000 0.500000 0.500000
O O7 0.909135 0.825202 0.518388
O O8 0.087021 0.923274 0.155999
O O9 0.397779 0.310324 0.110994
O O10 0.244662 0.930308 0.350542
O O11 0.500000 0.500000 0.500000
O O12 0.449425 0.587083 0.313802
O O13 0.709202 0.770104 0.103553
O O14 0.525809 0.293230 0.169192
O O15 0.500000 0.000000 0.500000
O O16 0.667148 0.896767 0.252557
O O17 0.500000 0.000000 0.000000
#
# Coordination Sequence:
#
# PCOD9048228 Si02
#       8
#     2   2   2   2   2   1   2   2
#     4  11  25  46  67 107 146 188 244 311 375 452
#     4  12  28  46  77 110 146 199 254 313 388 447
#     4  11  25  46  76 106 149 203 247 315 385 452
#     4  12  27  45  76 107 143 199 249 305 383 451
#     4  11  25  46  72 103 146 199 243 307 380 446
#     4  10  24  44  78 108 148 190 270 308 372 464
#     4  12  26  49  70 109 153 186 248 314 377 458
#     4  12  25  49  75 104 150 194 257 314 370 451
#
# _framework density 24.419726000000001
#
# number of rings (size 3 to 8) (size 9 to 14) (size 15 to 20)
#    0.000    0.533    2.667    4.400    7.467    0.000 
#    2.400    0.000    0.000    0.000    0.000    0.000 
#    0.000    0.000    0.000    0.000    0.000    0.000 
#
# Total GULP energy -83760.864358 kJ/mol
# GULP energy per Si atom -5584.057624 kJ/mol
# Density = 2.436415 g / cm^3
# Si number density = 24.419726 Si / 1000 Ang^3
#
#
#
# Elastic Constant Matrix: (Units=GPa)
#
#
# Indices 1 2 3 4 5 6 
#
# 1 142.5205 49.5977 30.2481 -1.4446 2.4847 -0.5846
# 2 49.5977 88.4981 36.3891 14.5626 2.4934 2.8120
# 3 30.2481 36.3891 90.6776 13.7553 16.4222 -1.4136
# 4 -1.4446 14.5626 13.7553 48.0357 12.0775 0.6692
# 5 2.4847 2.4934 16.4222 12.0775 34.5301 -9.6559
# 6 -0.5846 2.8120 -1.4136 0.6692 -9.6559 35.1688
#
#
#
# Elastic Compliance Matrix: (Units=1/GPa)
#
#
# Indices 1 2 3 4 5 6 
#
# 1 0.009025 -0.004881 -0.001319 0.002211 -0.000345 0.000351
# 2 -0.004881 0.016753 -0.004939 -0.004521 0.002863 -0.000747
# 3 -0.001319 -0.004939 0.014770 -0.001156 -0.006382 -0.000763
# 4 0.002211 -0.004521 -0.001156 0.024796 -0.008654 -0.002496
# 5 -0.000345 0.002863 -0.006382 -0.008654 0.037639 0.010008
# 6 0.000351 -0.000747 -0.000763 -0.002496 0.010008 0.031264
#
#
# Mechanical properties :
#
#
# Convention : Reuss Voigt Hill
#
# Bulk Modulus (GPa) = 54.73772 61.57400 58.15586
# Shear Modulus (GPa) = 30.74752 37.24434 33.99593
#
# Velocity S-wave (km/s) = 3.55227 3.90958 3.73520
# Velocity P-wave (km/s) = 6.26808 6.75643 6.51683
#
# Compressibility (1/GPa) = 0.01826894
#
# Stress axis : x y z
#
# Youngs Moduli (GPa) = 110.80510 59.69146 67.70659
#
# Poissons Ratio (x) = 0.29133 0.08933
# Poissons Ratio (y) = 0.54079 0.33442
# Poissons Ratio (z) = 0.14619 0.29483
#
# Static dielectric constant tensor:
#      x y z
#    x 1.887960 0.025610 -0.047930 
#    y 0.025610 1.863020 0.041220 
#    z -0.047930 0.041220 1.982690 
# 
# From -- ./inp_files/418807.got.cif
#   From: 2010.05.17/outbox.cif.g08.bks.cpg/sg2_210_cif.got.tgz:418807.got - 2010.06.03 11:33:40.
