data_PCOD9048385
_publ_section_title
;
Structure prediction by ZEFSAII (Michael W. Deem and Ramdas Pophale) SiO2 
 PCOD9048385
Probable space group: P -1
;
_chemical_formula_sum "Si O2"
_cell_formula_units_Z 14
_cell_length_a 8.114398
_cell_length_b 12.897938
_cell_length_c 9.035734
_cell_angle_alpha 57.852892
_cell_angle_beta 85.551527
_cell_angle_gamma 121.745743
_cell_volume 591.021876
_symmetry_space_group_name_H-M "P -1"
_symmetry_group_IT_number 2
_symmetry_cell_setting 'triclinic'
loop_
_space_group_symop_operation_xyz
x,y,z
-x,-y,-z
loop_
_atom_site_type_symbol
_atom_site_label
_atom_site_fract_x
_atom_site_fract_y
_atom_site_fract_z
Si Si1 0.511615 0.025279 0.306460
Si Si2 0.243070 0.284127 0.540855
Si Si3 0.258632 0.316573 0.165755
Si Si4 0.504956 0.139934 0.823324
Si Si5 0.031415 0.625554 0.016550
Si Si6 0.246569 0.525708 0.548831
Si Si7 0.199505 0.052504 0.167392
O O1 0.283084 0.970072 0.305409
O O2 0.500000 0.000000 0.500000
O O3 0.560633 0.925113 0.291092
O O4 0.707089 0.217126 0.104124
O O5 0.217179 0.281058 0.368823
O O6 0.188648 0.384332 0.552479
O O7 0.498163 0.376580 0.489926
O O8 0.057092 0.093058 0.744547
O O9 0.249935 0.186076 0.175547
O O10 0.500000 0.500000 0.000000
O O11 0.078207 0.312217 0.102383
O O12 0.728685 0.331864 0.644977
O O13 0.345015 0.135824 0.945620
O O14 0.500000 0.000000 0.000000
O O15 0.906017 0.543972 0.242236
O O16 0.000000 0.500000 0.000000
#
# Coordination Sequence:
#
# PCOD9048385 Si02
#       7
#     2   2   2   2   2   2   2
#     4  11  24  44  70 104 143 188 242 292 359 427
#     4  11  25  44  72 108 142 186 238 300 359 418
#     4  12  24  44  70 105 145 182 239 292 365 423
#     4  10  24  45  68 101 143 189 234 295 361 423
#     4  12  26  45  70 105 141 192 236 296 360 428
#     4  11  25  46  72 104 143 187 245 295 355 433
#     4  11  25  45  70 104 144 189 238 297 359 429
#
# _framework density 23.687785000000002
#
# number of rings (size 3 to 8) (size 9 to 14) (size 15 to 20)
#    0.000    0.857    1.429    4.714    6.000    2.857 
#    0.000    6.429    0.000    0.000    0.000    0.000 
#    0.000    0.000    0.000    0.000    0.000    0.000 
#
# Total GULP energy -78406.078651 kJ/mol
# GULP energy per Si atom -5600.434189 kJ/mol
# Density = 2.363387 g / cm^3
# Si number density = 23.687785 Si / 1000 Ang^3
#
#
#
# Elastic Constant Matrix: (Units=GPa)
#
#
# Indices 1 2 3 4 5 6 
#
# 1 84.6529 28.8211 26.0643 16.0880 -1.7587 2.3589
# 2 28.8211 213.8673 78.1386 21.9736 -21.5356 -30.3575
# 3 26.0643 78.1386 164.7036 30.9651 -16.8473 -13.3846
# 4 16.0880 21.9736 30.9651 58.1044 3.6860 -6.8379
# 5 -1.7587 -21.5356 -16.8473 3.6860 37.5997 1.7738
# 6 2.3589 -30.3575 -13.3846 -6.8379 1.7738 46.8621
#
#
#
# Elastic Compliance Matrix: (Units=1/GPa)
#
#
# Indices 1 2 3 4 5 6 
#
# 1 0.013234 -0.001457 -0.001103 -0.002778 -0.000328 -0.002318
# 2 -0.001457 0.006485 -0.002181 -0.000642 0.002568 0.003460
# 3 -0.001103 -0.002181 0.008224 -0.003377 0.002696 0.000397
# 4 -0.002778 -0.000642 -0.003377 0.020507 -0.004111 0.001907
# 5 -0.000328 0.002568 0.002696 -0.004111 0.029628 0.000729
# 6 -0.002318 0.003460 0.000397 0.001907 0.000729 0.024061
#
#
# Mechanical properties :
#
#
# Convention : Reuss Voigt Hill
#
# Bulk Modulus (GPa) = 54.17013 81.03019 67.60016
# Shear Modulus (GPa) = 42.45349 50.52657 46.49003
#
# Velocity S-wave (km/s) = 4.23804 4.62348 4.43495
# Velocity P-wave (km/s) = 6.84588 7.92363 7.40439
#
# Compressibility (1/GPa) = 0.01846036
#
# Stress axis : x y z
#
# Youngs Moduli (GPa) = 75.56156 154.20322 121.59942
#
# Poissons Ratio (x) = 0.22472 0.13409
# Poissons Ratio (y) = 0.11011 0.26524
# Poissons Ratio (z) = 0.08332 0.33636
#
# Static dielectric constant tensor:
#      x y z
#    x 2.163830 -0.008010 -0.015580 
#    y -0.008010 1.903690 -0.005870 
#    z -0.015580 -0.005870 1.931060 
# 
# From -- ./inp_files/177510.got.cif
#   From: 2010.05.17/outbox.cif.g08.bks.cpg/sg2_89_cif.got.tgz:177510.got - 2010.06.03 11:33:40.
