data_PCOD9048218
_publ_section_title
;
Structure prediction by ZEFSAII (Michael W. Deem and Ramdas Pophale) SiO2 
 PCOD9048218
Probable space group: P -1
;
_chemical_formula_sum "Si O2"
_cell_formula_units_Z 14
_cell_length_a 9.923684
_cell_length_b 5.148100
_cell_length_c 11.729393
_cell_angle_alpha 76.186938
_cell_angle_beta 86.629852
_cell_angle_gamma 115.949755
_cell_volume 514.006841
_symmetry_space_group_name_H-M "P -1"
_symmetry_group_IT_number 2
_symmetry_cell_setting 'triclinic'
loop_
_space_group_symop_operation_xyz
x,y,z
-x,-y,-z
loop_
_atom_site_type_symbol
_atom_site_label
_atom_site_fract_x
_atom_site_fract_y
_atom_site_fract_z
Si Si1 0.258404 0.734644 0.570985
Si Si2 0.938697 0.231317 0.938985
Si Si3 0.390600 0.068652 0.765292
Si Si4 0.344987 0.301249 0.343973
Si Si5 0.400245 0.167210 0.099383
Si Si6 0.131283 0.186348 0.747461
Si Si7 0.041023 0.261738 0.380068
O O1 0.237767 0.395998 0.615806
O O2 0.077695 0.628085 0.588273
O O3 0.332581 0.857949 0.678708
O O4 0.328053 0.015051 0.450492
O O5 0.045108 0.331134 0.809532
O O6 0.759130 0.070298 0.928976
O O7 0.000000 0.500000 0.000000
O O8 0.000000 0.000000 0.000000
O O9 0.502098 0.397322 0.678734
O O10 0.246129 0.098162 0.818942
O O11 0.480969 0.963747 0.860948
O O12 0.343972 0.216540 0.220830
O O13 0.221236 0.424128 0.357000
O O14 0.500000 0.500000 0.000000
O O15 0.004438 0.888230 0.726099
O O16 0.000000 0.000000 0.500000
#
# Coordination Sequence:
#
# PCOD9048218 Si02
#       7
#     2   2   2   2   2   2   2
#     4  10  24  44  77 118 164 209 266 339 424 520
#     4  12  33  57  88 119 168 231 301 357 430 508
#     4  11  27  47  78 115 168 206 274 340 438 502
#     4  11  24  46  76 119 162 215 272 342 425 506
#     4  12  31  53  81 120 166 223 290 358 424 507
#     4  11  25  49  77 117 159 216 272 346 424 503
#     4   9  21  41  72 114 158 205 265 334 410 501
#
# _framework density 27.236992000000001
#
# number of rings (size 3 to 8) (size 9 to 14) (size 15 to 20)
#    0.000    1.143    1.429    1.286   12.000    8.571 
#    0.000    0.714    0.000    0.000    0.000    0.000 
#    0.000    0.000    0.000    0.000    0.000    0.000 
#
# Total GULP energy -78233.015873 kJ/mol
# GULP energy per Si atom -5588.072562 kJ/mol
# Density = 2.717500 g / cm^3
# Si number density = 27.236992 Si / 1000 Ang^3
#
#
#
# Elastic Constant Matrix: (Units=GPa)
#
#
# Indices 1 2 3 4 5 6 
#
# 1 229.7407 68.3252 49.8215 -2.9921 12.3626 33.4337
# 2 68.3252 156.0222 58.2494 9.4535 15.1039 25.3076
# 3 49.8215 58.2494 138.4700 -20.7195 28.2633 15.0266
# 4 -2.9921 9.4535 -20.7195 54.6419 -10.0111 13.2683
# 5 12.3626 15.1039 28.2633 -10.0111 46.7072 -2.1482
# 6 33.4337 25.3076 15.0266 13.2683 -2.1482 49.4413
#
#
#
# Elastic Compliance Matrix: (Units=1/GPa)
#
#
# Indices 1 2 3 4 5 6 
#
# 1 0.005461 -0.001670 -0.000727 0.000940 -0.000396 -0.002886
# 2 -0.001670 0.008853 -0.003061 -0.002558 -0.001201 -0.001837
# 3 -0.000727 -0.003061 0.010589 0.004304 -0.004418 -0.002507
# 4 0.000940 -0.002558 0.004304 0.022476 0.002489 -0.006558
# 5 -0.000396 -0.001201 -0.004418 0.002489 0.025232 0.002654
# 6 -0.002886 -0.001837 -0.002507 -0.006558 0.002654 0.025755
#
#
# Mechanical properties :
#
#
# Convention : Reuss Voigt Hill
#
# Bulk Modulus (GPa) = 71.50562 97.44723 84.47643
# Shear Modulus (GPa) = 43.88044 53.34720 48.61382
#
# Velocity S-wave (km/s) = 4.01816 4.43044 4.22933
# Velocity P-wave (km/s) = 6.91647 7.87572 7.41163
#
# Compressibility (1/GPa) = 0.01398491
#
# Stress axis : x y z
#
# Youngs Moduli (GPa) = 183.12238 112.95581 94.43688
#
# Poissons Ratio (x) = 0.18867 0.06869
# Poissons Ratio (y) = 0.30587 0.28911
# Poissons Ratio (z) = 0.13319 0.34580
#
# Static dielectric constant tensor:
#      x y z
#    x -9.593170 3.131060 -7.973790 
#    y 3.131060 1.263240 2.197320 
#    z -7.973790 2.197320 -2.971820 
# 
# From -- ./inp_files/410522.got.cif
#   From: 2010.05.17/outbox.cif.g08.bks.cpg/sg2_206_cif.got.tgz:410522.got - 2010.06.03 11:33:40.
