data_PCOD9048694
_publ_section_title
;
Structure prediction by ZEFSAII (Michael W. Deem and Ramdas Pophale) SiO2 
 PCOD9048694
Probable space group: P -1
;
_chemical_formula_sum "Si O2"
_cell_formula_units_Z 14
_cell_length_a 25.169502
_cell_length_b 5.150325
_cell_length_c 4.975226
_cell_angle_alpha 93.162290
_cell_angle_beta 106.164456
_cell_angle_gamma 54.123516
_cell_volume 497.071789
_symmetry_space_group_name_H-M "P -1"
_symmetry_group_IT_number 2
_symmetry_cell_setting 'triclinic'
loop_
_space_group_symop_operation_xyz
x,y,z
-x,-y,-z
loop_
_atom_site_type_symbol
_atom_site_label
_atom_site_fract_x
_atom_site_fract_y
_atom_site_fract_z
Si Si1 0.071501 0.038029 0.841692
Si Si2 0.575419 0.697509 0.676286
Si Si3 0.575883 0.384737 0.163507
Si Si4 0.822130 0.882741 0.184756
Si Si5 0.277396 0.148852 0.683931
Si Si6 0.279127 0.598559 0.323341
Si Si7 0.085432 0.628540 0.321684
O O1 0.110452 0.203257 0.887015
O O2 0.990076 0.287523 0.790891
O O3 0.081572 0.855728 0.566873
O O4 0.099730 0.760723 0.088805
O O5 0.581175 0.418125 0.490281
O O6 0.641778 0.666403 0.664872
O O7 0.500000 0.000000 0.500000
O O8 0.580758 0.627495 0.995456
O O9 0.642293 0.036457 0.148099
O O10 0.500000 0.500000 0.000000
O O11 0.771902 0.771395 0.128962
O O12 0.859075 0.734999 0.517887
O O13 0.766478 0.233672 0.996804
O O14 0.253805 0.445205 0.476443
O O15 0.277678 0.873637 0.504378
#
# Coordination Sequence:
#
# PCOD9048694 Si02
#       7
#     2   2   2   2   2   2   2
#     4  10  24  45  71 105 144 189 243 301 365 439
#     4  11  23  45  70 107 142 195 245 311 369 441
#     4  11  23  45  70 107 142 195 245 311 369 441
#     4  12  25  42  72 102 148 192 246 298 380 426
#     4  11  27  47  70 107 150 193 249 308 371 444
#     4  11  27  47  70 107 150 193 249 308 371 444
#     4  10  24  45  71 105 144 189 243 301 365 439
#
# _framework density 28.164947000000002
#
# number of rings (size 3 to 8) (size 9 to 14) (size 15 to 20)
#    0.000    1.143    1.429    3.000    8.000    2.286 
#    0.000    4.286    0.000    0.000    0.000    0.000 
#    0.000    0.000    0.000    0.000    0.000    0.000 
#
# Total GULP energy -78367.795912 kJ/mol
# GULP energy per Si atom -5597.699708 kJ/mol
# Density = 2.810084 g / cm^3
# Si number density = 28.164947 Si / 1000 Ang^3
#
#
#
# Elastic Constant Matrix: (Units=GPa)
#
#
# Indices 1 2 3 4 5 6 
#
# 1 213.7783 65.2471 53.2136 -31.7967 -17.0695 -24.2956
# 2 65.2471 94.4502 54.7372 -5.3932 10.0450 12.5949
# 3 53.2136 54.7372 159.7280 -31.6162 -14.5806 11.6828
# 4 -31.7967 -5.3932 -31.6162 68.9320 -4.8184 7.8543
# 5 -17.0695 10.0450 -14.5806 -4.8184 52.6484 -26.1145
# 6 -24.2956 12.5949 11.6828 7.8543 -26.1145 56.4741
#
#
#
# Elastic Compliance Matrix: (Units=1/GPa)
#
#
# Indices 1 2 3 4 5 6 
#
# 1 0.010373 -0.010335 0.001110 0.004005 0.011647 0.011367
# 2 -0.010335 0.025691 -0.006925 -0.005349 -0.018982 -0.016777
# 3 0.001110 -0.006925 0.009530 0.004506 0.005771 0.002093
# 4 0.004005 -0.005349 0.004506 0.018175 0.006437 0.002432
# 5 0.011647 -0.018982 0.005771 0.006437 0.041690 0.026433
# 6 0.011367 -0.016777 0.002093 0.002432 0.026433 0.037791
#
#
# Mechanical properties :
#
#
# Convention : Reuss Voigt Hill
#
# Bulk Modulus (GPa) = 75.22323 90.48360 82.85341
# Shear Modulus (GPa) = 27.78060 55.26147 41.52104
#
# Velocity S-wave (km/s) = 3.14403 4.43433 3.84371
# Velocity P-wave (km/s) = 6.32029 7.64289 7.01284
#
# Compressibility (1/GPa) = 0.01329377
#
# Stress axis : x y z
#
# Youngs Moduli (GPa) = 96.40268 38.92388 104.93619
#
# Poissons Ratio (x) = 0.40229 -0.11652
# Poissons Ratio (y) = 0.99634 0.72671
# Poissons Ratio (z) = -0.10704 0.26956
#
# Static dielectric constant tensor:
#      x y z
#    x 2.137520 -0.033890 0.015400 
#    y -0.033890 2.305140 0.076850 
#    z 0.015400 0.076850 2.106860 
# 
# From -- ./inp_files/13484.got.cif
#   From: 2010.05.17/outbox.cif.g08.bks.cpg/sg2_7_cif.got.tgz:13484.got - 2010.06.03 11:33:40.
