data_PCOD9048593
_publ_section_title
;
Structure prediction by ZEFSAII (Michael W. Deem and Ramdas Pophale) SiO2 
 PCOD9048593
Probable space group: P -1
;
_chemical_formula_sum "Si O2"
_cell_formula_units_Z 14
_cell_length_a 9.114008
_cell_length_b 18.834542
_cell_length_c 12.013797
_cell_angle_alpha 28.420501
_cell_angle_beta 50.295800
_cell_angle_gamma 39.239900
_cell_volume 614.705243
_symmetry_space_group_name_H-M "P -1"
_symmetry_group_IT_number 2
_symmetry_cell_setting 'triclinic'
loop_
_space_group_symop_operation_xyz
x,y,z
-x,-y,-z
loop_
_atom_site_type_symbol
_atom_site_label
_atom_site_fract_x
_atom_site_fract_y
_atom_site_fract_z
Si Si1 0.147989 0.565994 0.889681
Si Si2 0.807769 0.850746 0.278923
Si Si3 0.342356 0.039644 0.127725
Si Si4 0.870034 0.063653 0.117876
Si Si5 0.997043 0.046943 0.564197
Si Si6 0.427923 0.419892 0.743008
Si Si7 0.002974 0.547225 0.210015
O O1 0.346727 0.514586 0.773567
O O2 0.989465 0.783441 0.673607
O O3 0.000000 0.500000 0.000000
O O4 0.194373 0.504469 0.081489
O O5 0.899972 0.639022 0.511543
O O6 0.527253 0.973273 0.230936
O O7 0.898376 0.880669 0.311383
O O8 0.923968 0.916252 0.046166
O O9 0.117028 0.253187 0.950149
O O10 0.250103 0.913385 0.335991
O O11 0.500000 0.000000 0.000000
O O12 0.833236 0.085845 0.237123
O O13 0.650101 0.219619 0.940229
O O14 0.000000 0.000000 0.500000
O O15 0.500000 0.500000 0.500000
O O16 0.217907 0.420463 0.793216
#
# Coordination Sequence:
#
# PCOD9048593 Si02
#       7
#     2   2   2   2   2   2   2
#     4  10  24  45  70 102 143 192 237 296 360 430
#     4  11  24  43  75 106 143 193 249 300 366 438
#     4  12  26  45  70 105 149 194 238 300 372 432
#     4  11  23  42  72 110 140 189 254 300 361 437
#     4  12  26  48  70 102 153 190 239 307 366 432
#     4  11  22  40  74 107 139 184 246 308 351 423
#     4  11  23  46  67 103 149 187 241 300 362 434
#
# _framework density 22.775141999999999
#
# number of rings (size 3 to 8) (size 9 to 14) (size 15 to 20)
#    0.000    0.857    5.714    1.714    4.000    1.714 
#    2.571    4.286    0.000    0.000    0.000    0.000 
#    0.000    0.000    0.000    0.000    0.000    0.000 
#
# Total GULP energy -78054.608574 kJ/mol
# GULP energy per Si atom -5575.329184 kJ/mol
# Density = 2.272330 g / cm^3
# Si number density = 22.775142 Si / 1000 Ang^3
#
#
#
# Elastic Constant Matrix: (Units=GPa)
#
#
# Indices 1 2 3 4 5 6 
#
# 1 64.2893 1.0490 36.6100 -6.1042 0.9055 6.6999
# 2 1.0490 88.3130 34.1131 7.0796 0.0165 22.6448
# 3 36.6100 34.1131 120.8520 -4.6509 -6.9783 13.7220
# 4 -6.1042 7.0796 -4.6509 47.4700 5.6686 4.3854
# 5 0.9055 0.0165 -6.9783 5.6686 28.2204 0.6231
# 6 6.6999 22.6448 13.7220 4.3854 0.6231 34.8201
#
#
#
# Elastic Compliance Matrix: (Units=1/GPa)
#
#
# Indices 1 2 3 4 5 6 
#
# 1 0.019814 0.002993 -0.006530 0.002086 -0.002596 -0.003401
# 2 0.002993 0.015289 -0.004340 -0.001441 -0.000698 -0.008614
# 3 -0.006530 -0.004340 0.011755 0.000665 0.003001 -0.000691
# 4 0.002086 -0.001441 0.000665 0.022360 -0.004339 -0.002465
# 5 -0.002596 -0.000698 0.003001 -0.004339 0.037140 -0.000347
# 6 -0.003401 -0.008614 -0.000691 -0.002465 -0.000347 0.035565
#
#
# Mechanical properties :
#
#
# Convention : Reuss Voigt Hill
#
# Bulk Modulus (GPa) = 32.15183 46.33314 39.24249
# Shear Modulus (GPa) = 29.75392 35.54761 32.65076
#
# Velocity S-wave (km/s) = 3.61837 3.95499 3.79042
# Velocity P-wave (km/s) = 5.62179 6.42214 6.03524
#
# Compressibility (1/GPa) = 0.03110243
#
# Stress axis : x y z
#
# Youngs Moduli (GPa) = 50.47002 65.40783 85.06899
#
# Poissons Ratio (x) = -0.19574 0.55553
# Poissons Ratio (y) = -0.15104 0.36918
# Poissons Ratio (z) = 0.32959 0.28386
#
# Static dielectric constant tensor:
#      x y z
#    x 1.910000 0.095510 0.036600 
#    y 0.095510 1.988240 0.050820 
#    z 0.036600 0.050820 1.924230 
# 
# From -- ./inp_files/402603.got.cif
#   From: 2010.05.17/outbox.cif.g08.bks.cpg/sg2_202_cif.got.tgz:402603.got - 2010.06.03 11:33:40.
