data_PCOD9048556
_publ_section_title
;
Structure prediction by ZEFSAII (Michael W. Deem and Ramdas Pophale) SiO2 
 PCOD9048556
Probable space group: P -1
;
_chemical_formula_sum "Si O2"
_cell_formula_units_Z 10
_cell_length_a 23.977952
_cell_length_b 9.440715
_cell_length_c 7.627896
_cell_angle_alpha 45.897452
_cell_angle_beta 152.205716
_cell_angle_gamma 151.681967
_cell_volume 354.161860
_symmetry_space_group_name_H-M "P -1"
_symmetry_group_IT_number 2
_symmetry_cell_setting 'triclinic'
loop_
_space_group_symop_operation_xyz
x,y,z
-x,-y,-z
loop_
_atom_site_type_symbol
_atom_site_label
_atom_site_fract_x
_atom_site_fract_y
_atom_site_fract_z
Si Si1 0.341527 0.256767 0.924281
Si Si2 0.111519 0.202886 0.914749
Si Si3 0.164508 0.830944 0.281601
Si Si4 0.220996 0.719778 0.904365
Si Si5 0.554651 0.299838 0.870625
O O1 0.338889 0.010632 0.114939
O O2 0.500000 0.500000 0.000000
O O3 0.410811 0.515601 0.027378
O O4 0.108565 0.005524 0.497545
O O5 0.224200 0.486721 0.126930
O O6 0.251784 0.426286 0.944350
O O7 0.098793 0.950551 0.084289
O O8 0.247068 0.817919 0.689225
O O9 0.337309 0.098114 0.391783
O O10 0.000000 0.500000 0.000000
O O11 0.000000 0.500000 0.500000
O O12 0.500000 0.000000 0.000000
#
# Coordination Sequence:
#
# PCOD9048556 Si02
#       5
#     2   2   2   2   2
#     4  11  22  43  74  98 140 187 230 287 354 416
#     4  11  25  44  74 100 141 189 233 288 349 416
#     4  12  26  43  71 108 141 181 244 288 342 426
#     4  10  24  45  69  99 143 184 231 286 358 402
#     4  12  23  45  72 105 138 191 235 285 352 421
#
# _framework density 28.235678
#
# number of rings (size 3 to 8) (size 9 to 14) (size 15 to 20)
#    0.000    0.800    4.000    2.400    5.600    3.200 
#    0.000    1.000    0.000    0.000    0.000    0.000 
#    0.000    0.000    0.000    0.000    0.000    0.000 
#
# Total GULP energy -55719.955245 kJ/mol
# GULP energy per Si atom -5571.995524 kJ/mol
# Density = 2.817141 g / cm^3
# Si number density = 28.235678 Si / 1000 Ang^3
#
#
#
# Elastic Constant Matrix: (Units=GPa)
#
#
# Indices 1 2 3 4 5 6 
#
# 1 239.6189 114.4104 44.2365 20.7876 34.1007 -33.2240
# 2 114.4104 231.4146 60.8506 18.6218 8.3777 -69.5291
# 3 44.2365 60.8506 128.3742 32.0704 41.3749 -5.2021
# 4 20.7876 18.6218 32.0704 63.0861 6.9314 22.7507
# 5 34.1007 8.3777 41.3749 6.9314 53.9020 9.4808
# 6 -33.2240 -69.5291 -5.2021 22.7507 9.4808 84.8111
#
#
#
# Elastic Compliance Matrix: (Units=1/GPa)
#
#
# Indices 1 2 3 4 5 6 
#
# 1 0.006185 -0.002643 0.000977 -0.001742 -0.004250 0.001259
# 2 -0.002643 0.008328 -0.002675 -0.002629 0.001688 0.006144
# 3 0.000977 -0.002675 0.013542 -0.005932 -0.010142 0.001745
# 4 -0.001742 -0.002629 -0.005932 0.023288 0.004826 -0.009988
# 5 -0.004250 0.001688 -0.010142 0.004826 0.029101 -0.005450
# 6 0.001259 0.006144 0.001745 -0.009988 -0.005450 0.020717
#
#
# Mechanical properties :
#
#
# Convention : Reuss Voigt Hill
#
# Bulk Modulus (GPa) = 51.61688 115.37806 83.49747
# Shear Modulus (GPa) = 42.99213 65.68717 54.33965
#
# Velocity S-wave (km/s) = 3.90631 4.82850 4.39168
# Velocity P-wave (km/s) = 6.21820 8.48747 7.43986
#
# Compressibility (1/GPa) = 0.01937351
#
# Stress axis : x y z
#
# Youngs Moduli (GPa) = 161.67947 120.08180 73.84266
#
# Poissons Ratio (x) = 0.31733 -0.07215
# Poissons Ratio (y) = 0.42726 0.19755
# Poissons Ratio (z) = -0.15798 0.32125
#
# Static dielectric constant tensor:
#      x y z
#    x 2.724790 0.368550 -0.264890 
#    y 0.368550 2.449290 -0.175550 
#    z -0.264890 -0.175550 2.490160 
# 
# From -- ./inp_files/194778.got.cif
#   From: 2010.05.17/outbox.cif.g08.bks.cpg/sg2_98_cif.got.tgz:194778.got - 2010.06.03 11:33:40.
