data_PCOD9048691
_publ_section_title
;
Structure prediction by ZEFSAII (Michael W. Deem and Ramdas Pophale) SiO2 
 PCOD9048691
Probable space group: P -1
;
_chemical_formula_sum "Si O2"
_cell_formula_units_Z 16
_cell_length_a 15.600592
_cell_length_b 8.154034
_cell_length_c 13.924588
_cell_angle_alpha 126.649088
_cell_angle_beta 37.992123
_cell_angle_gamma 100.323567
_cell_volume 706.514030
_symmetry_space_group_name_H-M "P -1"
_symmetry_group_IT_number 2
_symmetry_cell_setting 'triclinic'
loop_
_space_group_symop_operation_xyz
x,y,z
-x,-y,-z
loop_
_atom_site_type_symbol
_atom_site_label
_atom_site_fract_x
_atom_site_fract_y
_atom_site_fract_z
Si Si1 0.839836 0.001662 0.674646
Si Si2 0.041629 0.766025 0.947875
Si Si3 0.916402 0.767018 0.725035
Si Si4 0.826439 0.099501 0.406184
Si Si5 0.571859 0.955644 0.211891
Si Si6 0.438981 0.477192 0.843250
Si Si7 0.389295 0.458217 0.655325
Si Si8 0.213219 0.222935 0.520507
O O1 0.847091 0.958484 0.765039
O O2 0.828190 0.799378 0.559005
O O3 0.665714 0.276897 0.912157
O O4 0.000000 0.000000 0.500000
O O5 0.197756 0.645591 0.845863
O O6 0.095147 0.516303 0.757070
O O7 0.000000 0.000000 0.000000
O O8 0.874336 0.900901 0.209128
O O9 0.000000 0.500000 0.500000
O O10 0.052490 0.806087 0.665726
O O11 0.754156 0.864084 0.972403
O O12 0.638493 0.343973 0.636449
O O13 0.830579 0.949008 0.442899
O O14 0.601626 0.708157 0.142210
O O15 0.484136 0.161330 0.447268
O O16 0.414339 0.093692 0.321218
O O17 0.399901 0.507477 0.774418
O O18 0.500000 0.500000 0.500000
#
# Coordination Sequence:
#
# PCOD9048691 Si02
#       8
#     2   2   2   2   2   2   2   2
#     4  12  25  47  71 102 143 192 239 291 354 432
#     4  11  24  43  71 107 143 180 234 302 356 417
#     4  12  27  45  69 105 145 187 240 296 352 421
#     4  11  24  46  71 104 141 185 238 294 355 421
#     4  10  24  45  71 105 142 187 237 298 358 422
#     4  11  25  45  75 102 141 191 235 292 359 429
#     4  11  22  44  70 104 143 184 237 293 359 422
#     4  10  25  45  73 103 141 189 238 290 356 430
#
# _framework density 22.646401000000001
#
# number of rings (size 3 to 8) (size 9 to 14) (size 15 to 20)
#    0.000    1.000    1.250    4.500    3.500    2.500 
#    4.500    0.000    0.000    0.000    0.000    0.000 
#    0.000    0.000    0.000    0.000    0.000    0.000 
#
# Total GULP energy -89387.411123 kJ/mol
# GULP energy per Si atom -5586.713195 kJ/mol
# Density = 2.259486 g / cm^3
# Si number density = 22.646401 Si / 1000 Ang^3
#
#
#
# Elastic Constant Matrix: (Units=GPa)
#
#
# Indices 1 2 3 4 5 6 
#
# 1 106.0852 41.3556 52.2423 -7.1483 11.9536 9.1025
# 2 41.3556 66.6317 47.8976 0.2485 -7.4181 13.8980
# 3 52.2423 47.8976 178.8045 3.3425 3.3406 22.8126
# 4 -7.1483 0.2485 3.3425 42.4580 7.8218 3.1630
# 5 11.9536 -7.4181 3.3406 7.8218 23.2275 0.1871
# 6 9.1025 13.8980 22.8126 3.1630 0.1871 33.4315
#
#
#
# Elastic Compliance Matrix: (Units=1/GPa)
#
#
# Indices 1 2 3 4 5 6 
#
# 1 0.016144 -0.010281 -0.001914 0.005286 -0.013103 0.000757
# 2 -0.010281 0.027029 -0.003745 -0.004106 0.015889 -0.005583
# 3 -0.001914 -0.003745 0.007572 -0.000464 -0.001120 -0.003039
# 4 0.005286 -0.004106 -0.000464 0.027051 -0.013059 -0.001902
# 5 -0.013103 0.015889 -0.001120 -0.013059 0.059440 -0.001371
# 6 0.000757 -0.005583 -0.003039 -0.001902 -0.001371 0.034288
#
#
# Mechanical properties :
#
#
# Convention : Reuss Voigt Hill
#
# Bulk Modulus (GPa) = 53.00081 70.50136 61.75108
# Shear Modulus (GPa) = 23.84459 33.82512 28.83486
#
# Velocity S-wave (km/s) = 3.24838 3.86893 3.57215
# Velocity P-wave (km/s) = 6.12566 7.15242 6.65886
#
# Compressibility (1/GPa) = 0.01886764
#
# Stress axis : x y z
#
# Youngs Moduli (GPa) = 61.94176 36.99702 132.06184
#
# Poissons Ratio (x) = 0.38036 0.25271
# Poissons Ratio (y) = 0.63682 0.49451
# Poissons Ratio (z) = 0.11853 0.13854
#
# Static dielectric constant tensor:
#      x y z
#    x 1.675180 -0.208660 -0.070870 
#    y -0.208660 1.836380 0.132960 
#    z -0.070870 0.132960 2.139300 
# 
# From -- ./inp_files/530133.got.cif
#   From: 2010.05.17/outbox.cif.g08.bks.cpg/sg2_266_cif.got.tgz:530133.got - 2010.06.03 11:33:40.
