data_PCOD9048705
_publ_section_title
;
Structure prediction by ZEFSAII (Michael W. Deem and Ramdas Pophale) SiO2 
 PCOD9048705
Probable space group: P -1
;
_chemical_formula_sum "Si O2"
_cell_formula_units_Z 12
_cell_length_a 11.631111
_cell_length_b 14.228458
_cell_length_c 7.804408
_cell_angle_alpha 101.615712
_cell_angle_beta 103.967885
_cell_angle_gamma 20.896912
_cell_volume 445.976337
_symmetry_space_group_name_H-M "P -1"
_symmetry_group_IT_number 2
_symmetry_cell_setting 'triclinic'
loop_
_space_group_symop_operation_xyz
x,y,z
-x,-y,-z
loop_
_atom_site_type_symbol
_atom_site_label
_atom_site_fract_x
_atom_site_fract_y
_atom_site_fract_z
Si Si1 0.737837 0.124794 0.126065
Si Si2 0.566089 0.701635 0.622406
Si Si3 0.255941 0.247415 0.116688
Si Si4 0.848579 0.776373 0.591343
Si Si5 0.039274 0.822843 0.800714
Si Si6 0.359287 0.670883 0.359878
O O1 0.411129 0.367255 0.206412
O O2 0.854103 0.146670 0.160649
O O3 0.024207 0.874312 0.264579
O O4 0.792887 0.017698 0.943155
O O5 0.530417 0.836581 0.728410
O O6 0.347536 0.788274 0.469967
O O7 0.889164 0.459293 0.535131
O O8 0.081532 0.312760 0.222291
O O9 0.000000 0.500000 0.000000
O O10 0.500000 0.000000 0.000000
O O11 0.857585 0.885384 0.633982
O O12 0.500000 0.000000 0.500000
O O13 0.406145 0.501957 0.787128
O O14 0.500000 0.500000 0.500000
#
# Coordination Sequence:
#
# PCOD9048705 Si02
#       6
#     2   2   2   2   2   2
#     4  11  23  44  70 110 146 195 246 312 392 449
#     4  11  25  44  75 110 148 198 258 321 385 466
#     4  12  28  53  77 113 155 209 264 325 393 469
#     4  11  26  49  80 111 152 206 264 323 391 465
#     4  10  24  45  71 106 150 193 249 315 381 469
#     4  11  23  41  68 108 147 193 244 305 387 459
#
# _framework density 26.907257000000001
#
# number of rings (size 3 to 8) (size 9 to 14) (size 15 to 20)
#    0.000    1.000    1.667    3.500    2.333    4.000 
#   15.000    0.000    0.000    0.000    0.000    0.000 
#    0.000    0.000    0.000    0.000    0.000    0.000 
#
# Total GULP energy -66997.732342 kJ/mol
# GULP energy per Si atom -5583.144362 kJ/mol
# Density = 2.684602 g / cm^3
# Si number density = 26.907257 Si / 1000 Ang^3
#
#
#
# Elastic Constant Matrix: (Units=GPa)
#
#
# Indices 1 2 3 4 5 6 
#
# 1 134.6026 29.1963 49.9539 18.3567 13.1031 11.0792
# 2 29.1963 84.7370 67.3649 35.0989 1.5110 1.9242
# 3 49.9539 67.3649 168.5226 62.1964 22.4973 5.2643
# 4 18.3567 35.0989 62.1964 74.6678 -3.0639 -6.6032
# 5 13.1031 1.5110 22.4973 -3.0639 65.7944 9.7272
# 6 11.0792 1.9242 5.2643 -6.6032 9.7272 53.6365
#
#
#
# Elastic Compliance Matrix: (Units=1/GPa)
#
#
# Indices 1 2 3 4 5 6 
#
# 1 0.008620 -0.001473 -0.001761 -0.000121 -0.000878 -0.001411
# 2 -0.001473 0.018355 -0.005900 -0.003322 0.001810 -0.000513
# 3 -0.001761 -0.005900 0.011902 -0.006931 -0.003794 -0.000758
# 4 -0.000121 -0.003322 -0.006931 0.021136 0.003029 0.002877
# 5 -0.000878 0.001810 -0.003794 0.003029 0.017102 -0.002240
# 6 -0.001411 -0.000513 -0.000758 0.002877 -0.002240 0.019789
#
#
# Mechanical properties :
#
#
# Convention : Reuss Voigt Hill
#
# Bulk Modulus (GPa) = 48.51767 75.65471 62.08619
# Shear Modulus (GPa) = 40.97007 54.90954 47.93981
#
# Velocity S-wave (km/s) = 3.90634 4.52231 4.22556
# Velocity P-wave (km/s) = 6.19811 7.44622 6.85065
#
# Compressibility (1/GPa) = 0.02061105
#
# Stress axis : x y z
#
# Youngs Moduli (GPa) = 116.00673 54.48247 84.01626
#
# Poissons Ratio (x) = 0.08023 0.14791
# Poissons Ratio (y) = 0.17083 0.49569
# Poissons Ratio (z) = 0.20423 0.32145
#
# Static dielectric constant tensor:
#      x y z
#    x 2.218680 0.026520 -0.164400 
#    y 0.026520 2.193470 -0.064170 
#    z -0.164400 -0.064170 2.173000 
# 
# From -- ./inp_files/268384.got.cif
#   From: 2010.05.17/outbox.cif.g08.bks.cpg/sg2_135_cif.got.tgz:268384.got - 2010.06.03 11:33:40.
