data_PCOD9048983
_publ_section_title
;
Structure prediction by ZEFSAII (Michael W. Deem and Ramdas Pophale) SiO2 
 PCOD9048983
Probable space group: P -1
;
_chemical_formula_sum "Si O2"
_cell_formula_units_Z 16
_cell_length_a 6.861766
_cell_length_b 11.204514
_cell_length_c 11.243366
_cell_angle_alpha 75.498886
_cell_angle_beta 80.773163
_cell_angle_gamma 99.267702
_cell_volume 807.538510
_symmetry_space_group_name_H-M "P -1"
_symmetry_group_IT_number 2
_symmetry_cell_setting 'triclinic'
loop_
_space_group_symop_operation_xyz
x,y,z
-x,-y,-z
loop_
_atom_site_type_symbol
_atom_site_label
_atom_site_fract_x
_atom_site_fract_y
_atom_site_fract_z
Si Si1 0.893594 0.939928 0.644397
Si Si2 0.607711 0.939039 0.109667
Si Si3 0.497544 0.737909 0.667024
Si Si4 0.104063 0.249665 0.907795
Si Si5 0.389228 0.466753 0.692688
Si Si6 0.685786 0.352128 0.524154
Si Si7 0.814885 0.183598 0.725536
Si Si8 0.160709 0.821386 0.825584
O O1 0.687038 0.844385 0.655614
O O2 0.030243 0.863003 0.722941
O O3 0.858782 0.055461 0.699822
O O4 0.000000 0.000000 0.500000
O O5 0.771455 0.862036 0.067957
O O6 0.423482 0.845651 0.214935
O O7 0.716071 0.051041 0.156342
O O8 0.500000 0.000000 0.000000
O O9 0.527676 0.593990 0.701744
O O10 0.427372 0.751938 0.533708
O O11 0.317294 0.747411 0.771456
O O12 0.261150 0.375991 0.823522
O O13 0.946677 0.218749 0.821613
O O14 0.982809 0.253232 0.040081
O O15 0.525307 0.394384 0.617995
O O16 0.248022 0.527759 0.600088
O O17 0.845325 0.294578 0.597036
#
# Coordination Sequence:
#
# PCOD9048983 Si02
#       8
#     2   2   2   2   2   2   2   2
#     4  12  27  40  68 102 136 175 216 278 338 405
#     4  12  23  42  66  97 135 173 217 277 339 383
#     4  10  24  46  63  95 139 180 210 275 339 388
#     4  12  25  42  70 102 129 177 234 267 327 403
#     4   9  22  45  69  93 133 176 229 278 319 395
#     4   9  21  44  69  93 128 175 223 279 328 383
#     4  12  23  39  70 101 127 177 218 278 341 386
#     4  12  25  42  64 101 142 169 222 276 330 406
#
# _framework density 19.813298
#
# number of rings (size 3 to 8) (size 9 to 14) (size 15 to 20)
#    0.750    0.250    5.000    1.875    3.500    2.000 
#    2.250    0.625    0.000    0.000    0.000    0.000 
#    0.000    0.000    0.000    0.000    0.000    0.000 
#
# Total GULP energy -89325.343081 kJ/mol
# GULP energy per Si atom -5582.833943 kJ/mol
# Density = 1.976820 g / cm^3
# Si number density = 19.813298 Si / 1000 Ang^3
#
#
#
# Elastic Constant Matrix: (Units=GPa)
#
#
# Indices 1 2 3 4 5 6 
#
# 1 44.8832 -0.6451 29.1900 0.1078 5.0875 1.4103
# 2 -0.6451 48.3309 35.4097 -4.5978 -4.6981 -1.7003
# 3 29.1900 35.4097 102.3901 -1.7822 5.6768 1.9702
# 4 0.1078 -4.5978 -1.7822 31.0888 -9.3245 1.9553
# 5 5.0875 -4.6981 5.6768 -9.3245 36.7416 0.3469
# 6 1.4103 -1.7003 1.9702 1.9553 0.3469 12.3297
#
#
#
# Elastic Compliance Matrix: (Units=1/GPa)
#
#
# Indices 1 2 3 4 5 6 
#
# 1 0.030031 0.008707 -0.011494 0.000184 -0.001219 -0.000392
# 2 0.008707 0.032429 -0.014049 0.005615 0.006493 0.004648
# 3 -0.011494 -0.014049 0.018121 -0.001834 -0.003441 -0.003131
# 4 0.000184 0.005615 -0.001834 0.036273 0.010229 -0.004994
# 5 -0.001219 0.006493 -0.003441 0.010229 0.031352 -0.000920
# 6 -0.000392 0.004648 -0.003131 -0.004994 -0.000920 0.083108
#
#
# Mechanical properties :
#
#
# Convention : Reuss Voigt Hill
#
# Bulk Modulus (GPa) = 21.31798 35.94592 28.63195
# Shear Modulus (GPa) = 17.81761 24.80867 21.31314
#
# Velocity S-wave (km/s) = 3.00205 3.54237 3.28334
# Velocity P-wave (km/s) = 4.77485 5.90871 5.37178
#
# Compressibility (1/GPa) = 0.04690876
#
# Stress axis : x y z
#
# Youngs Moduli (GPa) = 33.29944 30.83686 55.18450
#
# Poissons Ratio (x) = -0.26851 0.63430
# Poissons Ratio (y) = -0.28995 0.77528
# Poissons Ratio (z) = 0.38275 0.43322
#
# Static dielectric constant tensor:
#      x y z
#    x 1.707620 -0.003040 -0.000110 
#    y -0.003040 1.700030 -0.016480 
#    z -0.000110 -0.016480 1.721550 
# 
# From -- ./inp_files/362912.got.cif
#   From: 2010.05.17/outbox.cif.g08.bks.cpg/sg2_182_cif.got.tgz:362912.got - 2010.06.03 11:33:40.
