data_PCOD9048553
_publ_section_title
;
Structure prediction by ZEFSAII (Michael W. Deem and Ramdas Pophale) SiO2 
 PCOD9048553
Probable space group: P -1
;
_chemical_formula_sum "Si O2"
_cell_formula_units_Z 16
_cell_length_a 13.542641
_cell_length_b 9.073132
_cell_length_c 10.981680
_cell_angle_alpha 83.607772
_cell_angle_beta 146.821928
_cell_angle_gamma 85.992402
_cell_volume 700.072148
_symmetry_space_group_name_H-M "P -1"
_symmetry_group_IT_number 2
_symmetry_cell_setting 'triclinic'
loop_
_space_group_symop_operation_xyz
x,y,z
-x,-y,-z
loop_
_atom_site_type_symbol
_atom_site_label
_atom_site_fract_x
_atom_site_fract_y
_atom_site_fract_z
Si Si1 0.962628 0.078862 0.585243
Si Si2 0.559529 0.396453 0.389632
Si Si3 0.010121 0.618730 0.106178
Si Si4 0.625962 0.837042 0.695201
Si Si5 0.527336 0.674343 0.195464
Si Si6 0.633900 0.988990 0.939807
Si Si7 0.437193 0.788732 0.836402
Si Si8 0.933940 0.441444 0.562363
O O1 0.755511 0.076827 0.409643
O O2 0.942990 0.262447 0.561672
O O3 0.000000 0.000000 0.500000
O O4 0.158269 0.993420 0.860306
O O5 0.779072 0.366037 0.658564
O O6 0.460622 0.307099 0.387950
O O7 0.468360 0.578841 0.252472
O O8 0.539331 0.332155 0.237790
O O9 0.960007 0.568389 0.195865
O O10 0.000000 0.500000 0.000000
O O11 0.844861 0.776216 0.889722
O O12 0.500000 0.000000 0.500000
O O13 0.614614 0.884087 0.819013
O O14 0.513026 0.842612 0.217918
O O15 0.731215 0.564767 0.372786
O O16 0.409399 0.713167 0.944141
O O17 0.599116 0.872989 0.018804
O O18 0.000000 0.500000 0.500000
#
# Coordination Sequence:
#
# PCOD9048553 Si02
#       8
#     2   2   2   2   2   2   2   2
#     4  12  23  40  62  97 138 184 227 278 347 420
#     4  10  24  45  69  99 138 179 235 293 352 419
#     4  11  25  49  73 103 147 185 237 296 353 426
#     4  11  26  47  75  95 135 189 243 296 354 414
#     4  11  22  38  69 102 142 182 231 285 360 422
#     4  11  24  42  63 100 137 178 233 290 343 417
#     4  11  21  39  66  94 140 182 220 284 348 419
#     4  11  25  43  69 106 146 183 232 291 355 422
#
# _framework density 22.854787000000002
#
# number of rings (size 3 to 8) (size 9 to 14) (size 15 to 20)
#    0.000    1.000    5.000    1.500    7.000    1.000 
#    0.000    0.000    0.000    0.000    0.000    0.000 
#    0.000    0.000    0.000    0.000    0.000    0.000 
#
# Total GULP energy -89110.110955 kJ/mol
# GULP energy per Si atom -5569.381935 kJ/mol
# Density = 2.280277 g / cm^3
# Si number density = 22.854787 Si / 1000 Ang^3
#
#
#
# Elastic Constant Matrix: (Units=GPa)
#
#
# Indices 1 2 3 4 5 6 
#
# 1 32.5252 23.9395 20.0351 1.6128 -3.5063 -4.7735
# 2 23.9395 129.2219 40.3043 -10.2838 1.4665 -18.9605
# 3 20.0351 40.3043 95.4354 -7.5611 3.3492 12.6025
# 4 1.6128 -10.2838 -7.5611 35.4626 -7.2347 -0.3525
# 5 -3.5063 1.4665 3.3492 -7.2347 26.8647 0.8663
# 6 -4.7735 -18.9605 12.6025 -0.3525 0.8663 41.5549
#
#
#
# Elastic Compliance Matrix: (Units=1/GPa)
#
#
# Indices 1 2 3 4 5 6 
#
# 1 0.040351 -0.004812 -0.007524 -0.003703 0.005322 0.004579
# 2 -0.004812 0.010981 -0.004179 0.002526 -0.000212 0.005751
# 3 -0.007524 -0.004179 0.014996 0.001871 -0.001885 -0.007264
# 4 -0.003703 0.002526 0.001871 0.031030 0.007493 0.000267
# 5 0.005322 -0.000212 -0.001885 0.007493 0.040173 0.000313
# 6 0.004579 0.005751 -0.007264 0.000267 0.000313 0.029413
#
#
# Mechanical properties :
#
#
# Convention : Reuss Voigt Hill
#
# Bulk Modulus (GPa) = 30.03128 47.30450 38.66789
# Shear Modulus (GPa) = 23.68850 32.30334 27.99592
#
# Velocity S-wave (km/s) = 3.22293 3.76362 3.50372
# Velocity P-wave (km/s) = 5.19791 6.29518 5.77267
#
# Compressibility (1/GPa) = 0.03329861
#
# Stress axis : x y z
#
# Youngs Moduli (GPa) = 24.78251 91.06831 66.68337
#
# Poissons Ratio (x) = 0.43822 0.50170
# Poissons Ratio (y) = 0.11925 0.27867
# Poissons Ratio (z) = 0.18646 0.38058
#
# Static dielectric constant tensor:
#      x y z
#    x 2.339570 0.322200 0.096760 
#    y 0.322200 1.982910 0.017350 
#    z 0.096760 0.017350 1.932620 
# 
# From -- ./inp_files/447567.got.cif
#   From: 2010.05.17/outbox.cif.g08.bks.cpg/sg2_224_cif.got.tgz:447567.got - 2010.06.03 11:33:40.
