data_PCOD9048183
_publ_section_title
;
Structure prediction by ZEFSAII (Michael W. Deem and Ramdas Pophale) SiO2 
 PCOD9048183
Probable space group: P -1
;
_chemical_formula_sum "Si O2"
_cell_formula_units_Z 14
_cell_length_a 13.838780
_cell_length_b 8.034905
_cell_length_c 14.046947
_cell_angle_alpha 144.415944
_cell_angle_beta 139.159165
_cell_angle_gamma 50.065133
_cell_volume 592.910500
_symmetry_space_group_name_H-M "P -1"
_symmetry_group_IT_number 2
_symmetry_cell_setting 'triclinic'
loop_
_space_group_symop_operation_xyz
x,y,z
-x,-y,-z
loop_
_atom_site_type_symbol
_atom_site_label
_atom_site_fract_x
_atom_site_fract_y
_atom_site_fract_z
Si Si1 0.979342 0.171044 0.298039
Si Si2 0.717218 0.063274 0.674805
Si Si3 0.440349 0.286392 0.931053
Si Si4 0.023280 0.788065 0.326972
Si Si5 0.843085 0.321989 0.065031
Si Si6 0.541811 0.529673 0.302139
Si Si7 0.366799 0.685802 0.537439
O O1 0.883517 0.203149 0.144537
O O2 0.000000 0.500000 0.500000
O O3 0.134462 0.020781 0.308878
O O4 0.938089 0.965478 0.259413
O O5 0.609265 0.819247 0.451549
O O6 0.620887 0.364306 0.729420
O O7 0.768113 0.088947 0.835109
O O8 0.275379 0.409517 0.887415
O O9 0.435711 0.987474 0.739626
O O10 0.500000 0.500000 0.000000
O O11 0.529907 0.306429 0.104956
O O12 0.196567 0.732408 0.400119
O O13 0.969728 0.476361 0.172706
O O14 0.000000 0.000000 0.500000
O O15 0.645565 0.422894 0.414343
O O16 0.500000 0.500000 0.500000
#
# Coordination Sequence:
#
# PCOD9048183 Si02
#       7
#     2   2   2   2   2   2   2
#     4  12  24  41  72 100 139 191 234 294 366 424
#     4  10  24  45  68 105 143 182 246 296 356 430
#     4  11  26  46  72 104 145 188 243 292 360 438
#     4  12  25  46  74 104 146 188 239 297 356 438
#     4  11  25  48  70 104 145 191 242 298 359 437
#     4  10  24  44  75  95 141 194 230 299 361 420
#     4  12  26  45  73 112 145 182 243 300 359 429
#
# _framework density 23.612333
#
# number of rings (size 3 to 8) (size 9 to 14) (size 15 to 20)
#    0.000    0.857    2.857    2.571   10.000    0.571 
#    5.143    0.000    0.000    0.000    0.000    0.000 
#    0.000    0.000    0.000    0.000    0.000    0.000 
#
# Total GULP energy -78199.883692 kJ/mol
# GULP energy per Si atom -5585.705978 kJ/mol
# Density = 2.355859 g / cm^3
# Si number density = 23.612333 Si / 1000 Ang^3
#
#
#
# Elastic Constant Matrix: (Units=GPa)
#
#
# Indices 1 2 3 4 5 6 
#
# 1 49.0635 16.2175 48.3767 3.6881 -37.2089 -7.3643
# 2 16.2175 95.1006 45.4593 -19.9641 -32.5109 18.1908
# 3 48.3767 45.4593 94.3038 -1.9454 6.5932 -11.8356
# 4 3.6881 -19.9641 -1.9454 43.1515 9.3613 -12.1582
# 5 -37.2089 -32.5109 6.5932 9.3613 1.6361 0.6997
# 6 -7.3643 18.1908 -11.8356 -12.1582 0.6997 42.3640
#
#
#
# Elastic Compliance Matrix: (Units=1/GPa)
#
#
# Indices 1 2 3 4 5 6 
#
# 1 0.008666 -0.009991 0.002505 0.000587 -0.017865 0.006960
# 2 -0.009991 0.012680 -0.001023 0.006718 -0.007239 -0.005420
# 3 0.002505 -0.001023 0.009089 -0.002615 0.013934 0.002434
# 4 0.000587 0.006718 -0.002615 0.026819 0.002139 0.004148
# 5 -0.017865 -0.007239 0.013934 0.002139 -0.009307 0.004663
# 6 0.006960 -0.005420 0.002434 0.004148 0.004663 0.028936
#
#
# Mechanical properties :
#
#
# Convention : Reuss Voigt Hill
#
# Bulk Modulus (GPa) = 74.52434 50.95278 62.73856
# Shear Modulus (GPa) = 50.82660 25.99128 38.40894
#
# Velocity S-wave (km/s) = 4.64459 3.32136 4.03755
# Velocity P-wave (km/s) = 7.77130 6.02779 6.95440
#
# Compressibility (1/GPa) = 0.01341843
#
# Stress axis : x y z
#
# Youngs Moduli (GPa) = 115.39239 78.86257 110.01815
#
# Poissons Ratio (x) = 0.78789 -0.27560
# Poissons Ratio (y) = 1.15285 0.11255
# Poissons Ratio (z) = -0.28906 0.08068
#
# Static dielectric constant tensor:
#      x y z
#    x 2.471050 0.378930 0.669950 
#    y 0.378930 2.006930 0.270620 
#    z 0.669950 0.270620 2.567330 
# 
# From -- ./inp_files/528009.got.cif
#   From: 2010.05.17/outbox.cif.g08.bks.cpg/sg2_265_cif.got.tgz:528009.got - 2010.06.03 11:33:40.
