data_PCOD9048428
_publ_section_title
;
Structure prediction by ZEFSAII (Michael W. Deem and Ramdas Pophale) SiO2 
 PCOD9048428
Probable space group: P -1
;
_chemical_formula_sum "Si O2"
_cell_formula_units_Z 16
_cell_length_a 10.956669
_cell_length_b 8.888228
_cell_length_c 21.735020
_cell_angle_alpha 53.603539
_cell_angle_beta 29.960773
_cell_angle_gamma 41.171892
_cell_volume 684.686024
_symmetry_space_group_name_H-M "P -1"
_symmetry_group_IT_number 2
_symmetry_cell_setting 'triclinic'
loop_
_space_group_symop_operation_xyz
x,y,z
-x,-y,-z
loop_
_atom_site_type_symbol
_atom_site_label
_atom_site_fract_x
_atom_site_fract_y
_atom_site_fract_z
Si Si1 0.338312 0.649002 0.191886
Si Si2 0.629788 0.939242 0.293611
Si Si3 0.010556 0.914786 0.835058
Si Si4 0.295553 0.748804 0.451096
Si Si5 0.435669 0.390201 0.768211
Si Si6 0.760271 0.470329 0.939225
Si Si7 0.838515 0.655930 0.687185
Si Si8 0.501914 0.072785 0.111656
O O1 0.378714 0.604387 0.257337
O O2 0.122635 0.581260 0.278900
O O3 0.645043 0.490480 0.054669
O O4 0.197854 0.912003 0.170856
O O5 0.491891 0.793727 0.398468
O O6 0.917210 0.762334 0.165311
O O7 0.745309 0.032388 0.271711
O O8 0.346147 0.178236 0.329835
O O9 0.133004 0.651312 0.837607
O O10 0.809917 0.998641 0.963776
O O11 0.452872 0.644418 0.341893
O O12 0.146400 0.628693 0.571261
O O13 0.000000 0.000000 0.500000
O O14 0.451407 0.167684 0.836897
O O15 0.745211 0.701642 0.877162
O O16 0.500000 0.500000 0.000000
O O17 0.596865 0.802447 0.810475
#
# Coordination Sequence:
#
# PCOD9048428 Si02
#       8
#     2   2   2   2   2   2   2   2
#     4  11  24  42  68 101 141 172 214 286 341 395
#     4  11  20  40  70  96 131 177 227 272 321 398
#     4  11  24  42  65 107 136 168 222 273 348 414
#     4  10  24  45  68  95 127 180 239 277 317 398
#     4  12  25  42  67  98 138 181 216 279 347 392
#     4  11  21  39  68 100 137 171 223 273 325 410
#     4  11  21  43  72  94 128 183 234 270 327 389
#     4  11  22  41  66  98 137 174 218 272 337 400
#
# _framework density 23.368375
#
# number of rings (size 3 to 8) (size 9 to 14) (size 15 to 20)
#    0.000    1.000    7.500    0.375    1.750    5.500 
#    0.000    3.125    5.500    0.000    0.000    0.000 
#    0.000    0.000    0.000    0.000    0.000    0.000 
#
# Total GULP energy -89196.457514 kJ/mol
# GULP energy per Si atom -5574.778595 kJ/mol
# Density = 2.331519 g / cm^3
# Si number density = 23.368375 Si / 1000 Ang^3
#
#
#
# Elastic Constant Matrix: (Units=GPa)
#
#
# Indices 1 2 3 4 5 6 
#
# 1 -192.7777 256.0581 -436.1027 210.4440 -57.4179 -116.0115
# 2 256.0581 -114.9239 461.1100 -238.2400 72.1222 133.1276
# 3 -436.1027 461.1100 -733.9940 370.1867 -110.0729 -209.1020
# 4 210.4440 -238.2400 370.1867 -158.6517 55.5021 105.1561
# 5 -57.4179 72.1222 -110.0729 55.5021 -3.4187 -32.9739
# 6 -116.0115 133.1276 -209.1020 105.1561 -32.9739 -27.7619
#
#
#
# Elastic Compliance Matrix: (Units=1/GPa)
#
#
# Indices 1 2 3 4 5 6 
#
# 1 0.018953 0.002440 -0.002753 0.006848 -0.012800 -0.005622
# 2 0.002440 0.006101 0.004182 0.002049 -0.003008 -0.001103
# 3 -0.002753 0.004182 0.016183 0.017793 -0.011811 -0.008907
# 4 0.006848 0.002049 0.017793 0.038364 -0.004822 -0.001764
# 5 -0.012800 -0.003008 -0.011811 -0.004822 0.085851 0.007793
# 6 -0.005622 -0.001103 -0.008907 -0.001764 0.007793 0.033333
#
#
# Mechanical properties :
#
#
# Convention : Reuss Voigt Hill
#
# Bulk Modulus (GPa) = 20.41923 -53.28497 -16.43287
# Shear Modulus (GPa) = 24.11115 -126.15053 -51.01969
#
# Velocity S-wave (km/s) = 3.21563 -7.35531 -4.67763
# Velocity P-wave (km/s) = 4.74805 9.74607 6.01838
#
# Compressibility (1/GPa) = 0.04897345
#
# Stress axis : x y z
#
# Youngs Moduli (GPa) = 52.76291 163.90130 61.79394
#
# Poissons Ratio (x) = -0.39985 0.17013
# Poissons Ratio (y) = -0.12872 -0.25842
# Poissons Ratio (z) = 0.14527 -0.68543
#
# Static dielectric constant tensor:
#      x y z
#    x 1.965500 0.043760 0.064030 
#    y 0.043760 1.950840 0.033520 
#    z 0.064030 0.033520 2.175560 
# 
# From -- ./inp_files/609781.got.cif
#   From: 2010.05.17/outbox.cif.g08.bks.cpg/sg2_305_cif.got.tgz:609781.got - 2010.06.03 11:33:40.
