data_PCOD9048751
_publ_section_title
;
Structure prediction by ZEFSAII (Michael W. Deem and Ramdas Pophale) SiO2 
 PCOD9048751
Probable space group: P -1
;
_chemical_formula_sum "Si O2"
_cell_formula_units_Z 12
_cell_length_a 9.307553
_cell_length_b 11.905233
_cell_length_c 12.639453
_cell_angle_alpha 42.525695
_cell_angle_beta 121.891967
_cell_angle_gamma 145.060670
_cell_volume 531.663091
_symmetry_space_group_name_H-M "P -1"
_symmetry_group_IT_number 2
_symmetry_cell_setting 'triclinic'
loop_
_space_group_symop_operation_xyz
x,y,z
-x,-y,-z
loop_
_atom_site_type_symbol
_atom_site_label
_atom_site_fract_x
_atom_site_fract_y
_atom_site_fract_z
Si Si1 0.214390 0.020806 0.056632
Si Si2 0.978630 0.679230 0.388442
Si Si3 0.958290 0.247276 0.259745
Si Si4 0.458609 0.454188 0.256478
Si Si5 0.685639 0.993615 0.534349
Si Si6 0.194940 0.784714 0.013506
O O1 0.201589 0.915092 0.234912
O O2 0.121859 0.837507 0.051258
O O3 0.468172 0.313489 0.927446
O O4 0.000000 0.000000 0.000000
O O5 0.000000 0.500000 0.500000
O O6 0.710502 0.569546 0.333074
O O7 0.045304 0.769473 0.471324
O O8 0.201670 0.304422 0.324957
O O9 0.057555 0.505112 0.149459
O O10 0.729628 0.033368 0.398465
O O11 0.868493 0.179856 0.149236
O O12 0.398130 0.254239 0.295594
O O13 0.500000 0.000000 0.500000
O O14 0.500000 0.000000 0.000000
#
# Coordination Sequence:
#
# PCOD9048751 Si02
#       6
#     2   2   2   2   2   2
#     4  10  24  45  72 104 138 183 238 289 350 418
#     4  11  24  46  72 105 140 186 234 288 359 412
#     4  11  27  45  69 107 139 187 242 284 358 424
#     4  11  25  47  67 107 138 189 237 290 356 410
#     4  12  27  44  69 101 146 187 235 296 350 423
#     4  11  24  46  72 100 143 184 232 294 355 414
#
# _framework density 22.570685000000001
#
# number of rings (size 3 to 8) (size 9 to 14) (size 15 to 20)
#    0.000    1.000    3.333    1.500    9.333    2.667 
#    0.000    0.000    0.000    0.000    0.000    0.000 
#    0.000    0.000    0.000    0.000    0.000    0.000 
#
# Total GULP energy -67030.493915 kJ/mol
# GULP energy per Si atom -5585.874493 kJ/mol
# Density = 2.251931 g / cm^3
# Si number density = 22.570685 Si / 1000 Ang^3
#
#
#
# Elastic Constant Matrix: (Units=GPa)
#
#
# Indices 1 2 3 4 5 6 
#
# 1 134.3230 19.9090 22.5705 6.2142 5.4219 -3.1921
# 2 19.9090 72.7715 2.7756 8.1124 6.6283 -0.1362
# 3 22.5705 2.7756 86.9774 -4.8329 3.6035 1.5382
# 4 6.2142 8.1124 -4.8329 34.9482 -4.8641 2.0223
# 5 5.4219 6.6283 3.6035 -4.8641 34.3354 -3.5474
# 6 -3.1921 -0.1362 1.5382 2.0223 -3.5474 44.8093
#
#
#
# Elastic Compliance Matrix: (Units=1/GPa)
#
#
# Indices 1 2 3 4 5 6 
#
# 1 0.008204 -0.001923 -0.002125 -0.001461 -0.000841 0.000651
# 2 -0.001923 0.014948 -0.000044 -0.003555 -0.003099 -0.000175
# 3 -0.002125 -0.000044 0.012205 0.002017 -0.000725 -0.000719
# 4 -0.001461 -0.003555 0.002017 0.030733 0.004937 -0.001180
# 5 -0.000841 -0.003099 -0.000725 0.004937 0.030856 0.002176
# 6 0.000651 -0.000175 -0.000719 -0.001180 0.002176 0.022613
#
#
# Mechanical properties :
#
#
# Convention : Reuss Voigt Hill
#
# Bulk Modulus (GPa) = 36.80245 42.73133 39.76689
# Shear Modulus (GPa) = 36.54972 39.40638 37.97805
#
# Velocity S-wave (km/s) = 4.02847 4.18294 4.10643
# Velocity P-wave (km/s) = 6.16271 6.50405 6.33568
#
# Compressibility (1/GPa) = 0.02717210
#
# Stress axis : x y z
#
# Youngs Moduli (GPa) = 121.89395 66.90035 81.93364
#
# Poissons Ratio (x) = 0.12863 0.17414
# Poissons Ratio (y) = 0.23436 0.00362
# Poissons Ratio (z) = 0.25907 0.00295
#
# Static dielectric constant tensor:
#      x y z
#    x 1.813150 0.024470 -0.025620 
#    y 0.024470 1.836780 -0.042220 
#    z -0.025620 -0.042220 1.911640 
# 
# From -- ./inp_files/391877.got.cif
#   From: 2010.05.17/outbox.cif.g08.bks.cpg/sg2_196_cif.got.tgz:391877.got - 2010.06.03 11:33:40.
