data_PCOD9048548
_publ_section_title
;
Structure prediction by ZEFSAII (Michael W. Deem and Ramdas Pophale) SiO2 
 PCOD9048548
Probable space group: P -1
;
_chemical_formula_sum "Si O2"
_cell_formula_units_Z 12
_cell_length_a 12.274111
_cell_length_b 9.870155
_cell_length_c 7.603894
_cell_angle_alpha 94.466579
_cell_angle_beta 105.503679
_cell_angle_gamma 143.182118
_cell_volume 459.013333
_symmetry_space_group_name_H-M "P -1"
_symmetry_group_IT_number 2
_symmetry_cell_setting 'triclinic'
loop_
_space_group_symop_operation_xyz
x,y,z
-x,-y,-z
loop_
_atom_site_type_symbol
_atom_site_label
_atom_site_fract_x
_atom_site_fract_y
_atom_site_fract_z
Si Si1 0.289258 0.213042 0.964756
Si Si2 0.305346 0.949061 0.798111
Si Si3 0.779539 0.376651 0.992948
Si Si4 0.526899 0.710597 0.581806
Si Si5 0.780972 0.208251 0.645244
Si Si6 0.876362 0.879904 0.618845
O O1 0.209151 0.996516 0.803116
O O2 0.500000 0.500000 0.000000
O O3 0.373008 0.240676 0.188134
O O4 0.080166 0.096653 0.862025
O O5 0.564382 0.241529 0.917207
O O6 0.229852 0.799645 0.569822
O O7 0.264977 0.805196 0.927337
O O8 0.804917 0.361938 0.798732
O O9 0.006539 0.662106 0.195355
O O10 0.688673 0.802747 0.523526
O O11 0.279519 0.408727 0.432976
O O12 0.568541 0.911618 0.594359
O O13 0.000000 0.000000 0.500000
#
# Coordination Sequence:
#
# PCOD9048548 Si02
#       6
#     2   2   2   2   2   2
#     4  12  25  43  69 102 140 182 230 286 348 412
#     4  11  24  44  69 101 134 185 226 285 354 406
#     4  10  24  45  69  99 136 177 235 286 344 414
#     4  11  25  44  68 103 138 183 233 284 349 413
#     4  11  23  44  69 100 136 176 233 291 344 408
#     4  11  24  44  67  97 138 184 231 281 344 415
#
# _framework density 26.143034
#
# number of rings (size 3 to 8) (size 9 to 14) (size 15 to 20)
#    0.000    1.000    3.333    2.500    4.667    2.667 
#    3.000    0.000    0.000    0.000    0.000    0.000 
#    0.000    0.000    0.000    0.000    0.000    0.000 
#
# Total GULP energy -67171.014156 kJ/mol
# GULP energy per Si atom -5597.584513 kJ/mol
# Density = 2.608353 g / cm^3
# Si number density = 26.143034 Si / 1000 Ang^3
#
#
#
# Elastic Constant Matrix: (Units=GPa)
#
#
# Indices 1 2 3 4 5 6 
#
# 1 70.2581 18.5367 13.3959 -0.6235 5.7014 19.8587
# 2 18.5367 102.8877 34.1342 20.4690 -2.4419 27.3275
# 3 13.3959 34.1342 133.9857 2.3000 14.3494 22.3767
# 4 -0.6235 20.4690 2.3000 62.2531 16.1354 4.3810
# 5 5.7014 -2.4419 14.3494 16.1354 44.5004 5.5406
# 6 19.8587 27.3275 22.3767 4.3810 5.5406 40.1379
#
#
#
# Elastic Compliance Matrix: (Units=1/GPa)
#
#
# Indices 1 2 3 4 5 6 
#
# 1 0.016845 -0.001522 0.000100 0.001690 -0.001982 -0.007265
# 2 -0.001522 0.013943 -0.002570 -0.005174 0.004583 -0.007375
# 3 0.000100 -0.002570 0.008928 0.001564 -0.003226 -0.003002
# 4 0.001690 -0.005174 0.001564 0.019816 -0.008289 0.000796
# 5 -0.001982 0.004583 -0.003226 -0.008289 0.027424 -0.003222
# 6 -0.007265 -0.007375 -0.003002 0.000796 -0.003222 0.035561
#
#
# Mechanical properties :
#
#
# Convention : Reuss Voigt Hill
#
# Bulk Modulus (GPa) = 31.51359 48.80722 40.16040
# Shear Modulus (GPa) = 35.44095 45.44927 40.44511
#
# Velocity S-wave (km/s) = 3.68592 4.17404 3.93755
# Velocity P-wave (km/s) = 5.49501 6.47611 6.00563
#
# Compressibility (1/GPa) = 0.03173234
#
# Stress axis : x y z
#
# Youngs Moduli (GPa) = 59.36493 71.71967 112.00246
#
# Poissons Ratio (x) = 0.10915 -0.01121
# Poissons Ratio (y) = 0.09035 0.28788
# Poissons Ratio (z) = -0.00594 0.18434
#
# Static dielectric constant tensor:
#      x y z
#    x 2.105700 0.029350 0.015390 
#    y 0.029350 2.023830 0.004670 
#    z 0.015390 0.004670 2.099720 
# 
# From -- ./inp_files/305258.got.cif
#   From: 2010.05.17/outbox.cif.g08.bks.cpg/sg2_153_cif.got.tgz:305258.got - 2010.06.03 11:33:40.
