data_PCOD9048410
_publ_section_title
;
Structure prediction by ZEFSAII (Michael W. Deem and Ramdas Pophale) SiO2 
 PCOD9048410
Probable space group: P -1
;
_chemical_formula_sum "Si O2"
_cell_formula_units_Z 12
_cell_length_a 6.514633
_cell_length_b 6.189487
_cell_length_c 12.987725
_cell_angle_alpha 92.917383
_cell_angle_beta 86.262202
_cell_angle_gamma 76.436827
_cell_volume 506.822599
_symmetry_space_group_name_H-M "P -1"
_symmetry_group_IT_number 2
_symmetry_cell_setting 'triclinic'
loop_
_space_group_symop_operation_xyz
x,y,z
-x,-y,-z
loop_
_atom_site_type_symbol
_atom_site_label
_atom_site_fract_x
_atom_site_fract_y
_atom_site_fract_z
Si Si1 0.894731 0.303048 0.523308
Si Si2 0.621865 0.529933 0.149201
Si Si3 0.355465 0.884360 0.314113
Si Si4 0.750047 0.029939 0.369974
Si Si5 0.005530 0.814308 0.786408
Si Si6 0.348012 0.227499 0.050466
O O1 0.735357 0.292092 0.621449
O O2 0.766556 0.263027 0.424450
O O3 0.000000 0.500000 0.500000
O O4 0.099633 0.124264 0.556718
O O5 0.470156 0.746044 0.210268
O O6 0.481117 0.350073 0.126627
O O7 0.822862 0.418952 0.210907
O O8 0.703392 0.604269 0.040100
O O9 0.527238 0.974626 0.372824
O O10 0.174929 0.101906 0.292516
O O11 0.846802 0.020267 0.250765
O O12 0.859283 0.826949 0.892344
O O13 0.500000 0.000000 0.000000
#
# Coordination Sequence:
#
# PCOD9048410 Si02
#       6
#     2   2   2   2   2   2
#     4  10  24  45  72 104 138 189 233 281 356 418
#     4  11  26  44  71 105 135 190 234 281 362 407
#     4  11  24  47  73 103 146 181 235 294 344 418
#     4  10  24  45  68 106 142 183 230 291 350 409
#     4  11  24  44  73  99 144 180 235 289 344 416
#     4  11  24  48  68 102 142 184 234 292 347 416
#
# _framework density 23.676925000000001
#
# number of rings (size 3 to 8) (size 9 to 14) (size 15 to 20)
#    0.000    1.333    1.667    2.000    4.667    2.667 
#    3.000    0.000    0.000    0.000    0.000    0.000 
#    0.000    0.000    0.000    0.000    0.000    0.000 
#
# Total GULP energy -66925.975488 kJ/mol
# GULP energy per Si atom -5577.164624 kJ/mol
# Density = 2.362304 g / cm^3
# Si number density = 23.676925 Si / 1000 Ang^3
#
#
#
# Elastic Constant Matrix: (Units=GPa)
#
#
# Indices 1 2 3 4 5 6 
#
# 1 110.3866 36.4914 53.9651 -17.8509 -4.5041 6.7840
# 2 36.4914 64.3140 27.9359 -13.9055 12.7731 14.1139
# 3 53.9651 27.9359 113.9545 -25.7494 -13.9209 7.4820
# 4 -17.8509 -13.9055 -25.7494 42.1380 5.9965 1.3624
# 5 -4.5041 12.7731 -13.9209 5.9965 36.6493 -8.5073
# 6 6.7840 14.1139 7.4820 1.3624 -8.5073 43.9883
#
#
#
# Elastic Compliance Matrix: (Units=1/GPa)
#
#
# Indices 1 2 3 4 5 6 
#
# 1 0.013440 -0.006264 -0.004507 0.000508 0.002303 0.001133
# 2 -0.006264 0.027286 -0.003352 0.006780 -0.015063 -0.010342
# 3 -0.004507 -0.003352 0.013317 0.004395 0.005033 0.000343
# 4 0.000508 0.006780 0.004395 0.030000 -0.006756 -0.005237
# 5 0.002303 -0.015063 0.005033 -0.006756 0.038451 0.011267
# 6 0.001133 -0.010342 0.000343 -0.005237 0.011267 0.028160
#
#
# Mechanical properties :
#
#
# Convention : Reuss Voigt Hill
#
# Bulk Modulus (GPa) = 38.76500 58.38220 48.57360
# Shear Modulus (GPa) = 26.66687 35.90598 31.28642
#
# Velocity S-wave (km/s) = 3.35965 3.89845 3.63903
# Velocity P-wave (km/s) = 5.60872 6.70636 6.18195
#
# Compressibility (1/GPa) = 0.02579647
#
# Stress axis : x y z
#
# Youngs Moduli (GPa) = 74.40582 36.64907 75.09177
#
# Poissons Ratio (x) = 0.22958 0.33847
# Poissons Ratio (y) = 0.46609 0.25167
# Poissons Ratio (z) = 0.33538 0.12283
#
# Static dielectric constant tensor:
#      x y z
#    x 1.885780 0.047330 -0.016370 
#    y 0.047330 2.137200 0.083530 
#    z -0.016370 0.083530 1.979580 
# 
# From -- ./inp_files/3044.got.cif
#   From: 2010.05.17/outbox.cif.g08.bks.cpg/sg2_2_cif.got.tgz:3044.got - 2010.06.03 11:33:40.
