data_PCOD9048630
_publ_section_title
;
Structure prediction by ZEFSAII (Michael W. Deem and Ramdas Pophale) SiO2 
 PCOD9048630
Probable space group: P -1
;
_chemical_formula_sum "Si O2"
_cell_formula_units_Z 14
_cell_length_a 13.178515
_cell_length_b 20.787861
_cell_length_c 22.336612
_cell_angle_alpha 18.308390
_cell_angle_beta 159.567804
_cell_angle_gamma 150.467783
_cell_volume 660.274046
_symmetry_space_group_name_H-M "P -1"
_symmetry_group_IT_number 2
_symmetry_cell_setting 'triclinic'
loop_
_space_group_symop_operation_xyz
x,y,z
-x,-y,-z
loop_
_atom_site_type_symbol
_atom_site_label
_atom_site_fract_x
_atom_site_fract_y
_atom_site_fract_z
Si Si1 0.173596 0.767925 0.966778
Si Si2 0.278557 0.896148 0.785047
Si Si3 0.637055 0.574143 0.797437
Si Si4 0.808921 0.494583 0.576546
Si Si5 0.716624 0.140157 0.748741
Si Si6 0.303015 0.727185 0.595004
Si Si7 0.100969 0.176307 0.110136
O O1 0.494186 0.644052 0.270401
O O2 0.208302 0.915454 0.799614
O O3 0.958487 0.611603 0.963443
O O4 0.017455 0.875179 0.844682
O O5 0.548810 0.003534 0.819862
O O6 0.347154 0.650910 0.024168
O O7 0.000000 0.000000 0.500000
O O8 0.508816 0.753384 0.521094
O O9 0.424746 0.604477 0.711070
O O10 0.806347 0.328273 0.669230
O O11 0.068807 0.619903 0.594830
O O12 0.879928 0.360952 0.793860
O O13 0.000000 0.000000 0.000000
O O14 0.587337 0.749335 0.772716
O O15 0.157002 0.965689 0.288790
#
# Coordination Sequence:
#
# PCOD9048630 Si02
#       7
#     2   2   2   2   2   2   2
#     4  11  24  44  67  97 135 171 217 275 319 394
#     4  12  24  44  68  98 134 177 215 264 337 389
#     4  11  23  46  65  98 136 171 218 273 324 394
#     4  12  24  42  67  98 131 171 221 270 326 384
#     4  12  26  40  68 100 135 172 219 269 331 387
#     4  10  24  45  70  93 130 173 221 274 321 387
#     4  10  24  47  66  94 132 172 223 266 328 386
#
# _framework density 21.203315
#
# number of rings (size 3 to 8) (size 9 to 14) (size 15 to 20)
#    0.000    0.857    2.857    3.857    4.000    1.714 
#   10.286    0.000    0.000    0.000    0.000    0.000 
#    0.000    0.000    0.000    0.000    0.000    0.000 
#
# Total GULP energy -78374.054301 kJ/mol
# GULP energy per Si atom -5598.146736 kJ/mol
# Density = 2.115506 g / cm^3
# Si number density = 21.203315 Si / 1000 Ang^3
#
#
#
# Elastic Constant Matrix: (Units=GPa)
#
#
# Indices 1 2 3 4 5 6 
#
# 1 86.5746 43.8109 36.8267 13.4548 3.0003 18.6766
# 2 43.8109 34.2123 17.7630 4.4413 17.6695 18.6386
# 3 36.8267 17.7630 111.1059 18.8542 -4.3483 20.3980
# 4 13.4548 4.4413 18.8542 18.7273 -0.0040 1.7503
# 5 3.0003 17.6695 -4.3483 -0.0040 38.5467 -2.3411
# 6 18.6766 18.6386 20.3980 1.7503 -2.3411 27.6553
#
#
#
# Elastic Compliance Matrix: (Units=1/GPa)
#
#
# Indices 1 2 3 4 5 6 
#
# 1 0.511019 -1.189474 -0.041207 -0.093741 0.533487 0.538039
# 2 -1.189474 2.856581 0.093342 0.205566 -1.286019 -1.312658
# 3 -0.041207 0.093342 0.016009 -0.003976 -0.040817 -0.050093
# 4 -0.093741 0.205566 -0.003976 0.083966 -0.092563 -0.085454
# 5 0.533487 -1.286019 -0.040817 -0.092563 0.605359 0.593655
# 6 0.538039 -1.312658 -0.050093 -0.085454 0.593655 0.650096
#
#
# Mechanical properties :
#
#
# Convention : Reuss Voigt Hill
#
# Bulk Modulus (GPa) = 0.90177 47.63266 24.26721
# Shear Modulus (GPa) = 0.67867 25.88536 13.28201
#
# Velocity S-wave (km/s) = 0.56637 3.49781 2.50554
# Velocity P-wave (km/s) = 0.92408 6.23108 4.45423
#
# Compressibility (1/GPa) = 1.10893353
#
# Stress axis : x y z
#
# Youngs Moduli (GPa) = 1.95687 0.35007 62.46291
#
# Poissons Ratio (x) = 0.41640 2.57389
# Poissons Ratio (y) = 2.32765 -5.83041
# Poissons Ratio (z) = 0.08064 -0.03268
#
# Static dielectric constant tensor:
#      x y z
#    x 1.752830 -0.001400 -0.014200 
#    y -0.001400 1.728260 0.013410 
#    z -0.014200 0.013410 1.752460 
# 
# From -- ./inp_files/23623.got.cif
#   From: 2010.05.17/outbox.cif.g08.bks.cpg/sg2_12_cif.got.tgz:23623.got - 2010.06.03 11:33:40.
