data_PCOD9048063
_publ_section_title
;
Structure prediction by ZEFSAII (Michael W. Deem and Ramdas Pophale) SiO2 
 PCOD9048063
Probable space group: P -1
;
_chemical_formula_sum "Si O2"
_cell_formula_units_Z 16
_cell_length_a 13.990769
_cell_length_b 16.236816
_cell_length_c 21.777571
_cell_angle_alpha 23.579122
_cell_angle_beta 32.022326
_cell_angle_gamma 19.834029
_cell_volume 667.704218
_symmetry_space_group_name_H-M "P -1"
_symmetry_group_IT_number 2
_symmetry_cell_setting 'triclinic'
loop_
_space_group_symop_operation_xyz
x,y,z
-x,-y,-z
loop_
_atom_site_type_symbol
_atom_site_label
_atom_site_fract_x
_atom_site_fract_y
_atom_site_fract_z
Si Si1 0.511239 0.679493 0.164565
Si Si2 0.613207 0.266361 0.152877
Si Si3 0.887139 0.588845 0.103067
Si Si4 0.298381 0.171100 0.436423
Si Si5 0.344039 0.880577 0.502152
Si Si6 0.794351 0.328792 0.429426
Si Si7 0.448518 0.330677 0.993917
Si Si8 0.752400 0.848335 0.264057
O O1 0.807800 0.524922 0.129899
O O2 0.513514 0.465367 0.347841
O O3 0.478628 0.678005 0.110145
O O4 0.275988 0.050776 0.058776
O O5 0.357410 0.340914 0.258256
O O6 0.817647 0.932248 0.231619
O O7 0.500000 0.500000 0.000000
O O8 0.678181 0.361447 0.108953
O O9 0.766012 0.561084 0.245499
O O10 0.211327 0.362090 0.093268
O O11 0.965599 0.471752 0.415369
O O12 0.500000 0.000000 0.500000
O O13 0.398986 0.890024 0.535546
O O14 0.457840 0.981726 0.336707
O O15 0.008543 0.173747 0.474686
O O16 0.500000 0.500000 0.500000
O O17 0.000000 0.000000 0.500000
O O18 0.707765 0.018146 0.109543
#
# Coordination Sequence:
#
# PCOD9048063 Si02
#       8
#     2   2   2   2   2   2   2   2
#     4  11  26  43  68 105 150 189 248 314 381 447
#     4   9  22  42  64 101 134 180 236 309 372 451
#     4  11  26  45  69 107 146 198 248 315 379 452
#     4  11  25  43  68 101 140 190 246 314 377 457
#     4  11  25  45  72 107 142 200 252 308 386 449
#     4  12  28  49  82 114 155 203 263 318 385 461
#     4  11  23  42  72  99 144 193 250 307 385 456
#     4  10  24  44  72  99 145 188 258 307 380 459
#
# _framework density 23.962706000000001
#
# number of rings (size 3 to 8) (size 9 to 14) (size 15 to 20)
#    0.000    1.250    2.500    1.125    5.250   10.000 
#    0.000    0.000    0.000    0.000    0.000    0.000 
#    0.000    0.000    0.000    0.000    0.000    0.000 
#
# Total GULP energy -89162.144663 kJ/mol
# GULP energy per Si atom -5572.634041 kJ/mol
# Density = 2.390817 g / cm^3
# Si number density = 23.962706 Si / 1000 Ang^3
#
#
#
# Elastic Constant Matrix: (Units=GPa)
#
#
# Indices 1 2 3 4 5 6 
#
# 1 131.9425 1.1491 11.6114 -9.7379 -2.5014 -0.7812
# 2 1.1491 36.2152 9.0573 2.9996 10.2661 -8.6056
# 3 11.6114 9.0573 85.9259 -16.9353 -5.0924 0.2199
# 4 -9.7379 2.9996 -16.9353 25.9659 -2.7205 -3.0256
# 5 -2.5014 10.2661 -5.0924 -2.7205 33.1589 -7.1600
# 6 -0.7812 -8.6056 0.2199 -3.0256 -7.1600 31.3537
#
#
#
# Elastic Compliance Matrix: (Units=1/GPa)
#
#
# Indices 1 2 3 4 5 6 
#
# 1 0.007858 -0.000577 -0.000354 0.002963 0.001084 0.000573
# 2 -0.000577 0.034364 -0.005874 -0.008449 -0.010952 0.006142
# 3 -0.000354 -0.005874 0.014716 0.010724 0.005031 0.000459
# 4 0.002963 -0.008449 0.010724 0.049125 0.009508 0.004591
# 5 0.001084 -0.010952 0.005031 0.009508 0.036532 0.006246
# 6 0.000573 0.006142 0.000459 0.004591 0.006246 0.035460
#
#
# Mechanical properties :
#
#
# Convention : Reuss Voigt Hill
#
# Bulk Modulus (GPa) = 23.08076 33.07991 28.08034
# Shear Modulus (GPa) = 24.25906 33.58006 28.91956
#
# Velocity S-wave (km/s) = 3.18522 3.74752 3.47775
# Velocity P-wave (km/s) = 4.81460 5.70613 5.27922
#
# Compressibility (1/GPa) = 0.04332613
#
# Stress axis : x y z
#
# Youngs Moduli (GPa) = 127.26076 29.10003 67.95489
#
# Poissons Ratio (x) = 0.01680 0.02408
# Poissons Ratio (y) = 0.07345 0.39919
# Poissons Ratio (z) = 0.04509 0.17094
#
# Static dielectric constant tensor:
#      x y z
#    x 2.003210 0.068160 -0.039820 
#    y 0.068160 2.018390 -0.017380 
#    z -0.039820 -0.017380 1.933220 
# 
# From -- ./inp_files/612186.got.cif
#   From: 2010.05.17/outbox.cif.g08.bks.cpg/sg2_307_cif.got.tgz:612186.got - 2010.06.03 11:33:40.
