data_PCOD9048913
_publ_section_title
;
Structure prediction by ZEFSAII (Michael W. Deem and Ramdas Pophale) SiO2 
 PCOD9048913
Probable space group: P -1
;
_chemical_formula_sum "Si O2"
_cell_formula_units_Z 16
_cell_length_a 17.407220
_cell_length_b 8.297113
_cell_length_c 11.755933
_cell_angle_alpha 106.374760
_cell_angle_beta 31.629127
_cell_angle_gamma 95.762237
_cell_volume 820.735738
_symmetry_space_group_name_H-M "P -1"
_symmetry_group_IT_number 2
_symmetry_cell_setting 'triclinic'
loop_
_space_group_symop_operation_xyz
x,y,z
-x,-y,-z
loop_
_atom_site_type_symbol
_atom_site_label
_atom_site_fract_x
_atom_site_fract_y
_atom_site_fract_z
Si Si1 0.577254 0.107125 0.835968
Si Si2 0.903982 0.040814 0.319950
Si Si3 0.493368 0.407634 0.608485
Si Si4 0.015865 0.821363 0.514462
Si Si5 0.184677 0.866462 0.795264
Si Si6 0.656790 0.295303 0.974129
Si Si7 0.307988 0.088055 0.036049
Si Si8 0.668810 0.875250 0.247153
O O1 0.746016 0.006468 0.557407
O O2 0.599199 0.267023 0.914868
O O3 0.455240 0.149137 0.896953
O O4 0.500000 0.000000 0.000000
O O5 0.958629 0.133770 0.377054
O O6 0.858645 0.155616 0.284963
O O7 0.045548 0.884203 0.063101
O O8 0.500000 0.500000 0.500000
O O9 0.658755 0.273388 0.396360
O O10 0.358212 0.313423 0.748551
O O11 0.450525 0.548271 0.790692
O O12 0.171348 0.688712 0.249491
O O13 0.852858 0.788017 0.692366
O O14 0.000000 0.000000 0.500000
O O15 0.221992 0.055687 0.793820
O O16 0.668987 0.109799 0.986207
O O17 0.289474 0.088762 0.925618
O O18 0.500000 0.000000 0.500000
#
# Coordination Sequence:
#
# PCOD9048913 Si02
#       8
#     2   2   2   2   2   2   2   2
#     4   9  18  32  56  87 114 151 193 243 286 344
#     4  10  19  36  60  89 116 149 208 242 285 348
#     4  11  23  37  57  87 121 153 193 242 307 348
#     4   9  18  32  60  89 113 149 195 244 285 340
#     4  10  21  37  62  86 115 163 196 245 289 353
#     4   9  19  35  56  85 118 147 187 244 299 345
#     4  10  17  34  59  86 111 147 205 238 278 343
#     4  10  19  33  55  82 109 151 198 235 277 342
#
# _framework density 19.494702
#
# number of rings (size 3 to 8) (size 9 to 14) (size 15 to 20)
#    0.000    2.250    1.250    3.750    1.750    1.000 
#    0.000    6.250    5.500    6.000    0.000    0.000 
#    0.000    0.000    0.000    0.000    0.000    0.000 
#
# Total GULP energy -89077.390642 kJ/mol
# GULP energy per Si atom -5567.336915 kJ/mol
# Density = 1.945033 g / cm^3
# Si number density = 19.494702 Si / 1000 Ang^3
#
#
#
# Elastic Constant Matrix: (Units=GPa)
#
#
# Indices 1 2 3 4 5 6 
#
# 1 89.5407 27.8591 36.0822 4.3819 -4.5501 0.1899
# 2 27.8591 36.4318 28.3949 3.2408 -3.2178 6.4974
# 3 36.0822 28.3949 165.9371 1.8447 -15.1627 10.5313
# 4 4.3819 3.2408 1.8447 23.4685 4.2838 -0.8608
# 5 -4.5501 -3.2178 -15.1627 4.2838 39.5420 -6.6978
# 6 0.1899 6.4974 10.5313 -0.8608 -6.6978 20.2247
#
#
#
# Elastic Compliance Matrix: (Units=1/GPa)
#
#
# Indices 1 2 3 4 5 6 
#
# 1 0.015388 -0.011113 -0.001616 -0.001255 0.001161 0.004598
# 2 -0.011113 0.041340 -0.003975 -0.003561 -0.001017 -0.011595
# 3 -0.001616 -0.003975 0.007363 -0.000165 0.002013 -0.001882
# 4 -0.001255 -0.003561 -0.000165 0.044325 -0.005053 0.001455
# 5 0.001161 -0.001017 0.002013 -0.005053 0.028074 0.008350
# 6 0.004598 -0.011595 -0.001882 0.001455 0.008350 0.056934
#
#
# Mechanical properties :
#
#
# Convention : Reuss Voigt Hill
#
# Bulk Modulus (GPa) = 32.59229 52.95357 42.77293
# Shear Modulus (GPa) = 21.09181 29.95195 25.52188
#
# Velocity S-wave (km/s) = 3.29283 3.92397 3.62217
# Velocity P-wave (km/s) = 5.58675 6.91028 6.28346
#
# Compressibility (1/GPa) = 0.03068210
#
# Stress axis : x y z
#
# Youngs Moduli (GPa) = 64.98702 24.18987 135.81028
#
# Poissons Ratio (x) = 0.26883 0.21948
# Poissons Ratio (y) = 0.72221 0.53984
# Poissons Ratio (z) = 0.10502 0.09615
#
# Static dielectric constant tensor:
#      x y z
#    x 1.810700 0.058540 0.309420 
#    y 0.058540 1.714320 0.098000 
#    z 0.309420 0.098000 2.503770 
# 
# From -- ./inp_files/333528.got.cif
#   From: 2010.05.17/outbox.cif.g08.bks.cpg/sg2_167_cif.got.tgz:333528.got - 2010.06.03 11:33:40.
