data_PCOD9048006
_publ_section_title
;
Structure prediction by ZEFSAII (Michael W. Deem and Ramdas Pophale) SiO2 
 PCOD9048006
Probable space group: P -1
;
_chemical_formula_sum "Si O2"
_cell_formula_units_Z 11
_cell_length_a 13.209769
_cell_length_b 8.024662
_cell_length_c 10.294596
_cell_angle_alpha 115.831838
_cell_angle_beta 146.863635
_cell_angle_gamma 49.337446
_cell_volume 436.315784
_symmetry_space_group_name_H-M "P -1"
_symmetry_group_IT_number 2
_symmetry_cell_setting 'triclinic'
loop_
_space_group_symop_operation_xyz
x,y,z
-x,-y,-z
loop_
_atom_site_type_symbol
_atom_site_label
_atom_site_fract_x
_atom_site_fract_y
_atom_site_fract_z
Si Si1 0.268286 0.574270 0.344066
Si Si2 0.070149 0.033400 0.444278
Si Si3 0.765323 0.529949 0.233825
Si Si4 0.882094 0.874293 0.865922
Si Si5 0.500000 0.000000 0.000000
Si Si6 0.417555 0.221590 0.616101
O O1 0.500000 0.500000 0.500000
O O2 0.333230 0.388440 0.459166
O O3 0.149507 0.815361 0.370326
O O4 0.083762 0.628764 0.054694
O O5 0.856219 0.267965 0.231614
O O6 0.281564 0.045828 0.703417
O O7 0.000000 0.000000 0.500000
O O8 0.619369 0.644894 0.247259
O O9 0.000000 0.500000 0.500000
O O10 0.621032 0.717354 0.033189
O O11 0.748127 0.860987 0.596533
O O12 0.677711 0.014205 0.798630
O O13 0.000000 0.000000 0.000000
#
# Coordination Sequence:
#
# PCOD9048006 Si02
#       6
#     2   2   2   2   1   2
#     4  12  26  47  74 107 148 198 248 306 373 447
#     4  11  25  46  70 107 144 188 250 298 367 435
#     4  10  24  44  72 106 144 192 246 305 364 443
#     4  11  26  44  73 105 145 194 248 304 366 450
#     4  10  26  44  70 104 144 194 238 304 366 430
#     4  11  25  47  71 106 148 193 245 310 376 434
#
# _framework density 25.211099000000001
#
# number of rings (size 3 to 8) (size 9 to 14) (size 15 to 20)
#    0.000    1.091    3.636    0.545    7.636    5.091 
#    0.000    0.000    0.000    0.000    0.000    0.000 
#    0.000    0.000    0.000    0.000    0.000    0.000 
#
# Total GULP energy -61369.313332 kJ/mol
# GULP energy per Si atom -5579.028485 kJ/mol
# Density = 2.515372 g / cm^3
# Si number density = 25.211099 Si / 1000 Ang^3
#
#
#
# Elastic Constant Matrix: (Units=GPa)
#
#
# Indices 1 2 3 4 5 6 
#
# 1 77.6269 28.0990 31.1618 -10.3310 14.2412 -5.8212
# 2 28.0990 129.1601 38.3157 -33.9459 3.4279 -3.7555
# 3 31.1618 38.3157 170.6162 -31.6080 21.3501 7.4548
# 4 -10.3310 -33.9459 -31.6080 66.3857 11.1491 -4.3327
# 5 14.2412 3.4279 21.3501 11.1491 23.7164 -9.7394
# 6 -5.8212 -3.7555 7.4548 -4.3327 -9.7394 52.6813
#
#
#
# Elastic Compliance Matrix: (Units=1/GPa)
#
#
# Indices 1 2 3 4 5 6 
#
# 1 0.016206 -0.002350 -0.000691 0.002675 -0.009988 0.000094
# 2 -0.002350 0.009712 -0.000837 0.004420 -0.001019 0.000726
# 3 -0.000691 -0.000837 0.008633 0.005212 -0.010895 -0.002943
# 4 0.002675 0.004420 0.005212 0.023227 -0.018531 -0.001643
# 5 -0.009988 -0.001019 -0.010895 -0.018531 0.071805 0.012116
# 6 0.000094 0.000726 -0.002943 -0.001643 0.012116 0.021566
#
#
# Mechanical properties :
#
#
# Convention : Reuss Voigt Hill
#
# Bulk Modulus (GPa) = 37.32073 63.61737 50.46905
# Shear Modulus (GPa) = 29.79135 47.21181 38.50158
#
# Velocity S-wave (km/s) = 3.44128 4.33212 3.91214
# Velocity P-wave (km/s) = 5.53401 7.09307 6.36148
#
# Compressibility (1/GPa) = 0.02679476
#
# Stress axis : x y z
#
# Youngs Moduli (GPa) = 61.70741 102.96789 115.83733
#
# Poissons Ratio (x) = 0.24194 0.08001
# Poissons Ratio (y) = 0.14499 0.09698
# Poissons Ratio (z) = 0.04262 0.08621
#
# Static dielectric constant tensor:
#      x y z
#    x 2.047850 0.057470 -0.017000 
#    y 0.057470 2.075870 0.052090 
#    z -0.017000 0.052090 1.979780 
# 
# From -- ./inp_files/374926.got.cif
#   From: 2010.05.17/outbox.cif.g08.bks.cpg/sg2_188_cif.got.tgz:374926.got - 2010.06.03 11:33:40.
