data_PCOD9048541
_publ_section_title
;
Structure prediction by ZEFSAII (Michael W. Deem and Ramdas Pophale) SiO2 
 PCOD9048541
Probable space group: P -1
;
_chemical_formula_sum "Si O2"
_cell_formula_units_Z 11
_cell_length_a 9.523155
_cell_length_b 6.664977
_cell_length_c 17.083469
_cell_angle_alpha 117.302196
_cell_angle_beta 147.530602
_cell_angle_gamma 64.246216
_cell_volume 514.692847
_symmetry_space_group_name_H-M "P -1"
_symmetry_group_IT_number 2
_symmetry_cell_setting 'triclinic'
loop_
_space_group_symop_operation_xyz
x,y,z
-x,-y,-z
loop_
_atom_site_type_symbol
_atom_site_label
_atom_site_fract_x
_atom_site_fract_y
_atom_site_fract_z
Si Si1 0.995768 0.747928 0.508758
Si Si2 0.817638 0.531391 0.737228
Si Si3 0.305326 0.716626 0.920986
Si Si4 0.477167 0.819823 0.847820
Si Si5 0.000000 0.500000 0.000000
Si Si6 0.743082 0.197903 0.512008
O O1 0.261128 0.838284 0.682298
O O2 0.031555 0.737098 0.430608
O O3 0.000000 0.500000 0.500000
O O4 0.760837 0.926074 0.461405
O O5 0.920770 0.500236 0.867829
O O6 0.801876 0.291702 0.642103
O O7 0.532153 0.671951 0.621297
O O8 0.019251 0.669261 0.807531
O O9 0.332354 0.760345 0.849213
O O10 0.500000 0.500000 0.000000
O O11 0.395937 0.944241 0.042585
O O12 0.708032 0.625350 0.905019
#
# Coordination Sequence:
#
# PCOD9048541 Si02
#       6
#     2   2   2   2   1   2
#     4  11  23  44  70  97 133 181 223 279 334 398
#     4  11  23  47  69 101 137 182 216 287 334 396
#     4  11  23  43  68  97 138 178 220 278 348 387
#     4  11  25  42  68 104 131 174 232 279 325 415
#     4  12  24  44  68 102 142 170 230 278 334 398
#     4  10  24  45  69  98 138 172 233 269 334 406
#
# _framework density 21.371969
#
# number of rings (size 3 to 8) (size 9 to 14) (size 15 to 20)
#    0.000    1.091    3.636    2.182    2.545    3.636 
#    0.000    2.727    0.000    0.000    0.000    0.000 
#    0.000    0.000    0.000    0.000    0.000    0.000 
#
# Total GULP energy -61240.224842 kJ/mol
# GULP energy per Si atom -5567.293167 kJ/mol
# Density = 2.132333 g / cm^3
# Si number density = 21.371969 Si / 1000 Ang^3
#
#
#
# Elastic Constant Matrix: (Units=GPa)
#
#
# Indices 1 2 3 4 5 6 
#
# 1 100.7824 50.3151 40.0775 4.1154 -11.1989 -25.9931
# 2 50.3151 99.0775 14.2539 -11.5703 -3.2772 -10.2223
# 3 40.0775 14.2539 83.6616 -17.0861 -16.2787 -18.0244
# 4 4.1154 -11.5703 -17.0861 21.5614 -3.4426 2.3958
# 5 -11.1989 -3.2772 -16.2787 -3.4426 33.2722 -1.6321
# 6 -25.9931 -10.2223 -18.0244 2.3958 -1.6321 34.2023
#
#
#
# Elastic Compliance Matrix: (Units=1/GPa)
#
#
# Indices 1 2 3 4 5 6 
#
# 1 0.023990 -0.012005 -0.011867 -0.021629 -0.000667 0.009874
# 2 -0.012005 0.017182 0.006474 0.017229 0.002520 -0.001663
# 3 -0.011867 0.006474 0.025619 0.027434 0.012266 0.005081
# 4 -0.021629 0.017229 0.027434 0.084339 0.016470 -0.001952
# 5 -0.000667 0.002520 0.012266 0.016470 0.038146 0.007377
# 6 0.009874 -0.001663 0.005081 -0.001952 0.007377 0.039411
#
#
# Mechanical properties :
#
#
# Convention : Reuss Voigt Hill
#
# Bulk Modulus (GPa) = 31.25361 54.75717 43.00539
# Shear Modulus (GPa) = 18.23832 29.73220 23.98526
#
# Velocity S-wave (km/s) = 2.92443 3.73390 3.35367
# Velocity P-wave (km/s) = 5.10475 6.65327 5.92977
#
# Compressibility (1/GPa) = 0.03199630
#
# Stress axis : x y z
#
# Youngs Moduli (GPa) = 41.68322 58.19998 39.03402
#
# Poissons Ratio (x) = 0.69870 0.46321
# Poissons Ratio (y) = 0.50041 -0.25272
# Poissons Ratio (z) = 0.49465 -0.37681
#
# Static dielectric constant tensor:
#      x y z
#    x 1.776960 -0.014680 -0.022260 
#    y -0.014680 1.808280 0.041070 
#    z -0.022260 0.041070 1.766430 
# 
# From -- ./inp_files/136447.got.cif
#   From: 2010.05.17/outbox.cif.g08.bks.cpg/sg2_69_cif.got.tgz:136447.got - 2010.06.03 11:33:40.
