data_PCOD9048571
_publ_section_title
;
Structure prediction by ZEFSAII (Michael W. Deem and Ramdas Pophale) SiO2 
 PCOD9048571
Probable space group: P -1
;
_chemical_formula_sum "Si O2"
_cell_formula_units_Z 16
_cell_length_a 7.852808
_cell_length_b 6.812625
_cell_length_c 13.518093
_cell_angle_alpha 89.770726
_cell_angle_beta 113.147370
_cell_angle_gamma 101.432441
_cell_volume 649.585281
_symmetry_space_group_name_H-M "P -1"
_symmetry_group_IT_number 2
_symmetry_cell_setting 'triclinic'
loop_
_space_group_symop_operation_xyz
x,y,z
-x,-y,-z
loop_
_atom_site_type_symbol
_atom_site_label
_atom_site_fract_x
_atom_site_fract_y
_atom_site_fract_z
Si Si1 0.732395 0.799633 0.714041
Si Si2 0.252401 0.371135 0.496444
Si Si3 0.904362 0.694301 0.047037
Si Si4 0.416844 0.534312 0.160631
Si Si5 0.170674 0.727057 0.591477
Si Si6 0.792694 0.434341 0.186260
Si Si7 0.132652 0.897292 0.918582
Si Si8 0.488572 0.118160 0.669860
O O1 0.746992 0.675744 0.618800
O O2 0.608972 0.647588 0.764528
O O3 0.937818 0.870248 0.810623
O O4 0.643753 0.993430 0.672016
O O5 0.263553 0.600389 0.532804
O O6 0.415326 0.272635 0.580274
O O7 0.042097 0.264239 0.488040
O O8 0.950945 0.580273 0.155633
O O9 0.761828 0.531988 0.950611
O O10 0.069468 0.803988 0.011846
O O11 0.795271 0.868137 0.051348
O O12 0.610667 0.530237 0.149401
O O13 0.437316 0.746628 0.218714
O O14 0.149626 0.601213 0.689216
O O15 0.303274 0.940848 0.643694
O O16 0.744811 0.224903 0.116467
#
# Coordination Sequence:
#
# PCOD9048571 Si02
#       8
#     2   2   2   2   2   2   2   2
#     4  11  24  43  67 100 138 177 220 275 332 390
#     4  11  24  46  69  98 134 179 222 280 331 391
#     4  10  25  45  69 101 134 175 220 273 340 397
#     4  11  26  44  67 102 137 174 222 277 330 400
#     4  11  25  45  69 100 135 174 225 279 331 393
#     4  12  22  44  69  97 134 178 215 280 331 393
#     4  10  24  45  70 101 135 170 226 274 329 406
#     4  12  24  44  67  98 139 176 229 266 333 399
#
# _framework density 24.631098999999999
#
# number of rings (size 3 to 8) (size 9 to 14) (size 15 to 20)
#    0.000    1.000    3.750    1.500    1.750    8.500 
#    4.500    0.000    0.000    0.000    0.000    0.000 
#    0.000    0.000    0.000    0.000    0.000    0.000 
#
# Total GULP energy -89604.928701 kJ/mol
# GULP energy per Si atom -5600.308044 kJ/mol
# Density = 2.457504 g / cm^3
# Si number density = 24.631099 Si / 1000 Ang^3
#
#
#
# Elastic Constant Matrix: (Units=GPa)
#
#
# Indices 1 2 3 4 5 6 
#
# 1 68.5984 38.2319 15.9653 1.7035 -13.8584 -15.6874
# 2 38.2319 118.6551 47.7687 31.4272 -7.3019 -22.1875
# 3 15.9653 47.7687 88.1808 16.3739 -20.7379 -3.7383
# 4 1.7035 31.4272 16.3739 46.2131 -8.1009 3.9645
# 5 -13.8584 -7.3019 -20.7379 -8.1009 40.3864 15.2136
# 6 -15.6874 -22.1875 -3.7383 3.9645 15.2136 37.3830
#
#
#
# Elastic Compliance Matrix: (Units=1/GPa)
#
#
# Indices 1 2 3 4 5 6 
#
# 1 0.020065 -0.007913 0.001335 0.005371 0.007062 0.000413
# 2 -0.007913 0.020042 -0.009100 -0.013340 -0.011646 0.013819
# 3 0.001335 -0.009100 0.017940 0.002493 0.011542 -0.008008
# 4 0.005371 -0.013340 0.002493 0.033052 0.012639 -0.014063
# 5 0.007062 -0.011646 0.011542 0.012639 0.041452 -0.021005
# 6 0.000413 0.013819 -0.008008 -0.014063 -0.021005 0.044364
#
#
# Mechanical properties :
#
#
# Convention : Reuss Voigt Hill
#
# Bulk Modulus (GPa) = 37.46760 53.26289 45.36525
# Shear Modulus (GPa) = 23.02358 36.36107 29.69233
#
# Velocity S-wave (km/s) = 3.06066 3.84634 3.47577
# Velocity P-wave (km/s) = 5.26638 6.43404 5.87927
#
# Compressibility (1/GPa) = 0.02668973
#
# Stress axis : x y z
#
# Youngs Moduli (GPa) = 49.83800 49.89578 55.74095
#
# Poissons Ratio (x) = 0.39484 -0.07440
# Poissons Ratio (y) = 0.39438 0.50725
# Poissons Ratio (z) = -0.06652 0.45405
#
# Static dielectric constant tensor:
#      x y z
#    x 1.962600 -0.012780 0.018020 
#    y -0.012780 1.947890 -0.029080 
#    z 0.018020 -0.029080 1.943480 
# 
# From -- ./inp_files/488599.got.cif
#   From: 2010.05.17/outbox.cif.g08.bks.cpg/sg2_245_cif.got.tgz:488599.got - 2010.06.03 11:33:40.
