data_PCOD9048791
_publ_section_title
;
Structure prediction by ZEFSAII (Michael W. Deem and Ramdas Pophale) SiO2 
 PCOD9048791
Probable space group: P -1
;
_chemical_formula_sum "Si O2"
_cell_formula_units_Z 12
_cell_length_a 18.585861
_cell_length_b 12.647303
_cell_length_c 21.922277
_cell_angle_alpha 19.722871
_cell_angle_beta 18.594021
_cell_angle_gamma 29.095735
_cell_volume 546.343404
_symmetry_space_group_name_H-M "P -1"
_symmetry_group_IT_number 2
_symmetry_cell_setting 'triclinic'
loop_
_space_group_symop_operation_xyz
x,y,z
-x,-y,-z
loop_
_atom_site_type_symbol
_atom_site_label
_atom_site_fract_x
_atom_site_fract_y
_atom_site_fract_z
Si Si1 0.528857 0.726445 0.297000
Si Si2 0.997182 0.168608 0.714478
Si Si3 0.218040 0.633931 0.794761
Si Si4 0.547829 0.380097 0.268761
Si Si5 0.041170 0.279079 0.763219
Si Si6 0.790871 0.798879 0.740494
O O1 0.500000 0.500000 0.500000
O O2 0.566791 0.488745 0.341128
O O3 0.334629 0.939229 0.332075
O O4 0.765533 0.960753 0.989415
O O5 0.000000 0.500000 0.500000
O O6 0.992820 0.166915 0.792682
O O7 0.206351 0.005159 0.610063
O O8 0.237930 0.532767 0.904183
O O9 0.000000 0.500000 0.000000
O O10 0.309369 0.435095 0.459881
O O11 0.500000 0.000000 0.500000
O O12 0.612063 0.589874 0.043649
O O13 0.889932 0.545666 0.756341
O O14 0.000000 0.000000 0.000000
O O15 0.000000 0.000000 0.500000
#
# Coordination Sequence:
#
# PCOD9048791 Si02
#       6
#     2   2   2   2   2   2
#     4  11  28  45  69 105 149 193 241 302 371 446
#     4  11  25  45  74 105 140 194 253 306 375 438
#     4  10  24  45  72  99 150 190 240 302 378 433
#     4  12  24  47  77 108 147 193 250 308 378 439
#     4  12  26  46  78 110 149 192 252 316 373 446
#     4  12  29  47  75 112 149 197 252 306 375 451
#
# _framework density 21.964207999999999
#
# number of rings (size 3 to 8) (size 9 to 14) (size 15 to 20)
#    0.000    0.667    3.333    2.000   11.667    4.667 
#    0.000    0.000    0.000    0.000    0.000    0.000 
#    0.000    0.000    0.000    0.000    0.000    0.000 
#
# Total GULP energy -67003.725707 kJ/mol
# GULP energy per Si atom -5583.643809 kJ/mol
# Density = 2.191422 g / cm^3
# Si number density = 21.964208 Si / 1000 Ang^3
#
#
#
# Elastic Constant Matrix: (Units=GPa)
#
#
# Indices 1 2 3 4 5 6 
#
# 1 121.6306 79.5852 21.1343 -8.3851 7.2642 -5.9747
# 2 79.5852 229.8293 50.4228 -18.0501 19.0985 -8.2487
# 3 21.1343 50.4228 103.4728 -3.0614 25.6593 -6.8239
# 4 -8.3851 -18.0501 -3.0614 31.9397 -11.9380 1.1755
# 5 7.2642 19.0985 25.6593 -11.9380 37.8845 -0.7608
# 6 -5.9747 -8.2487 -6.8239 1.1755 -0.7608 42.9436
#
#
#
# Elastic Compliance Matrix: (Units=1/GPa)
#
#
# Indices 1 2 3 4 5 6 
#
# 1 0.010690 -0.003532 -0.000473 0.000865 0.000338 0.000716
# 2 -0.003532 0.006265 -0.002174 0.002289 -0.000281 0.000299
# 3 -0.000473 -0.002174 0.012960 -0.003392 -0.008630 0.001516
# 4 0.000865 0.002289 -0.003392 0.037284 0.012711 -0.000774
# 5 0.000338 -0.000281 -0.008630 0.012711 0.036301 -0.001083
# 6 0.000716 0.000299 0.001516 -0.000774 -0.001083 0.023686
#
#
# Mechanical properties :
#
#
# Convention : Reuss Voigt Hill
#
# Bulk Modulus (GPa) = 56.96322 84.13528 70.54925
# Shear Modulus (GPa) = 34.38838 42.80625 38.59731
#
# Velocity S-wave (km/s) = 3.96113 4.41943 4.19654
# Velocity P-wave (km/s) = 6.84920 8.02687 7.46131
#
# Compressibility (1/GPa) = 0.01755519
#
# Stress axis : x y z
#
# Youngs Moduli (GPa) = 93.54824 159.61412 77.15934
#
# Poissons Ratio (x) = 0.56381 0.03651
# Poissons Ratio (y) = 0.33044 0.16778
# Poissons Ratio (z) = 0.04426 0.34707
#
# Static dielectric constant tensor:
#      x y z
#    x 1.816480 0.004030 -0.042310 
#    y 0.004030 1.868320 0.026520 
#    z -0.042310 0.026520 1.760560 
# 
# From -- ./inp_files/160034.got.cif
#   From: 2010.05.17/outbox.cif.g08.bks.cpg/sg2_81_cif.got.tgz:160034.got - 2010.06.03 11:33:40.
