data_PCOD9048327
_publ_section_title
;
Structure prediction by ZEFSAII (Michael W. Deem and Ramdas Pophale) SiO2 
 PCOD9048327
Probable space group: P -1
;
_chemical_formula_sum "Si O2"
_cell_formula_units_Z 14
_cell_length_a 17.021460
_cell_length_b 16.571388
_cell_length_c 8.394056
_cell_angle_alpha 42.897696
_cell_angle_beta 139.666375
_cell_angle_gamma 156.946119
_cell_volume 595.556280
_symmetry_space_group_name_H-M "P -1"
_symmetry_group_IT_number 2
_symmetry_cell_setting 'triclinic'
loop_
_space_group_symop_operation_xyz
x,y,z
-x,-y,-z
loop_
_atom_site_type_symbol
_atom_site_label
_atom_site_fract_x
_atom_site_fract_y
_atom_site_fract_z
Si Si1 0.790741 0.113106 0.123898
Si Si2 0.155235 0.201583 0.061862
Si Si3 0.412932 0.177233 0.518742
Si Si4 0.548052 0.348600 0.136383
Si Si5 0.413462 0.851858 0.726490
Si Si6 0.846207 0.949029 0.223211
Si Si7 0.156730 0.565739 0.016969
O O1 0.014637 0.338496 0.085542
O O2 0.767184 0.055340 0.352990
O O3 0.744875 0.961790 0.165985
O O4 0.594622 0.033381 0.876681
O O5 0.327283 0.241561 0.327756
O O6 0.278818 0.416181 0.881547
O O7 0.002721 0.124780 0.077147
O O8 0.000000 0.000000 0.000000
O O9 0.454750 0.209905 0.348830
O O10 0.625929 0.307807 0.751295
O O11 0.616624 0.300968 0.188080
O O12 0.353594 0.264025 0.872958
O O13 0.500000 0.000000 0.500000
O O14 0.209146 0.686404 0.768208
O O15 0.000000 0.000000 0.500000
O O16 0.000000 0.500000 0.000000
#
# Coordination Sequence:
#
# PCOD9048327 Si02
#       7
#     2   2   2   2   2   2   2
#     4  10  24  45  67 104 137 181 241 282 362 422
#     4  12  25  43  69 104 143 185 237 288 358 426
#     4  11  25  42  71 100 142 184 229 299 352 427
#     4  11  26  43  69 106 142 185 239 291 360 422
#     4  10  25  49  73 101 141 184 240 301 354 422
#     4  11  23  41  67  98 140 188 223 287 349 430
#     4  11  27  46  72 103 137 190 241 297 359 419
#
# _framework density 23.507434
#
# number of rings (size 3 to 8) (size 9 to 14) (size 15 to 20)
#    0.000    1.143    2.857    1.286    8.000    2.286 
#    2.571    0.000    0.000    0.000    0.000    0.000 
#    0.000    0.000    0.000    0.000    0.000    0.000 
#
# Total GULP energy -77973.997531 kJ/mol
# GULP energy per Si atom -5569.571252 kJ/mol
# Density = 2.345393 g / cm^3
# Si number density = 23.507434 Si / 1000 Ang^3
#
#
#
# Elastic Constant Matrix: (Units=GPa)
#
#
# Indices 1 2 3 4 5 6 
#
# 1 111.9782 37.4038 27.8396 -19.9741 -19.8426 15.9070
# 2 37.4038 123.3208 53.0114 -12.9183 -13.3672 5.9263
# 3 27.8396 53.0114 85.6765 -22.3777 -26.5280 4.7637
# 4 -19.9741 -12.9183 -22.3777 28.0826 8.2888 -9.4179
# 5 -19.8426 -13.3672 -26.5280 8.2888 36.5146 -8.4290
# 6 15.9070 5.9263 4.7637 -9.4179 -8.4290 40.6651
#
#
#
# Elastic Compliance Matrix: (Units=1/GPa)
#
#
# Indices 1 2 3 4 5 6 
#
# 1 0.011708 -0.002741 0.000803 0.005786 0.004150 -0.002074
# 2 -0.002741 0.011787 -0.007686 -0.002186 -0.002437 -0.000757
# 3 0.000803 -0.007686 0.023217 0.013124 0.012362 0.003688
# 4 0.005786 -0.002186 0.013124 0.051503 0.002245 0.008911
# 5 0.004150 -0.002437 0.012362 0.002245 0.038559 0.005796
# 6 -0.002074 -0.000757 0.003688 0.008911 0.005796 0.028346
#
#
# Mechanical properties :
#
#
# Convention : Reuss Voigt Hill
#
# Bulk Modulus (GPa) = 36.41001 61.94281 49.17641
# Shear Modulus (GPa) = 25.83657 34.56717 30.20187
#
# Velocity S-wave (km/s) = 3.31884 3.83884 3.58827
# Velocity P-wave (km/s) = 5.49623 6.78649 6.17515
#
# Compressibility (1/GPa) = 0.02746497
#
# Stress axis : x y z
#
# Youngs Moduli (GPa) = 85.40915 84.83581 43.07145
#
# Poissons Ratio (x) = 0.23251 -0.03458
# Poissons Ratio (y) = 0.23408 0.33106
# Poissons Ratio (z) = -0.06858 0.65207
#
# Static dielectric constant tensor:
#      x y z
#    x 1.930690 -0.130720 -0.021280 
#    y -0.130720 1.843090 -0.173730 
#    z -0.021280 -0.173730 1.814260 
# 
# From -- ./inp_files/56188.got.cif
#   From: 2010.05.17/outbox.cif.g08.bks.cpg/sg2_29_cif.got.tgz:56188.got - 2010.06.03 11:33:40.
