data_PCOD9048763
_publ_section_title
;
Structure prediction by ZEFSAII (Michael W. Deem and Ramdas Pophale) SiO2 
 PCOD9048763
Probable space group: P -1
;
_chemical_formula_sum "Si O2"
_cell_formula_units_Z 16
_cell_length_a 22.951972
_cell_length_b 23.559822
_cell_length_c 5.362630
_cell_angle_alpha 92.767937
_cell_angle_beta 85.470247
_cell_angle_gamma 167.777664
_cell_volume 606.226004
_symmetry_space_group_name_H-M "P -1"
_symmetry_group_IT_number 2
_symmetry_cell_setting 'triclinic'
loop_
_space_group_symop_operation_xyz
x,y,z
-x,-y,-z
loop_
_atom_site_type_symbol
_atom_site_label
_atom_site_fract_x
_atom_site_fract_y
_atom_site_fract_z
Si Si1 0.332057 0.495216 0.896623
Si Si2 0.105444 0.458613 0.988570
Si Si3 0.461681 0.193607 0.361419
Si Si4 0.241651 0.226830 0.663456
Si Si5 0.884711 0.978045 0.963153
Si Si6 0.884999 0.627178 0.677572
Si Si7 0.680017 0.237545 0.734560
Si Si8 0.317389 0.889966 0.291869
O O1 0.426509 0.638665 0.731865
O O2 0.600283 0.709224 0.845269
O O3 0.268145 0.463176 0.179879
O O4 0.044591 0.188228 0.890389
O O5 0.991263 0.293257 0.123379
O O6 0.103015 0.507694 0.199393
O O7 0.416439 0.736286 0.856873
O O8 0.940510 0.318586 0.765216
O O9 0.640917 0.357358 0.586149
O O10 0.137871 0.882635 0.464004
O O11 0.500000 0.500000 0.500000
O O12 0.244699 0.166459 0.761204
O O13 0.000000 0.000000 0.500000
O O14 0.136974 0.173053 0.891252
O O15 0.779842 0.267672 0.669288
O O16 0.494780 0.075599 0.517122
O O17 0.506217 0.068931 0.016308
#
# Coordination Sequence:
#
# PCOD9048763 Si02
#       8
#     2   2   2   2   2   2   2   2
#     4  11  24  45  69  99 139 184 241 302 364 434
#     4  11  27  42  73 103 146 189 245 306 380 454
#     4  11  27  46  70 104 141 186 245 305 373 450
#     4  11  24  41  64 102 142 185 238 291 362 438
#     4  11  24  42  68 100 140 186 239 300 358 438
#     4  11  27  46  70 104 141 186 245 305 373 450
#     4  10  24  45  72 107 148 194 249 309 381 466
#     4  10  24  45  72 107 148 194 249 309 381 466
#
# _framework density 26.392799
#
# number of rings (size 3 to 8) (size 9 to 14) (size 15 to 20)
#    0.000    1.250    0.000    3.375    7.000   10.000 
#    0.000    3.750    0.000    2.250    0.000    0.000 
#    0.000    0.000    0.000    0.000    0.000    0.000 
#
# Total GULP energy -89449.337825 kJ/mol
# GULP energy per Si atom -5590.583614 kJ/mol
# Density = 2.633273 g / cm^3
# Si number density = 26.392799 Si / 1000 Ang^3
#
#
#
# Elastic Constant Matrix: (Units=GPa)
#
#
# Indices 1 2 3 4 5 6 
#
# 1 100.7690 42.8758 26.3557 -9.8314 23.0294 -4.5798
# 2 42.8758 156.3586 40.5309 -17.6324 13.8687 -12.7400
# 3 26.3557 40.5309 108.3061 -6.3302 19.6625 -3.5446
# 4 -9.8314 -17.6324 -6.3302 50.7818 4.4738 4.1706
# 5 23.0294 13.8687 19.6625 4.4738 48.7071 2.3692
# 6 -4.5798 -12.7400 -3.5446 4.1706 2.3692 38.3271
#
#
#
# Elastic Compliance Matrix: (Units=1/GPa)
#
#
# Indices 1 2 3 4 5 6 
#
# 1 0.012620 -0.002465 -0.001107 0.001835 -0.005021 0.000697
# 2 -0.002465 0.008055 -0.002138 0.001936 -0.000541 0.002008
# 3 -0.001107 -0.002138 0.010964 0.000682 -0.003372 0.000305
# 4 0.001835 0.001936 0.000682 0.021216 -0.003586 -0.001161
# 5 -0.005021 -0.000541 -0.003372 -0.003586 0.024858 -0.002238
# 6 0.000697 0.002008 0.000305 -0.001161 -0.002238 0.027135
#
#
# Mechanical properties :
#
#
# Convention : Reuss Voigt Hill
#
# Bulk Modulus (GPa) = 49.45376 64.99538 57.22457
# Shear Modulus (GPa) = 40.64776 44.60796 42.62786
#
# Velocity S-wave (km/s) = 3.92868 4.11561 4.02323
# Velocity P-wave (km/s) = 6.27357 6.87488 6.58109
#
# Compressibility (1/GPa) = 0.02022091
#
# Stress axis : x y z
#
# Youngs Moduli (GPa) = 79.23943 124.13949 91.20381
#
# Poissons Ratio (x) = 0.30595 0.10098
# Poissons Ratio (y) = 0.19529 0.19497
# Poissons Ratio (z) = 0.08773 0.26538
#
# Static dielectric constant tensor:
#      x y z
#    x 1.478130 -0.050220 0.376890 
#    y -0.050220 2.039070 -0.014040 
#    z 0.376890 -0.014040 1.950450 
# 
# From -- ./inp_files/127771.got.cif
#   From: 2010.05.17/outbox.cif.g08.bks.cpg/sg2_64_cif.got.tgz:127771.got - 2010.06.03 11:33:40.
