data_PCOD9048665
_publ_section_title
;
Structure prediction by ZEFSAII (Michael W. Deem and Ramdas Pophale) SiO2 
 PCOD9048665
Probable space group: P -1
;
_chemical_formula_sum "Si O2"
_cell_formula_units_Z 11
_cell_length_a 12.437463
_cell_length_b 5.946644
_cell_length_c 8.459296
_cell_angle_alpha 65.722686
_cell_angle_beta 129.531926
_cell_angle_gamma 111.247802
_cell_volume 435.342975
_symmetry_space_group_name_H-M "P -1"
_symmetry_group_IT_number 2
_symmetry_cell_setting 'triclinic'
loop_
_space_group_symop_operation_xyz
x,y,z
-x,-y,-z
loop_
_atom_site_type_symbol
_atom_site_label
_atom_site_fract_x
_atom_site_fract_y
_atom_site_fract_z
Si Si1 0.949686 0.084928 0.688688
Si Si2 0.906357 0.627148 0.997845
Si Si3 0.620043 0.260848 0.839337
Si Si4 0.212668 0.064694 0.725762
Si Si5 0.410188 0.527726 0.749198
Si Si6 0.500000 0.000000 0.500000
O O1 0.088631 0.007937 0.754913
O O2 0.010116 0.330245 0.771646
O O3 0.889207 0.889417 0.823637
O O4 0.840403 0.066166 0.449078
O O5 0.753219 0.475878 0.918635
O O6 0.000000 0.500000 0.000000
O O7 0.485162 0.385990 0.722492
O O8 0.606573 0.152576 0.683688
O O9 0.654407 0.050065 0.052239
O O10 0.257761 0.362252 0.669168
O O11 0.428402 0.812425 0.631083
O O12 0.500000 0.500000 0.000000
#
# Coordination Sequence:
#
# PCOD9048665 Si02
#       6
#     2   2   2   2   2   1
#     4  10  24  45  71 100 144 184 236 291 348 422
#     4  11  23  44  67 102 140 187 236 288 349 420
#     4  12  26  46  73 105 145 186 238 294 356 422
#     4  11  23  47  71 106 142 187 235 292 356 418
#     4  12  26  49  72 105 143 187 237 296 353 424
#     4  12  28  46  74 102 144 192 232 292 360 414
#
# _framework density 25.267433
#
# number of rings (size 3 to 8) (size 9 to 14) (size 15 to 20)
#    0.000    0.727    3.636    3.273    0.000    2.182 
#    3.273    0.000    0.000    0.000    0.000    0.000 
#    0.000    0.000    0.000    0.000    0.000    0.000 
#
# Total GULP energy -61399.759141 kJ/mol
# GULP energy per Si atom -5581.796286 kJ/mol
# Density = 2.520992 g / cm^3
# Si number density = 25.267433 Si / 1000 Ang^3
#
#
#
# Elastic Constant Matrix: (Units=GPa)
#
#
# Indices 1 2 3 4 5 6 
#
# 1 61.2125 20.5762 24.4122 -5.0222 -11.4011 11.0082
# 2 20.5762 121.0147 43.1832 28.9766 -17.7314 38.0168
# 3 24.4122 43.1832 135.7225 43.3507 -30.5318 -7.7890
# 4 -5.0222 28.9766 43.3507 52.1339 -12.8735 -14.8094
# 5 -11.4011 -17.7314 -30.5318 -12.8735 33.2730 -1.5656
# 6 11.0082 38.0168 -7.7890 -14.8094 -1.5656 51.6353
#
#
#
# Elastic Compliance Matrix: (Units=1/GPa)
#
#
# Indices 1 2 3 4 5 6 
#
# 1 0.020800 -0.003372 -0.004394 0.008687 0.004661 0.000018
# 2 -0.003372 0.017976 -0.001519 -0.013513 0.001021 -0.016590
# 3 -0.004394 -0.001519 0.012763 -0.008098 0.006350 0.001850
# 4 0.008687 -0.013513 -0.008098 0.040825 0.005022 0.018737
# 5 0.004661 0.001021 0.006350 0.005022 0.040054 0.001867
# 6 0.000018 -0.016590 0.001850 0.018737 0.001867 0.037287
#
#
# Mechanical properties :
#
#
# Convention : Reuss Voigt Hill
#
# Bulk Modulus (GPa) = 30.33114 54.92144 42.62629
# Shear Modulus (GPa) = 25.09249 42.72699 33.90974
#
# Velocity S-wave (km/s) = 3.15473 4.11663 3.66735
# Velocity P-wave (km/s) = 5.02990 6.66174 5.90248
#
# Compressibility (1/GPa) = 0.03296942
#
# Stress axis : x y z
#
# Youngs Moduli (GPa) = 48.07765 55.62999 78.35241
#
# Poissons Ratio (x) = 0.18757 0.34426
# Poissons Ratio (y) = 0.16210 0.11902
# Poissons Ratio (z) = 0.21124 0.08451
#
# Static dielectric constant tensor:
#      x y z
#    x 1.984490 -0.045730 0.019080 
#    y -0.045730 2.064560 -0.053670 
#    z 0.019080 -0.053670 2.081640 
# 
# From -- ./inp_files/17171.got.cif
#   From: 2010.05.17/outbox.cif.g08.bks.cpg/sg2_9_cif.got.tgz:17171.got - 2010.06.03 11:33:40.
