data_PCOD9048150
_publ_section_title
;
Structure prediction by ZEFSAII (Michael W. Deem and Ramdas Pophale) SiO2 
 PCOD9048150
Probable space group: P -1
;
_chemical_formula_sum "Si O2"
_cell_formula_units_Z 12
_cell_length_a 5.037051
_cell_length_b 10.616855
_cell_length_c 8.906836
_cell_angle_alpha 78.618463
_cell_angle_beta 106.462990
_cell_angle_gamma 83.327518
_cell_volume 440.237549
_symmetry_space_group_name_H-M "P -1"
_symmetry_group_IT_number 2
_symmetry_cell_setting 'triclinic'
loop_
_space_group_symop_operation_xyz
x,y,z
-x,-y,-z
loop_
_atom_site_type_symbol
_atom_site_label
_atom_site_fract_x
_atom_site_fract_y
_atom_site_fract_z
Si Si1 0.872235 0.427626 0.861789
Si Si2 0.866677 0.205892 0.113313
Si Si3 0.225746 0.908318 0.453304
Si Si4 0.215937 0.234737 0.735177
Si Si5 0.423356 0.029852 0.174707
Si Si6 0.285676 0.315605 0.385368
O O1 0.699308 0.539840 0.703951
O O2 0.963481 0.733408 0.739300
O O3 0.108043 0.343970 0.814076
O O4 0.729450 0.323314 0.953969
O O5 0.652591 0.119840 0.161612
O O6 0.000000 0.500000 0.000000
O O7 0.401268 0.988753 0.355052
O O8 0.037312 0.842621 0.321499
O O9 0.429402 0.783547 0.582548
O O10 0.000000 0.000000 0.500000
O O11 0.466057 0.112972 0.844543
O O12 0.257895 0.300595 0.564158
O O13 0.113969 0.113256 0.080603
#
# Coordination Sequence:
#
# PCOD9048150 Si02
#       6
#     2   2   2   2   2   2
#     4  10  25  52  72 106 148 209 256 303 368 452
#     4  11  24  47  75 109 155 200 242 306 374 453
#     4  11  23  43  75 120 153 189 243 317 382 443
#     4  11  23  43  78 110 150 193 249 318 374 437
#     4  11  24  45  74 115 152 189 249 306 383 439
#     4  10  24  44  74 111 151 195 251 309 370 446
#
# _framework density 27.258009000000001
#
# number of rings (size 3 to 8) (size 9 to 14) (size 15 to 20)
#    0.000    1.333    1.667    2.500    2.333    6.667 
#    9.000    2.500    0.000    0.000    0.000    0.000 
#    0.000    0.000    0.000    0.000    0.000    0.000 
#
# Total GULP energy -67287.697705 kJ/mol
# GULP energy per Si atom -5607.308142 kJ/mol
# Density = 2.719597 g / cm^3
# Si number density = 27.258009 Si / 1000 Ang^3
#
#
#
# Elastic Constant Matrix: (Units=GPa)
#
#
# Indices 1 2 3 4 5 6 
#
# 1 163.6583 83.7309 64.0896 -18.6899 -34.6230 -10.3587
# 2 83.7309 231.7970 105.4875 -21.4074 -24.3303 -15.6145
# 3 64.0896 105.4875 173.5108 -8.5902 -15.2522 -9.0874
# 4 -18.6899 -21.4074 -8.5902 91.7440 -1.6584 -4.4486
# 5 -34.6230 -24.3303 -15.2522 -1.6584 35.6538 -0.2998
# 6 -10.3587 -15.6145 -9.0874 -4.4486 -0.2998 38.7929
#
#
#
# Elastic Compliance Matrix: (Units=1/GPa)
#
#
# Indices 1 2 3 4 5 6 
#
# 1 0.009466 -0.001597 -0.001699 0.001616 0.007465 0.001730
# 2 -0.001597 0.006750 -0.003221 0.001061 0.001741 0.001671
# 3 -0.001699 -0.003221 0.008315 -0.000317 -0.000304 0.000159
# 4 0.001616 0.001061 -0.000317 0.011599 0.002715 0.002135
# 5 0.007465 0.001741 -0.000304 0.002715 0.036509 0.003216
# 6 0.001730 0.001671 0.000159 0.002135 0.003216 0.027219
#
#
# Mechanical properties :
#
#
# Convention : Reuss Voigt Hill
#
# Bulk Modulus (GPa) = 86.97285 119.50910 103.24097
# Shear Modulus (GPa) = 42.83623 54.28201 48.55912
#
# Velocity S-wave (km/s) = 3.96853 4.46737 4.22532
# Velocity P-wave (km/s) = 7.27843 8.39933 7.85889
#
# Compressibility (1/GPa) = 0.01149784
#
# Stress axis : x y z
#
# Youngs Moduli (GPa) = 105.64237 148.14902 120.26719
#
# Poissons Ratio (x) = 0.23658 0.20430
# Poissons Ratio (y) = 0.16870 0.38735
# Poissons Ratio (z) = 0.17946 0.47715
#
# Static dielectric constant tensor:
#      x y z
#    x 2.194020 0.064740 0.117030 
#    y 0.064740 2.084970 0.033530 
#    z 0.117030 0.033530 2.297660 
# 
# From -- ./inp_files/130743.got.cif
#   From: 2010.05.17/outbox.cif.g08.bks.cpg/sg2_66_cif.got.tgz:130743.got - 2010.06.03 11:33:40.
