data_PCOD9048575
_publ_section_title
;
Structure prediction by ZEFSAII (Michael W. Deem and Ramdas Pophale) SiO2 
 PCOD9048575
Probable space group: P -1
;
_chemical_formula_sum "Si O2"
_cell_formula_units_Z 16
_cell_length_a 12.659361
_cell_length_b 8.160546
_cell_length_c 9.278218
_cell_angle_alpha 97.126884
_cell_angle_beta 131.331449
_cell_angle_gamma 89.887814
_cell_volume 710.058047
_symmetry_space_group_name_H-M "P -1"
_symmetry_group_IT_number 2
_symmetry_cell_setting 'triclinic'
loop_
_space_group_symop_operation_xyz
x,y,z
-x,-y,-z
loop_
_atom_site_type_symbol
_atom_site_label
_atom_site_fract_x
_atom_site_fract_y
_atom_site_fract_z
Si Si1 0.592311 0.903828 0.368414
Si Si2 0.393552 0.468112 0.770752
Si Si3 0.191823 0.967937 0.632394
Si Si4 0.868950 0.386911 0.308717
Si Si5 0.580964 0.603053 0.708143
Si Si6 0.309843 0.020041 0.219388
Si Si7 0.922791 0.904594 0.193525
Si Si8 0.105104 0.473035 0.959670
O O1 0.620981 0.716095 0.332677
O O2 0.676212 0.980903 0.594483
O O3 0.657266 0.013266 0.305679
O O4 0.424538 0.906360 0.245602
O O5 0.255012 0.520944 0.723925
O O6 0.468024 0.588779 0.731598
O O7 0.500000 0.500000 0.000000
O O8 0.151773 0.796791 0.663443
O O9 0.071234 0.986450 0.403868
O O10 0.183017 0.102302 0.765220
O O11 0.890654 0.400407 0.157319
O O12 0.000000 0.500000 0.500000
O O13 0.500000 0.500000 0.500000
O O14 0.623527 0.793447 0.733188
O O15 0.729265 0.526816 0.854088
O O16 0.156978 0.009733 0.000473
O O17 0.942791 0.716280 0.152283
O O18 0.000000 0.500000 0.000000
#
# Coordination Sequence:
#
# PCOD9048575 Si02
#       8
#     2   2   2   2   2   2   2   2
#     4  11  25  45  70 104 140 182 230 288 346 412
#     4  12  26  45  73 103 141 185 235 291 343 414
#     4  11  25  46  71  99 140 182 233 285 346 414
#     4  12  26  46  72 105 137 185 235 286 353 414
#     4  11  23  45  71 102 139 184 233 284 349 410
#     4  10  24  45  70 101 141 180 232 282 348 415
#     4  10  24  47  66 100 134 184 226 284 343 410
#     4  11  25  46  70 104 142 178 232 290 348 421
#
# _framework density 22.533369
#
# number of rings (size 3 to 8) (size 9 to 14) (size 15 to 20)
#    0.000    1.000    3.750    1.500    7.000    2.000 
#    2.250    0.000    0.000    0.000    0.000    0.000 
#    0.000    0.000    0.000    0.000    0.000    0.000 
#
# Total GULP energy -89355.054349 kJ/mol
# GULP energy per Si atom -5584.690897 kJ/mol
# Density = 2.248208 g / cm^3
# Si number density = 22.533369 Si / 1000 Ang^3
#
#
#
# Elastic Constant Matrix: (Units=GPa)
#
#
# Indices 1 2 3 4 5 6 
#
# 1 169.0097 47.0313 23.2449 -4.7245 -17.5508 -6.7930
# 2 47.0313 83.5361 2.7411 -1.1058 -10.2540 -12.2101
# 3 23.2449 2.7411 63.4183 -1.4473 -5.4744 -19.0939
# 4 -4.7245 -1.1058 -1.4473 27.2711 -3.3574 -7.5318
# 5 -17.5508 -10.2540 -5.4744 -3.3574 37.2889 -0.8234
# 6 -6.7930 -12.2101 -19.0939 -7.5318 -0.8234 36.7170
#
#
#
# Elastic Compliance Matrix: (Units=1/GPa)
#
#
# Indices 1 2 3 4 5 6 
#
# 1 0.007640 -0.004105 -0.002763 0.000956 0.002122 -0.001145
# 2 -0.004105 0.015561 0.003142 0.002296 0.003160 0.006591
# 3 -0.002763 0.003142 0.020746 0.004561 0.003292 0.012332
# 4 0.000956 0.002296 0.004561 0.041155 0.005719 0.011883
# 5 0.002122 0.003160 0.003292 0.005719 0.029794 0.004997
# 6 -0.001145 0.006591 0.012332 0.011883 0.004997 0.038178
#
#
# Mechanical properties :
#
#
# Convention : Reuss Voigt Hill
#
# Bulk Modulus (GPa) = 27.40100 51.33318 39.36709
# Shear Modulus (GPa) = 28.95346 36.45185 32.70265
#
# Velocity S-wave (km/s) = 3.58846 4.02641 3.81372
# Velocity P-wave (km/s) = 5.41812 6.66681 6.07463
#
# Compressibility (1/GPa) = 0.03649501
#
# Stress axis : x y z
#
# Youngs Moduli (GPa) = 130.88687 64.26515 48.20167
#
# Poissons Ratio (x) = 0.26380 0.13316
# Poissons Ratio (y) = 0.53728 -0.15143
# Poissons Ratio (z) = 0.36158 -0.20189
#
# Static dielectric constant tensor:
#      x y z
#    x 1.756990 -0.038100 0.021540 
#    y -0.038100 0.969730 1.277120 
#    z 0.021540 1.277120 -0.142140 
# 
# From -- ./inp_files/244793.got.cif
#   From: 2010.05.17/outbox.cif.g08.bks.cpg/sg2_123_cif.got.tgz:244793.got - 2010.06.03 11:33:40.
