data_PCOD9048229
_publ_section_title
;
Structure prediction by ZEFSAII (Michael W. Deem and Ramdas Pophale) SiO2 
 PCOD9048229
Probable space group: P -1
;
_chemical_formula_sum "Si O2"
_cell_formula_units_Z 13
_cell_length_a 9.401427
_cell_length_b 11.286905
_cell_length_c 8.902323
_cell_angle_alpha 54.965656
_cell_angle_beta 135.147370
_cell_angle_gamma 97.879055
_cell_volume 482.290848
_symmetry_space_group_name_H-M "P -1"
_symmetry_group_IT_number 2
_symmetry_cell_setting 'triclinic'
loop_
_space_group_symop_operation_xyz
x,y,z
-x,-y,-z
loop_
_atom_site_type_symbol
_atom_site_label
_atom_site_fract_x
_atom_site_fract_y
_atom_site_fract_z
Si Si1 0.315819 0.935984 0.391990
Si Si2 0.546534 0.432108 0.249940
Si Si3 0.239476 0.984388 0.645555
Si Si4 0.199699 0.544515 0.159054
Si Si5 0.000000 0.500000 0.500000
Si Si6 0.985317 0.726732 0.147581
Si Si7 0.320908 0.258479 0.661262
O O1 0.401841 0.752690 0.535914
O O2 0.248917 0.939139 0.511624
O O3 0.500000 0.000000 0.500000
O O4 0.128810 0.083315 0.043288
O O5 0.343322 0.547635 0.122824
O O6 0.806907 0.407176 0.493637
O O7 0.500000 0.500000 0.000000
O O8 0.257916 0.148938 0.580482
O O9 0.451837 0.851316 0.995602
O O10 0.000000 0.000000 0.500000
O O11 0.084524 0.696091 0.077093
O O12 0.357749 0.390793 0.494686
O O13 0.000000 0.500000 0.000000
O O14 0.831240 0.642244 0.134869
O O15 0.119264 0.353017 0.560223
#
# Coordination Sequence:
#
# PCOD9048229 Si02
#       7
#     2   2   2   2   1   2   2
#     4  12  27  49  76 109 153 202 258 312 398 463
#     4  12  30  47  78 116 153 196 264 323 378 469
#     4  11  26  45  75 111 154 207 261 323 390 477
#     4  11  25  48  77 106 149 205 247 317 400 464
#     4  10  24  44  78 110 148 206 250 328 394 458
#     4  11  26  47  78 108 157 195 255 317 394 458
#     4  10  24  47  75 108 161 202 260 323 403 464
#
# _framework density 26.954688000000001
#
# number of rings (size 3 to 8) (size 9 to 14) (size 15 to 20)
#    0.000    0.923    0.000    4.615   15.077    2.462 
#    0.000    0.769    0.000    0.000    0.000    0.000 
#    0.000    0.000    0.000    0.000    0.000    0.000 
#
# Total GULP energy -72672.671541 kJ/mol
# GULP energy per Si atom -5590.205503 kJ/mol
# Density = 2.689334 g / cm^3
# Si number density = 26.954688 Si / 1000 Ang^3
#
#
#
# Elastic Constant Matrix: (Units=GPa)
#
#
# Indices 1 2 3 4 5 6 
#
# 1 159.3049 -3.5456 -1.9582 11.3472 -11.5750 -9.9974
# 2 -3.5456 97.8752 16.0419 -21.8079 5.5644 9.9621
# 3 -1.9582 16.0419 133.6836 -3.6495 -8.4858 7.8823
# 4 11.3472 -21.8079 -3.6495 48.2449 3.0731 -6.5358
# 5 -11.5750 5.5644 -8.4858 3.0731 33.2621 6.7957
# 6 -9.9974 9.9621 7.8823 -6.5358 6.7957 46.7172
#
#
#
# Elastic Compliance Matrix: (Units=1/GPa)
#
#
# Indices 1 2 3 4 5 6 
#
# 1 0.006626 -0.000412 0.000200 -0.001765 0.002410 0.000875
# 2 -0.000412 0.011911 -0.001389 0.005381 -0.002733 -0.001243
# 3 0.000200 -0.001389 0.007891 -0.000442 0.002650 -0.001440
# 4 -0.001765 0.005381 -0.000442 0.024169 -0.004385 0.002568
# 5 0.002410 -0.002733 0.002650 -0.004385 0.033427 -0.004824
# 6 0.000875 -0.001243 -0.001440 0.002568 -0.004824 0.023162
#
#
# Mechanical properties :
#
#
# Convention : Reuss Voigt Hill
#
# Bulk Modulus (GPa) = 43.05447 45.77110 44.41278
# Shear Modulus (GPa) = 42.32646 50.99988 46.66317
#
# Velocity S-wave (km/s) = 3.96698 4.35450 4.16525
# Velocity P-wave (km/s) = 6.08195 6.50383 6.29643
#
# Compressibility (1/GPa) = 0.02322639
#
# Stress axis : x y z
#
# Youngs Moduli (GPa) = 150.91470 83.95764 126.72754
#
# Poissons Ratio (x) = 0.03458 -0.02531
# Poissons Ratio (y) = 0.06217 0.17597
# Poissons Ratio (z) = -0.03014 0.11658
#
# Static dielectric constant tensor:
#      x y z
#    x 2.244800 0.152970 0.060970 
#    y 0.152970 2.254390 0.091160 
#    z 0.060970 0.091160 2.272000 
# 
# From -- ./inp_files/184572.got.cif
#   From: 2010.05.17/outbox.cif.g08.bks.cpg/sg2_93_cif.got.tgz:184572.got - 2010.06.03 11:33:40.
