data_PCOD9048247
_publ_section_title
;
Structure prediction by ZEFSAII (Michael W. Deem and Ramdas Pophale) SiO2 
 PCOD9048247
Probable space group: P -1
;
_chemical_formula_sum "Si O2"
_cell_formula_units_Z 16
_cell_length_a 7.477683
_cell_length_b 20.681768
_cell_length_c 13.826101
_cell_angle_alpha 21.617940
_cell_angle_beta 64.951062
_cell_angle_gamma 75.098787
_cell_volume 651.294463
_symmetry_space_group_name_H-M "P -1"
_symmetry_group_IT_number 2
_symmetry_cell_setting 'triclinic'
loop_
_space_group_symop_operation_xyz
x,y,z
-x,-y,-z
loop_
_atom_site_type_symbol
_atom_site_label
_atom_site_fract_x
_atom_site_fract_y
_atom_site_fract_z
Si Si1 0.943429 0.146044 0.531583
Si Si2 0.080067 0.912631 0.693082
Si Si3 0.782127 0.581314 0.748836
Si Si4 0.679906 0.935461 0.224583
Si Si5 0.274977 0.503976 0.582275
Si Si6 0.611266 0.801041 0.215116
Si Si7 0.648191 0.172006 0.397288
Si Si8 0.958981 0.660106 0.395957
O O1 0.849532 0.216870 0.362966
O O2 0.053275 0.315165 0.346849
O O3 0.105311 0.055377 0.578373
O O4 0.754116 0.967773 0.876426
O O5 0.290010 0.896704 0.621930
O O6 0.889464 0.707065 0.051047
O O7 0.000000 0.000000 0.500000
O O8 0.690958 0.735680 0.525764
O O9 0.890319 0.556830 0.658710
O O10 0.624008 0.369046 0.109667
O O11 0.598026 0.897268 0.186542
O O12 0.542581 0.970402 0.294425
O O13 0.907402 0.113623 0.928839
O O14 0.500000 0.500000 0.500000
O O15 0.374896 0.667597 0.414755
O O16 0.138482 0.580605 0.434446
O O17 0.747385 0.666871 0.384748
#
# Coordination Sequence:
#
# PCOD9048247 Si02
#       8
#     2   2   2   2   2   2   2   2
#     4  11  21  41  68  92 133 177 223 276 337 391
#     4  10  24  45  63  93 140 176 220 280 335 403
#     4  11  21  42  66  99 135 173 223 285 337 391
#     4  11  23  40  68  99 136 173 219 286 339 399
#     4  12  25  42  71  98 129 180 232 273 330 406
#     4  11  23  42  69 106 130 169 231 283 334 394
#     4  11  24  39  66  96 135 183 223 276 336 401
#     4  11  23  43  71 100 140 170 220 296 334 385
#
# _framework density 24.566459999999999
#
# number of rings (size 3 to 8) (size 9 to 14) (size 15 to 20)
#    0.000    1.000    5.000    2.250    3.500    3.500 
#    0.000    0.625    0.000    0.000    0.000    0.000 
#    0.000    0.000    0.000    0.000    0.000    0.000 
#
# Total GULP energy -89391.802553 kJ/mol
# GULP energy per Si atom -5586.987660 kJ/mol
# Density = 2.451055 g / cm^3
# Si number density = 24.566460 Si / 1000 Ang^3
#
#
#
# Elastic Constant Matrix: (Units=GPa)
#
#
# Indices 1 2 3 4 5 6 
#
# 1 108.9485 20.9684 18.1519 -4.4454 7.2158 7.9144
# 2 20.9684 73.8846 23.4700 20.4827 3.2595 -17.9560
# 3 18.1519 23.4700 101.5566 9.6081 11.8465 1.7248
# 4 -4.4454 20.4827 9.6081 26.2001 -3.4253 -2.4673
# 5 7.2158 3.2595 11.8465 -3.4253 34.0485 -9.4549
# 6 7.9144 -17.9560 1.7248 -2.4673 -9.4549 39.4583
#
#
#
# Elastic Compliance Matrix: (Units=1/GPa)
#
#
# Indices 1 2 3 4 5 6 
#
# 1 0.011153 -0.005591 -0.000901 0.005830 -0.002297 -0.004928
# 2 -0.005591 0.023485 -0.003193 -0.016887 0.001471 0.011245
# 3 -0.000901 -0.003193 0.011610 -0.002816 -0.004681 -0.003078
# 4 0.005830 -0.016887 -0.002816 0.053752 0.005654 -0.004015
# 5 -0.002297 0.001471 -0.004681 0.005654 0.034690 0.010001
# 6 -0.004928 0.011245 -0.003078 -0.004015 0.010001 0.033729
#
#
# Mechanical properties :
#
#
# Convention : Reuss Voigt Hill
#
# Bulk Modulus (GPa) = 37.20635 45.50783 41.35709
# Shear Modulus (GPa) = 25.41297 34.72799 30.07048
#
# Velocity S-wave (km/s) = 3.21979 3.76391 3.50243
# Velocity P-wave (km/s) = 5.38524 6.11996 5.76432
#
# Compressibility (1/GPa) = 0.02687714
#
# Stress axis : x y z
#
# Youngs Moduli (GPa) = 89.66297 42.58032 86.12921
#
# Poissons Ratio (x) = 0.23808 0.07762
# Poissons Ratio (y) = 0.50133 0.27502
# Poissons Ratio (z) = 0.08080 0.13596
#
# Static dielectric constant tensor:
#      x y z
#    x 2.020890 -0.103790 0.026030 
#    y -0.103790 2.107610 -0.000150 
#    z 0.026030 -0.000150 1.863600 
# 
# From -- ./inp_files/298736.got.cif
#   From: 2010.05.17/outbox.cif.g08.bks.cpg/sg2_150_cif.got.tgz:298736.got - 2010.06.03 11:33:40.
