data_PCOD9048386
_publ_section_title
;
Structure prediction by ZEFSAII (Michael W. Deem and Ramdas Pophale) SiO2 
 PCOD9048386
Probable space group: P -1
;
_chemical_formula_sum "Si O2"
_cell_formula_units_Z 14
_cell_length_a 14.199529
_cell_length_b 8.976704
_cell_length_c 7.908120
_cell_angle_alpha 105.634342
_cell_angle_beta 67.702918
_cell_angle_gamma 142.954356
_cell_volume 560.863674
_symmetry_space_group_name_H-M "P -1"
_symmetry_group_IT_number 2
_symmetry_cell_setting 'triclinic'
loop_
_space_group_symop_operation_xyz
x,y,z
-x,-y,-z
loop_
_atom_site_type_symbol
_atom_site_label
_atom_site_fract_x
_atom_site_fract_y
_atom_site_fract_z
Si Si1 0.975174 0.602955 0.917478
Si Si2 0.335659 0.159565 0.830865
Si Si3 0.472205 0.783457 0.990722
Si Si4 0.909680 0.029999 0.475724
Si Si5 0.202441 0.594548 0.339598
Si Si6 0.388203 0.117930 0.419602
Si Si7 0.825163 0.745144 0.117331
O O1 0.892256 0.434890 0.757593
O O2 0.152892 0.879062 0.836066
O O3 0.000000 0.500000 0.000000
O O4 0.856422 0.598146 0.063985
O O5 0.399451 0.150329 0.952933
O O6 0.431361 0.236846 0.612762
O O7 0.307110 0.310414 0.917581
O O8 0.317481 0.608137 0.169316
O O9 0.476747 0.730437 0.774579
O O10 0.500000 0.000000 0.000000
O O11 0.058874 0.327878 0.441278
O O12 0.000000 0.000000 0.500000
O O13 0.753422 0.950256 0.597384
O O14 0.829687 0.836273 0.319054
O O15 0.313611 0.857504 0.428541
O O16 0.000000 0.000000 0.000000
#
# Coordination Sequence:
#
# PCOD9048386 Si02
#       7
#     2   2   2   2   2   2   2
#     4  11  23  39  72 102 137 190 242 287 360 427
#     4  11  24  44  71 102 142 193 236 291 364 418
#     4  11  26  43  76 105 145 196 238 289 373 424
#     4  11  26  42  74 108 143 191 243 299 363 418
#     4  11  24  47  70 104 149 188 239 304 353 426
#     4  11  25  46  71 105 150 183 243 301 350 434
#     4  10  24  45  68 101 147 181 241 294 349 429
#
# _framework density 24.961503
#
# number of rings (size 3 to 8) (size 9 to 14) (size 15 to 20)
#    0.000    1.143    2.857    2.571    6.000    6.286 
#    0.000    0.000    0.000    0.000    0.000    0.000 
#    0.000    0.000    0.000    0.000    0.000    0.000 
#
# Total GULP energy -78002.457276 kJ/mol
# GULP energy per Si atom -5571.604091 kJ/mol
# Density = 2.490469 g / cm^3
# Si number density = 24.961503 Si / 1000 Ang^3
#
#
#
# Elastic Constant Matrix: (Units=GPa)
#
#
# Indices 1 2 3 4 5 6 
#
# 1 168.7298 16.1233 43.7364 4.0308 8.0742 -30.2783
# 2 16.1233 47.7771 8.1773 7.9665 -10.8956 -13.0939
# 3 43.7364 8.1773 94.5728 0.5056 -18.2019 -9.9588
# 4 4.0308 7.9665 0.5056 34.6717 4.8440 -6.7171
# 5 8.0742 -10.8956 -18.2019 4.8440 44.1495 -0.0731
# 6 -30.2783 -13.0939 -9.9588 -6.7171 -0.0731 46.9371
#
#
#
# Elastic Compliance Matrix: (Units=1/GPa)
#
#
# Indices 1 2 3 4 5 6 
#
# 1 0.007942 -0.001916 -0.003789 0.000826 -0.003572 0.003898
# 2 -0.001916 0.025575 0.000719 -0.005709 0.007594 0.005246
# 3 -0.003789 0.000719 0.013586 -0.000733 0.006553 0.000545
# 4 0.000826 -0.005709 -0.000733 0.031444 -0.005307 0.003277
# 5 -0.003572 0.007594 0.006553 -0.005307 0.028462 0.000490
# 6 0.003898 0.005246 0.000545 0.003277 0.000490 0.025868
#
#
# Mechanical properties :
#
#
# Convention : Reuss Voigt Hill
#
# Bulk Modulus (GPa) = 26.93017 49.68373 38.30695
# Shear Modulus (GPa) = 32.21067 41.35451 36.78259
#
# Velocity S-wave (km/s) = 3.59613 4.07471 3.84288
# Velocity P-wave (km/s) = 5.29669 6.48730 5.92199
#
# Compressibility (1/GPa) = 0.03713307
#
# Stress axis : x y z
#
# Youngs Moduli (GPa) = 125.90593 39.10002 73.60330
#
# Poissons Ratio (x) = 0.07491 0.27887
# Poissons Ratio (y) = 0.24122 -0.05293
# Poissons Ratio (z) = 0.47703 -0.02812
#
# Static dielectric constant tensor:
#      x y z
#    x 2.857950 0.144040 -0.223670 
#    y 0.144040 2.401630 -0.010240 
#    z -0.223670 -0.010240 2.090380 
# 
# From -- ./inp_files/239648.got.cif
#   From: 2010.05.17/outbox.cif.g08.bks.cpg/sg2_120_cif.got.tgz:239648.got - 2010.06.03 11:33:40.
