data_PCOD9048259
_publ_section_title
;
Structure prediction by ZEFSAII (Michael W. Deem and Ramdas Pophale) SiO2 
 PCOD9048259
Probable space group: P -1
;
_chemical_formula_sum "Si O2"
_cell_formula_units_Z 16
_cell_length_a 10.453305
_cell_length_b 23.958027
_cell_length_c 16.354239
_cell_angle_alpha 22.428181
_cell_angle_beta 136.028007
_cell_angle_gamma 148.636915
_cell_volume 761.666546
_symmetry_space_group_name_H-M "P -1"
_symmetry_group_IT_number 2
_symmetry_cell_setting 'triclinic'
loop_
_space_group_symop_operation_xyz
x,y,z
-x,-y,-z
loop_
_atom_site_type_symbol
_atom_site_label
_atom_site_fract_x
_atom_site_fract_y
_atom_site_fract_z
Si Si1 0.346324 0.365273 0.816869
Si Si2 0.163661 0.240031 0.233315
Si Si3 0.308446 0.224883 0.153229
Si Si4 0.766950 0.578667 0.479835
Si Si5 0.201252 0.703201 0.730019
Si Si6 0.882838 0.733498 0.639292
Si Si7 0.184352 0.683253 0.046693
Si Si8 0.710765 0.005687 0.758361
O O1 0.225910 0.394040 0.651097
O O2 0.650908 0.583245 0.670993
O O3 0.249094 0.310494 0.940104
O O4 0.306401 0.174532 0.028933
O O5 0.354729 0.304157 0.160185
O O6 0.231412 0.324435 0.243110
O O7 0.000000 0.000000 0.500000
O O8 0.984733 0.269195 0.075925
O O9 0.560088 0.271424 0.179287
O O10 0.058466 0.975594 0.378614
O O11 0.500000 0.500000 0.500000
O O12 0.774730 0.413337 0.733162
O O13 0.016932 0.801567 0.332697
O O14 0.301997 0.893791 0.461355
O O15 0.980289 0.498854 0.850801
O O16 0.925471 0.294827 0.251330
O O17 0.461447 0.891591 0.855957
#
# Coordination Sequence:
#
# PCOD9048259 Si02
#       8
#     2   2   2   2   2   2   2   2
#     4  12  23  36  63  93 125 170 205 256 319 374
#     4  10  24  45  64  91 127 178 210 254 318 381
#     4  11  25  40  62  89 134 170 210 262 312 372
#     4  11  24  39  62 101 130 160 208 264 321 375
#     4  11  22  37  62 102 125 162 212 262 320 376
#     4  11  22  38  62  95 130 160 213 262 315 379
#     4  11  23  40  66  90 133 166 211 262 315 375
#     4  11  21  38  63  95 131 162 201 259 327 372
#
# _framework density 21.006568000000001
#
# number of rings (size 3 to 8) (size 9 to 14) (size 15 to 20)
#    0.000    1.000    3.750    3.750    1.750    3.000 
#    0.000    1.875    0.000    3.750    0.000    0.000 
#    0.000    0.000    0.000    0.000    0.000    0.000 
#
# Total GULP energy -89453.859166 kJ/mol
# GULP energy per Si atom -5590.866198 kJ/mol
# Density = 2.095876 g / cm^3
# Si number density = 21.006568 Si / 1000 Ang^3
#
#
#
# Elastic Constant Matrix: (Units=GPa)
#
#
# Indices 1 2 3 4 5 6 
#
# 1 94.0462 29.1677 23.0714 3.0413 -13.6614 -11.0374
# 2 29.1677 109.9784 46.3516 -0.5197 -7.5268 -9.2674
# 3 23.0714 46.3516 117.6273 15.4731 -5.5986 -9.9037
# 4 3.0413 -0.5197 15.4731 52.7754 -4.8089 -9.2862
# 5 -13.6614 -7.5268 -5.5986 -4.8089 39.7460 0.9849
# 6 -11.0374 -9.2674 -9.9037 -9.2862 0.9849 30.0432
#
#
#
# Elastic Compliance Matrix: (Units=1/GPa)
#
#
# Indices 1 2 3 4 5 6 
#
# 1 0.012567 -0.002286 -0.001160 0.000561 0.003702 0.003581
# 2 -0.002286 0.011715 -0.004208 0.001916 0.001024 0.001946
# 3 -0.001160 -0.004208 0.010857 -0.002999 -0.000052 0.000930
# 4 0.000561 0.001916 -0.002999 0.021147 0.002537 0.006262
# 5 0.003702 0.001024 -0.000052 0.002537 0.026887 0.001561
# 6 0.003581 0.001946 0.000930 0.006262 0.001561 0.037392
#
#
# Mechanical properties :
#
#
# Convention : Reuss Voigt Hill
#
# Bulk Modulus (GPa) = 50.42422 57.64814 54.03618
# Shear Modulus (GPa) = 35.09173 39.38365 37.23769
#
# Velocity S-wave (km/s) = 4.09162 4.33462 4.21488
# Velocity P-wave (km/s) = 6.81014 7.24944 7.03322
#
# Compressibility (1/GPa) = 0.01983174
#
# Stress axis : x y z
#
# Youngs Moduli (GPa) = 79.57593 85.35734 92.10400
#
# Poissons Ratio (x) = 0.19514 0.10684
# Poissons Ratio (y) = 0.18192 0.38754
# Poissons Ratio (z) = 0.09231 0.35916
#
# Static dielectric constant tensor:
#      x y z
#    x 1.782270 -0.018330 -0.021170 
#    y -0.018330 1.761820 -0.032470 
#    z -0.021170 -0.032470 1.796450 
# 
# From -- ./inp_files/571136.got.cif
#   From: 2010.05.17/outbox.cif.g08.bks.cpg/sg2_286_cif.got.tgz:571136.got - 2010.06.03 11:33:40.
