data_PCOD9048222
_publ_section_title
;
Structure prediction by ZEFSAII (Michael W. Deem and Ramdas Pophale) SiO2 
 PCOD9048222
Probable space group: P -1
;
_chemical_formula_sum "Si O2"
_cell_formula_units_Z 12
_cell_length_a 10.616708
_cell_length_b 10.885780
_cell_length_c 5.134589
_cell_angle_alpha 74.366149
_cell_angle_beta 100.291152
_cell_angle_gamma 120.536543
_cell_volume 491.575073
_symmetry_space_group_name_H-M "P -1"
_symmetry_group_IT_number 2
_symmetry_cell_setting 'triclinic'
loop_
_space_group_symop_operation_xyz
x,y,z
-x,-y,-z
loop_
_atom_site_type_symbol
_atom_site_label
_atom_site_fract_x
_atom_site_fract_y
_atom_site_fract_z
Si Si1 0.497564 0.085641 0.203150
Si Si2 0.925340 0.330597 0.474854
Si Si3 0.221645 0.668779 0.088731
Si Si4 0.946028 0.892144 0.294030
Si Si5 0.621411 0.510579 0.745747
Si Si6 0.660583 0.745784 0.980048
O O1 0.363983 0.119026 0.170504
O O2 0.500000 0.000000 0.500000
O O3 0.646929 0.231385 0.115092
O O4 0.500000 0.000000 0.000000
O O5 0.794178 0.265546 0.681255
O O6 0.000000 0.500000 0.500000
O O7 0.997204 0.226151 0.597675
O O8 0.904799 0.348273 0.148679
O O9 0.261494 0.541738 0.254045
O O10 0.771377 0.795366 0.232920
O O11 0.000000 0.000000 0.500000
O O12 0.000000 0.000000 0.000000
O O13 0.500000 0.500000 0.500000
O O14 0.708047 0.668154 0.823317
O O15 0.504439 0.383676 0.961875
#
# Coordination Sequence:
#
# PCOD9048222 Si02
#       6
#     2   2   2   2   2   2
#     4  11  26  43  73 102 143 189 233 307 366 440
#     4  12  27  49  76 105 149 203 250 306 364 451
#     4  11  26  45  74 106 141 183 250 303 369 436
#     4  12  30  49  75 109 155 204 247 306 377 457
#     4  10  24  44  78 106 141 185 246 325 368 430
#     4  10  26  46  70 107 141 191 248 302 376 443
#
# _framework density 24.411327
#
# number of rings (size 3 to 8) (size 9 to 14) (size 15 to 20)
#    0.000    1.000    0.000    3.500   23.333    0.000 
#    0.000    0.000    0.000    0.000    0.000    0.000 
#    0.000    0.000    0.000    0.000    0.000    0.000 
#
# Total GULP energy -66883.608242 kJ/mol
# GULP energy per Si atom -5573.634020 kJ/mol
# Density = 2.435577 g / cm^3
# Si number density = 24.411327 Si / 1000 Ang^3
#
#
#
# Elastic Constant Matrix: (Units=GPa)
#
#
# Indices 1 2 3 4 5 6 
#
# 1 120.4146 58.7103 57.7709 -14.6690 25.6997 -43.0107
# 2 58.7103 132.6918 72.2339 1.6974 20.8491 -37.6119
# 3 57.7709 72.2339 181.5160 -4.5383 8.3658 -39.5673
# 4 -14.6690 1.6974 -4.5383 47.6260 -2.2631 7.8855
# 5 25.6997 20.8491 8.3658 -2.2631 48.1009 -18.0834
# 6 -43.0107 -37.6119 -39.5673 7.8855 -18.0834 53.2789
#
#
#
# Elastic Compliance Matrix: (Units=1/GPa)
#
#
# Indices 1 2 3 4 5 6 
#
# 1 0.013867 -0.002980 -0.001623 0.003020 -0.003320 0.006312
# 2 -0.002980 0.011743 -0.002954 -0.002269 -0.001808 0.003413
# 3 -0.001623 -0.002954 0.007774 -0.000066 0.001937 0.003045
# 4 0.003020 -0.002269 -0.000066 0.022426 -0.000591 -0.002732
# 5 -0.003320 -0.001808 0.001937 -0.000591 0.025297 0.006155
# 6 0.006312 0.003413 0.003045 -0.002732 0.006155 0.031028
#
#
# Mechanical properties :
#
#
# Convention : Reuss Voigt Hill
#
# Bulk Modulus (GPa) = 54.73484 90.22805 72.48145
# Shear Modulus (GPa) = 37.49782 46.19500 41.84641
#
# Velocity S-wave (km/s) = 3.92354 4.35484 4.14481
# Velocity P-wave (km/s) = 6.55714 7.89481 7.25686
#
# Compressibility (1/GPa) = 0.01826990
#
# Stress axis : x y z
#
# Youngs Moduli (GPa) = 72.11200 85.15386 128.62961
#
# Poissons Ratio (x) = 0.25375 0.20881
# Poissons Ratio (y) = 0.21488 0.38002
# Poissons Ratio (z) = 0.11706 0.25158
#
# Static dielectric constant tensor:
#      x y z
#    x 2.086210 0.041820 -0.024100 
#    y 0.041820 2.024850 -0.076070 
#    z -0.024100 -0.076070 1.977020 
# 
# From -- ./inp_files/63653.got.cif
#   From: 2010.05.17/outbox.cif.g08.bks.cpg/sg2_32_cif.got.tgz:63653.got - 2010.06.03 11:33:40.
