data_PCOD9048690
_publ_section_title
;
Structure prediction by ZEFSAII (Michael W. Deem and Ramdas Pophale) SiO2 
 PCOD9048690
Probable space group: P -1
;
_chemical_formula_sum "Si O2"
_cell_formula_units_Z 16
_cell_length_a 24.596063
_cell_length_b 20.226470
_cell_length_c 8.771958
_cell_angle_alpha 149.073523
_cell_angle_beta 32.266121
_cell_angle_gamma 158.415108
_cell_volume 798.158030
_symmetry_space_group_name_H-M "P -1"
_symmetry_group_IT_number 2
_symmetry_cell_setting 'triclinic'
loop_
_space_group_symop_operation_xyz
x,y,z
-x,-y,-z
loop_
_atom_site_type_symbol
_atom_site_label
_atom_site_fract_x
_atom_site_fract_y
_atom_site_fract_z
Si Si1 0.819718 0.177785 0.342733
Si Si2 0.156471 0.173340 0.118273
Si Si3 0.049747 0.439514 0.066997
Si Si4 0.503214 0.127182 0.354316
Si Si5 0.452868 0.332348 0.676945
Si Si6 0.167376 0.470692 0.545815
Si Si7 0.753604 0.610663 0.364440
Si Si8 0.951873 0.781714 0.945718
O O1 0.887988 0.254109 0.161641
O O2 0.900816 0.132408 0.141455
O O3 0.638558 0.009663 0.463024
O O4 0.889248 0.366487 0.638467
O O5 0.178523 0.334911 0.315360
O O6 0.196039 0.236347 0.328151
O O7 0.276064 0.191555 0.788506
O O8 0.999013 0.947962 0.059925
O O9 0.056371 0.433478 0.857724
O O10 0.170300 0.449762 0.872526
O O11 0.475528 0.225789 0.509942
O O12 0.669177 0.305356 0.388349
O O13 0.500000 0.000000 0.000000
O O14 0.570726 0.434614 0.460590
O O15 0.500000 0.500000 0.000000
O O16 0.106109 0.389349 0.361502
O O17 0.824071 0.698849 0.206985
#
# Coordination Sequence:
#
# PCOD9048690 Si02
#       8
#     2   2   2   2   2   2   2   2
#     4  10  20  34  61  81 105 144 197 223 263 342
#     4  10  19  36  57  79 107 155 189 225 275 343
#     4   9  18  37  54  81 108 145 184 229 273 328
#     4  12  20  36  61  85 107 152 194 224 271 348
#     4  10  17  34  59  81 107 145 197 231 264 324
#     4  11  22  37  54  82 120 144 176 243 293 318
#     4   9  18  34  57  81 109 146 188 230 275 332
#     4  11  22  34  55  87 114 142 184 236 287 328
#
# _framework density 20.046157000000001
#
# number of rings (size 3 to 8) (size 9 to 14) (size 15 to 20)
#    0.000    1.750    6.250    0.750    0.000    0.500 
#    0.000    1.875    0.000    7.500    0.000    0.000 
#    0.000    0.000    0.000    0.000    0.000    0.000 
#
# Total GULP energy -89220.192854 kJ/mol
# GULP energy per Si atom -5576.262053 kJ/mol
# Density = 2.000053 g / cm^3
# Si number density = 20.046157 Si / 1000 Ang^3
#
#
#
# Elastic Constant Matrix: (Units=GPa)
#
#
# Indices 1 2 3 4 5 6 
#
# 1 23.6121 28.5072 13.8524 -3.3931 4.8180 1.5796
# 2 28.5072 141.5437 54.6298 -29.0183 16.8216 -12.5977
# 3 13.8524 54.6298 90.8564 -18.1165 -0.0920 -4.0107
# 4 -3.3931 -29.0183 -18.1165 50.7067 -11.5169 0.8217
# 5 4.8180 16.8216 -0.0920 -11.5169 30.4825 10.6797
# 6 1.5796 -12.5977 -4.0107 0.8217 10.6797 12.9695
#
#
#
# Elastic Compliance Matrix: (Units=1/GPa)
#
#
# Indices 1 2 3 4 5 6 
#
# 1 0.063243 -0.016656 -0.001680 -0.003345 0.008997 -0.031598
# 2 -0.016656 0.018625 -0.006735 0.002453 -0.018276 0.032931
# 3 -0.001680 -0.006735 0.015674 0.003700 0.008477 -0.008705
# 4 -0.003345 0.002453 0.003700 0.024796 0.010860 -0.006579
# 5 0.008997 -0.018276 0.008477 0.010860 0.072416 -0.076546
# 6 -0.031598 0.032931 -0.008705 -0.006579 -0.076546 0.173697
#
#
# Mechanical properties :
#
#
# Convention : Reuss Voigt Hill
#
# Bulk Modulus (GPa) = 21.09699 49.99900 35.54800
# Shear Modulus (GPa) = 11.51029 29.43326 20.47178
#
# Velocity S-wave (km/s) = 2.39882 3.83596 3.19914
# Velocity P-wave (km/s) = 4.26843 6.67949 5.60514
#
# Compressibility (1/GPa) = 0.04740013
#
# Stress axis : x y z
#
# Youngs Moduli (GPa) = 15.81192 53.69194 63.79957
#
# Poissons Ratio (x) = 0.89430 0.10719
# Poissons Ratio (y) = 0.26337 0.42968
# Poissons Ratio (z) = 0.02657 0.36161
#
# Static dielectric constant tensor:
#      x y z
#    x 1.758710 -0.007340 -0.017590 
#    y -0.007340 1.756830 -0.014240 
#    z -0.017590 -0.014240 1.709560 
# 
# From -- ./inp_files/311269.got.cif
#   From: 2010.05.17/outbox.cif.g08.bks.cpg/sg2_156_cif.got.tgz:311269.got - 2010.06.03 11:33:40.
