data_PCOD9048844
_publ_section_title
;
Structure prediction by ZEFSAII (Michael W. Deem and Ramdas Pophale) SiO2 
 PCOD9048844
Probable space group: P -1
;
_chemical_formula_sum "Si O2"
_cell_formula_units_Z 16
_cell_length_a 11.286065
_cell_length_b 11.380032
_cell_length_c 14.269906
_cell_angle_alpha 98.665966
_cell_angle_beta 149.321451
_cell_angle_gamma 60.970330
_cell_volume 655.478699
_symmetry_space_group_name_H-M "P -1"
_symmetry_group_IT_number 2
_symmetry_cell_setting 'triclinic'
loop_
_space_group_symop_operation_xyz
x,y,z
-x,-y,-z
loop_
_atom_site_type_symbol
_atom_site_label
_atom_site_fract_x
_atom_site_fract_y
_atom_site_fract_z
Si Si1 0.290784 0.890884 0.111124
Si Si2 0.730707 0.513673 0.370952
Si Si3 0.394982 0.020090 0.537745
Si Si4 0.499759 0.729864 0.657370
Si Si5 0.120498 0.111401 0.867827
Si Si6 0.610948 0.435026 0.672618
Si Si7 0.697597 0.329728 0.172990
Si Si8 0.625815 0.133144 0.216798
O O1 0.414778 0.711347 0.168446
O O2 0.508727 0.913675 0.312584
O O3 0.242595 0.947749 0.978882
O O4 0.000000 0.000000 0.000000
O O5 0.675861 0.506010 0.444412
O O6 0.757807 0.380318 0.317792
O O7 0.000000 0.500000 0.500000
O O8 0.008627 0.176426 0.306570
O O9 0.500000 0.000000 0.500000
O O10 0.536158 0.838058 0.635928
O O11 0.702940 0.534977 0.774104
O O12 0.548571 0.756945 0.797231
O O13 0.130477 0.821830 0.380878
O O14 0.905607 0.239707 0.826106
O O15 0.431821 0.082360 0.055805
O O16 0.500000 0.500000 0.500000
O O17 0.561735 0.252499 0.106747
O O18 0.500000 0.500000 0.000000
O O19 0.000000 0.000000 0.500000
#
# Coordination Sequence:
#
# PCOD9048844 Si02
#       8
#     2   2   2   2   2   2   2   2
#     4  12  24  45  75 110 152 196 261 310 383 468
#     4  12  26  46  76 107 153 202 246 319 389 450
#     4  12  27  48  75 109 153 203 252 325 386 467
#     4  11  24  46  76 105 144 193 254 310 386 454
#     4  11  25  44  76 108 146 198 253 317 377 464
#     4  10  24  45  73 111 149 195 259 318 380 466
#     4  12  29  49  71 113 156 197 257 323 390 465
#     4  12  25  50  72 105 150 193 256 315 382 456
#
# _framework density 24.409641000000001
#
# number of rings (size 3 to 8) (size 9 to 14) (size 15 to 20)
#    0.000    0.500    6.250    0.750    5.250    4.000 
#    0.000    0.000    0.000    0.000    0.000    0.000 
#    0.000    0.000    0.000    0.000    0.000    0.000 
#
# Total GULP energy -89103.441006 kJ/mol
# GULP energy per Si atom -5568.965063 kJ/mol
# Density = 2.435408 g / cm^3
# Si number density = 24.409641 Si / 1000 Ang^3
#
#
#
# Elastic Constant Matrix: (Units=GPa)
#
#
# Indices 1 2 3 4 5 6 
#
# 1 193.9850 37.8748 39.3549 -8.5069 -0.8879 7.1991
# 2 37.8748 92.6424 -3.0239 12.9045 1.0410 -1.3833
# 3 39.3549 -3.0239 49.6689 25.7839 1.7479 1.2069
# 4 -8.5069 12.9045 25.7839 37.0931 4.8771 -11.4787
# 5 -0.8879 1.0410 1.7479 4.8771 34.2111 -4.6453
# 6 7.1991 -1.3833 1.2069 -11.4787 -4.6453 53.0566
#
#
#
# Elastic Compliance Matrix: (Units=1/GPa)
#
#
# Indices 1 2 3 4 5 6 
#
# 1 0.011959 -0.008536 -0.021264 0.021623 -0.000987 0.003230
# 2 -0.008536 0.018169 0.020205 -0.023653 0.001042 -0.003854
# 3 -0.021264 0.020205 0.073226 -0.067064 0.002955 -0.012504
# 4 0.021623 -0.023653 -0.067064 0.093009 -0.006168 0.017557
# 5 -0.000987 0.001042 0.002955 -0.006168 0.030091 0.001394
# 6 0.003230 -0.003854 -0.012504 0.017557 0.001394 0.022514
#
#
# Mechanical properties :
#
#
# Convention : Reuss Voigt Hill
#
# Bulk Modulus (GPa) = 11.88149 53.85642 32.86896
# Shear Modulus (GPa) = 16.87978 42.34487 29.61232
#
# Velocity S-wave (km/s) = 2.63253 4.16956 3.48680
# Velocity P-wave (km/s) = 3.75745 6.72992 5.45024
#
# Compressibility (1/GPa) = 0.08416454
#
# Stress axis : x y z
#
# Youngs Moduli (GPa) = 83.61555 55.03895 13.65635
#
# Poissons Ratio (x) = 0.46982 0.29039
# Poissons Ratio (y) = 0.71375 -0.27593
# Poissons Ratio (z) = 1.77802 -1.11208
#
# Static dielectric constant tensor:
#      x y z
#    x 1.821020 -0.049460 0.055180 
#    y -0.049460 1.975180 0.027560 
#    z 0.055180 0.027560 2.247890 
# 
# From -- ./inp_files/519778.got.cif
#   From: 2010.05.17/outbox.cif.g08.bks.cpg/sg2_260_cif.got.tgz:519778.got - 2010.06.03 11:33:40.
