data_PCOD9048390
_publ_section_title
;
Structure prediction by ZEFSAII (Michael W. Deem and Ramdas Pophale) SiO2 
 PCOD9048390
Probable space group: P -1
;
_chemical_formula_sum "Si O2"
_cell_formula_units_Z 14
_cell_length_a 15.590787
_cell_length_b 8.472840
_cell_length_c 18.212808
_cell_angle_alpha 41.609293
_cell_angle_beta 158.869652
_cell_angle_gamma 138.643684
_cell_volume 561.525928
_symmetry_space_group_name_H-M "P -1"
_symmetry_group_IT_number 2
_symmetry_cell_setting 'triclinic'
loop_
_space_group_symop_operation_xyz
x,y,z
-x,-y,-z
loop_
_atom_site_type_symbol
_atom_site_label
_atom_site_fract_x
_atom_site_fract_y
_atom_site_fract_z
Si Si1 0.514714 0.680263 0.657058
Si Si2 0.690016 0.386478 0.648373
Si Si3 0.863931 0.212049 0.414722
Si Si4 0.075607 0.773531 0.374457
Si Si5 0.295778 0.988656 0.779879
Si Si6 0.826476 0.468368 0.073355
Si Si7 0.057707 0.999013 0.945266
O O1 0.400338 0.646319 0.496651
O O2 0.316384 0.758739 0.524334
O O3 0.587789 0.452840 0.837434
O O4 0.781297 0.859776 0.795058
O O5 0.500000 0.500000 0.500000
O O6 0.957074 0.561667 0.796549
O O7 0.752590 0.152947 0.820413
O O8 0.845792 0.144997 0.509011
O O9 0.660643 0.039269 0.261904
O O10 0.897544 0.504480 0.334521
O O11 0.112007 0.151909 0.601304
O O12 0.945745 0.948417 0.162319
O O13 0.162158 0.707115 0.789360
O O14 0.500000 0.000000 0.000000
O O15 0.880649 0.737582 0.058459
#
# Coordination Sequence:
#
# PCOD9048390 Si02
#       7
#     2   2   2   2   2   2   2
#     4  11  23  41  71 100 138 182 226 281 357 410
#     4  11  25  43  67 103 146 182 226 287 351 416
#     4  10  24  45  68 102 139 177 239 288 346 413
#     4  11  22  44  72 103 140 182 229 298 345 409
#     4  11  23  47  70  98 140 187 230 291 352 404
#     4  11  24  43  70 101 137 180 233 285 341 427
#     4  11  24  42  69 105 136 180 234 282 341 429
#
# _framework density 24.932065000000001
#
# number of rings (size 3 to 8) (size 9 to 14) (size 15 to 20)
#    0.000    1.143    2.857    3.000    2.000    5.714 
#    2.571    2.143    3.143    0.000    0.000    0.000 
#    0.000    0.000    0.000    0.000    0.000    0.000 
#
# Total GULP energy -78269.789780 kJ/mol
# GULP energy per Si atom -5590.699270 kJ/mol
# Density = 2.487532 g / cm^3
# Si number density = 24.932065 Si / 1000 Ang^3
#
#
#
# Elastic Constant Matrix: (Units=GPa)
#
#
# Indices 1 2 3 4 5 6 
#
# 1 191.3144 19.1337 70.2728 -5.1829 -40.1467 -26.8377
# 2 19.1337 20.2557 12.2078 -5.2458 -12.1188 -13.5045
# 3 70.2728 12.2078 151.2026 -11.8295 -24.5426 -14.3142
# 4 -5.1829 -5.2458 -11.8295 38.2558 3.8713 -10.8532
# 5 -40.1467 -12.1188 -24.5426 3.8713 54.3723 -4.0930
# 6 -26.8377 -13.5045 -14.3142 -10.8532 -4.0930 29.6639
#
#
#
# Elastic Compliance Matrix: (Units=1/GPa)
#
#
# Indices 1 2 3 4 5 6 
#
# 1 0.008841 0.007959 -0.001753 0.004794 0.008198 0.013662
# 2 0.007959 0.139839 0.004476 0.044277 0.043076 0.095166
# 3 -0.001753 0.004476 0.008699 0.004629 0.003818 0.006870
# 4 0.004794 0.044277 0.004629 0.045639 0.015680 0.045589
# 5 0.008198 0.043076 0.003818 0.015680 0.037649 0.039801
# 6 0.013662 0.095166 0.006870 0.045589 0.039801 0.114882
#
#
# Mechanical properties :
#
#
# Convention : Reuss Voigt Hill
#
# Bulk Modulus (GPa) = 5.59458 62.88905 34.24181
# Shear Modulus (GPa) = 12.69788 41.86895 27.28342
#
# Velocity S-wave (km/s) = 2.25921 4.10240 3.31163
# Velocity P-wave (km/s) = 3.00902 6.90786 5.32788
#
# Compressibility (1/GPa) = 0.17874451
#
# Stress axis : x y z
#
# Youngs Moduli (GPa) = 113.10300 7.15108 114.95533
#
# Poissons Ratio (x) = -0.05692 0.20148
# Poissons Ratio (y) = -0.90022 -0.51453
# Poissons Ratio (z) = 0.19824 -0.03201
#
# Static dielectric constant tensor:
#      x y z
#    x 1.962100 0.051500 -0.052720 
#    y 0.051500 2.218920 0.115650 
#    z -0.052720 0.115650 2.036900 
# 
# From -- ./inp_files/572850.got.cif
#   From: 2010.05.17/outbox.cif.g08.bks.cpg/sg2_287_cif.got.tgz:572850.got - 2010.06.03 11:33:40.
