data_PCOD9048704
_publ_section_title
;
Structure prediction by ZEFSAII (Michael W. Deem and Ramdas Pophale) SiO2 
 PCOD9048704
Probable space group: P -1
;
_chemical_formula_sum "Si O2"
_cell_formula_units_Z 12
_cell_length_a 14.528339
_cell_length_b 5.180733
_cell_length_c 9.416051
_cell_angle_alpha 55.606315
_cell_angle_beta 113.972312
_cell_angle_gamma 111.404870
_cell_volume 525.681651
_symmetry_space_group_name_H-M "P -1"
_symmetry_group_IT_number 2
_symmetry_cell_setting 'triclinic'
loop_
_space_group_symop_operation_xyz
x,y,z
-x,-y,-z
loop_
_atom_site_type_symbol
_atom_site_label
_atom_site_fract_x
_atom_site_fract_y
_atom_site_fract_z
Si Si1 0.083224 0.560895 0.656581
Si Si2 0.404926 0.237697 0.419509
Si Si3 0.049972 0.695183 0.100826
Si Si4 0.789249 0.808678 0.322355
Si Si5 0.443170 0.177763 0.785878
Si Si6 0.731464 0.298073 0.676634
O O1 0.151739 0.288263 0.749835
O O2 0.000000 0.500000 0.500000
O O3 0.001300 0.534479 0.737984
O O4 0.157302 0.891568 0.641497
O O5 0.430026 0.078874 0.637201
O O6 0.497449 0.462779 0.324170
O O7 0.329582 0.476906 0.343710
O O8 0.346183 0.993372 0.346175
O O9 0.171873 0.774458 0.154503
O O10 0.000000 0.500000 0.000000
O O11 0.000000 0.000000 0.000000
O O12 0.671142 0.842853 0.217932
O O13 0.780624 0.495353 0.510572
O O14 0.500000 0.000000 0.000000
#
# Coordination Sequence:
#
# PCOD9048704 Si02
#       6
#     2   2   2   2   2   2
#     4  12  25  44  72 100 134 182 239 283 341 429
#     4  10  24  45  72 100 136 193 229 289 358 422
#     4  12  27  42  66 103 142 179 229 294 354 413
#     4  11  24  42  73 101 132 187 237 282 352 417
#     4  10  24  45  71 106 146 179 241 296 353 419
#     4  11  23  45  70  95 141 184 232 281 357 423
#
# _framework density 22.827504000000001
#
# number of rings (size 3 to 8) (size 9 to 14) (size 15 to 20)
#    0.000    1.000    1.667    4.500    2.333   11.333 
#    0.000   13.333    0.000    0.000    0.000    0.000 
#    0.000    0.000    0.000    0.000    0.000    0.000 
#
# Total GULP energy -66874.133353 kJ/mol
# GULP energy per Si atom -5572.844446 kJ/mol
# Density = 2.277555 g / cm^3
# Si number density = 22.827504 Si / 1000 Ang^3
#
#
#
# Elastic Constant Matrix: (Units=GPa)
#
#
# Indices 1 2 3 4 5 6 
#
# 1 145.5237 37.7955 39.9813 16.9427 23.4490 2.8574
# 2 37.7955 115.3341 20.8192 18.7338 7.7670 -0.6555
# 3 39.9813 20.8192 98.3296 22.7876 13.7343 8.5955
# 4 16.9427 18.7338 22.7876 23.4002 -0.4665 -3.4084
# 5 23.4490 7.7670 13.7343 -0.4665 42.4836 4.8624
# 6 2.8574 -0.6555 8.5955 -3.4084 4.8624 47.0911
#
#
#
# Elastic Compliance Matrix: (Units=1/GPa)
#
#
# Indices 1 2 3 4 5 6 
#
# 1 0.008879 -0.001771 -0.001931 -0.003215 -0.003984 -0.000032
# 2 -0.001771 0.010480 0.000444 -0.007601 -0.001136 -0.000261
# 3 -0.001931 0.000444 0.014894 -0.014005 -0.003614 -0.003236
# 4 -0.003215 -0.007601 -0.014005 0.065904 0.007657 0.006625
# 5 -0.003984 -0.001136 -0.003614 0.007657 0.027356 -0.001385
# 6 -0.000032 -0.000261 -0.003236 0.006625 -0.001385 0.022447
#
#
# Mechanical properties :
#
#
# Convention : Reuss Voigt Hill
#
# Bulk Modulus (GPa) = 36.05143 61.81994 48.93569
# Shear Modulus (GPa) = 30.17097 39.96774 35.06936
#
# Velocity S-wave (km/s) = 3.63945 4.18887 3.92379
# Velocity P-wave (km/s) = 5.78689 7.10884 6.48165
#
# Compressibility (1/GPa) = 0.02773815
#
# Stress axis : x y z
#
# Youngs Moduli (GPa) = 112.62355 95.41713 67.13986
#
# Poissons Ratio (x) = 0.16897 0.12965
# Poissons Ratio (y) = 0.19944 -0.02981
# Poissons Ratio (z) = 0.21747 -0.04237
#
# Static dielectric constant tensor:
#      x y z
#    x 1.865320 -0.052410 0.015360 
#    y -0.052410 1.729810 -0.003580 
#    z 0.015360 -0.003580 1.935210 
# 
# From -- ./inp_files/287639.got.cif
#   From: 2010.05.17/outbox.cif.g08.bks.cpg/sg2_144_cif.got.tgz:287639.got - 2010.06.03 11:33:40.
