data_PCOD9048833
_publ_section_title
;
Structure prediction by ZEFSAII (Michael W. Deem and Ramdas Pophale) SiO2 
 PCOD9048833
Probable space group: P -1
;
_chemical_formula_sum "Si O2"
_cell_formula_units_Z 15
_cell_length_a 18.309680
_cell_length_b 6.552422
_cell_length_c 7.964190
_cell_angle_alpha 89.028664
_cell_angle_beta 45.197708
_cell_angle_gamma 99.774405
_cell_volume 655.247078
_symmetry_space_group_name_H-M "P -1"
_symmetry_group_IT_number 2
_symmetry_cell_setting 'triclinic'
loop_
_space_group_symop_operation_xyz
x,y,z
-x,-y,-z
loop_
_atom_site_type_symbol
_atom_site_label
_atom_site_fract_x
_atom_site_fract_y
_atom_site_fract_z
Si Si1 0.357957 0.522041 0.159419
Si Si2 0.527023 0.421702 0.674023
Si Si3 0.687104 0.815785 0.264689
Si Si4 0.500000 0.000000 0.500000
Si Si5 0.793026 0.868423 0.734086
Si Si6 0.023142 0.343216 0.602568
Si Si7 0.104170 0.955319 0.926642
Si Si8 0.833707 0.285123 0.466808
O O1 0.425775 0.588791 0.216226
O O2 0.288124 0.277701 0.266905
O O3 0.274548 0.663443 0.296627
O O4 0.432681 0.536400 0.873831
O O5 0.616163 0.581403 0.419540
O O6 0.495453 0.199816 0.632590
O O7 0.608955 0.968103 0.420086
O O8 0.794605 0.851216 0.201862
O O9 0.729717 0.862615 0.006840
O O10 0.886623 0.756846 0.614347
O O11 0.844843 0.097838 0.574242
O O12 0.076319 0.499216 0.664073
O O13 0.000000 0.500000 0.500000
O O14 0.933343 0.160837 0.835012
O O15 0.154983 0.803506 0.732849
O O16 0.000000 0.000000 0.000000
#
# Coordination Sequence:
#
# PCOD9048833 Si02
#       8
#     2   2   2   1   2   2   2   2
#     4  10  24  45  73 107 146 198 254 313 383 456
#     4  11  25  47  74 107 150 198 252 317 379 462
#     4  12  28  44  76 105 154 198 252 315 384 457
#     4  12  26  48  72 114 148 196 250 310 396 446
#     4  11  24  45  70 109 148 198 251 319 375 462
#     4  11  26  45  73 108 147 197 255 316 382 455
#     4  12  26  49  75 110 153 205 255 320 384 457
#     4  11  24  44  73 103 149 196 252 311 382 452
#
# _framework density 22.892129000000001
#
# number of rings (size 3 to 8) (size 9 to 14) (size 15 to 20)
#    0.000    0.800    2.667    3.200    5.600    4.267 
#    0.000    3.333    0.000    0.000    0.000    0.000 
#    0.000    0.000    0.000    0.000    0.000    0.000 
#
# Total GULP energy -83549.987635 kJ/mol
# GULP energy per Si atom -5569.999176 kJ/mol
# Density = 2.284003 g / cm^3
# Si number density = 22.892129 Si / 1000 Ang^3
#
#
#
# Elastic Constant Matrix: (Units=GPa)
#
#
# Indices 1 2 3 4 5 6 
#
# 1 95.2744 26.3569 24.2097 10.1471 -17.5982 6.7533
# 2 26.3569 80.9821 37.5147 20.4160 -21.4170 10.6172
# 3 24.2097 37.5147 116.1608 0.5359 -9.8080 4.1101
# 4 10.1471 20.4160 0.5359 33.9800 -0.7564 3.3686
# 5 -17.5982 -21.4170 -9.8080 -0.7564 31.2925 1.0884
# 6 6.7533 10.6172 4.1101 3.3686 1.0884 26.8596
#
#
#
# Elastic Compliance Matrix: (Units=1/GPa)
#
#
# Indices 1 2 3 4 5 6 
#
# 1 0.012782 -0.000530 -0.001859 -0.003073 0.006259 -0.002588
# 2 -0.000530 0.022837 -0.005825 -0.012480 0.013448 -0.006982
# 3 -0.001859 -0.005825 0.010698 0.003778 -0.001613 0.000724
# 4 -0.003073 -0.012480 0.003778 0.037528 -0.008204 0.000753
# 5 0.006259 0.013448 -0.001613 -0.008204 0.044234 -0.007406
# 6 -0.002588 -0.006982 0.000724 0.000753 -0.007406 0.040736
#
#
# Mechanical properties :
#
#
# Convention : Reuss Voigt Hill
#
# Bulk Modulus (GPa) = 33.45526 52.06443 42.75985
# Shear Modulus (GPa) = 25.61410 32.04883 28.83146
#
# Velocity S-wave (km/s) = 3.34863 3.74571 3.55272
# Velocity P-wave (km/s) = 5.44033 6.44204 5.96226
#
# Compressibility (1/GPa) = 0.02989066
#
# Stress axis : x y z
#
# Youngs Moduli (GPa) = 78.23712 43.78813 93.47464
#
# Poissons Ratio (x) = 0.02319 0.17374
# Poissons Ratio (y) = 0.04143 0.54448
# Poissons Ratio (z) = 0.14541 0.25506
#
# Static dielectric constant tensor:
#      x y z
#    x 1.971480 0.042420 -0.034130 
#    y 0.042420 1.845220 -0.046340 
#    z -0.034130 -0.046340 1.863890 
# 
# From -- ./inp_files/339785.got.cif
#   From: 2010.05.17/outbox.cif.g08.bks.cpg/sg2_170_cif.got.tgz:339785.got - 2010.06.03 11:33:40.
