data_PCOD9048943
_publ_section_title
;
Structure prediction by ZEFSAII (Michael W. Deem and Ramdas Pophale) SiO2 
 PCOD9048943
Probable space group: P -1
;
_chemical_formula_sum "Si O2"
_cell_formula_units_Z 15
_cell_length_a 4.898604
_cell_length_b 15.230951
_cell_length_c 8.740223
_cell_angle_alpha 61.211408
_cell_angle_beta 77.158751
_cell_angle_gamma 95.269837
_cell_volume 541.915887
_symmetry_space_group_name_H-M "P -1"
_symmetry_group_IT_number 2
_symmetry_cell_setting 'triclinic'
loop_
_space_group_symop_operation_xyz
x,y,z
-x,-y,-z
loop_
_atom_site_type_symbol
_atom_site_label
_atom_site_fract_x
_atom_site_fract_y
_atom_site_fract_z
Si Si1 0.079352 0.862909 0.452077
Si Si2 0.056390 0.404227 0.839203
Si Si3 0.046838 0.222188 0.152423
Si Si4 0.402024 0.754919 0.155493
Si Si5 0.458491 0.962380 0.714717
Si Si6 0.394984 0.470989 0.209066
Si Si7 0.436176 0.261099 0.524099
Si Si8 0.500000 0.000000 0.000000
O O1 0.890101 0.831520 0.653812
O O2 0.209098 0.985185 0.313483
O O3 0.333042 0.803864 0.500573
O O4 0.879799 0.813062 0.382202
O O5 0.890745 0.317965 0.813387
O O6 0.908789 0.499594 0.765695
O O7 0.994965 0.337374 0.061746
O O8 0.607861 0.545385 0.237529
O O9 0.758605 0.147367 0.185563
O O10 0.329472 0.235046 0.002574
O O11 0.472262 0.704613 0.346220
O O12 0.420337 0.874209 0.095201
O O13 0.335564 0.007241 0.844601
O O14 0.500000 0.000000 0.500000
O O15 0.409851 0.356267 0.342878
O O16 0.500000 0.500000 0.000000
#
# Coordination Sequence:
#
# PCOD9048943 Si02
#       8
#     2   2   2   2   2   2   2   1
#     4  11  26  49  77 113 157 205 267 330 389 486
#     4  12  25  48  77 112 157 205 266 315 411 471
#     4  11  25  49  77 113 161 206 263 325 409 473
#     4  12  29  48  81 117 161 216 258 334 406 485
#     4  10  24  45  76 116 152 211 266 329 397 487
#     4  12  26  49  80 116 152 211 266 335 398 477
#     4  12  28  49  78 115 156 205 269 325 400 473
#     4  12  24  50  76 114 164 206 272 320 406 476
#
# _framework density 27.679570999999999
#
# number of rings (size 3 to 8) (size 9 to 14) (size 15 to 20)
#    0.000    0.533    4.000    2.800    5.600    2.667 
#    0.000    4.667    0.000    0.000    0.000    0.000 
#    0.000    0.000    0.000    0.000    0.000    0.000 
#
# Total GULP energy -83640.515551 kJ/mol
# GULP energy per Si atom -5576.034370 kJ/mol
# Density = 2.761657 g / cm^3
# Si number density = 27.679571 Si / 1000 Ang^3
#
#
#
# Elastic Constant Matrix: (Units=GPa)
#
#
# Indices 1 2 3 4 5 6 
#
# 1 116.5934 44.1321 26.2891 -4.4058 11.9179 9.1885
# 2 44.1321 143.9797 29.6039 -8.3122 6.6197 15.4492
# 3 26.2891 29.6039 71.0152 -22.5044 6.0141 -10.0004
# 4 -4.4058 -8.3122 -22.5044 50.7873 -3.7357 12.3713
# 5 11.9179 6.6197 6.0141 -3.7357 38.4089 -2.7870
# 6 9.1885 15.4492 -10.0004 12.3713 -2.7870 60.0725
#
#
#
# Elastic Compliance Matrix: (Units=1/GPa)
#
#
# Indices 1 2 3 4 5 6 
#
# 1 0.010523 -0.002342 -0.003130 -0.000678 -0.002547 -0.001507
# 2 -0.002342 0.008560 -0.002851 0.000497 -0.000431 -0.002440
# 3 -0.003130 -0.002851 0.019103 0.006966 -0.000638 0.002928
# 4 -0.000678 0.000497 0.006966 0.023783 0.001078 -0.003712
# 5 -0.002547 -0.000431 -0.000638 0.001078 0.027209 0.001434
# 6 -0.001507 -0.002440 0.002928 -0.003712 0.001434 0.018823
#
#
# Mechanical properties :
#
#
# Convention : Reuss Voigt Hill
#
# Bulk Modulus (GPa) = 46.42839 59.07093 52.74966
# Shear Modulus (GPa) = 37.92877 45.29130 41.61004
#
# Velocity S-wave (km/s) = 3.70575 4.04947 3.88142
# Velocity P-wave (km/s) = 5.92621 6.57660 6.25986
#
# Compressibility (1/GPa) = 0.02153855
#
# Stress axis : x y z
#
# Youngs Moduli (GPa) = 95.03377 116.82494 52.34865
#
# Poissons Ratio (x) = 0.27361 0.16387
# Poissons Ratio (y) = 0.22258 0.14924
# Poissons Ratio (z) = 0.29749 0.33305
#
# Static dielectric constant tensor:
#      x y z
#    x 2.066220 -0.253500 0.128160 
#    y -0.253500 2.288820 0.112350 
#    z 0.128160 0.112350 2.219670 
# 
# From -- ./inp_files/134939.got.cif
#   From: 2010.05.17/outbox.cif.g08.bks.cpg/sg2_68_cif.got.tgz:134939.got - 2010.06.03 11:33:40.
