data_PCOD9048459
_publ_section_title
;
Structure prediction by ZEFSAII (Michael W. Deem and Ramdas Pophale) SiO2 
 PCOD9048459
Probable space group: P -1
;
_chemical_formula_sum "Si O2"
_cell_formula_units_Z 16
_cell_length_a 8.691352
_cell_length_b 11.454350
_cell_length_c 9.550370
_cell_angle_alpha 88.558570
_cell_angle_beta 100.285619
_cell_angle_gamma 47.107888
_cell_volume 671.039776
_symmetry_space_group_name_H-M "P -1"
_symmetry_group_IT_number 2
_symmetry_cell_setting 'triclinic'
loop_
_space_group_symop_operation_xyz
x,y,z
-x,-y,-z
loop_
_atom_site_type_symbol
_atom_site_label
_atom_site_fract_x
_atom_site_fract_y
_atom_site_fract_z
Si Si1 0.458890 0.643317 0.064378
Si Si2 0.424041 0.005937 0.138128
Si Si3 0.042975 0.997594 0.666918
Si Si4 0.594400 0.347015 0.618563
Si Si5 0.697268 0.712365 0.403812
Si Si6 0.980237 0.191666 0.126866
Si Si7 0.435369 0.260060 0.177985
Si Si8 0.064667 0.389807 0.286493
O O1 0.570820 0.684418 0.983448
O O2 0.202639 0.780281 0.989988
O O3 0.500000 0.500000 0.000000
O O4 0.487144 0.606713 0.234394
O O5 0.568279 0.856943 0.268439
O O6 0.193201 0.069751 0.073249
O O7 0.389623 0.148160 0.197755
O O8 0.500000 0.000000 0.000000
O O9 0.858251 0.192146 0.669396
O O10 0.976021 0.912136 0.731363
O O11 0.000000 0.000000 0.500000
O O12 0.307164 0.865513 0.736527
O O13 0.500000 0.500000 0.500000
O O14 0.471449 0.292332 0.554523
O O15 0.798948 0.727126 0.552213
O O16 0.876838 0.556180 0.338402
O O17 0.960766 0.336539 0.177659
O O18 0.214779 0.408977 0.225163
#
# Coordination Sequence:
#
# PCOD9048459 Si02
#       8
#     2   2   2   2   2   2   2   2
#     4  11  26  47  74 105 147 184 241 294 355 426
#     4  11  24  42  67  99 136 180 232 286 350 415
#     4  11  25  42  72 102 145 180 241 290 351 416
#     4  12  28  46  76 105 145 187 240 293 360 424
#     4  11  24  44  72 102 146 179 241 293 355 411
#     4  10  24  45  69 100 139 186 231 288 352 415
#     4  10  25  43  71 103 137 186 235 279 355 413
#     4  10  24  45  73 104 142 188 230 291 356 428
#
# _framework density 23.843592999999998
#
# number of rings (size 3 to 8) (size 9 to 14) (size 15 to 20)
#    0.000    1.250    1.250    2.250   10.500    4.000 
#    0.000    3.125    0.000    0.000    0.000    0.000 
#    0.000    0.000    0.000    0.000    0.000    0.000 
#
# Total GULP energy -89076.768301 kJ/mol
# GULP energy per Si atom -5567.298019 kJ/mol
# Density = 2.378932 g / cm^3
# Si number density = 23.843593 Si / 1000 Ang^3
#
#
#
# Elastic Constant Matrix: (Units=GPa)
#
#
# Indices 1 2 3 4 5 6 
#
# 1 100.0460 23.4699 22.5961 -6.8547 -30.5897 -17.4855
# 2 23.4699 60.4645 29.6409 -17.2821 -14.2729 -1.7214
# 3 22.5961 29.6409 114.3359 -10.0425 -35.1750 0.4136
# 4 -6.8547 -17.2821 -10.0425 37.7283 10.0346 -11.2487
# 5 -30.5897 -14.2729 -35.1750 10.0346 37.9029 10.1654
# 6 -17.4855 -1.7214 0.4136 -11.2487 10.1654 37.0381
#
#
#
# Elastic Compliance Matrix: (Units=1/GPa)
#
#
# Indices 1 2 3 4 5 6 
#
# 1 0.014420 -0.003800 0.001355 -0.000546 0.010664 0.003523
# 2 -0.003800 0.022858 -0.005145 0.010076 -0.002744 0.003139
# 3 0.001355 -0.005145 0.013915 -0.003644 0.014319 -0.004791
# 4 -0.000546 0.010076 -0.003644 0.038696 -0.014564 0.016001
# 5 0.010664 -0.002744 0.014319 -0.014564 0.055068 -0.014790
# 6 0.003523 0.003139 -0.004791 0.016001 -0.014790 0.037780
#
#
# Mechanical properties :
#
#
# Convention : Reuss Voigt Hill
#
# Bulk Modulus (GPa) = 27.76817 47.36224 37.56520
# Shear Modulus (GPa) = 23.81865 35.80981 29.81423
#
# Velocity S-wave (km/s) = 3.16405 3.87959 3.53995
# Velocity P-wave (km/s) = 5.00195 6.32259 5.70064
#
# Compressibility (1/GPa) = 0.03601246
#
# Stress axis : x y z
#
# Youngs Moduli (GPa) = 69.34967 43.74921 71.86628
#
# Poissons Ratio (x) = 0.16625 -0.09741
# Poissons Ratio (y) = 0.26353 0.36976
# Poissons Ratio (z) = -0.09400 0.22510
#
# Static dielectric constant tensor:
#      x y z
#    x 1.551130 0.627670 -0.015910 
#    y 0.627670 0.519580 0.149150 
#    z -0.015910 0.149150 1.859930 
# 
# From -- ./inp_files/186689.got.cif
#   From: 2010.05.17/outbox.cif.g08.bks.cpg/sg2_94_cif.got.tgz:186689.got - 2010.06.03 11:33:40.
