data_PCOD9048701
_publ_section_title
;
Structure prediction by ZEFSAII (Michael W. Deem and Ramdas Pophale) SiO2 
 PCOD9048701
Probable space group: P -1
;
_chemical_formula_sum "Si O2"
_cell_formula_units_Z 16
_cell_length_a 8.344508
_cell_length_b 15.524455
_cell_length_c 5.726473
_cell_angle_alpha 93.105400
_cell_angle_beta 74.730907
_cell_angle_gamma 101.469215
_cell_volume 701.351524
_symmetry_space_group_name_H-M "P -1"
_symmetry_group_IT_number 2
_symmetry_cell_setting 'triclinic'
loop_
_space_group_symop_operation_xyz
x,y,z
-x,-y,-z
loop_
_atom_site_type_symbol
_atom_site_label
_atom_site_fract_x
_atom_site_fract_y
_atom_site_fract_z
Si Si1 0.873001 0.406057 0.022417
Si Si2 0.860725 0.890146 0.861728
Si Si3 0.124483 0.287357 0.897783
Si Si4 0.423761 0.298356 0.486848
Si Si5 0.768108 0.033740 0.264010
Si Si6 0.626399 0.583417 0.853471
Si Si7 0.291788 0.571065 0.411876
Si Si8 0.549388 0.884557 0.644496
O O1 0.790581 0.403596 0.312651
O O2 0.783976 0.412199 0.806908
O O3 0.000000 0.500000 0.000000
O O4 0.948463 0.317926 0.951977
O O5 0.688086 0.865154 0.775855
O O6 0.052115 0.917522 0.687478
O O7 0.876617 0.806531 0.000572
O O8 0.822937 0.973734 0.031120
O O9 0.225396 0.284676 0.617935
O O10 0.230151 0.365083 0.028692
O O11 0.457746 0.342752 0.227443
O O12 0.522580 0.369396 0.636974
O O13 0.485697 0.207709 0.491090
O O14 0.633105 0.090888 0.227468
O O15 0.658770 0.966266 0.476122
O O16 0.704801 0.532539 0.606311
O O17 0.500000 0.500000 0.000000
#
# Coordination Sequence:
#
# PCOD9048701 Si02
#       8
#     2   2   2   2   2   2   2   2
#     4  12  27  46  68 103 147 191 247 305 373 428
#     4  11  23  46  70 104 144 184 242 298 380 441
#     4  12  26  43  70 102 141 190 240 307 364 445
#     4  12  26  44  70 103 141 187 250 298 362 446
#     4  10  24  45  71 106 136 189 239 299 380 449
#     4  12  24  45  72 100 141 193 247 296 364 433
#     4  12  27  46  70 103 143 197 245 303 362 441
#     4  11  23  45  73 103 145 185 240 303 368 446
#
# _framework density 22.813096000000002
#
# number of rings (size 3 to 8) (size 9 to 14) (size 15 to 20)
#    0.000    0.500    5.000    3.000    3.500    0.000 
#    0.000    1.250    0.000    0.000    0.000    0.000 
#    0.000    0.000    0.000    0.000    0.000    0.000 
#
# Total GULP energy -89243.397216 kJ/mol
# GULP energy per Si atom -5577.712326 kJ/mol
# Density = 2.276117 g / cm^3
# Si number density = 22.813096 Si / 1000 Ang^3
#
#
#
# Elastic Constant Matrix: (Units=GPa)
#
#
# Indices 1 2 3 4 5 6 
#
# 1 109.0651 25.5828 34.9647 -2.5319 -2.9168 -26.5859
# 2 25.5828 100.9251 21.3363 -4.0081 -14.6666 -26.9790
# 3 34.9647 21.3363 80.4765 -8.6414 -12.5245 -15.0773
# 4 -2.5319 -4.0081 -8.6414 34.4002 -6.3394 0.3859
# 5 -2.9168 -14.6666 -12.5245 -6.3394 41.0718 8.9343
# 6 -26.5859 -26.9790 -15.0773 0.3859 8.9343 39.7148
#
#
#
# Elastic Compliance Matrix: (Units=1/GPa)
#
#
# Indices 1 2 3 4 5 6 
#
# 1 0.012259 -0.000808 -0.004325 -0.000771 -0.002277 0.006536
# 2 -0.000808 0.012697 -0.001084 0.001597 0.002867 0.007013
# 3 -0.004325 -0.001084 0.016038 0.004412 0.004576 0.001385
# 4 -0.000771 0.001597 0.004412 0.031524 0.006630 0.000446
# 5 -0.002277 0.002867 0.004576 0.006630 0.028571 -0.004331
# 6 0.006536 0.007013 0.001385 0.000446 -0.004331 0.035814
#
#
# Mechanical properties :
#
#
# Convention : Reuss Voigt Hill
#
# Bulk Modulus (GPa) = 35.01262 50.47050 42.74156
# Shear Modulus (GPa) = 31.47511 36.94288 34.20899
#
# Velocity S-wave (km/s) = 3.71845 4.02851 3.87658
# Velocity P-wave (km/s) = 5.81522 6.61891 6.23004
#
# Compressibility (1/GPa) = 0.02856113
#
# Stress axis : x y z
#
# Youngs Moduli (GPa) = 81.57184 78.75949 62.35292
#
# Poissons Ratio (x) = 0.06361 0.26967
# Poissons Ratio (y) = 0.06588 0.06758
# Poissons Ratio (z) = 0.35279 0.08536
#
# Static dielectric constant tensor:
#      x y z
#    x 1.962760 0.019180 -0.063570 
#    y 0.019180 1.846630 -0.012780 
#    z -0.063570 -0.012780 1.963290 
# 
# From -- ./inp_files/38516.got.cif
#   From: 2010.05.17/outbox.cif.g08.bks.cpg/sg2_20_cif.got.tgz:38516.got - 2010.06.03 11:33:40.
