data_PCOD9048674
_publ_section_title
;
Structure prediction by ZEFSAII (Michael W. Deem and Ramdas Pophale) SiO2 
 PCOD9048674
Probable space group: P -1
;
_chemical_formula_sum "Si O2"
_cell_formula_units_Z 12
_cell_length_a 14.244537
_cell_length_b 12.394967
_cell_length_c 7.066763
_cell_angle_alpha 92.670697
_cell_angle_beta 62.452873
_cell_angle_gamma 146.424216
_cell_volume 442.372476
_symmetry_space_group_name_H-M "P -1"
_symmetry_group_IT_number 2
_symmetry_cell_setting 'triclinic'
loop_
_space_group_symop_operation_xyz
x,y,z
-x,-y,-z
loop_
_atom_site_type_symbol
_atom_site_label
_atom_site_fract_x
_atom_site_fract_y
_atom_site_fract_z
Si Si1 0.077994 0.181686 0.550332
Si Si2 0.425622 0.222376 0.846099
Si Si3 0.432869 0.868754 0.866817
Si Si4 0.258661 0.167961 0.613485
Si Si5 0.778375 0.159321 0.200295
Si Si6 0.208462 0.433750 0.004016
O O1 0.184059 0.221217 0.645536
O O2 0.000000 0.000000 0.500000
O O3 0.978932 0.135210 0.252821
O O4 0.817412 0.008434 0.803221
O O5 0.319609 0.202110 0.777402
O O6 0.681833 0.519307 0.715227
O O7 0.442712 0.124349 0.717108
O O8 0.222091 0.737656 0.925021
O O9 0.673015 0.078477 0.507027
O O10 0.314790 0.643019 0.019976
O O11 0.500000 0.000000 0.000000
O O12 0.527728 0.384993 0.276020
O O13 0.047502 0.341722 0.971698
#
# Coordination Sequence:
#
# PCOD9048674 Si02
#       6
#     2   2   2   2   2   2
#     4  12  26  42  66 103 138 172 228 283 337 402
#     4  11  22  44  68  94 134 183 222 273 342 408
#     4  11  24  44  73 105 139 179 232 290 348 410
#     4  11  23  42  73  94 130 184 227 270 334 415
#     4  10  24  45  71 102 139 185 231 282 348 418
#     4  11  21  45  69 100 136 177 231 280 338 411
#
# _framework density 27.126459000000001
#
# number of rings (size 3 to 8) (size 9 to 14) (size 15 to 20)
#    0.000    1.000    3.333    5.000    0.000    3.333 
#    0.000    0.000    3.667    0.000    0.000    0.000 
#    0.000    0.000    0.000    0.000    0.000    0.000 
#
# Total GULP energy -67188.276235 kJ/mol
# GULP energy per Si atom -5599.023020 kJ/mol
# Density = 2.706472 g / cm^3
# Si number density = 27.126459 Si / 1000 Ang^3
#
#
#
# Elastic Constant Matrix: (Units=GPa)
#
#
# Indices 1 2 3 4 5 6 
#
# 1 160.5479 30.4650 38.3776 -18.2523 16.1574 -11.1641
# 2 30.4650 173.9844 76.8197 -13.5328 -5.1966 -48.7148
# 3 38.3776 76.8197 152.5748 -19.3268 0.3623 -27.2383
# 4 -18.2523 -13.5328 -19.3268 50.2730 -5.3205 -1.0038
# 5 16.1574 -5.1966 0.3623 -5.3205 32.8483 6.6687
# 6 -11.1641 -48.7148 -27.2383 -1.0038 6.6687 58.9615
#
#
#
# Elastic Compliance Matrix: (Units=1/GPa)
#
#
# Indices 1 2 3 4 5 6 
#
# 1 0.007208 -0.000467 -0.001206 0.001673 -0.003507 0.000847
# 2 -0.000467 0.008988 -0.003224 0.001201 0.000706 0.005789
# 3 -0.001206 -0.003224 0.008987 0.002183 0.000076 0.001288
# 4 0.001673 0.001201 0.002183 0.021965 0.002409 0.002419
# 5 -0.003507 0.000706 0.000076 0.002409 0.033438 -0.003786
# 6 0.000847 0.005789 0.001288 0.002419 -0.003786 0.022968
#
#
# Mechanical properties :
#
#
# Convention : Reuss Voigt Hill
#
# Bulk Modulus (GPa) = 64.98492 86.49241 75.73867
# Shear Modulus (GPa) = 42.20196 51.17955 46.69075
#
# Velocity S-wave (km/s) = 3.94858 4.34833 4.15327
# Velocity P-wave (km/s) = 6.69303 7.56074 7.14008
#
# Compressibility (1/GPa) = 0.01538818
#
# Stress axis : x y z
#
# Youngs Moduli (GPa) = 138.74101 111.25477 111.26876
#
# Poissons Ratio (x) = 0.05195 0.13424
# Poissons Ratio (y) = 0.06478 0.35875
# Poissons Ratio (z) = 0.16738 0.35871
#
# Static dielectric constant tensor:
#      x y z
#    x 2.120640 0.030910 0.062600 
#    y 0.030910 2.291030 0.075830 
#    z 0.062600 0.075830 2.147950 
# 
# From -- ./inp_files/32333.got.cif
#   From: 2010.05.17/outbox.cif.g08.bks.cpg/sg2_17_cif.got.tgz:32333.got - 2010.06.03 11:33:40.
