data_PCOD9048529
_publ_section_title
;
Structure prediction by ZEFSAII (Michael W. Deem and Ramdas Pophale) SiO2 
 PCOD9048529
Probable space group: P -1
;
_chemical_formula_sum "Si O2"
_cell_formula_units_Z 16
_cell_length_a 20.200837
_cell_length_b 10.014704
_cell_length_c 8.822488
_cell_angle_alpha 87.690084
_cell_angle_beta 90.202218
_cell_angle_gamma 153.717980
_cell_volume 787.517750
_symmetry_space_group_name_H-M "P -1"
_symmetry_group_IT_number 2
_symmetry_cell_setting 'triclinic'
loop_
_space_group_symop_operation_xyz
x,y,z
-x,-y,-z
loop_
_atom_site_type_symbol
_atom_site_label
_atom_site_fract_x
_atom_site_fract_y
_atom_site_fract_z
Si Si1 0.190544 0.879092 0.150532
Si Si2 0.423551 0.099142 0.288614
Si Si3 0.763621 0.749955 0.205881
Si Si4 0.089923 0.229586 0.627849
Si Si5 0.673556 0.116741 0.378378
Si Si6 0.556640 0.150898 0.829586
Si Si7 0.177854 0.161164 0.143981
Si Si8 0.841199 0.183972 0.206235
O O1 0.017061 0.534795 0.199859
O O2 0.298696 0.972370 0.230263
O O3 0.221323 0.087744 0.187475
O O4 0.207166 0.896090 0.967655
O O5 0.584299 0.427035 0.204176
O O6 0.426812 0.108546 0.469914
O O7 0.390280 0.886769 0.251728
O O8 0.808405 0.703963 0.306273
O O9 0.814093 0.982416 0.264706
O O10 0.840456 0.873340 0.036525
O O11 0.196613 0.547892 0.576809
O O12 0.000000 0.000000 0.500000
O O13 0.971424 0.065883 0.759717
O O14 0.749139 0.125215 0.302342
O O15 0.575885 0.020206 0.258998
O O16 0.690673 0.498230 0.831472
O O17 0.500000 0.000000 0.000000
#
# Coordination Sequence:
#
# PCOD9048529 Si02
#       8
#     2   2   2   2   2   2   2   2
#     4  10  24  45  69  97 133 176 228 274 329 391
#     4  12  26  43  65 100 142 174 215 276 340 401
#     4  11  26  44  68 101 134 175 226 274 332 397
#     4  12  26  45  68  98 135 178 222 280 335 393
#     4  12  26  45  67  99 140 174 221 276 335 404
#     4  12  24  44  71 101 132 177 222 275 331 395
#     4  11  24  45  72  98 130 177 228 277 324 396
#     4  10  24  45  69  97 130 178 229 277 321 395
#
# _framework density 20.317001999999999
#
# number of rings (size 3 to 8) (size 9 to 14) (size 15 to 20)
#    0.000    0.750    3.750    2.250    7.000    3.000 
#    0.000    0.000    0.000    0.000    0.000    0.000 
#    0.000    0.000    0.000    0.000    0.000    0.000 
#
# Total GULP energy -89532.051665 kJ/mol
# GULP energy per Si atom -5595.753229 kJ/mol
# Density = 2.027076 g / cm^3
# Si number density = 20.317002 Si / 1000 Ang^3
#
#
#
# Elastic Constant Matrix: (Units=GPa)
#
#
# Indices 1 2 3 4 5 6 
#
# 1 128.9548 8.8966 24.9971 -4.5325 -21.0671 -7.2107
# 2 8.8966 47.3731 -22.1726 -12.0508 9.9624 -24.0162
# 3 24.9971 -22.1726 44.1407 -16.2185 20.3533 6.1836
# 4 -4.5325 -12.0508 -16.2185 21.0783 5.1767 -1.8345
# 5 -21.0671 9.9624 20.3533 5.1767 -58.9797 37.0015
# 6 -7.2107 -24.0162 6.1836 -1.8345 37.0015 30.9250
#
#
#
# Elastic Compliance Matrix: (Units=1/GPa)
#
#
# Indices 1 2 3 4 5 6 
#
# 1 0.008918 -0.002678 -0.006998 -0.003768 -0.003225 0.005034
# 2 -0.002678 0.038925 0.024367 0.035590 0.020510 0.002304
# 3 -0.006998 0.024367 0.047766 0.043408 0.019068 -0.012499
# 4 -0.003768 0.035590 0.043408 0.093375 0.025906 -0.007376
# 5 -0.003225 0.020510 0.019068 0.025906 0.002632 0.009750
# 6 0.005034 0.002304 -0.012499 -0.007376 0.009750 0.025695
#
#
# Mechanical properties :
#
#
# Convention : Reuss Voigt Hill
#
# Bulk Modulus (GPa) = 8.00071 27.10119 17.55095
# Shear Modulus (GPa) = 21.77748 12.52121 17.14935
#
# Velocity S-wave (km/s) = 3.27752 2.48522 2.90847
# Velocity P-wave (km/s) = 4.27426 4.64792 4.46500
#
# Compressibility (1/GPa) = 0.12498891
#
# Stress axis : x y z
#
# Youngs Moduli (GPa) = 112.13073 25.69039 20.93542
#
# Poissons Ratio (x) = 0.06881 0.14651
# Poissons Ratio (y) = 0.30033 -0.51012
# Poissons Ratio (z) = 0.78473 -0.62599
#
# Static dielectric constant tensor:
#      x y z
#    x 1.673930 -0.013380 -0.006270 
#    y -0.013380 1.706710 -0.001890 
#    z -0.006270 -0.001890 1.727630 
# 
# From -- ./inp_files/186700.got.cif
#   From: 2010.05.17/outbox.cif.g08.bks.cpg/sg2_94_cif.got.tgz:186700.got - 2010.06.03 11:33:40.
