data_PCOD9048500
_publ_section_title
;
Structure prediction by ZEFSAII (Michael W. Deem and Ramdas Pophale) SiO2 
 PCOD9048500
Probable space group: P -1
;
_chemical_formula_sum "Si O2"
_cell_formula_units_Z 15
_cell_length_a 14.179121
_cell_length_b 15.603698
_cell_length_c 11.048465
_cell_angle_alpha 33.107618
_cell_angle_beta 120.712754
_cell_angle_gamma 145.039219
_cell_volume 633.069096
_symmetry_space_group_name_H-M "P -1"
_symmetry_group_IT_number 2
_symmetry_cell_setting 'triclinic'
loop_
_space_group_symop_operation_xyz
x,y,z
-x,-y,-z
loop_
_atom_site_type_symbol
_atom_site_label
_atom_site_fract_x
_atom_site_fract_y
_atom_site_fract_z
Si Si1 0.500000 0.500000 0.500000
Si Si2 0.865664 0.977796 0.992543
Si Si3 0.664441 0.182747 0.688248
Si Si4 0.532937 0.738894 0.600360
Si Si5 0.964266 0.295446 0.147135
Si Si6 0.016858 0.416689 0.760001
Si Si7 0.393794 0.218674 0.135811
Si Si8 0.324134 0.538680 0.176116
O O1 0.656208 0.681588 0.268438
O O2 0.340978 0.407969 0.424697
O O3 0.808699 0.020747 0.790645
O O4 0.965135 0.203229 0.895067
O O5 0.000000 0.000000 0.000000
O O6 0.597664 0.283517 0.523719
O O7 0.833911 0.319077 0.728454
O O8 0.769610 0.283304 0.508579
O O9 0.468947 0.842004 0.974080
O O10 0.602887 0.863158 0.636546
O O11 0.736257 0.970937 0.385250
O O12 0.426499 0.446605 0.896813
O O13 0.103747 0.335784 0.254981
O O14 0.024690 0.389121 0.937423
O O15 0.000000 0.500000 0.000000
O O16 0.575372 0.372034 0.993273
#
# Coordination Sequence:
#
# PCOD9048500 Si02
#       8
#     1   2   2   2   2   2   2   2
#     4  10  24  46  72 108 154 190 242 310 378 438
#     4  11  24  46  76 108 148 200 245 307 384 447
#     4  11  23  48  74 100 144 194 251 310 366 451
#     4  11  25  44  72 109 143 192 252 302 374 457
#     4  12  28  46  72 110 148 196 249 312 379 441
#     4  11  26  46  72 110 144 193 254 306 374 454
#     4  10  24  45  69 105 146 192 244 303 377 442
#     4  11  24  48  72 102 147 197 238 314 376 439
#
# _framework density 23.694095999999998
#
# number of rings (size 3 to 8) (size 9 to 14) (size 15 to 20)
#    0.000    1.067    4.000    1.600    7.467    3.200 
#    4.800    0.000    0.000    0.000    0.000    0.000 
#    0.000    0.000    0.000    0.000    0.000    0.000 
#
# Total GULP energy -83634.906087 kJ/mol
# GULP energy per Si atom -5575.660406 kJ/mol
# Density = 2.364017 g / cm^3
# Si number density = 23.694096 Si / 1000 Ang^3
#
#
#
# Elastic Constant Matrix: (Units=GPa)
#
#
# Indices 1 2 3 4 5 6 
#
# 1 87.7042 55.8675 3.8880 2.5575 29.5299 25.8457
# 2 55.8675 105.0946 28.2276 15.0316 4.0058 27.5591
# 3 3.8880 28.2276 26.9511 1.3112 -4.8959 1.5082
# 4 2.5575 15.0316 1.3112 37.2933 -1.5459 -0.8517
# 5 29.5299 4.0058 -4.8959 -1.5459 23.6910 2.2637
# 6 25.8457 27.5591 1.5082 -0.8517 2.2637 60.9589
#
#
#
# Elastic Compliance Matrix: (Units=1/GPa)
#
#
# Indices 1 2 3 4 5 6 
#
# 1 0.042516 -0.021894 0.008513 0.003525 -0.046677 -0.006556
# 2 -0.021894 0.029155 -0.023578 -0.008797 0.017303 -0.004080
# 3 0.008513 -0.023578 0.060997 0.007145 0.005929 0.005421
# 4 0.003525 -0.008797 0.007145 0.029940 0.000265 0.002714
# 5 -0.046677 0.017303 0.005929 0.000265 0.097925 0.008188
# 6 -0.006556 -0.004080 0.005421 0.002714 0.008188 0.020629
#
#
# Mechanical properties :
#
#
# Convention : Reuss Voigt Hill
#
# Bulk Modulus (GPa) = 17.02085 43.96845 30.49465
# Shear Modulus (GPa) = 13.34529 33.17311 23.25920
#
# Velocity S-wave (km/s) = 2.37583 3.74579 3.13652
# Velocity P-wave (km/s) = 3.83735 6.10778 5.10050
#
# Compressibility (1/GPa) = 0.05875149
#
# Stress axis : x y z
#
# Youngs Moduli (GPa) = 23.52055 34.29894 16.39417
#
# Poissons Ratio (x) = 0.75093 -0.13957
# Poissons Ratio (y) = 0.51495 0.38655
# Poissons Ratio (z) = -0.20024 0.80871
#
# Static dielectric constant tensor:
#      x y z
#    x 1.962660 -0.075850 0.082870 
#    y -0.075850 1.922580 -0.067000 
#    z 0.082870 -0.067000 1.926380 
# 
# From -- ./inp_files/456917.got.cif
#   From: 2010.05.17/outbox.cif.g08.bks.cpg/sg2_229_cif.got.tgz:456917.got - 2010.06.03 11:33:40.
