data_PCOD9048522
_publ_section_title
;
Structure prediction by ZEFSAII (Michael W. Deem and Ramdas Pophale) SiO2 
 PCOD9048522
Probable space group: P -1
;
_chemical_formula_sum "Si O2"
_cell_formula_units_Z 16
_cell_length_a 15.649926
_cell_length_b 9.578151
_cell_length_c 15.435917
_cell_angle_alpha 91.326247
_cell_angle_beta 151.398330
_cell_angle_gamma 69.804768
_cell_volume 813.090681
_symmetry_space_group_name_H-M "P -1"
_symmetry_group_IT_number 2
_symmetry_cell_setting 'triclinic'
loop_
_space_group_symop_operation_xyz
x,y,z
-x,-y,-z
loop_
_atom_site_type_symbol
_atom_site_label
_atom_site_fract_x
_atom_site_fract_y
_atom_site_fract_z
Si Si1 0.866298 0.888815 0.461483
Si Si2 0.942532 0.889078 0.726723
Si Si3 0.630282 0.282403 0.177126
Si Si4 0.756243 0.789478 0.709040
Si Si5 0.719998 0.672775 0.276830
Si Si6 0.367121 0.666961 0.514128
Si Si7 0.499575 0.422614 0.796344
Si Si8 0.813705 0.452774 0.785799
O O1 0.711737 0.843845 0.283552
O O2 0.891921 0.854983 0.586079
O O3 0.135385 0.765034 0.657484
O O4 0.734908 0.104241 0.327751
O O5 0.883984 0.809384 0.747910
O O6 0.228015 0.772365 0.983239
O O7 0.775494 0.114325 0.592953
O O8 0.495686 0.465655 0.120185
O O9 0.459959 0.297735 0.954725
O O10 0.749477 0.628475 0.679446
O O11 0.500000 0.000000 0.500000
O O12 0.917104 0.701520 0.938463
O O13 0.655646 0.624156 0.306647
O O14 0.000000 0.500000 0.500000
O O15 0.388840 0.560827 0.617325
O O16 0.634449 0.550578 0.710618
O O17 0.235968 0.650919 0.321148
#
# Coordination Sequence:
#
# PCOD9048522 Si02
#       8
#     2   2   2   2   2   2   2   2
#     4  11  24  43  70 100 135 179 230 282 336 403
#     4  12  24  43  67  99 136 178 225 278 340 400
#     4  11  23  46  70  93 141 182 222 285 342 396
#     4  11  23  43  69  99 135 175 219 277 340 404
#     4  12  24  42  66  99 133 184 233 271 340 406
#     4  11  24  45  67  99 130 174 225 281 338 401
#     4  12  24  44  67  98 139 180 225 281 340 400
#     4  10  24  45  69  96 133 173 224 277 342 405
#
# _framework density 19.678001999999999
#
# number of rings (size 3 to 8) (size 9 to 14) (size 15 to 20)
#    0.000    0.750    6.250    1.500    1.750    1.500 
#    2.250    0.000    0.000    0.000    0.000    0.000 
#    0.000    0.000    0.000    0.000    0.000    0.000 
#
# Total GULP energy -89398.941858 kJ/mol
# GULP energy per Si atom -5587.433866 kJ/mol
# Density = 1.963321 g / cm^3
# Si number density = 19.678002 Si / 1000 Ang^3
#
#
#
# Elastic Constant Matrix: (Units=GPa)
#
#
# Indices 1 2 3 4 5 6 
#
# 1 113.3739 27.6426 30.4285 1.3521 5.9500 18.4713
# 2 27.6426 77.1600 21.5478 1.2254 8.0410 4.0033
# 3 30.4285 21.5478 71.4429 -9.9915 8.4015 5.6056
# 4 1.3521 1.2254 -9.9915 29.2525 7.1726 3.5977
# 5 5.9500 8.0410 8.4015 7.1726 29.5193 -2.1120
# 6 18.4713 4.0033 5.6056 3.5977 -2.1120 31.1562
#
#
#
# Elastic Compliance Matrix: (Units=1/GPa)
#
#
# Indices 1 2 3 4 5 6 
#
# 1 0.011435 -0.002695 -0.003623 -0.000758 -0.000767 -0.005746
# 2 -0.002695 0.015098 -0.003298 -0.001084 -0.002352 0.000217
# 3 -0.003623 -0.003298 0.018552 0.008332 -0.005828 -0.002124
# 4 -0.000758 -0.001084 0.008332 0.040931 -0.012332 -0.006473
# 5 -0.000767 -0.002352 -0.005828 -0.012332 0.039750 0.005924
# 6 -0.005746 0.000217 -0.002124 -0.006473 0.005924 0.037006
#
#
# Mechanical properties :
#
#
# Convention : Reuss Voigt Hill
#
# Bulk Modulus (GPa) = 38.67886 46.80163 42.74025
# Shear Modulus (GPa) = 26.23001 30.14278 28.18640
#
# Velocity S-wave (km/s) = 3.65494 3.91807 3.78879
# Velocity P-wave (km/s) = 6.12454 6.65610 6.39585
#
# Compressibility (1/GPa) = 0.02585392
#
# Stress axis : x y z
#
# Youngs Moduli (GPa) = 87.44983 66.23588 53.90224
#
# Poissons Ratio (x) = 0.17850 0.19527
# Poissons Ratio (y) = 0.23567 0.17776
# Poissons Ratio (z) = 0.31680 0.21844
#
# Static dielectric constant tensor:
#      x y z
#    x 1.682370 0.007570 0.002370 
#    y 0.007570 1.687570 0.010040 
#    z 0.002370 0.010040 1.694470 
# 
# From -- ./inp_files/529818.got.cif
#   From: 2010.05.17/outbox.cif.g08.bks.cpg/sg2_265_cif.got.tgz:529818.got - 2010.06.03 11:33:40.
