data_PCOD9048960
_publ_section_title
;
Structure prediction by ZEFSAII (Michael W. Deem and Ramdas Pophale) SiO2 
 PCOD9048960
Probable space group: P -1
;
_chemical_formula_sum "Si O2"
_cell_formula_units_Z 16
_cell_length_a 16.882634
_cell_length_b 9.656917
_cell_length_c 5.904478
_cell_angle_alpha 82.735278
_cell_angle_beta 90.166608
_cell_angle_gamma 130.488426
_cell_volume 722.227450
_symmetry_space_group_name_H-M "P -1"
_symmetry_group_IT_number 2
_symmetry_cell_setting 'triclinic'
loop_
_space_group_symop_operation_xyz
x,y,z
-x,-y,-z
loop_
_atom_site_type_symbol
_atom_site_label
_atom_site_fract_x
_atom_site_fract_y
_atom_site_fract_z
Si Si1 0.726417 0.258539 0.847354
Si Si2 0.719832 0.998876 0.188661
Si Si3 0.636633 0.372653 0.142888
Si Si4 0.378085 0.342408 0.068442
Si Si5 0.779986 0.850398 0.552007
Si Si6 0.984212 0.059229 0.742023
Si Si7 0.184783 0.427137 0.546106
Si Si8 0.432462 0.058702 0.433035
O O1 0.807573 0.456373 0.685527
O O2 0.660993 0.093234 0.701485
O O3 0.643759 0.266605 0.968014
O O4 0.770023 0.192888 0.033234
O O5 0.796467 0.991483 0.341655
O O6 0.622595 0.944486 0.346333
O O7 0.669003 0.832834 0.047735
O O8 0.722943 0.423731 0.314044
O O9 0.521503 0.253247 0.272607
O O10 0.670241 0.562678 0.015565
O O11 0.337950 0.267627 0.335547
O O12 0.500000 0.500000 0.000000
O O13 0.788071 0.701950 0.492975
O O14 0.863628 0.963684 0.731700
O O15 0.070648 0.280683 0.686004
O O16 0.000000 0.000000 0.500000
O O17 0.000000 0.000000 0.000000
O O18 0.500000 0.000000 0.500000
#
# Coordination Sequence:
#
# PCOD9048960 Si02
#       8
#     2   2   2   2   2   2   2   2
#     4  12  24  43  66  96 142 185 238 287 359 433
#     4  12  26  43  65  99 145 190 235 294 369 429
#     4  12  23  40  68  97 137 182 241 294 351 430
#     4  12  26  39  67 102 141 183 235 298 363 429
#     4  11  24  45  68 103 145 183 233 305 363 429
#     4  10  24  45  77 110 144 188 243 303 370 436
#     4  11  23  42  72 105 132 184 242 295 356 435
#     4  12  25  41  63  96 140 197 240 287 356 435
#
# _framework density 22.153684999999999
#
# number of rings (size 3 to 8) (size 9 to 14) (size 15 to 20)
#    0.000    0.500    5.000    3.375    7.000    1.000 
#    0.000    0.625    0.000    5.250    0.000    0.000 
#    0.000    0.000    0.000    0.000    0.000    0.000 
#
# Total GULP energy -89351.264638 kJ/mol
# GULP energy per Si atom -5584.454040 kJ/mol
# Density = 2.210326 g / cm^3
# Si number density = 22.153685 Si / 1000 Ang^3
#
#
#
# Elastic Constant Matrix: (Units=GPa)
#
#
# Indices 1 2 3 4 5 6 
#
# 1 51.5079 34.0538 22.9880 -12.3947 13.9899 -8.6049
# 2 34.0538 90.4424 37.7446 -33.1779 7.8459 -11.8855
# 3 22.9880 37.7446 79.5700 -29.5091 15.5525 -16.7759
# 4 -12.3947 -33.1779 -29.5091 50.2528 -15.9317 2.1360
# 5 13.9899 7.8459 15.5525 -15.9317 44.4254 -9.0319
# 6 -8.6049 -11.8855 -16.7759 2.1360 -9.0319 50.1758
#
#
#
# Elastic Compliance Matrix: (Units=1/GPa)
#
#
# Indices 1 2 3 4 5 6 
#
# 1 0.028799 -0.010205 -0.003485 -0.004055 -0.007463 0.000186
# 2 -0.010205 0.019834 -0.003150 0.010197 0.004948 0.002352
# 3 -0.003485 -0.003150 0.019124 0.007662 -0.001384 0.004475
# 4 -0.004055 0.010197 0.007662 0.032963 0.009549 0.004597
# 5 -0.007463 0.004948 -0.001384 0.009549 0.028748 0.004198
# 6 0.000186 0.002352 0.004475 0.004597 0.004198 0.022575
#
#
# Mechanical properties :
#
#
# Convention : Reuss Voigt Hill
#
# Bulk Modulus (GPa) = 29.34529 45.67703 37.51116
# Shear Modulus (GPa) = 25.37020 37.41973 31.39497
#
# Velocity S-wave (km/s) = 3.38774 4.11432 3.76858
# Velocity P-wave (km/s) = 5.34578 6.57520 5.99210
#
# Compressibility (1/GPa) = 0.03407702
#
# Stress axis : x y z
#
# Youngs Moduli (GPa) = 34.72357 50.41821 52.29042
#
# Poissons Ratio (x) = 0.51449 0.18225
# Poissons Ratio (y) = 0.35434 0.16472
# Poissons Ratio (z) = 0.12102 0.15882
#
# Static dielectric constant tensor:
#      x y z
#    x 1.853790 -0.025520 0.011090 
#    y -0.025520 1.821740 -0.051380 
#    z 0.011090 -0.051380 1.936950 
# 
# From -- ./inp_files/106946.got.cif
#   From: 2010.05.17/outbox.cif.g08.bks.cpg/sg2_54_cif.got.tgz:106946.got - 2010.06.03 11:33:40.
