data_PCOD9048238
_publ_section_title
;
Structure prediction by ZEFSAII (Michael W. Deem and Ramdas Pophale) SiO2 
 PCOD9048238
Probable space group: P -1
;
_chemical_formula_sum "Si O2"
_cell_formula_units_Z 15
_cell_length_a 5.630832
_cell_length_b 14.895810
_cell_length_c 17.544912
_cell_angle_alpha 149.386664
_cell_angle_beta 119.442291
_cell_angle_gamma 53.094004
_cell_volume 598.079928
_symmetry_space_group_name_H-M "P -1"
_symmetry_group_IT_number 2
_symmetry_cell_setting 'triclinic'
loop_
_space_group_symop_operation_xyz
x,y,z
-x,-y,-z
loop_
_atom_site_type_symbol
_atom_site_label
_atom_site_fract_x
_atom_site_fract_y
_atom_site_fract_z
Si Si1 0.500000 0.500000 0.500000
Si Si2 0.143479 0.061265 0.994435
Si Si3 0.019377 0.516175 0.683039
Si Si4 0.560738 0.138104 0.671585
Si Si5 0.300109 0.494433 0.082550
Si Si6 0.458987 0.774325 0.551694
Si Si7 0.941424 0.321668 0.680349
Si Si8 0.262535 0.931768 0.193691
O O1 0.414390 0.669073 0.542408
O O2 0.709986 0.585196 0.639715
O O3 0.978297 0.290094 0.142081
O O4 0.025347 0.995182 0.851354
O O5 0.500000 0.000000 0.000000
O O6 0.000000 0.000000 0.000000
O O7 0.258021 0.390267 0.566626
O O8 0.042456 0.391347 0.670543
O O9 0.646020 0.312340 0.785893
O O10 0.781699 0.029581 0.694810
O O11 0.219290 0.233725 0.716195
O O12 0.500000 0.000000 0.500000
O O13 0.279013 0.499820 0.175283
O O14 0.564073 0.298015 0.954049
O O15 0.000000 0.500000 0.000000
O O16 0.210296 0.814980 0.475862
O O17 0.533588 0.955427 0.715228
#
# Coordination Sequence:
#
# PCOD9048238 Si02
#       8
#     1   2   2   2   2   2   2   2
#     4  10  24  44  80 104 150 200 270 326 404 474
#     4  12  31  51  79 118 162 210 277 345 420 496
#     4  11  25  47  75 105 155 202 264 329 407 483
#     4  12  27  48  75 113 156 204 264 329 406 505
#     4  12  27  46  77 112 159 206 263 333 411 493
#     4  11  25  47  77 113 150 210 267 335 407 488
#     4  11  24  46  72 107 150 207 252 327 401 488
#     4  12  27  49  78 116 156 208 273 334 421 489
#
# _framework density 25.080259000000002
#
# number of rings (size 3 to 8) (size 9 to 14) (size 15 to 20)
#    0.000    0.533    1.333    5.600   11.200    1.067 
#    0.000    0.000    0.000    0.000    0.000    0.000 
#    0.000    0.000    0.000    0.000    0.000    0.000 
#
# Total GULP energy -83644.511058 kJ/mol
# GULP energy per Si atom -5576.300737 kJ/mol
# Density = 2.502317 g / cm^3
# Si number density = 25.080259 Si / 1000 Ang^3
#
#
#
# Elastic Constant Matrix: (Units=GPa)
#
#
# Indices 1 2 3 4 5 6 
#
# 1 76.6011 54.7378 60.1409 -7.2189 9.3578 -6.9194
# 2 54.7378 129.8625 54.5989 -38.1897 15.5947 -4.4717
# 3 60.1409 54.5989 150.4151 -22.7798 19.9095 -3.0115
# 4 -7.2189 -38.1897 -22.7798 63.4148 -5.2857 12.5117
# 5 9.3578 15.5947 19.9095 -5.2857 54.4803 -8.7890
# 6 -6.9194 -4.4717 -3.0115 12.5117 -8.7890 23.9637
#
#
#
# Elastic Compliance Matrix: (Units=1/GPa)
#
#
# Indices 1 2 3 4 5 6 
#
# 1 0.026427 -0.009825 -0.008230 -0.007561 0.002075 0.009472
# 2 -0.009825 0.014359 0.000231 0.008483 -0.002571 -0.005501
# 3 -0.008230 0.000231 0.010695 0.003577 -0.002843 -0.003899
# 4 -0.007561 0.008483 0.003577 0.023753 -0.002293 -0.013393
# 5 0.002075 -0.002571 -0.002843 -0.002293 0.020945 0.008641
# 6 0.009472 -0.005501 -0.003899 -0.013393 0.008641 0.053110
#
#
# Mechanical properties :
#
#
# Convention : Reuss Voigt Hill
#
# Bulk Modulus (GPa) = 63.16222 77.31487 70.23855
# Shear Modulus (GPa) = 26.28623 40.86516 33.57570
#
# Velocity S-wave (km/s) = 3.24093 4.04093 3.66284
# Velocity P-wave (km/s) = 6.26446 7.25714 6.77900
#
# Compressibility (1/GPa) = 0.01583225
#
# Stress axis : x y z
#
# Youngs Moduli (GPa) = 37.84072 69.64499 93.50401
#
# Poissons Ratio (x) = 0.68429 0.76952
# Poissons Ratio (y) = 0.37180 -0.02164
# Poissons Ratio (z) = 0.31142 -0.01612
#
# Static dielectric constant tensor:
#      x y z
#    x 2.182430 -0.111510 0.024430 
#    y -0.111510 2.080000 0.000970 
#    z 0.024430 0.000970 1.909170 
# 
# From -- ./inp_files/549992.got.cif
#   From: 2010.05.17/outbox.cif.g08.bks.cpg/sg2_275_cif.got.tgz:549992.got - 2010.06.03 11:33:40.
