data_PCOD9048399
_publ_section_title
;
Structure prediction by ZEFSAII (Michael W. Deem and Ramdas Pophale) SiO2 
 PCOD9048399
Probable space group: P -1
;
_chemical_formula_sum "Si O2"
_cell_formula_units_Z 16
_cell_length_a 8.808305
_cell_length_b 20.891474
_cell_length_c 12.007310
_cell_angle_alpha 155.303127
_cell_angle_beta 137.084403
_cell_angle_gamma 42.202499
_cell_volume 606.140395
_symmetry_space_group_name_H-M "P -1"
_symmetry_group_IT_number 2
_symmetry_cell_setting 'triclinic'
loop_
_space_group_symop_operation_xyz
x,y,z
-x,-y,-z
loop_
_atom_site_type_symbol
_atom_site_label
_atom_site_fract_x
_atom_site_fract_y
_atom_site_fract_z
Si Si1 0.272116 0.273141 0.781798
Si Si2 0.738621 0.483120 0.313262
Si Si3 0.347841 0.344206 0.687720
Si Si4 0.508492 0.311732 0.299157
Si Si5 0.049545 0.405090 0.083737
Si Si6 0.280685 0.770461 0.937910
Si Si7 0.809136 0.121647 0.513577
Si Si8 0.093118 0.933478 0.771975
O O1 0.358296 0.338778 0.819863
O O2 0.085374 0.177382 0.502011
O O3 0.152297 0.406434 0.018288
O O4 0.494290 0.172469 0.812484
O O5 0.636144 0.538215 0.222965
O O6 0.545442 0.582925 0.452778
O O7 0.775256 0.307370 0.101582
O O8 0.000000 0.500000 0.500000
O O9 0.539863 0.181436 0.501860
O O10 0.066581 0.418398 0.655502
O O11 0.253686 0.312707 0.126436
O O12 0.628858 0.344223 0.299872
O O13 0.677059 0.146483 0.165057
O O14 0.879622 0.289701 0.808787
O O15 0.054237 0.904353 0.998589
O O16 0.835425 0.049269 0.289883
O O17 0.000000 0.000000 0.500000
#
# Coordination Sequence:
#
# PCOD9048399 Si02
#       8
#     2   2   2   2   2   2   2   2
#     4  10  25  43  73 104 135 177 235 286 339 402
#     4  12  27  45  67 106 142 181 224 285 346 406
#     4  12  24  42  72  99 138 179 231 278 341 405
#     4  11  24  47  69 100 139 181 231 281 340 409
#     4  10  24  45  68 103 137 179 230 282 341 412
#     4  11  26  46  74  99 140 182 233 282 341 408
#     4  11  25  43  69 102 142 176 224 290 344 402
#     4  11  24  47  70 102 135 184 232 279 344 413
#
# _framework density 26.396522999999998
#
# number of rings (size 3 to 8) (size 9 to 14) (size 15 to 20)
#    0.000    1.000    2.500    2.625    7.000    4.000 
#    2.250    1.250    0.000    0.000    0.000    0.000 
#    0.000    0.000    0.000    0.000    0.000    0.000 
#
# Total GULP energy -89244.676690 kJ/mol
# GULP energy per Si atom -5577.792293 kJ/mol
# Density = 2.633644 g / cm^3
# Si number density = 26.396523 Si / 1000 Ang^3
#
#
#
# Elastic Constant Matrix: (Units=GPa)
#
#
# Indices 1 2 3 4 5 6 
#
# 1 140.2020 44.1499 66.0313 7.8027 -45.1673 6.5945
# 2 44.1499 203.4952 32.1737 26.0994 -35.5707 -15.7877
# 3 66.0313 32.1737 70.1836 8.8845 -30.6556 -13.8982
# 4 7.8027 26.0994 8.8845 29.0673 -3.3911 -17.4498
# 5 -45.1673 -35.5707 -30.6556 -3.3911 39.5446 -9.2303
# 6 6.5945 -15.7877 -13.8982 -17.4498 -9.2303 65.2677
#
#
#
# Elastic Compliance Matrix: (Units=1/GPa)
#
#
# Indices 1 2 3 4 5 6 
#
# 1 0.015239 -0.000281 -0.011506 -0.001532 0.007300 -0.003435
# 2 -0.000281 0.006629 0.000810 -0.004509 0.006228 0.001479
# 3 -0.011506 0.000810 0.034126 0.000563 0.016689 0.011136
# 4 -0.001532 -0.004509 0.000563 0.045809 0.001269 0.011611
# 5 0.007300 0.006228 0.016689 0.001269 0.055184 0.012466
# 6 -0.003435 0.001479 0.011136 0.011611 0.012466 0.023265
#
#
# Mechanical properties :
#
#
# Convention : Reuss Voigt Hill
#
# Bulk Modulus (GPa) = 29.37822 77.62118 53.49970
# Shear Modulus (GPa) = 23.41344 44.87763 34.14554
#
# Velocity S-wave (km/s) = 2.98147 4.12774 3.60051
# Velocity P-wave (km/s) = 4.79645 7.22408 6.13161
#
# Compressibility (1/GPa) = 0.03403882
#
# Stress axis : x y z
#
# Youngs Moduli (GPa) = 65.62284 150.85555 29.30322
#
# Poissons Ratio (x) = 0.04239 0.33716
# Poissons Ratio (y) = 0.01844 -0.02373
# Poissons Ratio (z) = 0.75506 -0.12216
#
# Static dielectric constant tensor:
#      x y z
#    x 2.083280 -0.000380 0.045150 
#    y -0.000380 2.086180 -0.020390 
#    z 0.045150 -0.020390 2.104430 
# 
# From -- ./inp_files/405731.got.cif
#   From: 2010.05.17/outbox.cif.g08.bks.cpg/sg2_203_cif.got.tgz:405731.got - 2010.06.03 11:33:40.
