data_PCOD9048373
_publ_section_title
;
Structure prediction by ZEFSAII (Michael W. Deem and Ramdas Pophale) SiO2 
 PCOD9048373
Probable space group: P -1
;
_chemical_formula_sum "Si O2"
_cell_formula_units_Z 16
_cell_length_a 5.088503
_cell_length_b 11.740237
_cell_length_c 14.178235
_cell_angle_alpha 123.258001
_cell_angle_beta 70.159359
_cell_angle_gamma 87.824353
_cell_volume 638.624408
_symmetry_space_group_name_H-M "P -1"
_symmetry_group_IT_number 2
_symmetry_cell_setting 'triclinic'
loop_
_space_group_symop_operation_xyz
x,y,z
-x,-y,-z
loop_
_atom_site_type_symbol
_atom_site_label
_atom_site_fract_x
_atom_site_fract_y
_atom_site_fract_z
Si Si1 0.770740 0.182278 0.702691
Si Si2 0.723621 0.638792 0.840023
Si Si3 0.162520 0.542540 0.086192
Si Si4 0.283003 0.629307 0.391769
Si Si5 0.718234 0.087690 0.977370
Si Si6 0.622040 0.718344 0.553108
Si Si7 0.354576 0.021318 0.630386
Si Si8 0.123410 0.808220 0.794607
O O1 0.871388 0.299229 0.803503
O O2 0.765667 0.248271 0.627519
O O3 0.464592 0.144380 0.725884
O O4 0.019503 0.047258 0.651455
O O5 0.908554 0.546390 0.858465
O O6 0.623034 0.521547 0.740890
O O7 0.476242 0.767093 0.978527
O O8 0.903836 0.712914 0.783722
O O9 0.500000 0.500000 0.000000
O O10 0.000000 0.500000 0.000000
O O11 0.519101 0.635182 0.443291
O O12 0.967593 0.659572 0.494170
O O13 0.835798 0.148602 0.083111
O O14 0.500000 0.000000 0.000000
O O15 0.968551 0.965422 0.839993
O O16 0.423174 0.724945 0.672113
O O17 0.508594 0.880130 0.604540
O O18 0.500000 0.000000 0.500000
#
# Coordination Sequence:
#
# PCOD9048373 Si02
#       8
#     2   2   2   2   2   2   2   2
#     4  11  22  43  65  95 136 180 222 274 348 402
#     4  10  25  44  75  91 141 185 217 282 361 395
#     4  11  26  46  68 105 137 173 234 284 329 417
#     4  11  24  42  66 101 137 180 219 279 340 418
#     4   9  21  47  69  94 129 182 233 278 346 397
#     4  12  26  40  67 102 140 171 236 279 329 414
#     4  12  21  40  66  93 133 180 221 278 342 389
#     4  10  24  45  68 100 134 179 231 288 334 407
#
# _framework density 25.053851000000002
#
# number of rings (size 3 to 8) (size 9 to 14) (size 15 to 20)
#    0.000    1.250    2.500    1.875    7.000    4.000 
#   11.250    0.000    0.000    0.000    0.000    0.000 
#    0.000    0.000    0.000    0.000    0.000    0.000 
#
# Total GULP energy -89417.612664 kJ/mol
# GULP energy per Si atom -5588.600792 kJ/mol
# Density = 2.499683 g / cm^3
# Si number density = 25.053851 Si / 1000 Ang^3
#
#
#
# Elastic Constant Matrix: (Units=GPa)
#
#
# Indices 1 2 3 4 5 6 
#
# 1 97.0485 12.1586 2.3321 7.8137 14.4154 12.1494
# 2 12.1586 77.9008 27.2102 18.0422 13.2752 6.0208
# 3 2.3321 27.2102 61.3206 14.7258 20.0695 10.2209
# 4 7.8137 18.0422 14.7258 36.1146 6.4573 4.2798
# 5 14.4154 13.2752 20.0695 6.4573 46.8249 2.8561
# 6 12.1494 6.0208 10.2209 4.2798 2.8561 14.2031
#
#
#
# Elastic Compliance Matrix: (Units=1/GPa)
#
#
# Indices 1 2 3 4 5 6 
#
# 1 0.012578 -0.001327 0.003777 -0.001469 -0.004203 -0.011626
# 2 -0.001327 0.016443 -0.005579 -0.005459 -0.001112 0.000049
# 3 0.003777 -0.005579 0.025341 -0.004911 -0.008798 -0.015853
# 4 -0.001469 -0.005459 -0.004911 0.033123 -0.000291 -0.002818
# 5 -0.004203 -0.001112 -0.008798 -0.000291 0.026461 0.005164
# 6 -0.011626 0.000049 -0.015853 -0.002818 0.005164 0.091550
#
#
# Mechanical properties :
#
#
# Convention : Reuss Voigt Hill
#
# Bulk Modulus (GPa) = 20.78888 35.51906 28.15397
# Shear Modulus (GPa) = 21.95010 32.39980 27.17495
#
# Velocity S-wave (km/s) = 2.96314 3.60002 3.29699
# Velocity P-wave (km/s) = 4.47466 5.61142 5.07497
#
# Compressibility (1/GPa) = 0.04810264
#
# Stress axis : x y z
#
# Youngs Moduli (GPa) = 79.50568 60.81675 39.46201
#
# Poissons Ratio (x) = 0.08072 -0.14904
# Poissons Ratio (y) = 0.10553 0.22015
# Poissons Ratio (z) = -0.30028 0.33929
#
# Static dielectric constant tensor:
#      x y z
#    x 2.030650 -0.136220 -0.113070 
#    y -0.136220 2.339940 0.347270 
#    z -0.113070 0.347270 2.457190 
# 
# From -- ./inp_files/483011.got.cif
#   From: 2010.05.17/outbox.cif.g08.bks.cpg/sg2_242_cif.got.tgz:483011.got - 2010.06.03 11:33:40.
