data_PCOD9048239
_publ_section_title
;
Structure prediction by ZEFSAII (Michael W. Deem and Ramdas Pophale) SiO2 
 PCOD9048239
Probable space group: P -1
;
_chemical_formula_sum "Si O2"
_cell_formula_units_Z 12
_cell_length_a 22.580608
_cell_length_b 8.701317
_cell_length_c 14.082457
_cell_angle_alpha 50.001346
_cell_angle_beta 21.072569
_cell_angle_gamma 35.778698
_cell_volume 488.226713
_symmetry_space_group_name_H-M "P -1"
_symmetry_group_IT_number 2
_symmetry_cell_setting 'triclinic'
loop_
_space_group_symop_operation_xyz
x,y,z
-x,-y,-z
loop_
_atom_site_type_symbol
_atom_site_label
_atom_site_fract_x
_atom_site_fract_y
_atom_site_fract_z
Si Si1 0.439771 0.566694 0.952678
Si Si2 0.205250 0.484616 0.197538
Si Si3 0.036645 0.372989 0.883440
Si Si4 0.898494 0.105604 0.297805
Si Si5 0.373884 0.930843 0.401533
Si Si6 0.576112 0.978002 0.247989
O O1 0.698203 0.313242 0.602246
O O2 0.323121 0.897620 0.980697
O O3 0.500000 0.500000 0.000000
O O4 0.261546 0.556102 0.181180
O O5 0.000000 0.500000 0.500000
O O6 0.471695 0.146125 0.891583
O O7 0.100409 0.750087 0.173861
O O8 0.116171 0.270942 0.693725
O O9 0.272961 0.286013 0.599364
O O10 0.041830 0.163794 0.018038
O O11 0.759202 0.727564 0.154135
O O12 0.722786 0.196039 0.435710
O O13 0.558578 0.821671 0.255148
#
# Coordination Sequence:
#
# PCOD9048239 Si02
#       6
#     2   2   2   2   2   2
#     4  11  29  48  72 107 150 200 251 306 372 444
#     4  11  27  46  76 104 149 199 257 306 367 442
#     4  10  24  44  80 110 153 187 247 304 381 444
#     4  11  25  44  73 111 145 198 248 305 369 449
#     4   9  23  42  74 106 152 185 250 297 379 425
#     4  10  25  45  77 110 151 194 239 306 381 440
#
# _framework density 24.578748000000001
#
# number of rings (size 3 to 8) (size 9 to 14) (size 15 to 20)
#    1.000    0.667    0.000    1.500   11.667    4.667 
#    0.000    0.000    0.000    0.000    0.000    0.000 
#    0.000    0.000    0.000    0.000    0.000    0.000 
#
# Total GULP energy -66905.941892 kJ/mol
# GULP energy per Si atom -5575.495158 kJ/mol
# Density = 2.452281 g / cm^3
# Si number density = 24.578748 Si / 1000 Ang^3
#
#
#
# Elastic Constant Matrix: (Units=GPa)
#
#
# Indices 1 2 3 4 5 6 
#
# 1 180.1646 67.2965 71.0312 -12.4336 4.9459 12.4512
# 2 67.2965 69.1757 -7.0966 -15.0390 -42.9618 -5.1973
# 3 71.0312 -7.0966 57.5162 -9.6614 -72.1386 28.3828
# 4 -12.4336 -15.0390 -9.6614 40.5575 13.1960 -4.6994
# 5 4.9459 -42.9618 -72.1386 13.1960 -1.8176 11.0497
# 6 12.4512 -5.1973 28.3828 -4.6994 11.0497 24.6810
#
#
#
# Elastic Compliance Matrix: (Units=1/GPa)
#
#
# Indices 1 2 3 4 5 6 
#
# 1 0.007037 -0.004522 0.001347 -0.001924 0.005255 -0.008771
# 2 -0.004522 0.017644 -0.006634 0.007421 -0.005573 0.017533
# 3 0.001347 -0.006634 0.004267 0.001837 -0.009639 -0.002319
# 4 -0.001924 0.007421 0.001837 0.028804 -0.002291 0.006931
# 5 0.005255 -0.005573 -0.009639 -0.002291 0.000875 0.006432
# 6 -0.008771 0.017533 -0.002319 0.006931 0.006432 0.049740
#
#
# Mechanical properties :
#
#
# Convention : Reuss Voigt Hill
#
# Bulk Modulus (GPa) = 107.16428 63.25763 85.21096
# Shear Modulus (GPa) = 38.14037 24.39254 31.26645
#
# Velocity S-wave (km/s) = 3.94351 3.15369 3.57051
# Velocity P-wave (km/s) = 8.02684 6.24929 7.19318
#
# Compressibility (1/GPa) = 0.00933147
#
# Stress axis : x y z
#
# Youngs Moduli (GPa) = 142.10041 56.67719 234.35186
#
# Poissons Ratio (x) = 0.25627 -0.31575
# Poissons Ratio (y) = 0.64251 1.55473
# Poissons Ratio (z) = -0.19146 0.37601
#
# Static dielectric constant tensor:
#      x y z
#    x 1.989460 0.033820 0.040300 
#    y 0.033820 1.975030 0.044430 
#    z 0.040300 0.044430 1.955310 
# 
# From -- ./inp_files/542346.got.cif
#   From: 2010.05.17/outbox.cif.g08.bks.cpg/sg2_272_cif.got.tgz:542346.got - 2010.06.03 11:33:40.
