data_PCOD9048660
_publ_section_title
;
Structure prediction by ZEFSAII (Michael W. Deem and Ramdas Pophale) SiO2 
 PCOD9048660
Probable space group: P -1
;
_chemical_formula_sum "Si O2"
_cell_formula_units_Z 14
_cell_length_a 5.399627
_cell_length_b 8.685461
_cell_length_c 13.005458
_cell_angle_alpha 92.010420
_cell_angle_beta 105.071928
_cell_angle_gamma 87.842543
_cell_volume 588.331911
_symmetry_space_group_name_H-M "P -1"
_symmetry_group_IT_number 2
_symmetry_cell_setting 'triclinic'
loop_
_space_group_symop_operation_xyz
x,y,z
-x,-y,-z
loop_
_atom_site_type_symbol
_atom_site_label
_atom_site_fract_x
_atom_site_fract_y
_atom_site_fract_z
Si Si1 0.489546 0.148723 0.930799
Si Si2 0.821914 0.048161 0.257195
Si Si3 0.355306 0.102532 0.570601
Si Si4 0.910128 0.506807 0.784684
Si Si5 0.774885 0.583776 0.541883
Si Si6 0.199060 0.838927 0.226422
Si Si7 0.444764 0.653128 0.867892
O O1 0.283388 0.097414 0.823617
O O2 0.740052 0.165649 0.888420
O O3 0.455766 0.286542 0.010215
O O4 0.500000 0.000000 0.000000
O O5 0.809370 0.004072 0.374092
O O6 0.109759 0.016984 0.247856
O O7 0.660480 0.198281 0.208243
O O8 0.231115 0.245073 0.500263
O O9 0.553736 0.176544 0.673231
O O10 0.500000 0.000000 0.500000
O O11 0.851553 0.581612 0.669211
O O12 0.927698 0.323617 0.768056
O O13 0.671544 0.558921 0.832737
O O14 0.184577 0.562152 0.853427
O O15 0.500000 0.500000 0.500000
O O16 0.000000 0.500000 0.500000
#
# Coordination Sequence:
#
# PCOD9048660 Si02
#       7
#     2   2   2   2   2   2   2
#     4   9  23  44  71 100 137 182 231 286 357 405
#     4  10  24  45  71 100 138 185 236 287 346 417
#     4  11  25  44  69 103 139 182 239 291 343 413
#     4  12  27  46  69 106 145 181 234 287 351 416
#     4  12  25  46  72  98 141 190 228 278 355 414
#     4  11  25  44  71 100 140 183 232 290 349 420
#     4  11  27  45  73 102 143 182 237 288 346 416
#
# _framework density 23.796091000000001
#
# number of rings (size 3 to 8) (size 9 to 14) (size 15 to 20)
#    0.000    1.143    1.429    2.571   14.000    2.857 
#    0.000    0.000    0.000    0.000    0.000    0.000 
#    0.000    0.000    0.000    0.000    0.000    0.000 
#
# Total GULP energy -78200.469811 kJ/mol
# GULP energy per Si atom -5585.747844 kJ/mol
# Density = 2.374193 g / cm^3
# Si number density = 23.796091 Si / 1000 Ang^3
#
#
#
# Elastic Constant Matrix: (Units=GPa)
#
#
# Indices 1 2 3 4 5 6 
#
# 1 72.7364 44.5597 3.7155 6.6293 -4.2601 -13.3221
# 2 44.5597 136.9471 32.9684 -18.7523 -3.1153 -23.5429
# 3 3.7155 32.9684 108.3712 -7.2223 -18.3713 -8.3454
# 4 6.6293 -18.7523 -7.2223 36.9728 7.9954 2.6744
# 5 -4.2601 -3.1153 -18.3713 7.9954 38.6292 17.2742
# 6 -13.3221 -23.5429 -8.3454 2.6744 17.2742 42.6370
#
#
#
# Elastic Compliance Matrix: (Units=1/GPa)
#
#
# Indices 1 2 3 4 5 6 
#
# 1 0.019404 -0.007485 0.001772 -0.007757 0.003357 0.001403
# 2 -0.007485 0.012508 -0.003551 0.007806 -0.005659 0.005676
# 3 0.001772 -0.003551 0.011087 -0.001166 0.006166 -0.001662
# 4 -0.007757 0.007806 -0.001166 0.033937 -0.009275 0.003287
# 5 0.003357 -0.005659 0.006166 -0.009275 0.037592 -0.015518
# 6 0.001403 0.005676 -0.001662 0.003287 -0.015518 0.032782
#
#
# Mechanical properties :
#
#
# Convention : Reuss Voigt Hill
#
# Bulk Modulus (GPa) = 40.86375 53.39355 47.12865
# Shear Modulus (GPa) = 28.73680 39.43521 34.08600
#
# Velocity S-wave (km/s) = 3.47886 4.07531 3.78884
# Velocity P-wave (km/s) = 5.77463 6.68063 6.24409
#
# Compressibility (1/GPa) = 0.02447156
#
# Stress axis : x y z
#
# Youngs Moduli (GPa) = 51.53707 79.94817 90.19928
#
# Poissons Ratio (x) = 0.59838 -0.15982
# Poissons Ratio (y) = 0.38573 0.32026
# Poissons Ratio (z) = -0.09132 0.28387
#
# Static dielectric constant tensor:
#      x y z
#    x 1.455410 -0.603340 -0.072210 
#    y -0.603340 1.543600 -0.003470 
#    z -0.072210 -0.003470 1.875030 
# 
# From -- ./inp_files/23225.got.cif
#   From: 2010.05.17/outbox.cif.g08.bks.cpg/sg2_12_cif.got.tgz:23225.got - 2010.06.03 11:33:40.
