data_PCOD9048602
_publ_section_title
;
Structure prediction by ZEFSAII (Michael W. Deem and Ramdas Pophale) SiO2 
 PCOD9048602
Probable space group: P -1
;
_chemical_formula_sum "Si O2"
_cell_formula_units_Z 16
_cell_length_a 7.871766
_cell_length_b 10.875859
_cell_length_c 11.854369
_cell_angle_alpha 93.032433
_cell_angle_beta 36.331983
_cell_angle_gamma 91.354618
_cell_volume 600.127218
_symmetry_space_group_name_H-M "P -1"
_symmetry_group_IT_number 2
_symmetry_cell_setting 'triclinic'
loop_
_space_group_symop_operation_xyz
x,y,z
-x,-y,-z
loop_
_atom_site_type_symbol
_atom_site_label
_atom_site_fract_x
_atom_site_fract_y
_atom_site_fract_z
Si Si1 0.185173 0.732342 0.945325
Si Si2 0.500144 0.079192 0.114509
Si Si3 0.571858 0.821711 0.533350
Si Si4 0.823716 0.090687 0.460748
Si Si5 0.653153 0.841222 0.123893
Si Si6 0.580856 0.528671 0.760634
Si Si7 0.783336 0.550517 0.405209
Si Si8 0.714521 0.634104 0.919563
O O1 0.384453 0.785121 0.740946
O O2 0.273442 0.589488 0.891732
O O3 0.862148 0.772496 0.096631
O O4 0.297973 0.805801 0.995708
O O5 0.677687 0.986562 0.100246
O O6 0.158649 0.100147 0.313877
O O7 0.500000 0.000000 0.000000
O O8 0.340750 0.845964 0.556721
O O9 0.771694 0.698082 0.401625
O O10 0.741486 0.946582 0.475895
O O11 0.663481 0.156841 0.655605
O O12 0.738944 0.769927 0.960336
O O13 0.762650 0.520627 0.549180
O O14 0.685495 0.627310 0.800543
O O15 0.532043 0.414822 0.865678
O O16 0.500000 0.500000 0.500000
O O17 0.030233 0.467745 0.210099
#
# Coordination Sequence:
#
# PCOD9048602 Si02
#       8
#     2   2   2   2   2   2   2   2
#     4  11  24  45  69 101 143 184 239 299 362 428
#     4  12  26  44  69 101 142 187 238 296 364 433
#     4  10  24  45  70 103 143 186 240 300 360 435
#     4  11  26  45  71 106 141 189 236 298 371 430
#     4  12  26  44  72 106 143 186 239 296 367 441
#     4  10  25  47  70 106 141 196 242 306 356 431
#     4  11  25  44  75 106 145 191 246 300 361 429
#     4  11  25  48  71 105 147 189 245 296 370 433
#
# _framework density 26.661016
#
# number of rings (size 3 to 8) (size 9 to 14) (size 15 to 20)
#    0.000    1.000    1.250    4.125    7.000    4.000 
#    4.500    0.000    0.000    0.000    0.000    0.000 
#    0.000    0.000    0.000    0.000    0.000    0.000 
#
# Total GULP energy -89366.884194 kJ/mol
# GULP energy per Si atom -5585.430262 kJ/mol
# Density = 2.660033 g / cm^3
# Si number density = 26.661016 Si / 1000 Ang^3
#
#
#
# Elastic Constant Matrix: (Units=GPa)
#
#
# Indices 1 2 3 4 5 6 
#
# 1 103.2694 19.0411 24.3584 14.0810 2.3703 -0.8946
# 2 19.0411 108.0161 49.9567 28.6025 -6.3197 -14.1556
# 3 24.3584 49.9567 130.8481 19.6970 -1.5699 1.4365
# 4 14.0810 28.6025 19.6970 48.0281 -11.5225 2.2443
# 5 2.3703 -6.3197 -1.5699 -11.5225 52.9669 10.0438
# 6 -0.8946 -14.1556 1.4365 2.2443 10.0438 38.9900
#
#
#
# Elastic Compliance Matrix: (Units=1/GPa)
#
#
# Indices 1 2 3 4 5 6 
#
# 1 0.010485 -0.000543 -0.001389 -0.002501 -0.001224 0.000554
# 2 -0.000543 0.013827 -0.004221 -0.006869 -0.001051 0.005829
# 3 -0.001389 -0.004221 0.009678 -0.000964 -0.000011 -0.001862
# 4 -0.002501 -0.006869 -0.000964 0.027849 0.006417 -0.005772
# 5 -0.001224 -0.001051 -0.000011 0.006417 0.021398 -0.006290
# 6 0.000554 0.005829 -0.001862 -0.005772 -0.006290 0.029798
#
#
# Mechanical properties :
#
#
# Convention : Reuss Voigt Hill
#
# Bulk Modulus (GPa) = 46.11464 58.76068 52.43766
# Shear Modulus (GPa) = 37.71674 44.58216 41.14945
#
# Velocity S-wave (km/s) = 3.76530 4.09367 3.93291
# Velocity P-wave (km/s) = 6.01976 6.66573 6.35096
#
# Compressibility (1/GPa) = 0.02168509
#
# Stress axis : x y z
#
# Youngs Moduli (GPa) = 95.37452 72.32343 103.32932
#
# Poissons Ratio (x) = 0.03925 0.14352
# Poissons Ratio (y) = 0.05176 0.43610
# Poissons Ratio (z) = 0.13247 0.30524
#
# Static dielectric constant tensor:
#      x y z
#    x 2.226820 -0.022920 0.061070 
#    y -0.022920 2.207890 -0.145190 
#    z 0.061070 -0.145190 2.202630 
# 
# From -- ./inp_files/387727.got.cif
#   From: 2010.05.17/outbox.cif.g08.bks.cpg/sg2_194_cif.got.tgz:387727.got - 2010.06.03 11:33:40.
