data_PCOD9048568
_publ_section_title
;
Structure prediction by ZEFSAII (Michael W. Deem and Ramdas Pophale) SiO2 
 PCOD9048568
Probable space group: P -1
;
_chemical_formula_sum "Si O2"
_cell_formula_units_Z 16
_cell_length_a 5.514481
_cell_length_b 18.866794
_cell_length_c 8.880429
_cell_angle_alpha 115.389084
_cell_angle_beta 91.536743
_cell_angle_gamma 54.497424
_cell_volume 647.762978
_symmetry_space_group_name_H-M "P -1"
_symmetry_group_IT_number 2
_symmetry_cell_setting 'triclinic'
loop_
_space_group_symop_operation_xyz
x,y,z
-x,-y,-z
loop_
_atom_site_type_symbol
_atom_site_label
_atom_site_fract_x
_atom_site_fract_y
_atom_site_fract_z
Si Si1 0.158088 0.289073 0.165934
Si Si2 0.393836 0.700438 0.097684
Si Si3 0.792472 0.344519 0.503563
Si Si4 0.730838 0.050601 0.414859
Si Si5 0.380010 0.542126 0.864507
Si Si6 0.227571 0.826501 0.728975
Si Si7 0.117845 0.121610 0.934028
Si Si8 0.184113 0.261626 0.699229
O O1 0.458398 0.246869 0.232369
O O2 0.874143 0.342161 0.330090
O O3 0.987655 0.374440 0.111044
O O4 0.233645 0.187408 0.008129
O O5 0.636380 0.700172 0.196658
O O6 0.215453 0.799838 0.082997
O O7 0.124810 0.711463 0.202432
O O8 0.510258 0.604666 0.909087
O O9 0.514495 0.449625 0.669601
O O10 0.790056 0.251338 0.431326
O O11 0.083838 0.310896 0.578324
O O12 0.783451 0.101575 0.325484
O O13 0.420568 0.141697 0.576316
O O14 0.698703 0.974909 0.257518
O O15 0.000000 0.000000 0.500000
O O16 0.500000 0.500000 0.000000
O O17 0.950476 0.891545 0.908068
#
# Coordination Sequence:
#
# PCOD9048568 Si02
#       8
#     2   2   2   2   2   2   2   2
#     4  10  24  45  70 100 150 192 245 307 375 441
#     4  11  26  48  73 113 154 193 247 312 379 442
#     4  11  24  46  70 103 149 192 250 304 374 444
#     4  12  25  45  76 111 144 202 252 311 373 450
#     4  11  24  43  74 111 142 199 247 307 370 452
#     4  11  25  48  70 105 153 197 248 310 375 442
#     4  10  25  45  71 105 147 196 248 309 370 448
#     4  12  25  48  74 108 156 193 245 316 372 440
#
# _framework density 24.700391
#
# number of rings (size 3 to 8) (size 9 to 14) (size 15 to 20)
#    0.000    1.000    3.750    1.500    3.500    2.000 
#    6.750    0.000    0.000    0.000    0.000    0.000 
#    0.000    0.000    0.000    0.000    0.000    0.000 
#
# Total GULP energy -89383.191385 kJ/mol
# GULP energy per Si atom -5586.449462 kJ/mol
# Density = 2.464417 g / cm^3
# Si number density = 24.700391 Si / 1000 Ang^3
#
#
#
# Elastic Constant Matrix: (Units=GPa)
#
#
# Indices 1 2 3 4 5 6 
#
# 1 81.3979 9.0772 39.7825 -13.0054 12.1796 -3.8254
# 2 9.0772 86.6733 12.0444 -11.7961 -5.3437 -8.5486
# 3 39.7825 12.0444 135.7717 15.5320 17.3155 7.6473
# 4 -13.0054 -11.7961 15.5320 53.0018 0.4067 8.8360
# 5 12.1796 -5.3437 17.3155 0.4067 43.1818 -13.0607
# 6 -3.8254 -8.5486 7.6473 8.8360 -13.0607 24.2211
#
#
#
# Elastic Compliance Matrix: (Units=1/GPa)
#
#
# Indices 1 2 3 4 5 6 
#
# 1 0.015983 -0.000337 -0.004994 0.005191 -0.002347 0.000823
# 2 -0.000337 0.013211 -0.002350 0.002328 0.004794 0.007087
# 3 -0.004994 -0.002350 0.010440 -0.003737 -0.004908 -0.006197
# 4 0.005191 0.002328 -0.003737 0.022856 -0.001866 -0.006523
# 5 -0.002347 0.004794 -0.004908 -0.001866 0.032827 0.021252
# 6 0.000823 0.007087 -0.006197 -0.006523 0.021252 0.059714
#
#
# Mechanical properties :
#
#
# Convention : Reuss Voigt Hill
#
# Bulk Modulus (GPa) = 41.20129 47.29458 44.24793
# Shear Modulus (GPa) = 28.01392 40.27685 34.14539
#
# Velocity S-wave (km/s) = 3.37137 4.04247 3.72207
# Velocity P-wave (km/s) = 5.64548 6.40138 6.03527
#
# Compressibility (1/GPa) = 0.02427109
#
# Stress axis : x y z
#
# Youngs Moduli (GPa) = 62.56618 75.69541 95.78936
#
# Poissons Ratio (x) = 0.02550 0.47839
# Poissons Ratio (y) = 0.02108 0.22511
# Poissons Ratio (z) = 0.31247 0.17789
#
# Static dielectric constant tensor:
#      x y z
#    x 2.041980 0.005490 -0.125260 
#    y 0.005490 2.012330 -0.011070 
#    z -0.125260 -0.011070 2.070440 
# 
# From -- ./inp_files/141512.got.cif
#   From: 2010.05.17/outbox.cif.g08.bks.cpg/sg2_71_cif.got.tgz:141512.got - 2010.06.03 11:33:40.
