data_PCOD9048720
_publ_section_title
;
Structure prediction by ZEFSAII (Michael W. Deem and Ramdas Pophale) SiO2 
 PCOD9048720
Probable space group: P -1
;
_chemical_formula_sum "Si O2"
_cell_formula_units_Z 12
_cell_length_a 12.100303
_cell_length_b 5.381056
_cell_length_c 19.169879
_cell_angle_alpha 105.733218
_cell_angle_beta 154.825141
_cell_angle_gamma 78.333330
_cell_volume 508.217653
_symmetry_space_group_name_H-M "P -1"
_symmetry_group_IT_number 2
_symmetry_cell_setting 'triclinic'
loop_
_space_group_symop_operation_xyz
x,y,z
-x,-y,-z
loop_
_atom_site_type_symbol
_atom_site_label
_atom_site_fract_x
_atom_site_fract_y
_atom_site_fract_z
Si Si1 0.860729 0.132292 0.216687
Si Si2 0.347871 0.323920 0.194351
Si Si3 0.332451 0.229359 0.399237
Si Si4 0.754142 0.117744 0.803529
Si Si5 0.266693 0.521400 0.697972
Si Si6 0.600473 0.753798 0.120751
O O1 0.786719 0.301386 0.252912
O O2 0.118524 0.255594 0.337495
O O3 0.862970 0.860433 0.237460
O O4 0.640188 0.085170 0.026548
O O5 0.372093 0.613883 0.265163
O O6 0.503471 0.371297 0.214624
O O7 0.427362 0.073642 0.263089
O O8 0.039669 0.232994 0.002072
O O9 0.500000 0.500000 0.500000
O O10 0.500000 0.000000 0.500000
O O11 0.194074 0.090946 0.242037
O O12 0.351725 0.276965 0.772609
O O13 0.000000 0.500000 0.500000
O O14 0.500000 0.500000 0.000000
#
# Coordination Sequence:
#
# PCOD9048720 Si02
#       6
#     2   2   2   2   2   2
#     4  10  25  45  70 106 136 192 243 297 365 431
#     4  10  24  46  70 104 134 191 235 290 360 430
#     4  12  29  45  74 104 146 193 241 306 363 432
#     4  10  24  45  71  96 142 184 242 287 348 439
#     4  11  26  41  72 103 146 182 231 307 365 428
#     4   9  22  44  70 101 138 183 240 298 355 440
#
# _framework density 23.611929
#
# number of rings (size 3 to 8) (size 9 to 14) (size 15 to 20)
#    0.000    1.667    0.000    1.000   18.667    3.333 
#    0.000    0.000    0.000    0.000    0.000    0.000 
#    0.000    0.000    0.000    0.000    0.000    0.000 
#
# Total GULP energy -66836.161581 kJ/mol
# GULP energy per Si atom -5569.680132 kJ/mol
# Density = 2.355819 g / cm^3
# Si number density = 23.611929 Si / 1000 Ang^3
#
#
#
# Elastic Constant Matrix: (Units=GPa)
#
#
# Indices 1 2 3 4 5 6 
#
# 1 146.9428 51.3352 34.6708 18.7075 23.6479 29.0264
# 2 51.3352 136.5296 44.5599 28.9012 12.3475 28.9411
# 3 34.6708 44.5599 92.3229 1.9454 -9.0253 19.9238
# 4 18.7075 28.9012 1.9454 39.9616 6.5419 -8.0635
# 5 23.6479 12.3475 -9.0253 6.5419 34.1366 12.3144
# 6 29.0264 28.9411 19.9238 -8.0635 12.3144 53.4223
#
#
#
# Elastic Compliance Matrix: (Units=1/GPa)
#
#
# Indices 1 2 3 4 5 6 
#
# 1 0.009737 -0.000762 -0.003114 -0.003549 -0.005539 -0.002975
# 2 -0.000762 0.012335 -0.004343 -0.009320 -0.001213 -0.005776
# 3 -0.003114 -0.004343 0.015707 0.001655 0.008865 -0.003607
# 4 -0.003549 -0.009320 0.001655 0.036926 -0.005578 0.013220
# 5 -0.005539 -0.001213 0.008865 -0.005578 0.040526 -0.009823
# 6 -0.002975 -0.005776 -0.003607 0.013220 -0.009823 0.029069
#
#
# Mechanical properties :
#
#
# Convention : Reuss Voigt Hill
#
# Bulk Modulus (GPa) = 46.85511 70.76969 58.81240
# Shear Modulus (GPa) = 29.78787 41.85272 35.82030
#
# Velocity S-wave (km/s) = 3.55570 4.21470 3.89915
# Velocity P-wave (km/s) = 6.06170 7.32953 6.72556
#
# Compressibility (1/GPa) = 0.02134239
#
# Stress axis : x y z
#
# Youngs Moduli (GPa) = 102.69762 81.06727 63.66512
#
# Poissons Ratio (x) = 0.06177 0.19823
# Poissons Ratio (y) = 0.07826 0.27651
# Poissons Ratio (z) = 0.31976 0.35209
#
# Static dielectric constant tensor:
#      x y z
#    x 1.865980 0.961610 -0.382430 
#    y 0.961610 -12.621110 5.065150 
#    z -0.382430 5.065150 0.192290 
# 
# From -- ./inp_files/563680.got.cif
#   From: 2010.05.17/outbox.cif.g08.bks.cpg/sg2_282_cif.got.tgz:563680.got - 2010.06.03 11:33:40.
