data_PCOD9048139
_publ_section_title
;
Structure prediction by ZEFSAII (Michael W. Deem and Ramdas Pophale) SiO2 
 PCOD9048139
Probable space group: P -1
;
_chemical_formula_sum "Si O2"
_cell_formula_units_Z 15
_cell_length_a 14.552903
_cell_length_b 9.288758
_cell_length_c 15.195188
_cell_angle_alpha 30.411293
_cell_angle_beta 138.284163
_cell_angle_gamma 139.522264
_cell_volume 648.896920
_symmetry_space_group_name_H-M "P -1"
_symmetry_group_IT_number 2
_symmetry_cell_setting 'triclinic'
loop_
_space_group_symop_operation_xyz
x,y,z
-x,-y,-z
loop_
_atom_site_type_symbol
_atom_site_label
_atom_site_fract_x
_atom_site_fract_y
_atom_site_fract_z
Si Si1 0.167621 0.644927 0.509759
Si Si2 0.380792 0.068010 0.583110
Si Si3 0.589578 0.435300 0.017770
Si Si4 0.105647 0.629992 0.924361
Si Si5 0.649569 0.781768 0.186460
Si Si6 0.000000 0.000000 0.500000
Si Si7 0.673099 0.546900 0.511499
Si Si8 0.137695 0.095307 0.111581
O O1 0.244113 0.396586 0.679133
O O2 0.000000 0.500000 0.500000
O O3 0.272335 0.897465 0.517851
O O4 0.157727 0.817578 0.323094
O O5 0.553315 0.204763 0.607772
O O6 0.341925 0.333279 0.463974
O O7 0.351091 0.821073 0.769541
O O8 0.500000 0.500000 0.000000
O O9 0.491298 0.325877 0.919497
O O10 0.721330 0.736838 0.933194
O O11 0.052671 0.834700 0.709150
O O12 0.262209 0.862616 0.945925
O O13 0.121971 0.343858 0.037216
O O14 0.000000 0.500000 0.000000
O O15 0.612713 0.687283 0.311313
O O16 0.848376 0.690941 0.545203
O O17 0.000000 0.000000 0.000000
#
# Coordination Sequence:
#
# PCOD9048139 Si02
#       8
#     2   2   2   2   2   1   2   2
#     4  12  27  47  75 106 152 192 248 308 379 452
#     4  11  25  45  71 106 144 190 243 297 385 436
#     4  12  26  45  72 106 151 191 249 308 374 456
#     4  11  27  47  76 113 146 201 253 312 385 448
#     4  11  26  47  73 105 145 195 246 308 372 440
#     4  10  24  44  74 106 154 184 252 306 378 444
#     4  10  25  43  72 105 139 194 238 309 371 447
#     4  12  30  48  75 110 152 195 254 311 382 456
#
# _framework density 23.116153000000001
#
# number of rings (size 3 to 8) (size 9 to 14) (size 15 to 20)
#    0.000    0.800    1.333    4.000   14.933    4.267 
#    0.000    0.000    0.000    0.000    0.000    0.000 
#    0.000    0.000    0.000    0.000    0.000    0.000 
#
# Total GULP energy -83663.736164 kJ/mol
# GULP energy per Si atom -5577.582411 kJ/mol
# Density = 2.306354 g / cm^3
# Si number density = 23.116153 Si / 1000 Ang^3
#
#
#
# Elastic Constant Matrix: (Units=GPa)
#
#
# Indices 1 2 3 4 5 6 
#
# 1 112.5319 50.7534 16.6529 -13.8952 -12.9056 11.8591
# 2 50.7534 206.1553 28.8131 15.7190 -0.6467 18.8635
# 3 16.6529 28.8131 71.9864 6.7158 -11.4708 16.7734
# 4 -13.8952 15.7190 6.7158 44.9784 0.4528 -5.3952
# 5 -12.9056 -0.6467 -11.4708 0.4528 29.4113 -16.2116
# 6 11.8591 18.8635 16.7734 -5.3952 -16.2116 50.0460
#
#
#
# Elastic Compliance Matrix: (Units=1/GPa)
#
#
# Indices 1 2 3 4 5 6 
#
# 1 0.011559 -0.003113 -0.001334 0.004931 0.004972 0.001024
# 2 -0.003113 0.006279 -0.001403 -0.003217 -0.003111 -0.002513
# 3 -0.001334 -0.001403 0.016513 -0.002878 0.003789 -0.003772
# 4 0.004931 -0.003217 -0.002878 0.025859 0.003244 0.004847
# 5 0.004972 -0.003111 0.003789 0.003244 0.045081 0.013677
# 6 0.001024 -0.002513 -0.003772 0.004847 0.013677 0.026904
#
#
# Mechanical properties :
#
#
# Convention : Reuss Voigt Hill
#
# Bulk Modulus (GPa) = 44.15031 64.79028 54.47029
# Shear Modulus (GPa) = 33.01528 44.51742 38.76635
#
# Velocity S-wave (km/s) = 3.78330 4.39317 4.09959
# Velocity P-wave (km/s) = 6.18266 7.33637 6.78408
#
# Compressibility (1/GPa) = 0.02264990
#
# Stress axis : x y z
#
# Youngs Moduli (GPa) = 86.51183 159.26792 60.55848
#
# Poissons Ratio (x) = 0.49585 0.08080
# Poissons Ratio (y) = 0.26934 0.08496
# Poissons Ratio (z) = 0.11543 0.22344
#
# Static dielectric constant tensor:
#      x y z
#    x 1.896110 -0.015640 0.044040 
#    y -0.015640 1.831550 -0.018090 
#    z 0.044040 -0.018090 1.871920 
# 
# From -- ./inp_files/190956.got.cif
#   From: 2010.05.17/outbox.cif.g08.bks.cpg/sg2_96_cif.got.tgz:190956.got - 2010.06.03 11:33:40.
