data_PCOD9048668
_publ_section_title
;
Structure prediction by ZEFSAII (Michael W. Deem and Ramdas Pophale) SiO2 
 PCOD9048668
Probable space group: P -1
;
_chemical_formula_sum "Si O2"
_cell_formula_units_Z 16
_cell_length_a 8.864074
_cell_length_b 13.285378
_cell_length_c 19.126629
_cell_angle_alpha 30.108302
_cell_angle_beta 134.347324
_cell_angle_gamma 129.923070
_cell_volume 803.674774
_symmetry_space_group_name_H-M "P -1"
_symmetry_group_IT_number 2
_symmetry_cell_setting 'triclinic'
loop_
_space_group_symop_operation_xyz
x,y,z
-x,-y,-z
loop_
_atom_site_type_symbol
_atom_site_label
_atom_site_fract_x
_atom_site_fract_y
_atom_site_fract_z
Si Si1 0.306121 0.328191 0.029808
Si Si2 0.937415 0.467653 0.918466
Si Si3 0.891164 0.435124 0.576802
Si Si4 0.155846 0.199981 0.911952
Si Si5 0.584413 0.113661 0.028642
Si Si6 0.504151 0.097485 0.636848
Si Si7 0.133284 0.091203 0.421906
Si Si8 0.179459 0.142947 0.632963
O O1 0.394434 0.111848 0.195765
O O2 0.500000 0.500000 0.000000
O O3 0.202207 0.332003 0.917171
O O4 0.122672 0.360797 0.005533
O O5 0.919334 0.683256 0.747351
O O6 0.717567 0.325861 0.927059
O O7 0.000000 0.500000 0.000000
O O8 0.685330 0.281238 0.587820
O O9 0.830289 0.630432 0.481222
O O10 0.000000 0.500000 0.500000
O O11 0.047827 0.320710 0.744519
O O12 0.380842 0.141331 0.993258
O O13 0.000000 0.000000 0.000000
O O14 0.740571 0.985401 0.200033
O O15 0.500000 0.000000 0.000000
O O16 0.372960 0.093214 0.524652
O O17 0.344914 0.124876 0.633726
O O18 0.000000 0.000000 0.500000
O O19 0.047745 0.954488 0.411073
#
# Coordination Sequence:
#
# PCOD9048668 Si02
#       8
#     2   2   2   2   2   2   2   2
#     4  12  25  45  75 102 139 184 242 283 342 424
#     4  12  26  46  73 104 142 183 229 299 352 404
#     4  12  28  44  68 104 146 178 231 292 349 406
#     4  12  25  48  71 101 139 190 236 286 344 421
#     4  12  25  43  72 103 142 182 234 291 352 404
#     4  11  25  46  70 103 135 185 232 283 343 422
#     4  10  24  45  71 101 137 180 230 278 349 423
#     4  11  23  47  69  99 142 183 230 281 347 421
#
# _framework density 19.908550999999999
#
# number of rings (size 3 to 8) (size 9 to 14) (size 15 to 20)
#    0.000    0.500    3.750    4.125   10.500    0.000 
#    0.000    1.250    0.000    0.000    0.000    0.000 
#    0.000    0.000    0.000    0.000    0.000    0.000 
#
# Total GULP energy -89534.730232 kJ/mol
# GULP energy per Si atom -5595.920639 kJ/mol
# Density = 1.986324 g / cm^3
# Si number density = 19.908551 Si / 1000 Ang^3
#
#
#
# Elastic Constant Matrix: (Units=GPa)
#
#
# Indices 1 2 3 4 5 6 
#
# 1 93.6545 55.2217 29.8095 -8.6816 -0.0786 -11.5996
# 2 55.2217 202.4210 66.2440 3.0361 -11.4774 8.3673
# 3 29.8095 66.2440 153.5577 2.3745 -9.1422 3.0109
# 4 -8.6816 3.0361 2.3745 52.6180 0.0784 -8.9686
# 5 -0.0786 -11.4774 -9.1422 0.0784 25.8724 4.2582
# 6 -11.5996 8.3673 3.0109 -8.9686 4.2582 31.0446
#
#
#
# Elastic Compliance Matrix: (Units=1/GPa)
#
#
# Indices 1 2 3 4 5 6 
#
# 1 0.015177 -0.004271 -0.001572 0.004319 -0.003858 0.008751
# 2 -0.004271 0.007124 -0.001945 -0.001761 0.003169 -0.004271
# 3 -0.001572 -0.001945 0.007819 -0.000728 0.002115 -0.001322
# 4 0.004319 -0.001761 -0.000728 0.021333 -0.002516 0.008667
# 5 -0.003858 0.003169 0.002115 -0.002516 0.042286 -0.009028
# 6 0.008751 -0.004271 -0.001322 0.008667 -0.009028 0.040503
#
#
# Mechanical properties :
#
#
# Convention : Reuss Voigt Hill
#
# Bulk Modulus (GPa) = 68.74873 83.57596 76.16235
# Shear Modulus (GPa) = 32.32742 41.79753 37.06247
#
# Velocity S-wave (km/s) = 4.03401 4.58698 4.31935
# Velocity P-wave (km/s) = 7.50366 8.37406 7.95078
#
# Compressibility (1/GPa) = 0.01454572
#
# Stress axis : x y z
#
# Youngs Moduli (GPa) = 65.88755 140.36108 127.88769
#
# Poissons Ratio (x) = 0.59954 0.20100
# Poissons Ratio (y) = 0.28143 0.24870
# Poissons Ratio (z) = 0.10356 0.27296
#
# Static dielectric constant tensor:
#      x y z
#    x 1.732370 -0.040840 0.047010 
#    y -0.040840 1.720360 -0.007350 
#    z 0.047010 -0.007350 1.710910 
# 
# From -- ./inp_files/320323.got.cif
#   From: 2010.05.17/outbox.cif.g08.bks.cpg/sg2_161_cif.got.tgz:320323.got - 2010.06.03 11:33:40.
