data_PCOD9048096
_publ_section_title
;
Structure prediction by ZEFSAII (Michael W. Deem and Ramdas Pophale) SiO2 
 PCOD9048096
Probable space group: P -1
;
_chemical_formula_sum "Si O2"
_cell_formula_units_Z 16
_cell_length_a 9.331402
_cell_length_b 14.513241
_cell_length_c 8.689340
_cell_angle_alpha 116.325693
_cell_angle_beta 76.872585
_cell_angle_gamma 56.350170
_cell_volume 679.163995
_symmetry_space_group_name_H-M "P -1"
_symmetry_group_IT_number 2
_symmetry_cell_setting 'triclinic'
loop_
_space_group_symop_operation_xyz
x,y,z
-x,-y,-z
loop_
_atom_site_type_symbol
_atom_site_label
_atom_site_fract_x
_atom_site_fract_y
_atom_site_fract_z
Si Si1 0.226232 0.123666 0.411275
Si Si2 0.045437 0.391832 0.244789
Si Si3 0.494885 0.419454 0.808304
Si Si4 0.750644 0.117141 0.712130
Si Si5 0.159759 0.687084 0.601583
Si Si6 0.348093 0.262621 0.348242
Si Si7 0.991655 0.628215 0.078930
Si Si8 0.776790 0.162376 0.097955
O O1 0.383440 0.128222 0.300746
O O2 0.053022 0.180486 0.359861
O O3 0.103352 0.249994 0.672939
O O4 0.314263 0.968995 0.335329
O O5 0.891287 0.399964 0.394023
O O6 0.874147 0.575583 0.395591
O O7 0.261637 0.306365 0.226351
O O8 0.125859 0.295599 0.999797
O O9 0.599708 0.262273 0.741250
O O10 0.634146 0.393902 0.616446
O O11 0.500000 0.500000 0.000000
O O12 0.243181 0.529335 0.911830
O O13 0.752736 0.157943 0.917894
O O14 0.000000 0.000000 0.500000
O O15 0.200537 0.732356 0.777062
O O16 0.565472 0.218131 0.271589
O O17 0.000000 0.500000 0.000000
O O18 0.000000 0.000000 0.000000
#
# Coordination Sequence:
#
# PCOD9048096 Si02
#       8
#     2   2   2   2   2   2   2   2
#     4  11  23  49  70 103 151 188 231 304 357 433
#     4  10  24  44  73 109 139 188 241 296 361 423
#     4  12  26  45  73 104 144 192 236 301 362 417
#     4  12  26  47  73 101 146 190 233 296 372 421
#     4  11  24  44  72 106 141 183 247 298 355 422
#     4  10  24  45  74 104 145 185 238 299 355 427
#     4  12  25  44  73 107 145 188 241 294 357 435
#     4  12  26  46  73 105 142 190 243 295 357 439
#
# _framework density 23.558373
#
# number of rings (size 3 to 8) (size 9 to 14) (size 15 to 20)
#    0.000    0.750    5.000    0.750    7.000    1.500 
#    0.000    0.625    0.000    0.000    0.000    0.000 
#    0.000    0.000    0.000    0.000    0.000    0.000 
#
# Total GULP energy -89478.081154 kJ/mol
# GULP energy per Si atom -5592.380072 kJ/mol
# Density = 2.350475 g / cm^3
# Si number density = 23.558373 Si / 1000 Ang^3
#
#
#
# Elastic Constant Matrix: (Units=GPa)
#
#
# Indices 1 2 3 4 5 6 
#
# 1 125.7399 23.4406 15.7116 5.7844 7.3797 7.7799
# 2 23.4406 84.3487 30.9443 4.0358 9.3544 12.6936
# 3 15.7116 30.9443 69.0809 -15.9540 20.2572 2.7941
# 4 5.7844 4.0358 -15.9540 30.5943 -3.5803 6.0964
# 5 7.3797 9.3544 20.2572 -3.5803 36.3266 3.6397
# 6 7.7799 12.6936 2.7941 6.0964 3.6397 39.4047
#
#
#
# Elastic Compliance Matrix: (Units=1/GPa)
#
#
# Indices 1 2 3 4 5 6 
#
# 1 0.008615 -0.001544 -0.001556 -0.002171 -0.000628 -0.000699
# 2 -0.001544 0.015942 -0.008005 -0.005228 0.000508 -0.003501
# 3 -0.001556 -0.008005 0.024281 0.012834 -0.009907 0.000094
# 4 -0.002171 -0.005228 0.012834 0.041411 -0.000774 -0.005133
# 5 -0.000628 0.000508 -0.009907 -0.000774 0.033202 -0.002284
# 6 -0.000699 -0.003501 0.000094 -0.005133 -0.002284 0.027642
#
#
# Mechanical properties :
#
#
# Convention : Reuss Voigt Hill
#
# Bulk Modulus (GPa) = 37.55572 46.59583 42.07577
# Shear Modulus (GPa) = 27.44554 35.20331 31.32443
#
# Velocity S-wave (km/s) = 3.41691 3.86981 3.65039
# Velocity P-wave (km/s) = 5.61634 6.30786 5.97212
#
# Compressibility (1/GPa) = 0.02662710
#
# Stress axis : x y z
#
# Youngs Moduli (GPa) = 116.07203 62.72737 41.18519
#
# Poissons Ratio (x) = 0.09688 0.06410
# Poissons Ratio (y) = 0.17926 0.32967
# Poissons Ratio (z) = 0.18066 0.50210
#
# Static dielectric constant tensor:
#      x y z
#    x 1.805040 0.046870 0.048810 
#    y 0.046870 1.881350 -0.026470 
#    z 0.048810 -0.026470 1.957240 
# 
# From -- ./inp_files/208669.got.cif
#   From: 2010.05.17/outbox.cif.g08.bks.cpg/sg2_105_cif.got.tgz:208669.got - 2010.06.03 11:33:40.
