data_PCOD9048102
_publ_section_title
;
Structure prediction by ZEFSAII (Michael W. Deem and Ramdas Pophale) SiO2 
 PCOD9048102
Probable space group: P -1
;
_chemical_formula_sum "Si O2"
_cell_formula_units_Z 12
_cell_length_a 12.800324
_cell_length_b 6.910275
_cell_length_c 9.875782
_cell_angle_alpha 92.190057
_cell_angle_beta 142.284729
_cell_angle_gamma 105.937587
_cell_volume 462.867409
_symmetry_space_group_name_H-M "P -1"
_symmetry_group_IT_number 2
_symmetry_cell_setting 'triclinic'
loop_
_space_group_symop_operation_xyz
x,y,z
-x,-y,-z
loop_
_atom_site_type_symbol
_atom_site_label
_atom_site_fract_x
_atom_site_fract_y
_atom_site_fract_z
Si Si1 0.933752 0.655617 0.640449
Si Si2 0.652844 0.243425 0.222183
Si Si3 0.356186 0.683283 0.452392
Si Si4 0.630827 0.191330 0.836469
Si Si5 0.047350 0.926702 0.402413
Si Si6 0.391810 0.409978 0.116293
O O1 0.828067 0.507545 0.394840
O O2 0.833905 0.486118 0.659739
O O3 0.879811 0.849957 0.604894
O O4 0.169779 0.773209 0.888414
O O5 0.494066 0.313309 0.119552
O O6 0.805362 0.165621 0.434608
O O7 0.500000 0.000000 0.000000
O O8 0.315614 0.702098 0.255757
O O9 0.514068 0.605825 0.646121
O O10 0.466210 0.936249 0.634066
O O11 0.565010 0.340109 0.859237
O O12 0.000000 0.000000 0.500000
O O13 0.841121 0.741251 0.124595
#
# Coordination Sequence:
#
# PCOD9048102 Si02
#       6
#     2   2   2   2   2   2
#     4  11  25  45  72 106 144 186 242 300 356 428
#     4  11  25  46  68 105 140 191 245 293 359 423
#     4  10  24  44  73 111 140 190 243 291 364 427
#     4  11  22  46  76 105 147 189 238 298 361 431
#     4  12  25  48  71 104 144 193 242 296 361 428
#     4  11  23  45  72 104 147 188 236 297 360 425
#
# _framework density 25.925353000000001
#
# number of rings (size 3 to 8) (size 9 to 14) (size 15 to 20)
#    0.000    1.000    5.000    1.000    0.000    6.667 
#    6.000    0.833    0.000    0.000    0.000    0.000 
#    0.000    0.000    0.000    0.000    0.000    0.000 
#
# Total GULP energy -66972.568074 kJ/mol
# GULP energy per Si atom -5581.047339 kJ/mol
# Density = 2.586635 g / cm^3
# Si number density = 25.925353 Si / 1000 Ang^3
#
#
#
# Elastic Constant Matrix: (Units=GPa)
#
#
# Indices 1 2 3 4 5 6 
#
# 1 70.6080 13.2387 21.0893 13.5466 17.6586 -2.8792
# 2 13.2387 173.4750 17.7797 20.8640 33.4772 -24.2264
# 3 21.0893 17.7797 163.5481 13.1984 35.2485 -21.5475
# 4 13.5466 20.8640 13.1984 43.4761 -13.0640 4.6956
# 5 17.6586 33.4772 35.2485 -13.0640 40.7004 -4.9837
# 6 -2.8792 -24.2264 -21.5475 4.6956 -4.9837 55.7010
#
#
#
# Elastic Compliance Matrix: (Units=1/GPa)
#
#
# Indices 1 2 3 4 5 6 
#
# 1 0.020460 0.004215 0.002760 -0.015400 -0.019245 0.003535
# 2 0.004215 0.011116 0.004153 -0.014087 -0.018330 0.006207
# 3 0.002760 0.004153 0.010633 -0.011763 -0.016919 0.005540
# 4 -0.015400 -0.014087 -0.011763 0.052609 0.043875 -0.011983
# 5 -0.019245 -0.018330 -0.016919 0.043875 0.075204 -0.012482
# 6 0.003535 0.006207 0.005540 -0.011983 -0.012482 0.022872
#
#
# Mechanical properties :
#
#
# Convention : Reuss Voigt Hill
#
# Bulk Modulus (GPa) = 15.51236 56.87183 36.19209
# Shear Modulus (GPa) = 26.02477 51.67706 38.85091
#
# Velocity S-wave (km/s) = 3.17177 4.46948 3.87533
# Velocity P-wave (km/s) = 4.40568 6.97276 5.83221
#
# Compressibility (1/GPa) = 0.06446473
#
# Stress axis : x y z
#
# Youngs Moduli (GPa) = 48.87632 89.96406 94.04897
#
# Poissons Ratio (x) = -0.37924 -0.25954
# Poissons Ratio (y) = -0.20604 -0.39060
# Poissons Ratio (z) = -0.13488 -0.37364
#
# Static dielectric constant tensor:
#      x y z
#    x 2.234570 0.081310 -0.161440 
#    y 0.081310 2.069200 -0.017300 
#    z -0.161440 -0.017300 2.050620 
# 
# From -- ./inp_files/442027.got.cif
#   From: 2010.05.17/outbox.cif.g08.bks.cpg/sg2_222_cif.got.tgz:442027.got - 2010.06.03 11:33:40.
