data_PCOD9048583
_publ_section_title
;
Structure prediction by ZEFSAII (Michael W. Deem and Ramdas Pophale) SiO2 
 PCOD9048583
Probable space group: P -1
;
_chemical_formula_sum "Si O2"
_cell_formula_units_Z 16
_cell_length_a 13.640325
_cell_length_b 10.483536
_cell_length_c 9.643649
_cell_angle_alpha 115.259829
_cell_angle_beta 101.071948
_cell_angle_gamma 32.822982
_cell_volume 635.807846
_symmetry_space_group_name_H-M "P -1"
_symmetry_group_IT_number 2
_symmetry_cell_setting 'triclinic'
loop_
_space_group_symop_operation_xyz
x,y,z
-x,-y,-z
loop_
_atom_site_type_symbol
_atom_site_label
_atom_site_fract_x
_atom_site_fract_y
_atom_site_fract_z
Si Si1 0.810697 0.469248 0.213845
Si Si2 0.929418 0.791103 0.338873
Si Si3 0.388111 0.026878 0.747726
Si Si4 0.171830 0.859021 0.310747
Si Si5 0.458352 0.751545 0.878271
Si Si6 0.417415 0.812454 0.225675
Si Si7 0.215205 0.347910 0.428008
Si Si8 0.082846 0.047146 0.860917
O O1 0.632939 0.575326 0.232744
O O2 0.863304 0.480927 0.377247
O O3 0.723062 0.697148 0.195318
O O4 0.986546 0.192237 0.049512
O O5 0.069311 0.526023 0.343748
O O6 0.991216 0.750209 0.180402
O O7 0.723968 0.964532 0.352814
O O8 0.906842 0.963750 0.495903
O O9 0.399233 0.965628 0.881905
O O10 0.598958 0.790302 0.634605
O O11 0.326444 0.551327 0.245580
O O12 0.303641 0.811319 0.239948
O O13 0.998436 0.001625 0.241589
O O14 0.442883 0.785048 0.053997
O O15 0.307884 0.810870 0.820563
O O16 0.291643 0.100215 0.366749
#
# Coordination Sequence:
#
# PCOD9048583 Si02
#       8
#     2   2   2   2   2   2   2   2
#     4  11  24  45  71 105 141 171 228 285 341 404
#     4  11  26  45  74 102 134 181 228 281 339 406
#     4  10  24  45  70 102 137 177 226 287 334 403
#     4  12  25  48  67  96 145 180 232 276 329 410
#     4  11  26  44  70 102 135 187 223 279 346 395
#     4  11  25  45  72 100 139 183 227 278 341 407
#     4  11  25  45  73 105 134 178 226 282 348 394
#     4  11  27  44  70 105 136 180 230 278 336 409
#
# _framework density 25.164835
#
# number of rings (size 3 to 8) (size 9 to 14) (size 15 to 20)
#    0.000    1.000    1.250    4.500    5.250    7.500 
#    0.000    0.000    0.000    0.000    0.000    0.000 
#    0.000    0.000    0.000    0.000    0.000    0.000 
#
# Total GULP energy -89744.143929 kJ/mol
# GULP energy per Si atom -5609.008996 kJ/mol
# Density = 2.510756 g / cm^3
# Si number density = 25.164835 Si / 1000 Ang^3
#
#
#
# Elastic Constant Matrix: (Units=GPa)
#
#
# Indices 1 2 3 4 5 6 
#
# 1 125.4510 17.6689 1.8441 -7.6430 0.2158 -20.2993
# 2 17.6689 78.1860 7.4037 -11.8942 -5.4619 -19.2561
# 3 1.8441 7.4037 73.7644 -3.4063 -7.1734 -7.3500
# 4 -7.6430 -11.8942 -3.4063 34.5126 2.9655 -3.6306
# 5 0.2158 -5.4619 -7.1734 2.9655 31.9984 -11.2634
# 6 -20.2993 -19.2561 -7.3500 -3.6306 -11.2634 53.0721
#
#
#
# Elastic Compliance Matrix: (Units=1/GPa)
#
#
# Indices 1 2 3 4 5 6 
#
# 1 0.008755 -0.000801 0.000385 0.001984 0.000918 0.003442
# 2 -0.000801 0.015814 -0.000199 0.005574 0.004518 0.006744
# 3 0.000385 -0.000199 0.014333 0.001397 0.004114 0.003029
# 4 0.001984 0.005574 0.001397 0.032010 0.000111 0.005188
# 5 0.000918 0.004518 0.004114 0.000111 0.036564 0.010327
# 6 0.003442 0.006744 0.003029 0.005188 0.010327 0.025572
#
#
# Mechanical properties :
#
#
# Convention : Reuss Voigt Hill
#
# Bulk Modulus (GPa) = 26.54385 36.80387 31.67386
# Shear Modulus (GPa) = 34.05203 40.61559 37.33381
#
# Velocity S-wave (km/s) = 3.68252 4.02180 3.85589
# Velocity P-wave (km/s) = 5.35277 6.01858 5.69542
#
# Compressibility (1/GPa) = 0.03767351
#
# Stress axis : x y z
#
# Youngs Moduli (GPa) = 114.22532 63.23321 69.76755
#
# Poissons Ratio (x) = 0.05067 -0.02689
# Poissons Ratio (y) = 0.09153 0.01385
# Poissons Ratio (z) = -0.04402 0.01255
#
# Static dielectric constant tensor:
#      x y z
#    x 2.001680 0.035340 -0.016370 
#    y 0.035340 1.975050 -0.024780 
#    z -0.016370 -0.024780 1.915880 
# 
# From -- ./inp_files/308081.got.cif
#   From: 2010.05.17/outbox.cif.g08.bks.cpg/sg2_155_cif.got.tgz:308081.got - 2010.06.03 11:33:40.
