data_PCOD9048099
_publ_section_title
;
Structure prediction by ZEFSAII (Michael W. Deem and Ramdas Pophale) SiO2 
 PCOD9048099
Probable space group: P -1
;
_chemical_formula_sum "Si O2"
_cell_formula_units_Z 14
_cell_length_a 15.107521
_cell_length_b 14.557411
_cell_length_c 5.641043
_cell_angle_alpha 94.672688
_cell_angle_beta 83.003005
_cell_angle_gamma 29.592021
_cell_volume 561.882834
_symmetry_space_group_name_H-M "P -1"
_symmetry_group_IT_number 2
_symmetry_cell_setting 'triclinic'
loop_
_space_group_symop_operation_xyz
x,y,z
-x,-y,-z
loop_
_atom_site_type_symbol
_atom_site_label
_atom_site_fract_x
_atom_site_fract_y
_atom_site_fract_z
Si Si1 0.466469 0.438358 0.852217
Si Si2 0.096402 0.009766 0.523551
Si Si3 0.230050 0.298348 0.317815
Si Si4 0.204161 0.260906 0.818590
Si Si5 0.145201 0.118943 0.897119
Si Si6 0.567102 0.699716 0.833926
Si Si7 0.187059 0.625698 0.660822
O O1 0.677401 0.213182 0.650778
O O2 0.294868 0.610719 0.754876
O O3 0.500000 0.500000 0.000000
O O4 0.389640 0.421677 0.023271
O O5 0.100435 0.061238 0.780553
O O6 0.000000 0.000000 0.500000
O O7 0.966152 0.195547 0.440411
O O8 0.307429 0.212283 0.545304
O O9 0.299033 0.333773 0.204482
O O10 0.000000 0.500000 0.500000
O O11 0.287703 0.182185 0.046547
O O12 0.180359 0.175480 0.734278
O O13 0.000000 0.500000 0.000000
O O14 0.338367 0.929800 0.951003
O O15 0.947008 0.321655 0.141377
O O16 0.629170 0.597946 0.544241
#
# Coordination Sequence:
#
# PCOD9048099 Si02
#       7
#     2   2   2   2   2   2   2
#     4  12  28  49  78 117 159 209 272 334 409 492
#     4  12  28  49  78 117 159 209 272 334 409 492
#     4  10  24  44  73 109 157 203 273 330 413 480
#     4  10  24  44  73 109 157 203 273 330 413 480
#     4  12  27  47  78 113 155 214 268 335 408 491
#     4  12  27  47  78 113 155 214 268 335 408 491
#     4  12  26  48  78 106 164 204 262 336 406 478
#
# _framework density 24.916226999999999
#
# number of rings (size 3 to 8) (size 9 to 14) (size 15 to 20)
#    0.000    0.571    2.857    4.286   14.000    3.429 
#    0.000    0.000    0.000    0.000    0.000    0.000 
#    0.000    0.000    0.000    0.000    0.000    0.000 
#
# Total GULP energy -78138.263421 kJ/mol
# GULP energy per Si atom -5581.304530 kJ/mol
# Density = 2.485952 g / cm^3
# Si number density = 24.916227 Si / 1000 Ang^3
#
#
#
# Elastic Constant Matrix: (Units=GPa)
#
#
# Indices 1 2 3 4 5 6 
#
# 1 129.1533 9.8170 19.3830 1.5971 -6.3263 -5.8345
# 2 9.8170 107.0132 5.9309 9.5064 -0.4596 -31.0402
# 3 19.3830 5.9309 97.3857 0.3306 -4.3667 -9.1727
# 4 1.5971 9.5064 0.3306 26.9845 -2.0037 -4.5564
# 5 -6.3263 -0.4596 -4.3667 -2.0037 38.9532 0.5568
# 6 -5.8345 -31.0402 -9.1727 -4.5564 0.5568 48.9794
#
#
#
# Elastic Compliance Matrix: (Units=1/GPa)
#
#
# Indices 1 2 3 4 5 6 
#
# 1 0.008080 -0.000553 -0.001495 -0.000130 0.001127 0.000307
# 2 -0.000553 0.011708 0.000067 -0.002909 -0.000195 0.007098
# 3 -0.001495 0.000067 0.010783 0.000325 0.000956 0.001903
# 4 -0.000130 -0.002909 0.000325 0.038528 0.001938 0.001764
# 5 0.001127 -0.000195 0.000956 0.001938 0.026058 0.000074
# 6 0.000307 0.007098 0.001903 0.001764 0.000074 0.025471
#
#
# Mechanical properties :
#
#
# Convention : Reuss Voigt Hill
#
# Bulk Modulus (GPa) = 37.58091 44.86823 41.22457
# Shear Modulus (GPa) = 37.46434 42.87817 40.17125
#
# Velocity S-wave (km/s) = 3.88185 4.15287 4.01964
# Velocity P-wave (km/s) = 5.93358 6.40639 6.17451
#
# Compressibility (1/GPa) = 0.02660925
#
# Stress axis : x y z
#
# Youngs Moduli (GPa) = 123.76613 85.41095 92.73969
#
# Poissons Ratio (x) = 0.04722 0.13860
# Poissons Ratio (y) = 0.06843 -0.00618
# Poissons Ratio (z) = 0.18497 -0.00570
#
# Static dielectric constant tensor:
#      x y z
#    x 1.753360 -0.093900 0.323970 
#    y -0.093900 2.015680 -0.046410 
#    z 0.323970 -0.046410 1.874280 
# 
# From -- ./inp_files/97703.got.cif
#   From: 2010.05.17/outbox.cif.g08.bks.cpg/sg2_49_cif.got.tgz:97703.got - 2010.06.03 11:33:40.
