data_PCOD9048375
_publ_section_title
;
Structure prediction by ZEFSAII (Michael W. Deem and Ramdas Pophale) SiO2 
 PCOD9048375
Probable space group: P -1
;
_chemical_formula_sum "Si O2"
_cell_formula_units_Z 16
_cell_length_a 7.608008
_cell_length_b 16.818505
_cell_length_c 10.858519
_cell_angle_alpha 51.549759
_cell_angle_beta 141.581018
_cell_angle_gamma 128.478321
_cell_volume 649.615433
_symmetry_space_group_name_H-M "P -1"
_symmetry_group_IT_number 2
_symmetry_cell_setting 'triclinic'
loop_
_space_group_symop_operation_xyz
x,y,z
-x,-y,-z
loop_
_atom_site_type_symbol
_atom_site_label
_atom_site_fract_x
_atom_site_fract_y
_atom_site_fract_z
Si Si1 0.566065 0.547520 0.350265
Si Si2 0.685722 0.150219 0.828275
Si Si3 0.671459 0.011529 0.394471
Si Si4 0.724671 0.526541 0.985726
Si Si5 0.894525 0.341012 0.356126
Si Si6 0.165892 0.215014 0.447908
Si Si7 0.660779 0.850606 0.762880
Si Si8 0.773149 0.283251 0.965143
O O1 0.500000 0.500000 0.500000
O O2 0.424319 0.472515 0.230722
O O3 0.438760 0.649233 0.170928
O O4 0.919346 0.592485 0.494833
O O5 0.508904 0.229148 0.596379
O O6 0.628440 0.176979 0.912588
O O7 0.520780 0.041065 0.777870
O O8 0.033344 0.163315 0.003766
O O9 0.485513 0.084111 0.286119
O O10 0.995384 0.090856 0.481715
O O11 0.700021 0.920249 0.593114
O O12 0.500000 0.500000 0.000000
O O13 0.863731 0.427873 0.156635
O O14 0.982096 0.630304 0.060948
O O15 0.578159 0.261212 0.284247
O O16 0.097838 0.272162 0.477917
O O17 0.974801 0.253617 0.206370
#
# Coordination Sequence:
#
# PCOD9048375 Si02
#       8
#     2   2   2   2   2   2   2   2
#     4  12  24  47  78 103 143 201 245 295 366 431
#     4  12  24  42  69 101 135 182 241 289 363 414
#     4  10  24  46  68  99 143 185 238 295 364 426
#     4  12  27  45  72 108 153 187 240 303 364 437
#     4  11  23  46  70 104 142 192 241 288 367 436
#     4  11  24  43  72 103 138 189 241 299 352 438
#     4  10  24  45  68 100 146 185 231 302 361 434
#     4  12  25  43  71 106 143 187 240 299 361 433
#
# _framework density 24.629957000000001
#
# number of rings (size 3 to 8) (size 9 to 14) (size 15 to 20)
#    0.000    0.750    3.750    3.375    0.000    4.500 
#    2.250    0.000    0.000    0.000    0.000    0.000 
#    0.000    0.000    0.000    0.000    0.000    0.000 
#
# Total GULP energy -89378.074863 kJ/mol
# GULP energy per Si atom -5586.129679 kJ/mol
# Density = 2.457390 g / cm^3
# Si number density = 24.629957 Si / 1000 Ang^3
#
#
#
# Elastic Constant Matrix: (Units=GPa)
#
#
# Indices 1 2 3 4 5 6 
#
# 1 62.6772 25.8422 37.3061 13.1241 8.2234 -3.4480
# 2 25.8422 128.7397 48.0891 24.1825 -10.9138 5.2338
# 3 37.3061 48.0891 172.5288 19.2966 19.9026 2.5887
# 4 13.1241 24.1825 19.2966 45.7580 -3.8391 -8.1826
# 5 8.2234 -10.9138 19.9026 -3.8391 35.7276 4.3118
# 6 -3.4480 5.2338 2.5887 -8.1826 4.3118 39.9566
#
#
#
# Elastic Compliance Matrix: (Units=1/GPa)
#
#
# Indices 1 2 3 4 5 6 
#
# 1 0.020140 -0.002938 -0.002689 -0.003091 -0.004629 0.002163
# 2 -0.002938 0.010526 -0.002434 -0.003761 0.005182 -0.002804
# 3 -0.002689 -0.002434 0.007776 -0.001654 -0.004603 -0.000259
# 4 -0.003091 -0.003761 -0.001654 0.026634 0.002683 0.005498
# 5 -0.004629 0.005182 -0.004603 0.002683 0.033960 -0.003895
# 6 0.002163 -0.002804 -0.000259 0.005498 -0.003895 0.027144
#
#
# Mechanical properties :
#
#
# Convention : Reuss Voigt Hill
#
# Bulk Modulus (GPa) = 44.80114 65.15784 54.97949
# Shear Modulus (GPa) = 33.39085 41.13567 37.26326
#
# Velocity S-wave (km/s) = 3.68598 4.09118 3.89385
# Velocity P-wave (km/s) = 6.02863 6.98778 6.52585
#
# Compressibility (1/GPa) = 0.02232086
#
# Stress axis : x y z
#
# Youngs Moduli (GPa) = 49.65213 95.00171 128.60512
#
# Poissons Ratio (x) = 0.27912 0.34579
# Poissons Ratio (y) = 0.14588 0.31299
# Poissons Ratio (z) = 0.13350 0.23121
#
# Static dielectric constant tensor:
#      x y z
#    x 2.026490 -0.029390 0.000660 
#    y -0.029390 2.012180 -0.007310 
#    z 0.000660 -0.007310 1.979330 
# 
# From -- ./inp_files/403070.got.cif
#   From: 2010.05.17/outbox.cif.g08.bks.cpg/sg2_202_cif.got.tgz:403070.got - 2010.06.03 11:33:40.
