data_PCOD9048721
_publ_section_title
;
Structure prediction by ZEFSAII (Michael W. Deem and Ramdas Pophale) SiO2 
 PCOD9048721
Probable space group: P -1
;
_chemical_formula_sum "Si O2"
_cell_formula_units_Z 12
_cell_length_a 4.938971
_cell_length_b 10.042974
_cell_length_c 17.954788
_cell_angle_alpha 43.003627
_cell_angle_beta 47.166614
_cell_angle_gamma 52.877861
_cell_volume 435.264153
_symmetry_space_group_name_H-M "P -1"
_symmetry_group_IT_number 2
_symmetry_cell_setting 'triclinic'
loop_
_space_group_symop_operation_xyz
x,y,z
-x,-y,-z
loop_
_atom_site_type_symbol
_atom_site_label
_atom_site_fract_x
_atom_site_fract_y
_atom_site_fract_z
Si Si1 0.609071 0.112399 0.564322
Si Si2 0.473408 0.316093 0.026893
Si Si3 0.709936 0.428560 0.185888
Si Si4 0.516647 0.688637 0.244102
Si Si5 0.877860 0.652195 0.564166
Si Si6 0.848700 0.944825 0.189561
O O1 0.437188 0.006190 0.707162
O O2 0.727208 0.308041 0.498910
O O3 0.696150 0.821796 0.470045
O O4 0.000000 0.000000 0.500000
O O5 0.059479 0.281675 0.142920
O O6 0.784413 0.126591 0.069745
O O7 0.500000 0.500000 0.000000
O O8 0.437738 0.397594 0.917056
O O9 0.804888 0.543171 0.195542
O O10 0.385975 0.327929 0.320327
O O11 0.200632 0.554450 0.370838
O O12 0.724013 0.763115 0.243150
O O13 0.270595 0.876423 0.169341
#
# Coordination Sequence:
#
# PCOD9048721 Si02
#       6
#     2   2   2   2   2   2
#     4  12  25  42  72 105 142 181 227 291 334 420
#     4  11  26  45  75  97 140 188 230 296 341 419
#     4   9  25  46  70  99 136 187 233 273 364 401
#     4  10  26  46  71 105 141 185 224 294 341 420
#     4  10  24  45  71  96 145 183 220 280 354 406
#     4  12  27  44  71 109 137 179 245 278 347 411
#
# _framework density 27.569465000000001
#
# number of rings (size 3 to 8) (size 9 to 14) (size 15 to 20)
#    1.000    0.333    0.000    3.500   11.667    5.333 
#    0.000    0.000    0.000    0.000    0.000    0.000 
#    0.000    0.000    0.000    0.000    0.000    0.000 
#
# Total GULP energy -67278.444087 kJ/mol
# GULP energy per Si atom -5606.537007 kJ/mol
# Density = 2.750672 g / cm^3
# Si number density = 27.569465 Si / 1000 Ang^3
#
#
#
# Elastic Constant Matrix: (Units=GPa)
#
#
# Indices 1 2 3 4 5 6 
#
# 1 121.5908 11.8822 26.0928 11.1212 10.4541 8.8518
# 2 11.8822 101.9263 8.3508 13.8603 -4.8585 13.2843
# 3 26.0928 8.3508 91.4083 9.4316 9.9548 12.1332
# 4 11.1212 13.8603 9.4316 47.6960 2.8148 -0.5502
# 5 10.4541 -4.8585 9.9548 2.8148 53.3207 -8.2334
# 6 8.8518 13.2843 12.1332 -0.5502 -8.2334 49.6067
#
#
#
# Elastic Compliance Matrix: (Units=1/GPa)
#
#
# Indices 1 2 3 4 5 6 
#
# 1 0.009082 -0.000606 -0.002053 -0.001457 -0.001566 -0.001232
# 2 -0.000606 0.010689 -0.000250 -0.002998 0.000900 -0.002577
# 3 -0.002053 -0.000250 0.012382 -0.001796 -0.002300 -0.002997
# 4 -0.001457 -0.002998 -0.001796 0.022586 -0.000589 0.001655
# 5 -0.001566 0.000900 -0.002300 -0.000589 0.020214 0.003949
# 6 -0.001232 -0.002577 -0.002997 0.001655 0.003949 0.022475
#
#
# Mechanical properties :
#
#
# Convention : Reuss Voigt Hill
#
# Bulk Modulus (GPa) = 37.97275 45.28633 41.62954
# Shear Modulus (GPa) = 44.63327 48.03132 46.33230
#
# Velocity S-wave (km/s) = 4.02797 4.17849 4.10392
# Velocity P-wave (km/s) = 5.95282 6.30409 6.13097
#
# Compressibility (1/GPa) = 0.02633467
#
# Stress axis : x y z
#
# Youngs Moduli (GPa) = 110.11212 93.55745 80.76042
#
# Poissons Ratio (x) = 0.05674 0.16576
# Poissons Ratio (y) = 0.06678 0.02019
# Poissons Ratio (z) = 0.22601 0.02339
#
# Static dielectric constant tensor:
#      x y z
#    x 2.091360 0.001690 -0.060170 
#    y 0.001690 2.191820 -0.010830 
#    z -0.060170 -0.010830 2.165780 
# 
# From -- ./inp_files/93786.got.cif
#   From: 2010.05.17/outbox.cif.g08.bks.cpg/sg2_47_cif.got.tgz:93786.got - 2010.06.03 11:33:40.
