data_PCOD9048331
_publ_section_title
;
Structure prediction by ZEFSAII (Michael W. Deem and Ramdas Pophale) SiO2 
 PCOD9048331
Probable space group: P -1
;
_chemical_formula_sum "Si O2"
_cell_formula_units_Z 14
_cell_length_a 8.983452
_cell_length_b 5.067543
_cell_length_c 19.307411
_cell_angle_alpha 110.830189
_cell_angle_beta 41.790481
_cell_angle_gamma 120.610040
_cell_volume 503.676004
_symmetry_space_group_name_H-M "P -1"
_symmetry_group_IT_number 2
_symmetry_cell_setting 'triclinic'
loop_
_space_group_symop_operation_xyz
x,y,z
-x,-y,-z
loop_
_atom_site_type_symbol
_atom_site_label
_atom_site_fract_x
_atom_site_fract_y
_atom_site_fract_z
Si Si1 0.691341 0.132633 0.068842
Si Si2 0.887572 0.801670 0.360439
Si Si3 0.626025 0.430566 0.544211
Si Si4 0.561551 0.046098 0.658074
Si Si5 0.307466 0.402529 0.242776
Si Si6 0.914446 0.010737 0.121286
Si Si7 0.220837 0.572042 0.140621
O O1 0.774351 0.012261 0.098920
O O2 0.471531 0.867904 0.079638
O O3 0.561285 0.358469 0.157444
O O4 0.941005 0.213831 0.947233
O O5 0.815822 0.578289 0.430766
O O6 0.629563 0.783922 0.421538
O O7 0.006868 0.675122 0.246758
O O8 0.094886 0.134805 0.331383
O O9 0.684436 0.237055 0.565143
O O10 0.585968 0.722979 0.619063
O O11 0.671735 0.271602 0.705089
O O12 0.281254 0.013296 0.753970
O O13 0.249801 0.385529 0.180145
O O14 0.134078 0.343744 0.085862
#
# Coordination Sequence:
#
# PCOD9048331 Si02
#       7
#     2   2   2   2   2   2   2
#     4  10  24  45  67 106 139 190 242 298 356 444
#     4  10  25  43  71  99 145 185 244 297 360 431
#     4  11  26  46  72 106 138 195 246 295 363 434
#     4  12  25  45  71 104 144 188 242 295 363 427
#     4  11  25  43  68 102 148 183 243 302 361 429
#     4  11  22  45  73  98 145 189 242 295 367 424
#     4  11  22  44  68 104 140 190 233 307 354 436
#
# _framework density 27.795646999999999
#
# number of rings (size 3 to 8) (size 9 to 14) (size 15 to 20)
#    0.000    1.143    2.857    2.143    4.000    3.429 
#    2.571    0.000    0.000    0.000    0.000    0.000 
#    0.000    0.000    0.000    0.000    0.000    0.000 
#
# Total GULP energy -78520.920783 kJ/mol
# GULP energy per Si atom -5608.637199 kJ/mol
# Density = 2.773238 g / cm^3
# Si number density = 27.795647 Si / 1000 Ang^3
#
#
#
# Elastic Constant Matrix: (Units=GPa)
#
#
# Indices 1 2 3 4 5 6 
#
# 1 112.4729 39.8322 25.1141 -0.0970 -7.3914 9.5753
# 2 39.8322 116.7262 32.1576 6.8982 -7.7476 18.8297
# 3 25.1141 32.1576 125.6535 8.8167 -26.5842 12.6710
# 4 -0.0970 6.8982 8.8167 51.4207 2.4543 -0.5075
# 5 -7.3914 -7.7476 -26.5842 2.4543 51.6948 -0.6484
# 6 9.5753 18.8297 12.6710 -0.5075 -0.6484 52.7630
#
#
#
# Elastic Compliance Matrix: (Units=1/GPa)
#
#
# Indices 1 2 3 4 5 6 
#
# 1 0.010330 -0.003138 -0.001182 0.000621 0.000364 -0.000461
# 2 -0.003138 0.010644 -0.001661 -0.001192 0.000314 -0.002838
# 3 -0.001182 -0.001661 0.009896 -0.001717 0.004733 -0.001528
# 4 0.000621 -0.001192 -0.001717 0.020003 -0.001911 0.000894
# 5 0.000364 0.000314 0.004733 -0.001911 0.021955 -0.001063
# 6 -0.000461 -0.002838 -0.001528 0.000894 -0.001063 0.020411
#
#
# Mechanical properties :
#
#
# Convention : Reuss Voigt Hill
#
# Bulk Modulus (GPa) = 52.88435 61.00671 56.94553
# Shear Modulus (GPa) = 44.84198 48.35896 46.60047
#
# Velocity S-wave (km/s) = 4.02092 4.17562 4.09900
# Velocity P-wave (km/s) = 6.37373 6.72634 6.55241
#
# Compressibility (1/GPa) = 0.01890918
#
# Stress axis : x y z
#
# Youngs Moduli (GPa) = 96.80765 93.94603 101.05523
#
# Poissons Ratio (x) = 0.29477 0.11942
# Poissons Ratio (y) = 0.30375 0.16784
# Poissons Ratio (z) = 0.11440 0.15603
#
# Static dielectric constant tensor:
#      x y z
#    x 2.103990 0.032400 0.008970 
#    y 0.032400 2.184860 0.011000 
#    z 0.008970 0.011000 2.211980 
# 
# From -- ./inp_files/98436.got.cif
#   From: 2010.05.17/outbox.cif.g08.bks.cpg/sg2_50_cif.got.tgz:98436.got - 2010.06.03 11:33:40.
