data_PCOD9048635
_publ_section_title
;
Structure prediction by ZEFSAII (Michael W. Deem and Ramdas Pophale) SiO2 
 PCOD9048635
Probable space group: P -1
;
_chemical_formula_sum "Si O2"
_cell_formula_units_Z 14
_cell_length_a 11.849617
_cell_length_b 11.272487
_cell_length_c 8.947413
_cell_angle_alpha 55.204107
_cell_angle_beta 38.292735
_cell_angle_gamma 51.260486
_cell_volume 569.804965
_symmetry_space_group_name_H-M "P -1"
_symmetry_group_IT_number 2
_symmetry_cell_setting 'triclinic'
loop_
_space_group_symop_operation_xyz
x,y,z
-x,-y,-z
loop_
_atom_site_type_symbol
_atom_site_label
_atom_site_fract_x
_atom_site_fract_y
_atom_site_fract_z
Si Si1 0.285348 0.407788 0.675905
Si Si2 0.118609 0.560391 0.036111
Si Si3 0.492215 0.467531 0.857146
Si Si4 0.353959 0.055202 0.886371
Si Si5 0.206862 0.067574 0.417152
Si Si6 0.110065 0.118141 0.816400
Si Si7 0.815507 0.164568 0.610195
O O1 0.236954 0.523590 0.783340
O O2 0.459761 0.404841 0.387239
O O3 0.312563 0.236356 0.830788
O O4 0.082227 0.468464 0.753572
O O5 0.279582 0.461886 0.053711
O O6 0.038671 0.733569 0.054585
O O7 0.651841 0.315869 0.732202
O O8 0.500000 0.500000 0.000000
O O9 0.303200 0.058237 0.760752
O O10 0.565012 0.959701 0.802243
O O11 0.216148 0.971602 0.159508
O O12 0.154662 0.138595 0.584400
O O13 0.026656 0.169963 0.428231
O O14 0.207275 0.895938 0.489081
O O15 0.000000 0.000000 0.000000
#
# Coordination Sequence:
#
# PCOD9048635 Si02
#       7
#     2   2   2   2   2   2   2
#     4  10  25  45  72 101 129 180 230 275 337 399
#     4  10  24  45  70  96 139 176 227 280 330 405
#     4  12  27  43  69  99 141 179 220 274 347 399
#     4  11  24  44  71 100 130 179 231 275 331 402
#     4  11  24  41  67  97 141 173 223 278 338 389
#     4  11  23  40  69 101 133 173 228 277 331 394
#     4  11  26  43  66 101 138 180 221 276 334 408
#
# _framework density 24.56981
#
# number of rings (size 3 to 8) (size 9 to 14) (size 15 to 20)
#    0.000    1.143    1.429    3.000    4.000    7.429 
#    0.000    0.000    0.000    0.000    0.000    0.000 
#    0.000    0.000    0.000    0.000    0.000    0.000 
#
# Total GULP energy -78119.786056 kJ/mol
# GULP energy per Si atom -5579.984718 kJ/mol
# Density = 2.451389 g / cm^3
# Si number density = 24.569810 Si / 1000 Ang^3
#
#
#
# Elastic Constant Matrix: (Units=GPa)
#
#
# Indices 1 2 3 4 5 6 
#
# 1 172.2818 23.8500 26.1822 25.3056 -13.4325 5.5744
# 2 23.8500 111.1068 25.9739 3.1418 1.5198 15.1250
# 3 26.1822 25.9739 54.1524 9.8735 10.0377 5.6390
# 4 25.3056 3.1418 9.8735 27.2337 -6.3622 -0.4168
# 5 -13.4325 1.5198 10.0377 -6.3622 38.8208 25.0176
# 6 5.5744 15.1250 5.6390 -0.4168 25.0176 42.0716
#
#
#
# Elastic Compliance Matrix: (Units=1/GPa)
#
#
# Indices 1 2 3 4 5 6 
#
# 1 0.007509 -0.000353 -0.003143 -0.004724 0.004813 -0.003356
# 2 -0.000353 0.011214 -0.006003 0.002407 0.005544 -0.006453
# 3 -0.003143 -0.006003 0.026312 -0.009024 -0.013722 0.007118
# 4 -0.004724 0.002407 -0.009024 0.046800 0.011917 -0.005653
# 5 0.004813 0.005544 -0.013722 0.011917 0.053734 -0.032626
# 6 -0.003356 -0.006453 0.007118 -0.005653 -0.032626 0.044925
#
#
# Mechanical properties :
#
#
# Convention : Reuss Voigt Hill
#
# Bulk Modulus (GPa) = 38.40355 54.39480 46.39917
# Shear Modulus (GPa) = 22.91798 39.06087 30.98942
#
# Velocity S-wave (km/s) = 3.05744 3.99154 3.55530
# Velocity P-wave (km/s) = 5.30361 6.59016 5.98157
#
# Compressibility (1/GPa) = 0.02603926
#
# Stress axis : x y z
#
# Youngs Moduli (GPa) = 133.18200 89.17516 38.00479
#
# Poissons Ratio (x) = 0.03144 0.11943
# Poissons Ratio (y) = 0.04696 0.22813
# Poissons Ratio (z) = 0.41853 0.53529
#
# Static dielectric constant tensor:
#      x y z
#    x 1.902530 -0.075670 -0.032170 
#    y -0.075670 1.959790 -0.088390 
#    z -0.032170 -0.088390 1.778410 
# 
# From -- ./inp_files/261904.got.cif
#   From: 2010.05.17/outbox.cif.g08.bks.cpg/sg2_131_cif.got.tgz:261904.got - 2010.06.03 11:33:40.
