data_PCOD9048884
_publ_section_title
;
Structure prediction by ZEFSAII (Michael W. Deem and Ramdas Pophale) SiO2 
 PCOD9048884
Probable space group: P -1
;
_chemical_formula_sum "Si O2"
_cell_formula_units_Z 8
_cell_length_a 9.821083
_cell_length_b 8.885577
_cell_length_c 5.254764
_cell_angle_alpha 75.093244
_cell_angle_beta 135.781534
_cell_angle_gamma 112.620833
_cell_volume 295.076669
_symmetry_space_group_name_H-M "P -1"
_symmetry_group_IT_number 2
_symmetry_cell_setting 'triclinic'
loop_
_space_group_symop_operation_xyz
x,y,z
-x,-y,-z
loop_
_atom_site_type_symbol
_atom_site_label
_atom_site_fract_x
_atom_site_fract_y
_atom_site_fract_z
Si Si1 0.195526 0.937148 0.240744
Si Si2 0.952221 0.667200 0.308989
Si Si3 0.687002 0.607069 0.458928
Si Si4 0.582400 0.253757 0.657491
O O1 0.232621 0.822785 0.111150
O O2 0.160842 0.812435 0.484575
O O3 0.386136 0.097698 0.417623
O O4 0.000000 0.000000 0.000000
O O5 0.809982 0.688279 0.340879
O O6 0.000000 0.500000 0.500000
O O7 0.831561 0.649504 0.885769
O O8 0.621898 0.410389 0.454799
O O9 0.491080 0.668440 0.225829
#
# Coordination Sequence:
#
# PCOD9048884 Si02
#       4
#     2   2   2   2
#     4  11  23  48  74 110 151 191 243 304 367 429
#     4  12  25  47  78 108 148 194 244 298 366 435
#     4  11  25  49  74 109 147 193 244 302 360 435
#     4  10  24  45  74 110 148 193 242 303 363 434
#
# _framework density 27.111595000000001
#
# number of rings (size 3 to 8) (size 9 to 14) (size 15 to 20)
#    0.000    1.000    5.000    0.750    0.000    5.000 
#    0.000    2.500    0.000    0.000    0.000    0.000 
#    0.000    0.000    0.000    0.000    0.000    0.000 
#
# Total GULP energy -44718.843403 kJ/mol
# GULP energy per Si atom -5589.855425 kJ/mol
# Density = 2.704989 g / cm^3
# Si number density = 27.111595 Si / 1000 Ang^3
#
#
#
# Elastic Constant Matrix: (Units=GPa)
#
#
# Indices 1 2 3 4 5 6 
#
# 1 241.0485 57.1244 78.7006 -6.9793 3.9975 -21.9832
# 2 57.1244 195.6703 30.1241 -16.7635 4.5577 0.7653
# 3 78.7006 30.1241 118.5913 -0.1293 -14.1418 0.2494
# 4 -6.9793 -16.7635 -0.1293 19.8809 -1.2697 14.1107
# 5 3.9975 4.5577 -14.1418 -1.2697 63.5858 -16.4342
# 6 -21.9832 0.7653 0.2494 14.1107 -16.4342 68.6032
#
#
#
# Elastic Compliance Matrix: (Units=1/GPa)
#
#
# Indices 1 2 3 4 5 6 
#
# 1 0.005764 -0.001141 -0.003614 -0.000263 -0.000631 0.001776
# 2 -0.001141 0.006130 -0.000901 0.006051 -0.000938 -0.001900
# 3 -0.003614 -0.000901 0.011385 -0.001641 0.002741 -0.000195
# 4 -0.000263 0.006051 -0.001641 0.065269 -0.003183 -0.014333
# 5 -0.000631 -0.000938 0.002741 -0.003183 0.017586 0.004666
# 6 0.001776 -0.001900 -0.000195 -0.014333 0.004666 0.019233
#
#
# Mechanical properties :
#
#
# Convention : Reuss Voigt Hill
#
# Bulk Modulus (GPa) = 83.57053 98.57870 91.07462
# Shear Modulus (GPa) = 35.54431 56.37136 45.95784
#
# Velocity S-wave (km/s) = 3.62475 4.56481 4.12167
# Velocity P-wave (km/s) = 6.95773 8.01390 7.50442
#
# Compressibility (1/GPa) = 0.01196594
#
# Stress axis : x y z
#
# Youngs Moduli (GPa) = 173.49553 163.12619 87.83217
#
# Poissons Ratio (x) = 0.18613 0.31746
# Poissons Ratio (y) = 0.19796 0.07916
# Poissons Ratio (z) = 0.62709 0.14702
#
# Static dielectric constant tensor:
#      x y z
#    x 2.107250 0.008170 0.034270 
#    y 0.008170 2.176410 0.043690 
#    z 0.034270 0.043690 2.269450 
# 
# From -- ./inp_files/16732.got.cif
#   From: 2010.05.17/outbox.cif.g08.bks.cpg/sg2_9_cif.got.tgz:16732.got - 2010.06.03 11:33:40.
