data_PCOD9048634
_publ_section_title
;
Structure prediction by ZEFSAII (Michael W. Deem and Ramdas Pophale) SiO2 
 PCOD9048634
Probable space group: P -1
;
_chemical_formula_sum "Si O2"
_cell_formula_units_Z 16
_cell_length_a 11.523618
_cell_length_b 13.539200
_cell_length_c 8.199910
_cell_angle_alpha 108.865636
_cell_angle_beta 61.797195
_cell_angle_gamma 145.770234
_cell_volume 628.329942
_symmetry_space_group_name_H-M "P -1"
_symmetry_group_IT_number 2
_symmetry_cell_setting 'triclinic'
loop_
_space_group_symop_operation_xyz
x,y,z
-x,-y,-z
loop_
_atom_site_type_symbol
_atom_site_label
_atom_site_fract_x
_atom_site_fract_y
_atom_site_fract_z
Si Si1 0.252355 0.731543 0.162340
Si Si2 0.183894 0.417757 0.605046
Si Si3 0.325643 0.592399 0.255182
Si Si4 0.006563 0.112929 0.711071
Si Si5 0.432086 0.911423 0.673066
Si Si6 0.508927 0.765718 0.736345
Si Si7 0.990048 0.739561 0.892922
Si Si8 0.831285 0.949773 0.208158
O O1 0.225291 0.637687 0.285376
O O2 0.027040 0.648669 0.230140
O O3 0.436717 0.934845 0.200081
O O4 0.348861 0.722929 0.949015
O O5 0.230470 0.486521 0.429117
O O6 0.119888 0.255847 0.573710
O O7 0.395258 0.585056 0.664035
O O8 0.587660 0.778879 0.202246
O O9 0.250087 0.459072 0.100217
O O10 0.139628 0.095461 0.668555
O O11 0.753072 0.921361 0.735512
O O12 0.008212 0.193284 0.907237
O O13 0.501377 0.837168 0.620874
O O14 0.169165 0.761063 0.792921
O O15 0.500000 0.000000 0.500000
O O16 0.087921 0.879577 0.763311
O O17 0.000000 0.000000 0.000000
#
# Coordination Sequence:
#
# PCOD9048634 Si02
#       8
#     2   2   2   2   2   2   2   2
#     4  12  21  43  66  96 137 176 219 269 329 401
#     4  12  26  40  65 100 138 171 218 274 339 391
#     4  12  25  43  68  99 135 170 220 279 334 390
#     4  11  24  44  66  97 129 178 229 270 323 389
#     4  12  22  38  69  99 136 173 211 269 338 394
#     4  12  24  42  67  96 138 176 222 271 326 396
#     4  11  23  43  70  97 131 174 222 273 328 392
#     4  10  24  45  70  95 127 177 231 272 324 387
#
# _framework density 25.464327000000001
#
# number of rings (size 3 to 8) (size 9 to 14) (size 15 to 20)
#    0.000    0.500    3.750    5.625    0.000    3.500 
#    0.000    1.250    0.000    0.000    0.000    0.000 
#    0.000    0.000    0.000    0.000    0.000    0.000 
#
# Total GULP energy -89791.209408 kJ/mol
# GULP energy per Si atom -5611.950588 kJ/mol
# Density = 2.540637 g / cm^3
# Si number density = 25.464327 Si / 1000 Ang^3
#
#
#
# Elastic Constant Matrix: (Units=GPa)
#
#
# Indices 1 2 3 4 5 6 
#
# 1 152.2678 56.9041 0.1439 -12.8520 12.3129 -3.8306
# 2 56.9041 167.0441 8.1238 6.3149 1.8133 9.2555
# 3 0.1439 8.1238 75.9634 6.6654 12.0247 -0.1237
# 4 -12.8520 6.3149 6.6654 33.4890 -8.5191 11.7259
# 5 12.3129 1.8133 12.0247 -8.5191 37.6518 -9.7481
# 6 -3.8306 9.2555 -0.1237 11.7259 -9.7481 28.6479
#
#
#
# Elastic Compliance Matrix: (Units=1/GPa)
#
#
# Indices 1 2 3 4 5 6 
#
# 1 0.008047 -0.002858 0.000321 0.003045 -0.001877 0.000115
# 2 -0.002858 0.007167 -0.000601 -0.001634 -0.000125 -0.002074
# 3 0.000321 -0.000601 0.014475 -0.004095 -0.005608 0.000067
# 4 0.003045 -0.001634 -0.004095 0.038057 0.005709 -0.012717
# 5 -0.001877 -0.000125 -0.005608 0.005709 0.032455 0.008472
# 6 0.000115 -0.002074 0.000067 -0.012717 0.008472 0.043680
#
#
# Mechanical properties :
#
#
# Convention : Reuss Voigt Hill
#
# Bulk Modulus (GPa) = 42.71320 58.40211 50.55766
# Shear Modulus (GPa) = 31.65292 41.96464 36.80878
#
# Velocity S-wave (km/s) = 3.52949 4.06393 3.80610
# Velocity P-wave (km/s) = 5.78099 6.70861 6.26200
#
# Compressibility (1/GPa) = 0.02341197
#
# Stress axis : x y z
#
# Youngs Moduli (GPa) = 124.27223 139.52251 69.08462
#
# Poissons Ratio (x) = 0.39874 -0.02215
# Poissons Ratio (y) = 0.35516 0.04154
# Poissons Ratio (z) = -0.03984 0.08388
#
# Static dielectric constant tensor:
#      x y z
#    x 2.001240 -0.028140 0.073480 
#    y -0.028140 1.952590 -0.009570 
#    z 0.073480 -0.009570 2.072180 
# 
# From -- ./inp_files/223761.got.cif
#   From: 2010.05.17/outbox.cif.g08.bks.cpg/sg2_112_cif.got.tgz:223761.got - 2010.06.03 11:33:40.
