data_PCOD9048778
_publ_section_title
;
Structure prediction by ZEFSAII (Michael W. Deem and Ramdas Pophale) SiO2 
 PCOD9048778
Probable space group: P -1
;
_chemical_formula_sum "Si O2"
_cell_formula_units_Z 12
_cell_length_a 5.104471
_cell_length_b 9.309018
_cell_length_c 11.045258
_cell_angle_alpha 104.473512
_cell_angle_beta 68.970713
_cell_angle_gamma 104.711630
_cell_volume 466.439845
_symmetry_space_group_name_H-M "P -1"
_symmetry_group_IT_number 2
_symmetry_cell_setting 'triclinic'
loop_
_space_group_symop_operation_xyz
x,y,z
-x,-y,-z
loop_
_atom_site_type_symbol
_atom_site_label
_atom_site_fract_x
_atom_site_fract_y
_atom_site_fract_z
Si Si1 0.465628 0.746381 0.981194
Si Si2 0.759410 0.466177 0.232396
Si Si3 0.900475 0.997648 0.877654
Si Si4 0.888278 0.619756 0.630508
Si Si5 0.788857 0.107988 0.514038
Si Si6 0.613412 0.763165 0.227196
O O1 0.267636 0.619619 0.910219
O O2 0.710067 0.832111 0.866882
O O3 0.302204 0.880108 0.075174
O O4 0.576651 0.701268 0.082296
O O5 0.013715 0.425365 0.261632
O O6 0.756013 0.642161 0.250789
O O7 0.452823 0.403322 0.332688
O O8 0.180412 0.073329 0.776051
O O9 0.000000 0.000000 0.000000
O O10 0.055146 0.780479 0.590596
O O11 0.000000 0.500000 0.500000
O O12 0.679424 0.211745 0.657885
O O13 0.500000 0.000000 0.500000
O O14 0.000000 0.000000 0.500000
#
# Coordination Sequence:
#
# PCOD9048778 Si02
#       6
#     2   2   2   2   2   2
#     4  10  24  45  72 112 148 198 245 312 382 444
#     4  12  28  46  82 107 153 200 249 304 382 454
#     4   9  22  41  69 101 156 188 247 300 377 431
#     4  12  28  52  75 107 154 200 250 310 375 441
#     4  12  30  49  79 112 147 200 260 310 373 444
#     4  11  26  46  75 109 154 195 252 316 369 454
#
# _framework density 25.726794000000002
#
# number of rings (size 3 to 8) (size 9 to 14) (size 15 to 20)
#    0.000    1.000    1.667    2.000   14.000    6.000 
#    0.000    0.000    0.000    0.000    0.000    0.000 
#    0.000    0.000    0.000    0.000    0.000    0.000 
#
# Total GULP energy -67243.460427 kJ/mol
# GULP energy per Si atom -5603.621702 kJ/mol
# Density = 2.566824 g / cm^3
# Si number density = 25.726794 Si / 1000 Ang^3
#
#
#
# Elastic Constant Matrix: (Units=GPa)
#
#
# Indices 1 2 3 4 5 6 
#
# 1 103.0662 39.2108 13.9185 -9.5054 1.0652 -12.2807
# 2 39.2108 144.4308 34.5026 -22.0652 14.7798 -12.5994
# 3 13.9185 34.5026 102.3405 -12.5858 -11.4277 5.2629
# 4 -9.5054 -22.0652 -12.5858 46.0476 8.9556 -3.4015
# 5 1.0652 14.7798 -11.4277 8.9556 38.8600 1.3808
# 6 -12.2807 -12.5994 5.2629 -3.4015 1.3808 52.7180
#
#
#
# Elastic Compliance Matrix: (Units=1/GPa)
#
#
# Indices 1 2 3 4 5 6 
#
# 1 0.011096 -0.002543 -0.000614 0.001026 0.000171 0.002100
# 2 -0.002543 0.009908 -0.003200 0.004665 -0.005805 0.002548
# 3 -0.000614 -0.003200 0.011617 0.000457 0.004622 -0.002159
# 4 0.001026 0.004665 0.000457 0.026038 -0.007782 0.003192
# 5 0.000171 -0.005805 0.004622 -0.007782 0.031200 -0.003128
# 6 0.002100 0.002548 -0.002159 0.003192 -0.003128 0.020570
#
#
# Mechanical properties :
#
#
# Convention : Reuss Voigt Hill
#
# Bulk Modulus (GPa) = 50.23718 58.34461 54.29089
# Shear Modulus (GPa) = 38.52684 45.00550 41.76617
#
# Velocity S-wave (km/s) = 3.87400 4.18708 4.03358
# Velocity P-wave (km/s) = 6.29127 6.78994 6.54535
#
# Compressibility (1/GPa) = 0.01990558
#
# Stress axis : x y z
#
# Youngs Moduli (GPa) = 90.12174 100.93209 86.08154
#
# Poissons Ratio (x) = 0.25670 0.05288
# Poissons Ratio (y) = 0.22921 0.27545
# Poissons Ratio (z) = 0.05537 0.32297
#
# Static dielectric constant tensor:
#      x y z
#    x -0.112540 1.935260 -0.835010 
#    y 1.935260 0.288690 0.741680 
#    z -0.835010 0.741680 1.758560 
# 
# From -- ./inp_files/61162.got.cif
#   From: 2010.05.17/outbox.cif.g08.bks.cpg/sg2_31_cif.got.tgz:61162.got - 2010.06.03 11:33:40.
