data_PCOD9048005
_publ_section_title
;
Structure prediction by ZEFSAII (Michael W. Deem and Ramdas Pophale) SiO2 
 PCOD9048005
Probable space group: P -1
;
_chemical_formula_sum "Si O2"
_cell_formula_units_Z 14
_cell_length_a 16.191434
_cell_length_b 15.363692
_cell_length_c 6.845726
_cell_angle_alpha 48.186736
_cell_angle_beta 118.995388
_cell_angle_gamma 154.099784
_cell_volume 518.670779
_symmetry_space_group_name_H-M "P -1"
_symmetry_group_IT_number 2
_symmetry_cell_setting 'triclinic'
loop_
_space_group_symop_operation_xyz
x,y,z
-x,-y,-z
loop_
_atom_site_type_symbol
_atom_site_label
_atom_site_fract_x
_atom_site_fract_y
_atom_site_fract_z
Si Si1 0.821371 0.814442 0.723430
Si Si2 0.164422 0.600935 0.704185
Si Si3 0.500000 0.500000 0.500000
Si Si4 0.499206 0.931854 0.897532
Si Si5 0.958031 0.736181 0.205023
Si Si6 0.000000 0.500000 0.000000
Si Si7 0.755990 0.993976 0.565976
Si Si8 0.602181 0.392963 0.533458
O O1 0.622072 0.581959 0.711886
O O2 0.817755 0.940618 0.614426
O O3 0.884233 0.785523 0.994330
O O4 0.000000 0.000000 0.500000
O O5 0.274276 0.706961 0.884301
O O6 0.090807 0.401391 0.824196
O O7 0.336883 0.844459 0.402935
O O8 0.987021 0.487122 0.753443
O O9 0.615521 0.532565 0.437761
O O10 0.522025 0.821203 0.135105
O O11 0.500000 0.000000 0.000000
O O12 0.809773 0.553161 0.491861
O O13 0.182642 0.961420 0.205007
O O14 0.867853 0.231050 0.260001
O O15 0.522919 0.750857 0.597947
#
# Coordination Sequence:
#
# PCOD9048005 Si02
#       8
#     2   2   1   2   2   1   2   2
#     4  11  24  47  71 105 146 196 247 310 375 450
#     4  11  26  43  75 106 147 204 248 313 379 447
#     4  10  24  44  72 106 140 194 246 310 372 442
#     4  11  22  47  73 105 147 198 257 304 377 451
#     4  12  25  47  76 105 148 202 249 308 383 451
#     4  12  26  50  66 114 156 188 260 308 376 448
#     4  11  27  44  72 109 150 192 251 315 371 454
#     4  11  24  46  73 107 149 193 249 315 370 456
#
# _framework density 26.992072
#
# number of rings (size 3 to 8) (size 9 to 14) (size 15 to 20)
#    0.000    0.857    1.429    4.714    4.000    4.000 
#    7.714    0.000    0.000    0.000    0.000    0.000 
#    0.000    0.000    0.000    0.000    0.000    0.000 
#
# Total GULP energy -77989.429995 kJ/mol
# GULP energy per Si atom -5570.673571 kJ/mol
# Density = 2.693064 g / cm^3
# Si number density = 26.992072 Si / 1000 Ang^3
#
#
#
# Elastic Constant Matrix: (Units=GPa)
#
#
# Indices 1 2 3 4 5 6 
#
# 1 124.8377 31.7076 23.8034 -3.5617 -7.9124 -20.3347
# 2 31.7076 154.4108 36.6074 32.2559 11.6805 -10.1444
# 3 23.8034 36.6074 95.1710 9.7114 7.9016 2.5489
# 4 -3.5617 32.2559 9.7114 44.7285 7.7516 5.1574
# 5 -7.9124 11.6805 7.9016 7.7516 38.0269 14.7564
# 6 -20.3347 -10.1444 2.5489 5.1574 14.7564 36.4202
#
#
#
# Elastic Compliance Matrix: (Units=1/GPa)
#
#
# Indices 1 2 3 4 5 6 
#
# 1 0.009669 -0.001599 -0.002171 0.001726 0.000850 0.004517
# 2 -0.001599 0.009112 -0.002343 -0.006133 -0.002888 0.003848
# 3 -0.002171 -0.002343 0.012184 -0.000659 -0.001319 -0.002090
# 4 0.001726 -0.006133 -0.000659 0.027820 -0.001769 -0.003921
# 5 0.000850 -0.002888 -0.001319 -0.001769 0.033213 -0.013444
# 6 0.004517 0.003848 -0.002090 -0.003921 -0.013444 0.037199
#
#
# Mechanical properties :
#
#
# Convention : Reuss Voigt Hill
#
# Bulk Modulus (GPa) = 53.35985 62.07294 57.71639
# Shear Modulus (GPa) = 33.85934 42.65518 38.25726
#
# Velocity S-wave (km/s) = 3.54562 3.97959 3.76886
# Velocity P-wave (km/s) = 6.04760 6.64551 6.35360
#
# Compressibility (1/GPa) = 0.01874068
#
# Stress axis : x y z
#
# Youngs Moduli (GPa) = 103.42010 109.73989 82.07345
#
# Poissons Ratio (x) = 0.17548 0.17818
# Poissons Ratio (y) = 0.16537 0.19226
# Poissons Ratio (z) = 0.22453 0.25707
#
# Static dielectric constant tensor:
#      x y z
#    x 1.387040 -0.116870 -0.157320 
#    y -0.116870 1.918450 0.603330 
#    z -0.157320 0.603330 0.187810 
# 
# From -- ./inp_files/110663.got.cif
#   From: 2010.05.17/outbox.cif.g08.bks.cpg/sg2_56_cif.got.tgz:110663.got - 2010.06.03 11:33:40.
