data_PCOD9048655
_publ_section_title
;
Structure prediction by ZEFSAII (Michael W. Deem and Ramdas Pophale) SiO2 
 PCOD9048655
Probable space group: P -1
;
_chemical_formula_sum "Si O2"
_cell_formula_units_Z 16
_cell_length_a 9.346545
_cell_length_b 23.892210
_cell_length_c 9.753808
_cell_angle_alpha 128.619413
_cell_angle_beta 135.811216
_cell_angle_gamma 25.786614
_cell_volume 658.787524
_symmetry_space_group_name_H-M "P -1"
_symmetry_group_IT_number 2
_symmetry_cell_setting 'triclinic'
loop_
_space_group_symop_operation_xyz
x,y,z
-x,-y,-z
loop_
_atom_site_type_symbol
_atom_site_label
_atom_site_fract_x
_atom_site_fract_y
_atom_site_fract_z
Si Si1 0.674648 0.372632 0.949870
Si Si2 0.308274 0.992837 0.268201
Si Si3 0.460582 0.174879 0.327419
Si Si4 0.237539 0.025769 0.951446
Si Si5 0.592483 0.671678 0.120674
Si Si6 0.369439 0.717895 0.745972
Si Si7 0.252864 0.221979 0.558165
Si Si8 0.409143 0.355554 0.520842
O O1 0.411505 0.399708 0.905010
O O2 0.692776 0.325757 0.746713
O O3 0.500000 0.500000 0.000000
O O4 0.066649 0.270235 0.133853
O O5 0.877853 0.137736 0.209216
O O6 0.500000 0.000000 0.500000
O O7 0.472323 0.875749 0.276111
O O8 0.380876 0.975321 0.128771
O O9 0.440818 0.152487 0.434537
O O10 0.493813 0.250586 0.467542
O O11 0.757340 0.049520 0.244820
O O12 0.831024 0.177505 0.914505
O O13 0.500000 0.000000 0.000000
O O14 0.841626 0.666191 0.330169
O O15 0.628342 0.647884 0.947993
O O16 0.553751 0.653998 0.630059
O O17 0.092968 0.731022 0.599030
O O18 0.000000 0.500000 0.500000
#
# Coordination Sequence:
#
# PCOD9048655 Si02
#       8
#     2   2   2   2   2   2   2   2
#     4  12  25  48  74  96 142 186 236 304 352 416
#     4   9  21  38  64 104 145 189 229 273 352 428
#     4  12  25  44  71 103 149 186 235 297 355 416
#     4  11  22  39  69 109 153 187 234 291 354 428
#     4  11  24  43  71 108 144 186 236 286 358 431
#     4  10  24  45  70  99 147 185 232 293 352 423
#     4  11  23  43  68 103 150 184 232 283 354 432
#     4  12  28  48  72 106 131 185 252 295 356 428
#
# _framework density 24.287040000000001
#
# number of rings (size 3 to 8) (size 9 to 14) (size 15 to 20)
#    0.000    1.000    5.000    1.500    7.000    2.500 
#    0.000    3.125    0.000    0.000    0.000    0.000 
#    0.000    0.000    0.000    0.000    0.000    0.000 
#
# Total GULP energy -89672.418807 kJ/mol
# GULP energy per Si atom -5604.526175 kJ/mol
# Density = 2.423176 g / cm^3
# Si number density = 24.287040 Si / 1000 Ang^3
#
#
#
# Elastic Constant Matrix: (Units=GPa)
#
#
# Indices 1 2 3 4 5 6 
#
# 1 116.9695 42.3836 46.5691 26.0865 -28.3255 11.6187
# 2 42.3836 75.8266 35.4376 0.0202 -8.7453 10.1537
# 3 46.5691 35.4376 130.1160 10.8315 -28.6718 -2.6825
# 4 26.0865 0.0202 10.8315 37.7958 0.6971 4.2998
# 5 -28.3255 -8.7453 -28.6718 0.6971 67.3366 10.2760
# 6 11.6187 10.1537 -2.6825 4.2998 10.2760 36.7781
#
#
#
# Elastic Compliance Matrix: (Units=1/GPa)
#
#
# Indices 1 2 3 4 5 6 
#
# 1 0.015656 -0.006798 -0.001759 -0.009992 0.005606 -0.003596
# 2 -0.006798 0.019022 -0.003657 0.006176 -0.001447 -0.003688
# 3 -0.001759 -0.003657 0.010138 -0.001939 0.002857 0.001733
# 4 -0.009992 0.006176 -0.001939 0.034154 -0.004357 -0.001466
# 5 0.005606 -0.001447 0.002857 -0.004357 0.019201 -0.006019
# 6 -0.003596 -0.003688 0.001733 -0.001466 -0.006019 0.031324
#
#
# Mechanical properties :
#
#
# Convention : Reuss Voigt Hill
#
# Bulk Modulus (GPa) = 49.04796 63.52141 56.28469
# Shear Modulus (GPa) = 31.11021 41.61690 36.36355
#
# Velocity S-wave (km/s) = 3.58290 4.14399 3.87362
# Velocity P-wave (km/s) = 6.11189 7.00772 6.57508
#
# Compressibility (1/GPa) = 0.02038821
#
# Stress axis : x y z
#
# Youngs Moduli (GPa) = 63.87302 52.56998 98.64208
#
# Poissons Ratio (x) = 0.35739 0.17349
# Poissons Ratio (y) = 0.43423 0.36071
# Poissons Ratio (z) = 0.11234 0.19223
#
# Static dielectric constant tensor:
#      x y z
#    x 1.938290 0.013430 0.014480 
#    y 0.013430 1.985500 -0.002050 
#    z 0.014480 -0.002050 1.937430 
# 
# From -- ./inp_files/226562.got.cif
#   From: 2010.05.17/outbox.cif.g08.bks.cpg/sg2_114_cif.got.tgz:226562.got - 2010.06.03 11:33:40.
