data_PCOD9048739
_publ_section_title
;
Structure prediction by ZEFSAII (Michael W. Deem and Ramdas Pophale) SiO2 
 PCOD9048739
Probable space group: P -1
;
_chemical_formula_sum "Si O2"
_cell_formula_units_Z 14
_cell_length_a 5.156183
_cell_length_b 14.146824
_cell_length_c 15.856527
_cell_angle_alpha 41.431834
_cell_angle_beta 134.556888
_cell_angle_gamma 126.419225
_cell_volume 539.729016
_symmetry_space_group_name_H-M "P -1"
_symmetry_group_IT_number 2
_symmetry_cell_setting 'triclinic'
loop_
_space_group_symop_operation_xyz
x,y,z
-x,-y,-z
loop_
_atom_site_type_symbol
_atom_site_label
_atom_site_fract_x
_atom_site_fract_y
_atom_site_fract_z
Si Si1 0.821303 0.317661 0.449620
Si Si2 0.772411 0.956247 0.248635
Si Si3 0.207820 0.613930 0.861640
Si Si4 0.396333 0.186731 0.048885
Si Si5 0.447615 0.798807 0.121581
Si Si6 0.631127 0.515254 0.663906
Si Si7 0.436912 0.147981 0.340573
O O1 0.663999 0.376404 0.459681
O O2 0.459092 0.256339 0.351972
O O3 0.057067 0.185291 0.591935
O O4 0.077156 0.439449 0.373801
O O5 0.621679 0.919741 0.145949
O O6 0.092636 0.091166 0.242028
O O7 0.470224 0.020589 0.194555
O O8 0.288033 0.754981 0.724100
O O9 0.851395 0.522467 0.798629
O O10 0.500000 0.500000 0.000000
O O11 0.298253 0.691859 0.920384
O O12 0.412363 0.192718 0.947387
O O13 0.993421 0.212326 0.966976
O O14 0.544056 0.647582 0.281042
O O15 0.500000 0.000000 0.500000
#
# Coordination Sequence:
#
# PCOD9048739 Si02
#       7
#     2   2   2   2   2   2   2
#     4  10  24  45  72 101 137 184 234 302 344 428
#     4  11  25  45  71 100 142 192 234 283 361 424
#     4  11  23  43  75 107 141 187 239 302 365 419
#     4  12  26  46  69 104 143 183 243 288 356 418
#     4  12  27  44  69 103 145 189 231 294 346 435
#     4  11  24  44  68 105 140 176 240 290 362 411
#     4   9  21  44  70 103 139 182 236 295 354 420
#
# _framework density 25.938942000000001
#
# number of rings (size 3 to 8) (size 9 to 14) (size 15 to 20)
#    0.000    1.143    1.429    3.429    2.000    8.571 
#    0.000    8.571    0.000    0.000    0.000    0.000 
#    0.000    0.000    0.000    0.000    0.000    0.000 
#
# Total GULP energy -78205.098584 kJ/mol
# GULP energy per Si atom -5586.078470 kJ/mol
# Density = 2.587990 g / cm^3
# Si number density = 25.938942 Si / 1000 Ang^3
#
#
#
# Elastic Constant Matrix: (Units=GPa)
#
#
# Indices 1 2 3 4 5 6 
#
# 1 97.0504 30.6543 17.0197 -13.2666 8.8592 -12.2370
# 2 30.6543 139.6191 24.9186 1.6172 2.3034 -21.7667
# 3 17.0197 24.9186 69.3711 5.8338 9.0405 2.8671
# 4 -13.2666 1.6172 5.8338 47.3488 -2.5299 1.7815
# 5 8.8592 2.3034 9.0405 -2.5299 37.8376 -5.3223
# 6 -12.2370 -21.7667 2.8671 1.7815 -5.3223 36.1344
#
#
#
# Elastic Compliance Matrix: (Units=1/GPa)
#
#
# Indices 1 2 3 4 5 6 
#
# 1 0.012333 -0.001809 -0.002606 0.003649 -0.001504 0.002892
# 2 -0.001809 0.008911 -0.003098 -0.000556 0.001319 0.005223
# 3 -0.002606 -0.003098 0.017128 -0.002783 -0.004124 -0.004578
# 4 0.003649 -0.000556 -0.002783 0.022570 0.001383 0.000213
# 5 -0.001504 0.001319 -0.004124 0.001383 0.028444 0.004734
# 6 0.002892 0.005223 -0.004578 0.000213 0.004734 0.032850
#
#
# Mechanical properties :
#
#
# Convention : Reuss Voigt Hill
#
# Bulk Modulus (GPa) = 42.83521 50.13618 46.48569
# Shear Modulus (GPa) = 34.47165 39.82739 37.14952
#
# Velocity S-wave (km/s) = 3.64944 3.92271 3.78854
# Velocity P-wave (km/s) = 5.85727 6.31564 6.09077
#
# Compressibility (1/GPa) = 0.02334528
#
# Stress axis : x y z
#
# Youngs Moduli (GPa) = 81.08121 112.21521 58.38321
#
# Poissons Ratio (x) = 0.20302 0.15217
# Poissons Ratio (y) = 0.14670 0.18088
# Poissons Ratio (z) = 0.21133 0.34766
#
# Static dielectric constant tensor:
#      x y z
#    x 2.006720 0.019070 0.041260 
#    y 0.019070 1.978920 0.054320 
#    z 0.041260 0.054320 1.912360 
# 
# From -- ./inp_files/549814.got.cif
#   From: 2010.05.17/outbox.cif.g08.bks.cpg/sg2_275_cif.got.tgz:549814.got - 2010.06.03 11:33:40.
