data_PCOD9048502
_publ_section_title
;
Structure prediction by ZEFSAII (Michael W. Deem and Ramdas Pophale) SiO2 
 PCOD9048502
Probable space group: P -1
;
_chemical_formula_sum "Si O2"
_cell_formula_units_Z 14
_cell_length_a 20.855807
_cell_length_b 8.139577
_cell_length_c 5.108882
_cell_angle_alpha 90.424075
_cell_angle_beta 106.479587
_cell_angle_gamma 43.628644
_cell_volume 547.541481
_symmetry_space_group_name_H-M "P -1"
_symmetry_group_IT_number 2
_symmetry_cell_setting 'triclinic'
loop_
_space_group_symop_operation_xyz
x,y,z
-x,-y,-z
loop_
_atom_site_type_symbol
_atom_site_label
_atom_site_fract_x
_atom_site_fract_y
_atom_site_fract_z
Si Si1 0.814161 0.353376 0.927039
Si Si2 0.882918 0.549233 0.745665
Si Si3 0.588547 0.779256 0.408281
Si Si4 0.704683 0.088190 0.057535
Si Si5 0.898816 0.845279 0.124863
Si Si6 0.592560 0.401683 0.440242
Si Si7 0.710749 0.745007 0.195192
O O1 0.882319 0.380411 0.909239
O O2 0.702973 0.566063 0.663124
O O3 0.780621 0.464634 0.183592
O O4 0.868196 0.078656 0.972883
O O5 0.778571 0.724972 0.471578
O O6 0.982247 0.365029 0.673735
O O7 0.887674 0.706030 0.922918
O O8 0.569056 0.627441 0.320503
O O9 0.607247 0.866853 0.190169
O O10 0.500000 0.000000 0.500000
O O11 0.629200 0.246387 0.216586
O O12 0.815931 0.955647 0.251709
O O13 0.697233 0.910091 0.962906
O O14 0.675920 0.243796 0.766527
O O15 0.500000 0.500000 0.500000
#
# Coordination Sequence:
#
# PCOD9048502 Si02
#       7
#     2   2   2   2   2   2   2
#     4  11  23  45  67 103 143 191 245 306 373 447
#     4  10  24  45  69 106 143 197 246 309 374 443
#     4  11  26  44  70 101 143 194 244 310 375 443
#     4  12  25  47  74 107 148 193 246 311 372 445
#     4  11  22  45  73 103 147 192 251 306 375 446
#     4  12  27  48  74 109 143 200 250 309 378 451
#     4  11  25  44  70 101 148 192 244 310 371 446
#
# _framework density 25.568836999999998
#
# number of rings (size 3 to 8) (size 9 to 14) (size 15 to 20)
#    0.000    0.857    2.857    3.429    4.000    1.714 
#    2.571    0.000    0.000    0.000    0.000    0.000 
#    0.000    0.000    0.000    0.000    0.000    0.000 
#
# Total GULP energy -78301.648152 kJ/mol
# GULP energy per Si atom -5592.974868 kJ/mol
# Density = 2.551064 g / cm^3
# Si number density = 25.568837 Si / 1000 Ang^3
#
#
#
# Elastic Constant Matrix: (Units=GPa)
#
#
# Indices 1 2 3 4 5 6 
#
# 1 182.4518 78.1361 20.1304 -5.6429 -14.6357 5.6032
# 2 78.1361 117.9429 10.8924 -9.0486 -1.4980 8.2167
# 3 20.1304 10.8924 52.7592 4.5971 -5.4526 -0.0145
# 4 -5.6429 -9.0486 4.5971 27.4407 1.6065 -3.7639
# 5 -14.6357 -1.4980 -5.4526 1.6065 36.8587 -0.8974
# 6 5.6032 8.2167 -0.0145 -3.7639 -0.8974 58.4158
#
#
#
# Elastic Compliance Matrix: (Units=1/GPa)
#
#
# Indices 1 2 3 4 5 6 
#
# 1 0.008112 -0.005170 -0.001752 0.000096 0.002747 -0.000003
# 2 -0.005170 0.012289 -0.001030 0.003126 -0.001868 -0.001060
# 3 -0.001752 -0.001030 0.020463 -0.004262 0.002477 0.000082
# 4 0.000096 0.003126 -0.004262 0.038604 -0.002099 0.002005
# 5 0.002747 -0.001868 0.002477 -0.002099 0.028611 0.000304
# 6 -0.000003 -0.001060 0.000082 0.002005 0.000304 0.017402
#
#
# Mechanical properties :
#
#
# Convention : Reuss Voigt Hill
#
# Bulk Modulus (GPa) = 40.06582 63.49687 51.78134
# Shear Modulus (GPa) = 33.39933 40.80938 37.10435
#
# Velocity S-wave (km/s) = 3.61813 3.99941 3.81354
# Velocity P-wave (km/s) = 5.75832 6.79813 6.29972
#
# Compressibility (1/GPa) = 0.02495893
#
# Stress axis : x y z
#
# Youngs Moduli (GPa) = 123.28092 81.37645 48.86958
#
# Poissons Ratio (x) = 0.42068 0.08562
# Poissons Ratio (y) = 0.63731 0.05035
# Poissons Ratio (z) = 0.21600 0.08384
#
# Static dielectric constant tensor:
#      x y z
#    x 2.036040 0.028930 -0.005810 
#    y 0.028930 2.111760 -0.044430 
#    z -0.005810 -0.044430 2.208390 
# 
# From -- ./inp_files/116163.got.cif
#   From: 2010.05.17/outbox.cif.g08.bks.cpg/sg2_59_cif.got.tgz:116163.got - 2010.06.03 11:33:40.
