data_PCOD9048742
_publ_section_title
;
Structure prediction by ZEFSAII (Michael W. Deem and Ramdas Pophale) SiO2 
 PCOD9048742
Probable space group: P -1
;
_chemical_formula_sum "Si O2"
_cell_formula_units_Z 13
_cell_length_a 12.245187
_cell_length_b 9.340242
_cell_length_c 9.351624
_cell_angle_alpha 63.880760
_cell_angle_beta 71.708136
_cell_angle_gamma 35.304616
_cell_volume 552.877653
_symmetry_space_group_name_H-M "P -1"
_symmetry_group_IT_number 2
_symmetry_cell_setting 'triclinic'
loop_
_space_group_symop_operation_xyz
x,y,z
-x,-y,-z
loop_
_atom_site_type_symbol
_atom_site_label
_atom_site_fract_x
_atom_site_fract_y
_atom_site_fract_z
Si Si1 0.248473 0.687244 0.463220
Si Si2 0.093137 0.155759 0.420949
Si Si3 0.708862 0.429235 0.170471
Si Si4 0.000000 0.000000 0.000000
Si Si5 0.358362 0.844549 0.944321
Si Si6 0.834142 0.628973 0.113614
Si Si7 0.552019 0.132093 0.418273
O O1 0.297645 0.626549 0.639800
O O2 0.402516 0.412434 0.437774
O O3 0.051425 0.810973 0.462967
O O4 0.205597 0.923248 0.358628
O O5 0.948166 0.441833 0.288176
O O6 0.245603 0.066934 0.499913
O O7 0.891748 0.179923 0.113088
O O8 0.721479 0.604945 0.107152
O O9 0.525482 0.587057 0.084280
O O10 0.826593 0.061350 0.023001
O O11 0.431710 0.816354 0.770148
O O12 0.299493 0.077420 0.932764
O O13 0.000000 0.500000 0.000000
O O14 0.500000 0.000000 0.500000
#
# Coordination Sequence:
#
# PCOD9048742 Si02
#       7
#     2   2   2   1   2   2   2
#     4  10  24  48  75 106 141 196 247 296 368 439
#     4  10  24  45  72 101 144 194 242 295 359 438
#     4  11  25  46  79 107 145 194 245 307 365 441
#     4  12  26  46  70 110 150 188 242 304 374 426
#     4  12  28  47  73 112 148 193 247 306 373 437
#     4  11  24  46  73 104 141 197 244 299 366 432
#     4  12  27  44  73 113 152 191 236 306 375 441
#
# _framework density 23.513339999999999
#
# number of rings (size 3 to 8) (size 9 to 14) (size 15 to 20)
#    0.000    0.923    1.538    4.154    4.308    7.385 
#    0.000    0.000    0.000    0.000    0.000    0.000 
#    0.000    0.000    0.000    0.000    0.000    0.000 
#
# Total GULP energy -72515.910144 kJ/mol
# GULP energy per Si atom -5578.146934 kJ/mol
# Density = 2.345982 g / cm^3
# Si number density = 23.513340 Si / 1000 Ang^3
#
#
#
# Elastic Constant Matrix: (Units=GPa)
#
#
# Indices 1 2 3 4 5 6 
#
# 1 161.2480 6.5313 45.3844 -7.2271 18.8160 -9.7962
# 2 6.5313 119.3180 52.6434 24.9675 6.1614 -5.6165
# 3 45.3844 52.6434 88.1488 9.7904 7.1455 -11.7153
# 4 -7.2271 24.9675 9.7904 39.1416 4.2800 3.5211
# 5 18.8160 6.1614 7.1455 4.2800 27.7262 -2.3377
# 6 -9.7962 -5.6165 -11.7153 3.5211 -2.3377 31.9895
#
#
#
# Elastic Compliance Matrix: (Units=1/GPa)
#
#
# Indices 1 2 3 4 5 6 
#
# 1 0.008242 0.001531 -0.004962 0.002298 -0.004979 0.000359
# 2 0.001531 0.013066 -0.007774 -0.006048 -0.000962 0.000511
# 3 -0.004962 -0.007774 0.019197 -0.001225 0.000702 0.004332
# 4 0.002298 -0.006048 -0.001225 0.031108 -0.005090 -0.004603
# 5 -0.004979 -0.000962 0.000702 -0.005090 0.040440 0.002079
# 6 0.000359 0.000511 0.004332 -0.004603 0.002079 0.033705
#
#
# Mechanical properties :
#
#
# Convention : Reuss Voigt Hill
#
# Bulk Modulus (GPa) = 55.26146 64.20366 59.73256
# Shear Modulus (GPa) = 28.70271 37.38184 33.04227
#
# Velocity S-wave (km/s) = 3.49764 3.99157 3.75274
# Velocity P-wave (km/s) = 6.31384 6.97195 6.65104
#
# Compressibility (1/GPa) = 0.01809579
#
# Stress axis : x y z
#
# Youngs Moduli (GPa) = 121.32964 76.53191 52.09214
#
# Poissons Ratio (x) = -0.11718 0.25847
# Poissons Ratio (y) = -0.18576 0.40496
# Poissons Ratio (z) = 0.60202 0.59496
#
# Static dielectric constant tensor:
#      x y z
#    x 1.943330 0.060850 -0.087680 
#    y 0.060850 1.884010 0.040690 
#    z -0.087680 0.040690 1.787000 
# 
# From -- ./inp_files/237614.got.cif
#   From: 2010.05.17/outbox.cif.g08.bks.cpg/sg2_119_cif.got.tgz:237614.got - 2010.06.03 11:33:40.
