data_PCOD9048072
_publ_section_title
;
Structure prediction by ZEFSAII (Michael W. Deem and Ramdas Pophale) SiO2 
 PCOD9048072
Probable space group: P -1
;
_chemical_formula_sum "Si O2"
_cell_formula_units_Z 11
_cell_length_a 8.352036
_cell_length_b 9.181474
_cell_length_c 15.669960
_cell_angle_alpha 41.211495
_cell_angle_beta 130.739503
_cell_angle_gamma 147.506451
_cell_volume 424.740406
_symmetry_space_group_name_H-M "P -1"
_symmetry_group_IT_number 2
_symmetry_cell_setting 'triclinic'
loop_
_space_group_symop_operation_xyz
x,y,z
-x,-y,-z
loop_
_atom_site_type_symbol
_atom_site_label
_atom_site_fract_x
_atom_site_fract_y
_atom_site_fract_z
Si Si1 0.345465 0.704711 0.018963
Si Si2 0.000000 0.000000 0.000000
Si Si3 0.532311 0.245398 0.158567
Si Si4 0.185506 0.450638 0.539524
Si Si5 0.992040 0.259276 0.371909
Si Si6 0.240673 0.267795 0.295496
O O1 0.384300 0.490157 0.166047
O O2 0.466959 0.808151 0.920081
O O3 0.000000 0.500000 0.000000
O O4 0.500000 0.000000 0.000000
O O5 0.773823 0.618613 0.090537
O O6 0.815285 0.950269 0.869252
O O7 0.678058 0.151622 0.302101
O O8 0.510944 0.687160 0.588635
O O9 0.000000 0.500000 0.500000
O O10 0.166878 0.469411 0.422906
O O11 0.034681 0.097014 0.658670
O O12 0.144251 0.391415 0.273522
O O13 0.000000 0.000000 0.500000
#
# Coordination Sequence:
#
# PCOD9048072 Si02
#       6
#     2   1   2   2   2   2
#     4  12  24  41  70 100 134 174 230 295 344 400
#     4  10  26  44  66  98 142 186 226 286 348 434
#     4  11  24  45  69 103 139 182 237 282 363 412
#     4  11  25  44  68 102 140 187 227 282 350 424
#     4  10  24  44  73 103 139 182 234 292 344 420
#     4  11  24  44  69 101 138 178 238 285 351 408
#
# _framework density 25.898174000000001
#
# number of rings (size 3 to 8) (size 9 to 14) (size 15 to 20)
#    0.000    1.091    1.818    3.273    2.545    7.273 
#    0.000    0.000    0.000    0.000    0.000    0.000 
#    0.000    0.000    0.000    0.000    0.000    0.000 
#
# Total GULP energy -61358.896878 kJ/mol
# GULP energy per Si atom -5578.081534 kJ/mol
# Density = 2.583923 g / cm^3
# Si number density = 25.898174 Si / 1000 Ang^3
#
#
#
# Elastic Constant Matrix: (Units=GPa)
#
#
# Indices 1 2 3 4 5 6 
#
# 1 54.0185 1.3766 -12.8363 -1.6755 -2.0302 -18.6907
# 2 1.3766 166.6766 18.4100 -3.6846 5.4383 -14.8402
# 3 -12.8363 18.4100 132.7151 8.0809 18.7792 0.8779
# 4 -1.6755 -3.6846 8.0809 38.1881 7.2147 4.2068
# 5 -2.0302 5.4383 18.7792 7.2147 50.3003 12.3867
# 6 -18.6907 -14.8402 0.8779 4.2068 12.3867 28.9357
#
#
#
# Elastic Compliance Matrix: (Units=1/GPa)
#
#
# Indices 1 2 3 4 5 6 
#
# 1 0.025655 0.001337 0.002892 -0.000568 -0.004869 0.019336
# 2 0.001337 0.006561 -0.000607 0.000606 -0.001721 0.004896
# 3 0.002892 -0.000607 0.008461 -0.001389 -0.003518 0.003008
# 4 -0.000568 0.000606 -0.001389 0.027351 -0.002806 -0.002789
# 5 -0.004869 -0.001721 -0.003518 -0.002806 0.025097 -0.014256
# 6 0.019336 0.004896 0.003008 -0.002789 -0.014256 0.055977
#
#
# Mechanical properties :
#
#
# Convention : Reuss Voigt Hill
#
# Bulk Modulus (GPa) = 20.86789 40.81230 30.84009
# Shear Modulus (GPa) = 31.67917 46.58215 39.13066
#
# Velocity S-wave (km/s) = 3.50125 4.24567 3.89130
# Velocity P-wave (km/s) = 4.94168 6.31088 5.66778
#
# Compressibility (1/GPa) = 0.04792052
#
# Stress axis : x y z
#
# Youngs Moduli (GPa) = 38.97875 152.41481 118.18613
#
# Poissons Ratio (x) = -0.20372 -0.34174
# Poissons Ratio (y) = -0.05210 0.07169
# Poissons Ratio (z) = -0.11271 0.09245
#
# Static dielectric constant tensor:
#      x y z
#    x -8.992800 -4.949410 1.060340 
#    y -4.949410 -0.252590 0.443790 
#    z 1.060340 0.443790 2.078680 
# 
# From -- ./inp_files/179679.got.cif
#   From: 2010.05.17/outbox.cif.g08.bks.cpg/sg2_90_cif.got.tgz:179679.got - 2010.06.03 11:33:40.
