data_PCOD9048116
_publ_section_title
;
Structure prediction by ZEFSAII (Michael W. Deem and Ramdas Pophale) SiO2 
 PCOD9048116
Probable space group: P -1
;
_chemical_formula_sum "Si O2"
_cell_formula_units_Z 15
_cell_length_a 14.191433
_cell_length_b 17.508705
_cell_length_c 11.826365
_cell_angle_alpha 28.417079
_cell_angle_beta 148.248428
_cell_angle_gamma 147.254066
_cell_volume 683.035712
_symmetry_space_group_name_H-M "P -1"
_symmetry_group_IT_number 2
_symmetry_cell_setting 'triclinic'
loop_
_space_group_symop_operation_xyz
x,y,z
-x,-y,-z
loop_
_atom_site_type_symbol
_atom_site_label
_atom_site_fract_x
_atom_site_fract_y
_atom_site_fract_z
Si Si1 0.320678 0.348133 0.457856
Si Si2 0.901807 0.340132 0.519883
Si Si3 0.000000 0.000000 0.000000
Si Si4 0.069027 0.032930 0.762507
Si Si5 0.336503 0.833356 0.309891
Si Si6 0.347563 0.687911 0.284599
Si Si7 0.278588 0.900633 0.743907
Si Si8 0.929958 0.449743 0.151785
O O1 0.500000 0.500000 0.500000
O O2 0.223751 0.196942 0.644623
O O3 0.439344 0.295667 0.550828
O O4 0.161070 0.413897 0.160375
O O5 0.694865 0.232086 0.508877
O O6 0.885371 0.413917 0.284789
O O7 0.000000 0.500000 0.500000
O O8 0.996136 0.195383 0.781075
O O9 0.954987 0.936358 0.169133
O O10 0.866298 0.998753 0.539848
O O11 0.152277 0.882972 0.031309
O O12 0.333373 0.693452 0.397079
O O13 0.529307 0.993943 0.267238
O O14 0.160309 0.523355 0.271896
O O15 0.318580 0.845062 0.981659
O O16 0.171679 0.723318 0.797722
#
# Coordination Sequence:
#
# PCOD9048116 Si02
#       8
#     2   2   1   2   2   2   2   2
#     4  12  24  40  68 105 137 180 241 294 357 427
#     4  11  24  49  75 104 148 196 244 300 365 438
#     4  10  24  44  74 100 138 196 232 292 362 428
#     4  11  23  43  67 100 140 185 237 285 362 433
#     4  11  26  45  67 104 145 185 239 303 361 429
#     4  12  24  43  69 101 146 184 236 307 360 429
#     4  12  23  41  70 102 139 183 240 294 367 433
#     4  12  24  45  72 103 143 194 237 300 363 432
#
# _framework density 21.960784
#
# number of rings (size 3 to 8) (size 9 to 14) (size 15 to 20)
#    0.000    0.533    6.667    1.600    0.000    2.133 
#    2.400    0.667    0.000    0.000    0.000    0.000 
#    0.000    0.000    0.000    0.000    0.000    0.000 
#
# Total GULP energy -83548.639945 kJ/mol
# GULP energy per Si atom -5569.909330 kJ/mol
# Density = 2.191080 g / cm^3
# Si number density = 21.960784 Si / 1000 Ang^3
#
#
#
# Elastic Constant Matrix: (Units=GPa)
#
#
# Indices 1 2 3 4 5 6 
#
# 1 111.2165 6.9414 23.0126 1.2430 -11.8033 7.2632
# 2 6.9414 75.6564 2.8495 1.2905 3.1655 2.5488
# 3 23.0126 2.8495 65.6025 -9.4055 -0.2345 2.8201
# 4 1.2430 1.2905 -9.4055 18.7184 8.3884 -0.4631
# 5 -11.8033 3.1655 -0.2345 8.3884 48.9760 -5.2646
# 6 7.2632 2.5488 2.8201 -0.4631 -5.2646 38.6230
#
#
#
# Elastic Compliance Matrix: (Units=1/GPa)
#
#
# Indices 1 2 3 4 5 6 
#
# 1 0.010350 -0.000813 -0.004123 -0.004124 0.003103 -0.001218
# 2 -0.000813 0.013388 -0.000348 -0.000593 -0.001053 -0.000856
# 3 -0.004123 -0.000348 0.018265 0.010712 -0.002803 -0.000789
# 4 -0.004124 -0.000593 0.010712 0.064496 -0.012040 -0.000835
# 5 0.003103 -0.001053 -0.002803 -0.012040 0.023579 0.002760
# 6 -0.001218 -0.000856 -0.000789 -0.000835 0.002760 0.026601
#
#
# Mechanical properties :
#
#
# Convention : Reuss Voigt Hill
#
# Bulk Modulus (GPa) = 31.81239 35.34251 33.57745
# Shear Modulus (GPa) = 28.13321 35.90829 32.02075
#
# Velocity S-wave (km/s) = 3.58308 4.04804 3.82263
# Velocity P-wave (km/s) = 5.62454 6.16256 5.89969
#
# Compressibility (1/GPa) = 0.03143429
#
# Stress axis : x y z
#
# Youngs Moduli (GPa) = 96.61579 74.69171 54.75101
#
# Poissons Ratio (x) = 0.06071 0.22575
# Poissons Ratio (y) = 0.07853 0.01908
# Poissons Ratio (z) = 0.39837 0.02603
#
# Static dielectric constant tensor:
#      x y z
#    x 1.397810 -0.462560 -0.482400 
#    y -0.462560 1.421890 -0.547120 
#    z -0.482400 -0.547120 1.213010 
# 
# From -- ./inp_files/456652.got.cif
#   From: 2010.05.17/outbox.cif.g08.bks.cpg/sg2_229_cif.got.tgz:456652.got - 2010.06.03 11:33:40.
