data_PCOD9048605
_publ_section_title
;
Structure prediction by ZEFSAII (Michael W. Deem and Ramdas Pophale) SiO2 
 PCOD9048605
Probable space group: P -1
;
_chemical_formula_sum "Si O2"
_cell_formula_units_Z 16
_cell_length_a 9.280085
_cell_length_b 17.499495
_cell_length_c 8.169979
_cell_angle_alpha 140.672914
_cell_angle_beta 72.660295
_cell_angle_gamma 120.856596
_cell_volume 709.843864
_symmetry_space_group_name_H-M "P -1"
_symmetry_group_IT_number 2
_symmetry_cell_setting 'triclinic'
loop_
_space_group_symop_operation_xyz
x,y,z
-x,-y,-z
loop_
_atom_site_type_symbol
_atom_site_label
_atom_site_fract_x
_atom_site_fract_y
_atom_site_fract_z
Si Si1 0.199586 0.552713 0.985938
Si Si2 0.936753 0.727271 0.588508
Si Si3 0.102546 0.412383 0.286573
Si Si4 0.808199 0.235358 0.894674
Si Si5 0.573825 0.412311 0.730712
Si Si6 0.273535 0.133659 0.228542
Si Si7 0.379908 0.984173 0.168806
Si Si8 0.711417 0.081350 0.363729
O O1 0.190322 0.413530 0.691996
O O2 0.250075 0.665519 0.013578
O O3 0.311403 0.607892 0.201022
O O4 0.000000 0.500000 0.000000
O O5 0.917869 0.682699 0.709448
O O6 0.876431 0.835162 0.727081
O O7 0.135785 0.795010 0.581518
O O8 0.296179 0.504607 0.320936
O O9 0.000000 0.500000 0.500000
O O10 0.006147 0.321205 0.011473
O O11 0.714195 0.167649 0.981568
O O12 0.771291 0.112599 0.580910
O O13 0.430479 0.273374 0.470859
O O14 0.500000 0.500000 0.000000
O O15 0.248301 0.033518 0.225797
O O16 0.307805 0.058484 0.937891
O O17 0.525878 0.074128 0.398234
O O18 0.500000 0.000000 0.000000
#
# Coordination Sequence:
#
# PCOD9048605 Si02
#       8
#     2   2   2   2   2   2   2   2
#     4  12  22  46  79 105 140 187 245 309 356 445
#     4  12  24  46  71 106 141 193 241 304 373 429
#     4  12  26  43  76 109 142 194 250 305 367 447
#     4  12  24  44  76 107 137 186 262 295 362 430
#     4  12  26  48  72 111 151 187 239 311 380 435
#     4  11  26  46  71  99 154 188 233 300 379 428
#     4  10  24  45  70 104 140 191 239 300 356 439
#     4  11  24  44  74 101 144 193 244 295 360 446
#
# _framework density 22.540168000000001
#
# number of rings (size 3 to 8) (size 9 to 14) (size 15 to 20)
#    0.000    0.500    5.000    3.000    5.250    0.500 
#    6.750    1.250    0.000    0.000    0.000    0.000 
#    0.000    0.000    0.000    0.000    0.000    0.000 
#
# Total GULP energy -89372.173260 kJ/mol
# GULP energy per Si atom -5585.760829 kJ/mol
# Density = 2.248887 g / cm^3
# Si number density = 22.540168 Si / 1000 Ang^3
#
#
#
# Elastic Constant Matrix: (Units=GPa)
#
#
# Indices 1 2 3 4 5 6 
#
# 1 109.5249 32.7634 20.5768 6.0877 -5.1649 -26.8752
# 2 32.7634 139.6905 3.1144 16.9735 -8.5843 -7.5530
# 3 20.5768 3.1144 132.9431 3.2452 10.0201 -2.1785
# 4 6.0877 16.9735 3.2452 32.3847 -4.3802 2.7004
# 5 -5.1649 -8.5843 10.0201 -4.3802 40.0934 -0.4325
# 6 -26.8752 -7.5530 -2.1785 2.7004 -0.4325 32.6373
#
#
#
# Elastic Compliance Matrix: (Units=1/GPa)
#
#
# Indices 1 2 3 4 5 6 
#
# 1 0.012737 -0.002096 -0.001834 -0.001738 0.001569 0.010046
# 2 -0.002096 0.008203 0.000156 -0.003824 0.001035 0.000513
# 3 -0.001834 0.000156 0.007979 -0.000771 -0.002291 -0.000908
# 4 -0.001738 -0.003824 -0.000771 0.034098 0.002820 -0.005151
# 5 0.001569 0.001035 -0.002291 0.002820 0.026262 0.001493
# 6 0.010046 0.000513 -0.000908 -0.005151 0.001493 0.039416
#
#
# Mechanical properties :
#
#
# Convention : Reuss Voigt Hill
#
# Bulk Modulus (GPa) = 46.79050 55.00751 50.89900
# Shear Modulus (GPa) = 34.87586 42.73667 38.80626
#
# Velocity S-wave (km/s) = 3.93781 4.35906 4.15378
# Velocity P-wave (km/s) = 6.44041 7.05637 6.75542
#
# Compressibility (1/GPa) = 0.02137186
#
# Stress axis : x y z
#
# Youngs Moduli (GPa) = 78.50905 121.91074 125.33263
#
# Poissons Ratio (x) = 0.25551 0.22981
# Poissons Ratio (y) = 0.16454 -0.01955
# Poissons Ratio (z) = 0.14395 -0.01901
#
# Static dielectric constant tensor:
#      x y z
#    x 1.907330 -0.018850 -0.008460 
#    y -0.018850 1.853490 -0.002530 
#    z -0.008460 -0.002530 1.928370 
# 
# From -- ./inp_files/218864.got.cif
#   From: 2010.05.17/outbox.cif.g08.bks.cpg/sg2_110_cif.got.tgz:218864.got - 2010.06.03 11:33:40.
