data_PCOD9048495
_publ_section_title
;
Structure prediction by ZEFSAII (Michael W. Deem and Ramdas Pophale) SiO2 
 PCOD9048495
Probable space group: P -1
;
_chemical_formula_sum "Si O2"
_cell_formula_units_Z 16
_cell_length_a 9.574378
_cell_length_b 15.513977
_cell_length_c 12.876615
_cell_angle_alpha 46.500450
_cell_angle_beta 34.872029
_cell_angle_gamma 67.321307
_cell_volume 715.386379
_symmetry_space_group_name_H-M "P -1"
_symmetry_group_IT_number 2
_symmetry_cell_setting 'triclinic'
loop_
_space_group_symop_operation_xyz
x,y,z
-x,-y,-z
loop_
_atom_site_type_symbol
_atom_site_label
_atom_site_fract_x
_atom_site_fract_y
_atom_site_fract_z
Si Si1 0.505940 0.596870 0.326296
Si Si2 0.065267 0.652436 0.852544
Si Si3 0.314115 0.780687 0.809330
Si Si4 0.857326 0.178943 0.783565
Si Si5 0.080881 0.988450 0.749723
Si Si6 0.243982 0.043048 0.233619
Si Si7 0.782640 0.230570 0.565616
Si Si8 0.980212 0.598800 0.344526
O O1 0.500000 0.500000 0.500000
O O2 0.407942 0.701298 0.342850
O O3 0.299586 0.495425 0.457125
O O4 0.797170 0.662005 0.045494
O O5 0.270334 0.720366 0.768142
O O6 0.120823 0.714427 0.653075
O O7 0.000000 0.500000 0.000000
O O8 0.624282 0.886830 0.550487
O O9 0.142504 0.868362 0.850861
O O10 0.196516 0.664144 0.063904
O O11 0.956636 0.245270 0.553374
O O12 0.915014 0.050905 0.865682
O O13 0.009439 0.278558 0.698564
O O14 0.537256 0.150284 0.005137
O O15 0.903798 0.942143 0.791844
O O16 0.324368 0.924017 0.257892
O O17 0.000000 0.000000 0.500000
O O18 0.000000 0.500000 0.500000
#
# Coordination Sequence:
#
# PCOD9048495 Si02
#       8
#     2   2   2   2   2   2   2   2
#     4  12  25  46  71 103 148 194 246 299 359 442
#     4  12  26  43  71 105 143 198 245 294 365 434
#     4  11  25  45  72 103 148 187 249 307 363 440
#     4  11  26  44  73 106 146 187 244 304 371 438
#     4  10  24  45  69 105 140 188 244 308 368 429
#     4  11  24  44  75 106 141 191 243 303 375 440
#     4  11  24  44  73 106 141 188 243 301 367 436
#     4  12  26  45  69 104 147 191 239 298 366 431
#
# _framework density 22.365535000000001
#
# number of rings (size 3 to 8) (size 9 to 14) (size 15 to 20)
#    0.000    0.750    3.750    3.000    7.000    3.500 
#    0.000    1.250    0.000    0.000    0.000    0.000 
#    0.000    0.000    0.000    0.000    0.000    0.000 
#
# Total GULP energy -89274.045915 kJ/mol
# GULP energy per Si atom -5579.627870 kJ/mol
# Density = 2.231463 g / cm^3
# Si number density = 22.365535 Si / 1000 Ang^3
#
#
#
# Elastic Constant Matrix: (Units=GPa)
#
#
# Indices 1 2 3 4 5 6 
#
# 1 123.2519 42.3640 47.5497 -5.5975 -2.1484 5.7707
# 2 42.3640 140.7658 35.6952 5.8716 -3.8292 0.8829
# 3 47.5497 35.6952 95.0455 -5.7140 1.6473 6.7381
# 4 -5.5975 5.8716 -5.7140 31.1061 0.0323 0.9849
# 5 -2.1484 -3.8292 1.6473 0.0323 42.9067 0.7604
# 6 5.7707 0.8829 6.7381 0.9849 0.7604 46.1062
#
#
#
# Elastic Compliance Matrix: (Units=1/GPa)
#
#
# Indices 1 2 3 4 5 6 
#
# 1 0.010655 -0.002138 -0.004396 0.001535 0.000523 -0.000692
# 2 -0.002138 0.008447 -0.002295 -0.002417 0.000728 0.000481
# 3 -0.004396 -0.002295 0.013836 0.002231 -0.000932 -0.001460
# 4 0.001535 -0.002417 0.002231 0.033328 -0.000229 -0.001180
# 5 0.000523 0.000728 -0.000932 -0.000229 0.023439 -0.000325
# 6 -0.000692 0.000481 -0.001460 -0.001180 -0.000325 0.022010
#
#
# Mechanical properties :
#
#
# Convention : Reuss Voigt Hill
#
# Bulk Modulus (GPa) = 65.43677 67.80900 66.62288
# Shear Modulus (GPa) = 37.18427 39.58741 38.38584
#
# Velocity S-wave (km/s) = 4.08189 4.21172 4.14731
# Velocity P-wave (km/s) = 7.17893 7.35091 7.26543
#
# Compressibility (1/GPa) = 0.01528193
#
# Stress axis : x y z
#
# Youngs Moduli (GPa) = 93.85118 118.38756 72.27530
#
# Poissons Ratio (x) = 0.25306 0.31769
# Poissons Ratio (y) = 0.20061 0.16586
# Poissons Ratio (z) = 0.41253 0.27169
#
# Static dielectric constant tensor:
#      x y z
#    x 1.779800 -0.013710 0.030220 
#    y -0.013710 1.834850 -0.019150 
#    z 0.030220 -0.019150 1.900680 
# 
# From -- ./inp_files/398520.got.cif
#   From: 2010.05.17/outbox.cif.g08.bks.cpg/sg2_200_cif.got.tgz:398520.got - 2010.06.03 11:33:40.
