data_PCOD9048507
_publ_section_title
;
Structure prediction by ZEFSAII (Michael W. Deem and Ramdas Pophale) SiO2 
 PCOD9048507
Probable space group: P -1
;
_chemical_formula_sum "Si O2"
_cell_formula_units_Z 16
_cell_length_a 17.163056
_cell_length_b 7.082225
_cell_length_c 7.966956
_cell_angle_alpha 111.295969
_cell_angle_beta 79.110440
_cell_angle_gamma 132.893958
_cell_volume 658.608492
_symmetry_space_group_name_H-M "P -1"
_symmetry_group_IT_number 2
_symmetry_cell_setting 'triclinic'
loop_
_space_group_symop_operation_xyz
x,y,z
-x,-y,-z
loop_
_atom_site_type_symbol
_atom_site_label
_atom_site_fract_x
_atom_site_fract_y
_atom_site_fract_z
Si Si1 0.502608 0.269289 0.380001
Si Si2 0.025563 0.373636 0.656629
Si Si3 0.912208 0.899858 0.281348
Si Si4 0.419369 0.508190 0.936425
Si Si5 0.305449 0.669712 0.240144
Si Si6 0.808419 0.037016 0.158912
Si Si7 0.814522 0.179225 0.816437
Si Si8 0.729892 0.622856 0.532043
O O1 0.500000 0.500000 0.500000
O O2 0.520238 0.289913 0.179370
O O3 0.608143 0.366758 0.457289
O O4 0.395732 0.972135 0.374427
O O5 0.039741 0.240968 0.763910
O O6 0.131605 0.681279 0.676569
O O7 0.931687 0.362679 0.748810
O O8 0.986862 0.177176 0.450402
O O9 0.803728 0.700979 0.370599
O O10 0.875370 0.946858 0.142348
O O11 0.314632 0.205754 0.820222
O O12 0.500000 0.500000 0.000000
O O13 0.368645 0.594996 0.101214
O O14 0.236384 0.689213 0.150317
O O15 0.237140 0.451317 0.344279
O O16 0.813653 0.112453 0.988470
O O17 0.746282 0.886817 0.656182
#
# Coordination Sequence:
#
# PCOD9048507 Si02
#       8
#     2   2   2   2   2   2   2   2
#     4  12  24  45  72 105 140 188 243 292 360 429
#     4  10  25  44  70 104 143 186 239 296 352 428
#     4  10  24  45  69 107 142 183 240 296 359 418
#     4  12  27  48  72 110 145 186 240 298 357 434
#     4  12  26  47  73 101 149 192 235 300 362 417
#     4  12  24  45  73 100 144 184 235 289 361 425
#     4  11  25  45  69 105 143 184 242 292 354 429
#     4  11  23  44  68 104 140 189 240 296 349 430
#
# _framework density 24.293644
#
# number of rings (size 3 to 8) (size 9 to 14) (size 15 to 20)
#    0.000    0.750    3.750    3.000    1.750    7.500 
#    0.000    0.000    0.000    0.000    0.000    0.000 
#    0.000    0.000    0.000    0.000    0.000    0.000 
#
# Total GULP energy -89672.752989 kJ/mol
# GULP energy per Si atom -5604.547062 kJ/mol
# Density = 2.423835 g / cm^3
# Si number density = 24.293644 Si / 1000 Ang^3
#
#
#
# Elastic Constant Matrix: (Units=GPa)
#
#
# Indices 1 2 3 4 5 6 
#
# 1 157.3803 41.5392 33.8944 2.7520 21.9319 -29.8605
# 2 41.5392 105.5768 7.1241 7.8181 10.0450 -9.8448
# 3 33.8944 7.1241 39.1202 -14.7246 7.9236 -17.6571
# 4 2.7520 7.8181 -14.7246 40.1359 -6.9408 19.4132
# 5 21.9319 10.0450 7.9236 -6.9408 42.7280 -4.7210
# 6 -29.8605 -9.8448 -17.6571 19.4132 -4.7210 39.5635
#
#
#
# Elastic Compliance Matrix: (Units=1/GPa)
#
#
# Indices 1 2 3 4 5 6 
#
# 1 0.010534 -0.002068 -0.007421 -0.007196 -0.003919 0.007187
# 2 -0.002068 0.010981 0.000035 -0.003629 -0.001812 0.002752
# 3 -0.007421 0.000035 0.039362 0.011862 -0.000904 0.006047
# 4 -0.007196 -0.003629 0.011862 0.041640 0.006829 -0.020658
# 5 -0.003919 -0.001812 -0.000904 0.006829 0.026679 -0.003980
# 6 0.007187 0.002752 0.006047 -0.020658 -0.003980 0.043745
#
#
# Mechanical properties :
#
#
# Convention : Reuss Voigt Hill
#
# Bulk Modulus (GPa) = 23.82656 51.91030 37.86843
# Shear Modulus (GPa) = 24.29102 39.12013 31.70557
#
# Velocity S-wave (km/s) = 3.16554 4.01721 3.61653
# Velocity P-wave (km/s) = 4.81559 6.55222 5.74984
#
# Compressibility (1/GPa) = 0.04196998
#
# Stress axis : x y z
#
# Youngs Moduli (GPa) = 94.93366 91.06920 25.40497
#
# Poissons Ratio (x) = 0.18831 0.18852
# Poissons Ratio (y) = 0.19630 -0.00089
# Poissons Ratio (z) = 0.70448 -0.00320
#
# Static dielectric constant tensor:
#      x y z
#    x 1.938180 -0.012150 0.026910 
#    y -0.012150 1.907080 0.025150 
#    z 0.026910 0.025150 1.961320 
# 
# From -- ./inp_files/323886.got.cif
#   From: 2010.05.17/outbox.cif.g08.bks.cpg/sg2_162_cif.got.tgz:323886.got - 2010.06.03 11:33:40.
