data_PCOD9048640
_publ_section_title
;
Structure prediction by ZEFSAII (Michael W. Deem and Ramdas Pophale) SiO2 
 PCOD9048640
Probable space group: P -1
;
_chemical_formula_sum "Si O2"
_cell_formula_units_Z 16
_cell_length_a 8.745835
_cell_length_b 25.556018
_cell_length_c 11.337607
_cell_angle_alpha 34.225188
_cell_angle_beta 137.538673
_cell_angle_gamma 148.441417
_cell_volume 741.189285
_symmetry_space_group_name_H-M "P -1"
_symmetry_group_IT_number 2
_symmetry_cell_setting 'triclinic'
loop_
_space_group_symop_operation_xyz
x,y,z
-x,-y,-z
loop_
_atom_site_type_symbol
_atom_site_label
_atom_site_fract_x
_atom_site_fract_y
_atom_site_fract_z
Si Si1 0.175223 0.450827 0.195911
Si Si2 0.118470 0.671859 0.513087
Si Si3 0.143306 0.373358 0.810255
Si Si4 0.644299 0.070097 0.828230
Si Si5 0.162275 0.136261 0.874659
Si Si6 0.364041 0.561204 0.762751
Si Si7 0.057056 0.237102 0.403170
Si Si8 0.704974 0.152468 0.134652
O O1 0.515041 0.551867 0.167159
O O2 0.133481 0.394799 0.406790
O O3 0.028425 0.337605 0.235131
O O4 0.000000 0.500000 0.000000
O O5 0.345323 0.815814 0.396445
O O6 0.240413 0.598765 0.718148
O O7 0.015808 0.659953 0.342883
O O8 0.136858 0.464306 0.717497
O O9 0.981788 0.254888 0.020271
O O10 0.989334 0.129398 0.903382
O O11 0.472905 0.971346 0.810180
O O12 0.500000 0.000000 0.000000
O O13 0.082969 0.185855 0.632259
O O14 0.499338 0.190312 0.968600
O O15 0.000000 0.000000 0.000000
O O16 0.623415 0.686326 0.616300
O O17 0.500000 0.500000 0.000000
O O18 0.819253 0.148700 0.334081
#
# Coordination Sequence:
#
# PCOD9048640 Si02
#       8
#     2   2   2   2   2   2   2   2
#     4  11  26  44  66 102 149 179 226 299 353 412
#     4  12  23  44  72  99 142 181 227 295 357 402
#     4  11  23  43  69 106 133 186 238 275 351 428
#     4  11  24  46  69 102 142 177 230 299 346 413
#     4  10  24  45  70  97 135 185 237 280 341 415
#     4  11  23  42  68  99 141 178 228 284 345 423
#     4  11  23  45  70  99 140 182 235 281 347 420
#     4  11  24  45  76 100 140 190 237 282 349 424
#
# _framework density 21.586929000000001
#
# number of rings (size 3 to 8) (size 9 to 14) (size 15 to 20)
#    0.000    1.000    3.750    3.000    1.750    4.000 
#    0.000    0.625    2.750    0.000    0.000    0.000 
#    0.000    0.000    0.000    0.000    0.000    0.000 
#
# Total GULP energy -89304.637841 kJ/mol
# GULP energy per Si atom -5581.539865 kJ/mol
# Density = 2.153780 g / cm^3
# Si number density = 21.586929 Si / 1000 Ang^3
#
#
#
# Elastic Constant Matrix: (Units=GPa)
#
#
# Indices 1 2 3 4 5 6 
#
# 1 123.2506 33.8961 31.4986 -20.1931 -8.8985 0.3978
# 2 33.8961 92.1231 29.6462 -14.0034 4.9418 -13.0189
# 3 31.4986 29.6462 80.2445 -9.8519 1.2821 7.4655
# 4 -20.1931 -14.0034 -9.8519 22.3333 -7.8746 -13.4690
# 5 -8.8985 4.9418 1.2821 -7.8746 41.3678 -13.9015
# 6 0.3978 -13.0189 7.4655 -13.4690 -13.9015 33.2443
#
#
#
# Elastic Compliance Matrix: (Units=1/GPa)
#
#
# Indices 1 2 3 4 5 6 
#
# 1 0.015344 0.003860 -0.005733 0.034386 0.017596 0.023905
# 2 0.003860 0.022208 -0.008195 0.040890 0.017811 0.034506
# 3 -0.005733 -0.008195 0.017488 -0.017305 -0.010264 -0.018371
# 4 0.034386 0.040890 -0.017305 0.213683 0.092342 0.144676
# 5 0.017596 0.017811 -0.010264 0.092342 0.069050 0.075356
# 6 0.023905 0.034506 -0.018371 0.144676 0.075356 0.137559
#
#
# Mechanical properties :
#
#
# Convention : Reuss Voigt Hill
#
# Bulk Modulus (GPa) = 28.64779 53.96666 41.30723
# Shear Modulus (GPa) = 9.85996 32.76092 21.31044
#
# Velocity S-wave (km/s) = 2.13950 3.89990 3.14537
# Velocity P-wave (km/s) = 4.40488 6.73297 5.68929
#
# Compressibility (1/GPa) = 0.03490670
#
# Stress axis : x y z
#
# Youngs Moduli (GPa) = 65.17226 45.02829 57.18149
#
# Poissons Ratio (x) = -0.17383 0.32780
# Poissons Ratio (y) = -0.25160 0.46858
# Poissons Ratio (z) = 0.37361 0.36899
#
# Static dielectric constant tensor:
#      x y z
#    x 1.844410 0.010030 -0.011740 
#    y 0.010030 1.790180 0.028540 
#    z -0.011740 0.028540 1.832230 
# 
# From -- ./inp_files/272334.got.cif
#   From: 2010.05.17/outbox.cif.g08.bks.cpg/sg2_137_cif.got.tgz:272334.got - 2010.06.03 11:33:40.
