data_PCOD9048917
_publ_section_title
;
Structure prediction by ZEFSAII (Michael W. Deem and Ramdas Pophale) SiO2 
 PCOD9048917
Probable space group: P -1
;
_chemical_formula_sum "Si O2"
_cell_formula_units_Z 12
_cell_length_a 5.463056
_cell_length_b 16.643209
_cell_length_c 11.398141
_cell_angle_alpha 34.630398
_cell_angle_beta 122.284842
_cell_angle_gamma 101.690071
_cell_volume 433.159879
_symmetry_space_group_name_H-M "P -1"
_symmetry_group_IT_number 2
_symmetry_cell_setting 'triclinic'
loop_
_space_group_symop_operation_xyz
x,y,z
-x,-y,-z
loop_
_atom_site_type_symbol
_atom_site_label
_atom_site_fract_x
_atom_site_fract_y
_atom_site_fract_z
Si Si1 0.727618 0.889157 0.585338
Si Si2 0.520510 0.344385 0.529823
Si Si3 0.511774 0.656871 0.858504
Si Si4 0.551058 0.318329 0.916589
Si Si5 0.772305 0.872536 0.013395
Si Si6 0.006639 0.219444 0.587512
O O1 0.758685 0.710705 0.801474
O O2 0.096657 0.841326 0.775807
O O3 0.500000 0.000000 0.500000
O O4 0.510905 0.984007 0.303952
O O5 0.216931 0.309588 0.505318
O O6 0.854830 0.211322 0.843295
O O7 0.678700 0.313138 0.475901
O O8 0.433172 0.527688 0.314495
O O9 0.581162 0.644325 0.028664
O O10 0.146994 0.800437 0.548783
O O11 0.500000 0.500000 0.000000
O O12 0.318343 0.272021 0.837643
O O13 0.785980 0.919024 0.096054
#
# Coordination Sequence:
#
# PCOD9048917 Si02
#       6
#     2   2   2   2   2   2
#     4  12  28  46  76 109 155 198 251 310 383 450
#     4  10  24  45  75 108 151 196 251 306 374 444
#     4  12  25  46  74 113 148 197 253 316 374 447
#     4  12  25  43  78 106 153 197 256 309 375 449
#     4  10  25  46  70 110 148 203 246 310 374 454
#     4  10  25  43  73 107 151 190 252 306 377 435
#
# _framework density 27.703395
#
# number of rings (size 3 to 8) (size 9 to 14) (size 15 to 20)
#    1.000    0.000    3.333    2.000    4.667    2.667 
#    0.000    1.667    0.000    0.000    0.000    0.000 
#    0.000    0.000    0.000    0.000    0.000    0.000 
#
# Total GULP energy -67094.883048 kJ/mol
# GULP energy per Si atom -5591.240254 kJ/mol
# Density = 2.764034 g / cm^3
# Si number density = 27.703395 Si / 1000 Ang^3
#
#
#
# Elastic Constant Matrix: (Units=GPa)
#
#
# Indices 1 2 3 4 5 6 
#
# 1 105.1402 13.2864 25.4107 -3.3845 8.5306 24.0328
# 2 13.2864 85.7675 33.4359 0.1976 -1.1623 25.2186
# 3 25.4107 33.4359 115.4355 22.7070 -7.2094 -2.1739
# 4 -3.3845 0.1976 22.7070 55.1706 0.6459 -4.7289
# 5 8.5306 -1.1623 -7.2094 0.6459 49.6592 -1.4579
# 6 24.0328 25.2186 -2.1739 -4.7289 -1.4579 53.8823
#
#
#
# Elastic Compliance Matrix: (Units=1/GPa)
#
#
# Indices 1 2 3 4 5 6 
#
# 1 0.011858 0.001277 -0.003603 0.001727 -0.002727 -0.005954
# 2 0.001277 0.015952 -0.005418 0.001564 -0.000892 -0.008141
# 3 -0.003603 -0.005418 0.012222 -0.004894 0.002455 0.004273
# 4 0.001727 0.001564 -0.004894 0.020259 -0.001233 0.000045
# 5 -0.002727 -0.000892 0.002455 -0.001233 0.021022 0.002194
# 6 -0.005954 -0.008141 0.004273 0.000045 0.002194 0.025261
#
#
# Mechanical properties :
#
#
# Convention : Reuss Voigt Hill
#
# Bulk Modulus (GPa) = 40.74145 50.06770 45.40457
# Shear Modulus (GPa) = 38.39001 47.35645 42.87323
#
# Velocity S-wave (km/s) = 3.72661 4.13899 3.93820
# Velocity P-wave (km/s) = 5.76672 6.39950 6.09133
#
# Compressibility (1/GPa) = 0.02454503
#
# Stress axis : x y z
#
# Youngs Moduli (GPa) = 84.32883 62.68832 81.82054
#
# Poissons Ratio (x) = -0.08007 0.29476
# Poissons Ratio (y) = -0.10771 0.44333
# Poissons Ratio (z) = 0.30380 0.33966
#
# Static dielectric constant tensor:
#      x y z
#    x 2.155330 -0.032770 -0.020840 
#    y -0.032770 2.148410 -0.033140 
#    z -0.020840 -0.033140 2.268140 
# 
# From -- ./inp_files/71068.got.cif
#   From: 2010.05.17/outbox.cif.g08.bks.cpg/sg2_36_cif.got.tgz:71068.got - 2010.06.03 11:33:40.
