data_PCOD9048920
_publ_section_title
;
Structure prediction by ZEFSAII (Michael W. Deem and Ramdas Pophale) SiO2 
 PCOD9048920
Probable space group: P -1
;
_chemical_formula_sum "Si O2"
_cell_formula_units_Z 14
_cell_length_a 8.351067
_cell_length_b 17.627996
_cell_length_c 10.735659
_cell_angle_alpha 36.769059
_cell_angle_beta 138.062235
_cell_angle_gamma 133.362000
_cell_volume 615.779383
_symmetry_space_group_name_H-M "P -1"
_symmetry_group_IT_number 2
_symmetry_cell_setting 'triclinic'
loop_
_space_group_symop_operation_xyz
x,y,z
-x,-y,-z
loop_
_atom_site_type_symbol
_atom_site_label
_atom_site_fract_x
_atom_site_fract_y
_atom_site_fract_z
Si Si1 0.869269 0.284897 0.108756
Si Si2 0.929856 0.138770 0.794527
Si Si3 0.781039 0.061475 0.552650
Si Si4 0.408561 0.114977 0.653446
Si Si5 0.984797 0.128927 0.186681
Si Si6 0.351499 0.367215 0.423801
Si Si7 0.359456 0.371965 0.715461
O O1 0.826943 0.145496 0.341836
O O2 0.919257 0.261576 0.022114
O O3 0.110984 0.372328 0.196717
O O4 0.620317 0.330597 0.924302
O O5 0.870714 0.160674 0.585713
O O6 0.679972 0.126449 0.743148
O O7 0.147013 0.260126 0.797774
O O8 0.000000 0.000000 0.000000
O O9 0.500000 0.000000 0.500000
O O10 0.915255 0.940708 0.780129
O O11 0.218252 0.131707 0.411035
O O12 0.403578 0.227779 0.601847
O O13 0.276283 0.973502 0.811852
O O14 0.303038 0.380781 0.524301
O O15 0.581981 0.486752 0.372971
#
# Coordination Sequence:
#
# PCOD9048920 Si02
#       7
#     2   2   2   2   2   2   2
#     4  11  20  39  61  86 118 154 195 241 292 345
#     4  12  24  36  56  91 121 153 193 245 295 345
#     4  12  19  34  58  87 119 151 184 240 296 342
#     4  10  18  36  57  81 119 155 190 238 293 341
#     4  10  17  34  59  86 113 153 194 236 291 351
#     4  10  22  41  62  83 116 159 198 240 287 345
#     4  11  23  39  61  89 115 152 204 239 288 349
#
# _framework density 22.735413999999999
#
# number of rings (size 3 to 8) (size 9 to 14) (size 15 to 20)
#    0.000    1.143    7.143    2.143    0.000    1.714 
#    0.000    2.857    0.000    0.857    0.000    0.000 
#    0.000    0.000    0.000    0.000    0.000    0.000 
#
# Total GULP energy -78098.312998 kJ/mol
# GULP energy per Si atom -5578.450928 kJ/mol
# Density = 2.268367 g / cm^3
# Si number density = 22.735414 Si / 1000 Ang^3
#
#
#
# Elastic Constant Matrix: (Units=GPa)
#
#
# Indices 1 2 3 4 5 6 
#
# 1 102.3627 43.6559 5.9977 8.8458 21.3670 11.8399
# 2 43.6559 194.1223 26.8470 9.3862 8.9532 17.7546
# 3 5.9977 26.8470 41.1797 7.6212 13.9040 7.8592
# 4 8.8458 9.3862 7.6212 30.4467 7.2486 2.4581
# 5 21.3670 8.9532 13.9040 7.2486 28.9266 5.6172
# 6 11.8399 17.7546 7.8592 2.4581 5.6172 47.2267
#
#
#
# Elastic Compliance Matrix: (Units=1/GPa)
#
#
# Indices 1 2 3 4 5 6 
#
# 1 0.013145 -0.002814 0.003877 -0.001402 -0.010037 -0.001616
# 2 -0.002814 0.006402 -0.004273 -0.000590 0.002544 -0.001262
# 3 0.003877 -0.004273 0.033168 -0.004098 -0.015918 -0.002779
# 4 -0.001402 -0.000590 -0.004098 0.035835 -0.005808 0.000081
# 5 -0.010037 0.002544 -0.015918 -0.005808 0.050596 -0.001507
# 6 -0.001616 -0.001262 -0.002779 0.000081 -0.001507 0.022692
#
#
# Mechanical properties :
#
#
# Convention : Reuss Voigt Hill
#
# Bulk Modulus (GPa) = 21.60023 54.51842 38.05932
# Shear Modulus (GPa) = 27.21992 38.73092 32.97542
#
# Velocity S-wave (km/s) = 3.46388 4.13189 3.81254
# Velocity P-wave (km/s) = 5.05166 6.84068 6.01308
#
# Compressibility (1/GPa) = 0.04629581
#
# Stress axis : x y z
#
# Youngs Moduli (GPa) = 76.07251 156.20751 30.14976
#
# Poissons Ratio (x) = 0.43955 -0.11689
# Poissons Ratio (y) = 0.21406 0.12882
# Poissons Ratio (z) = -0.29492 0.66740
#
# Static dielectric constant tensor:
#      x y z
#    x 1.880890 -0.039440 -0.072180 
#    y -0.039440 1.863100 0.012070 
#    z -0.072180 0.012070 1.979750 
# 
# From -- ./inp_files/401889.got.cif
#   From: 2010.05.17/outbox.cif.g08.bks.cpg/sg2_201_cif.got.tgz:401889.got - 2010.06.03 11:33:40.
