data_PCOD9048471
_publ_section_title
;
Structure prediction by ZEFSAII (Michael W. Deem and Ramdas Pophale) SiO2 
 PCOD9048471
Probable space group: P -1
;
_chemical_formula_sum "Si O2"
_cell_formula_units_Z 15
_cell_length_a 12.835984
_cell_length_b 4.796605
_cell_length_c 10.514766
_cell_angle_alpha 89.017397
_cell_angle_beta 120.008000
_cell_angle_gamma 86.105698
_cell_volume 558.332608
_symmetry_space_group_name_H-M "P -1"
_symmetry_group_IT_number 2
_symmetry_cell_setting 'triclinic'
loop_
_space_group_symop_operation_xyz
x,y,z
-x,-y,-z
loop_
_atom_site_type_symbol
_atom_site_label
_atom_site_fract_x
_atom_site_fract_y
_atom_site_fract_z
Si Si1 0.340839 0.905864 0.392282
Si Si2 0.447549 0.803146 0.189113
Si Si3 0.793043 0.830560 0.021181
Si Si4 0.824837 0.522752 0.304646
Si Si5 0.807075 0.559913 0.757253
Si Si6 0.000000 0.000000 0.500000
Si Si7 0.597373 0.263804 0.285965
Si Si8 0.997714 0.882168 0.736317
O O1 0.432105 0.842129 0.332073
O O2 0.222252 0.756686 0.274830
O O3 0.617352 0.221985 0.448373
O O4 0.301543 0.235085 0.371726
O O5 0.480429 0.479752 0.186682
O O6 0.440041 0.029747 0.787300
O O7 0.323481 0.946606 0.057180
O O8 0.788202 0.637046 0.142289
O O9 0.804979 0.648593 0.902359
O O10 0.912377 0.992462 0.113069
O O11 0.712504 0.392769 0.299412
O O12 0.886945 0.765468 0.411394
O O13 0.924158 0.256039 0.338511
O O14 0.925028 0.656388 0.761170
O O15 0.934268 0.109787 0.600654
#
# Coordination Sequence:
#
# PCOD9048471 Si02
#       8
#     2   2   2   2   2   1   2   2
#     4  11  24  45  73 107 140 177 239 298 348 416
#     4  11  26  45  72 103 144 184 241 291 345 411
#     4  11  26  44  69 101 145 188 235 291 344 421
#     4  10  26  44  71 100 143 179 238 283 352 424
#     4  11  25  43  75 105 140 187 231 286 362 418
#     4   8  22  44  66  96 138 172 226 284 350 400
#     4  12  25  46  75 104 139 192 234 290 356 408
#     4  10  24  45  69 101 144 182 230 291 344 427
#
# _framework density 26.865707
#
# number of rings (size 3 to 8) (size 9 to 14) (size 15 to 20)
#    0.800    0.533    0.000    4.400    9.333    3.200 
#    0.000    0.000    0.000    0.000    0.000    0.000 
#    0.000    0.000    0.000    0.000    0.000    0.000 
#
# Total GULP energy -84059.900248 kJ/mol
# GULP energy per Si atom -5603.993350 kJ/mol
# Density = 2.680456 g / cm^3
# Si number density = 26.865707 Si / 1000 Ang^3
#
#
#
# Elastic Constant Matrix: (Units=GPa)
#
#
# Indices 1 2 3 4 5 6 
#
# 1 129.2678 22.5052 32.4087 -9.7133 -7.4232 39.5251
# 2 22.5052 97.2384 31.7113 -9.6357 -3.6494 10.9092
# 3 32.4087 31.7113 130.5544 -19.4655 4.3864 12.3189
# 4 -9.7133 -9.6357 -19.4655 50.7327 10.0371 8.5991
# 5 -7.4232 -3.6494 4.3864 10.0371 17.4478 1.0334
# 6 39.5251 10.9092 12.3189 8.5991 1.0334 59.0107
#
#
#
# Elastic Compliance Matrix: (Units=1/GPa)
#
#
# Indices 1 2 3 4 5 6 
#
# 1 0.010843 -0.000831 -0.001736 0.001580 0.004385 -0.007054
# 2 -0.000831 0.011581 -0.002435 0.000871 0.002254 -0.001242
# 3 -0.001736 -0.002435 0.009603 0.004239 -0.006047 -0.000903
# 4 0.001580 0.000871 0.004239 0.025648 -0.014635 -0.005585
# 5 0.004385 0.002254 -0.006047 -0.014635 0.069659 -0.001178
# 6 -0.007054 -0.001242 -0.000903 -0.005585 -0.001178 0.022923
#
#
# Mechanical properties :
#
#
# Convention : Reuss Voigt Hill
#
# Bulk Modulus (GPa) = 45.40933 58.92346 52.16639
# Shear Modulus (GPa) = 29.83261 43.46729 36.64995
#
# Velocity S-wave (km/s) = 3.33593 4.02673 3.69750
# Velocity P-wave (km/s) = 5.63711 6.60300 6.13908
#
# Compressibility (1/GPa) = 0.02202190
#
# Stress axis : x y z
#
# Youngs Moduli (GPa) = 92.22517 86.35014 104.13891
#
# Poissons Ratio (x) = 0.07175 0.18078
# Poissons Ratio (y) = 0.07663 0.25361
# Poissons Ratio (z) = 0.16010 0.21029
#
# Static dielectric constant tensor:
#      x y z
#    x 2.162880 -0.029220 0.020210 
#    y -0.029220 2.060260 -0.036650 
#    z 0.020210 -0.036650 2.055980 
# 
# From -- ./inp_files/408651.got.cif
#   From: 2010.05.17/outbox.cif.g08.bks.cpg/sg2_205_cif.got.tgz:408651.got - 2010.06.03 11:33:40.
