data_PCOD9048555
_publ_section_title
;
Structure prediction by ZEFSAII (Michael W. Deem and Ramdas Pophale) SiO2 
 PCOD9048555
Probable space group: P -1
;
_chemical_formula_sum "Si O2"
_cell_formula_units_Z 16
_cell_length_a 18.341926
_cell_length_b 9.637739
_cell_length_c 5.944954
_cell_angle_alpha 128.857495
_cell_angle_beta 50.164684
_cell_angle_gamma 116.113110
_cell_volume 627.121337
_symmetry_space_group_name_H-M "P -1"
_symmetry_group_IT_number 2
_symmetry_cell_setting 'triclinic'
loop_
_space_group_symop_operation_xyz
x,y,z
-x,-y,-z
loop_
_atom_site_type_symbol
_atom_site_label
_atom_site_fract_x
_atom_site_fract_y
_atom_site_fract_z
Si Si1 0.500930 0.700683 0.785075
Si Si2 0.723140 0.894096 0.160513
Si Si3 0.292152 0.369286 0.710372
Si Si4 0.248250 0.718055 0.388697
Si Si5 0.050486 0.686856 0.504844
Si Si6 0.160059 0.495885 0.729731
Si Si7 0.486898 0.196275 0.640564
Si Si8 0.073342 0.133563 0.360030
O O1 0.500000 0.500000 0.500000
O O2 0.615093 0.738965 0.623850
O O3 0.475274 0.791525 0.683981
O O4 0.470686 0.697889 0.110961
O O5 0.759717 0.751777 0.120851
O O6 0.627474 0.794808 0.150669
O O7 0.698287 0.087804 0.500590
O O8 0.821922 0.938531 0.882047
O O9 0.226819 0.387535 0.647002
O O10 0.302755 0.575876 0.986402
O O11 0.140884 0.743505 0.539322
O O12 0.228987 0.609275 0.543093
O O13 0.000000 0.500000 0.500000
O O14 0.974913 0.831631 0.751960
O O15 0.103859 0.636851 0.121065
O O16 0.088071 0.340619 0.619964
O O17 0.500000 0.000000 0.500000
O O18 0.000000 0.000000 0.500000
#
# Coordination Sequence:
#
# PCOD9048555 Si02
#       8
#     2   2   2   2   2   2   2   2
#     4  11  25  46  81 113 150 196 243 301 387 450
#     4  11  25  46  69 101 144 186 242 295 375 435
#     4  10  24  45  69  99 143 182 241 302 356 442
#     4  11  24  43  67  97 133 192 240 295 365 431
#     4  11  23  40  60  90 128 179 239 296 361 421
#     4  11  22  43  63  90 135 182 238 300 355 430
#     4  11  26  50  77 116 154 191 246 314 373 452
#     4  12  24  38  64  97 135 185 237 300 359 428
#
# _framework density 25.513401999999999
#
# number of rings (size 3 to 8) (size 9 to 14) (size 15 to 20)
#    0.000    1.000    2.500    3.375    7.000    1.500 
#    9.000    0.000    0.000    0.000    0.000    0.000 
#    0.000    0.000    0.000    0.000    0.000    0.000 
#
# Total GULP energy -89184.627263 kJ/mol
# GULP energy per Si atom -5574.039204 kJ/mol
# Density = 2.545533 g / cm^3
# Si number density = 25.513402 Si / 1000 Ang^3
#
#
#
# Elastic Constant Matrix: (Units=GPa)
#
#
# Indices 1 2 3 4 5 6 
#
# 1 106.2162 41.1312 24.8737 -14.0402 17.9118 -35.6798
# 2 41.1312 124.9700 11.6682 0.3640 17.7338 -11.3282
# 3 24.8737 11.6682 69.5495 -4.5269 17.2475 5.2106
# 4 -14.0402 0.3640 -4.5269 41.7535 12.5249 1.0092
# 5 17.9118 17.7338 17.2475 12.5249 49.1874 3.5866
# 6 -35.6798 -11.3282 5.2106 1.0092 3.5866 48.3454
#
#
#
# Elastic Compliance Matrix: (Units=1/GPa)
#
#
# Indices 1 2 3 4 5 6 
#
# 1 0.018723 -0.003507 -0.004997 0.007463 -0.006714 0.013877
# 2 -0.003507 0.009404 0.000144 -0.000645 -0.001982 -0.000240
# 3 -0.004997 0.000144 0.017769 0.001728 -0.004519 -0.005270
# 4 0.007463 -0.000645 0.001728 0.029848 -0.011083 0.005370
# 5 -0.006714 -0.001982 -0.004519 -0.011083 0.028393 -0.006808
# 6 0.013877 -0.000240 -0.005270 0.005370 -0.006808 0.031831
#
#
# Mechanical properties :
#
#
# Convention : Reuss Voigt Hill
#
# Bulk Modulus (GPa) = 34.27333 50.67577 42.47455
# Shear Modulus (GPa) = 30.78575 42.72809 36.75692
#
# Velocity S-wave (km/s) = 3.47746 4.09679 3.79976
# Velocity P-wave (km/s) = 5.43932 6.50260 5.99458
#
# Compressibility (1/GPa) = 0.02917721
#
# Stress axis : x y z
#
# Youngs Moduli (GPa) = 53.40947 106.33612 56.27783
#
# Poissons Ratio (x) = 0.37291 0.28120
# Poissons Ratio (y) = 0.18730 -0.00810
# Poissons Ratio (z) = 0.26687 -0.01531
#
# Static dielectric constant tensor:
#      x y z
#    x 2.157730 0.098270 0.024980 
#    y 0.098270 2.115750 -0.040630 
#    z 0.024980 -0.040630 2.278130 
# 
# From -- ./inp_files/107497.got.cif
#   From: 2010.05.17/outbox.cif.g08.bks.cpg/sg2_54_cif.got.tgz:107497.got - 2010.06.03 11:33:40.
