data_PCOD9048703
_publ_section_title
;
Structure prediction by ZEFSAII (Michael W. Deem and Ramdas Pophale) SiO2 
 PCOD9048703
Probable space group: P -1
;
_chemical_formula_sum "Si O2"
_cell_formula_units_Z 15
_cell_length_a 9.704466
_cell_length_b 11.588119
_cell_length_c 9.908995
_cell_angle_alpha 139.248819
_cell_angle_beta 61.349199
_cell_angle_gamma 102.087854
_cell_volume 614.901837
_symmetry_space_group_name_H-M "P -1"
_symmetry_group_IT_number 2
_symmetry_cell_setting 'triclinic'
loop_
_space_group_symop_operation_xyz
x,y,z
-x,-y,-z
loop_
_atom_site_type_symbol
_atom_site_label
_atom_site_fract_x
_atom_site_fract_y
_atom_site_fract_z
Si Si1 0.634111 0.973855 0.029359
Si Si2 0.340314 0.035289 0.378604
Si Si3 0.000000 0.000000 0.000000
Si Si4 0.862512 0.661337 0.770024
Si Si5 0.180435 0.436641 0.796044
Si Si6 0.845958 0.087153 0.429388
Si Si7 0.685683 0.495383 0.935213
Si Si8 0.809857 0.178529 0.950068
O O1 0.735374 0.765220 0.808691
O O2 0.761931 0.090605 0.034889
O O3 0.500000 0.000000 0.000000
O O4 0.527648 0.031796 0.264284
O O5 0.227462 0.226714 0.539333
O O6 0.292605 0.999728 0.521400
O O7 0.304448 0.872839 0.157657
O O8 0.115995 0.883825 0.718030
O O9 0.943849 0.818899 0.917182
O O10 0.761232 0.602130 0.883535
O O11 0.000000 0.500000 0.500000
O O12 0.302598 0.424321 0.852469
O O13 0.200718 0.606974 0.847506
O O14 0.000000 0.500000 0.000000
O O15 0.802032 0.288758 0.693313
O O16 0.010998 0.944392 0.278452
O O17 0.500000 0.500000 0.000000
#
# Coordination Sequence:
#
# PCOD9048703 Si02
#       8
#     2   2   1   2   2   2   2   2
#     4  10  24  45  71 106 144 192 237 303 378 429
#     4  11  23  43  72 106 142 188 240 315 368 429
#     4  12  26  44  72 108 138 196 256 300 362 444
#     4  12  25  49  74 101 150 197 248 303 371 457
#     4  12  25  43  76 111 139 198 257 302 365 459
#     4  12  22  46  70 101 147 195 239 308 356 451
#     4  12  27  46  73 110 153 197 247 311 389 442
#     4  11  22  45  73 101 150 182 253 302 370 435
#
# _framework density 24.394137000000001
#
# number of rings (size 3 to 8) (size 9 to 14) (size 15 to 20)
#    0.000    0.533    5.333    2.800    1.867    2.667 
#    0.000    2.667    0.000    0.000    0.000    0.000 
#    0.000    0.000    0.000    0.000    0.000    0.000 
#
# Total GULP energy -83716.040662 kJ/mol
# GULP energy per Si atom -5581.069377 kJ/mol
# Density = 2.433861 g / cm^3
# Si number density = 24.394137 Si / 1000 Ang^3
#
#
#
# Elastic Constant Matrix: (Units=GPa)
#
#
# Indices 1 2 3 4 5 6 
#
# 1 63.8279 11.6548 6.2875 -4.9405 -19.3561 7.5130
# 2 11.6548 225.4443 44.4554 -9.8465 -17.6971 23.7505
# 3 6.2875 44.4554 76.4199 2.2400 -14.3985 15.1613
# 4 -4.9405 -9.8465 2.2400 63.3016 5.8360 -5.4222
# 5 -19.3561 -17.6971 -14.3985 5.8360 36.6451 -2.9495
# 6 7.5130 23.7505 15.1613 -5.4222 -2.9495 46.0727
#
#
#
# Elastic Compliance Matrix: (Units=1/GPa)
#
#
# Indices 1 2 3 4 5 6 
#
# 1 0.018988 -0.000074 0.000905 0.000279 0.010089 -0.002677
# 2 -0.000074 0.005237 -0.002478 0.000632 0.001278 -0.001716
# 3 0.000905 -0.002478 0.016388 -0.001769 0.005672 -0.004108
# 4 0.000279 0.000632 -0.001769 0.016397 -0.002696 0.001968
# 5 0.010089 0.001278 0.005672 -0.002696 0.035716 -0.002201
# 6 -0.002677 -0.001716 -0.004108 0.001968 -0.002201 0.024469
#
#
# Mechanical properties :
#
#
# Convention : Reuss Voigt Hill
#
# Bulk Modulus (GPa) = 26.79588 54.49861 40.64725
# Shear Modulus (GPa) = 37.61450 49.42350 43.51900
#
# Velocity S-wave (km/s) = 3.93103 4.50604 4.22832
# Velocity P-wave (km/s) = 5.62249 7.03291 6.36688
#
# Compressibility (1/GPa) = 0.03731916
#
# Stress axis : x y z
#
# Youngs Moduli (GPa) = 52.66516 190.95868 61.02033
#
# Poissons Ratio (x) = 0.01409 -0.05520
# Poissons Ratio (y) = 0.00388 0.15118
# Poissons Ratio (z) = -0.04764 0.47311
#
# Static dielectric constant tensor:
#      x y z
#    x 1.667590 0.081810 -0.115570 
#    y 0.081810 1.969410 -0.025740 
#    z -0.115570 -0.025740 2.172690 
# 
# From -- ./inp_files/424422.got.cif
#   From: 2010.05.17/outbox.cif.g08.bks.cpg/sg2_213_cif.got.tgz:424422.got - 2010.06.03 11:33:40.
