data_PCOD9048075
_publ_section_title
;
Structure prediction by ZEFSAII (Michael W. Deem and Ramdas Pophale) SiO2 
 PCOD9048075
Probable space group: P -1
;
_chemical_formula_sum "Si O2"
_cell_formula_units_Z 12
_cell_length_a 19.104755
_cell_length_b 15.653594
_cell_length_c 7.820121
_cell_angle_alpha 35.932282
_cell_angle_beta 133.167065
_cell_angle_gamma 158.966521
_cell_volume 463.209106
_symmetry_space_group_name_H-M "P -1"
_symmetry_group_IT_number 2
_symmetry_cell_setting 'triclinic'
loop_
_space_group_symop_operation_xyz
x,y,z
-x,-y,-z
loop_
_atom_site_type_symbol
_atom_site_label
_atom_site_fract_x
_atom_site_fract_y
_atom_site_fract_z
Si Si1 0.369852 0.457386 0.772327
Si Si2 0.982082 0.479957 0.797716
Si Si3 0.264574 0.592073 0.600357
Si Si4 0.692637 0.295900 0.118176
Si Si5 0.967243 0.889598 0.438314
Si Si6 0.341125 0.195509 0.607945
O O1 0.522986 0.701200 0.475314
O O2 0.500000 0.500000 0.000000
O O3 0.318004 0.513077 0.729449
O O4 0.932376 0.576820 0.504996
O O5 0.190459 0.701372 0.700138
O O6 0.549036 0.054477 0.728858
O O7 0.805025 0.121778 0.032006
O O8 0.000000 0.500000 0.000000
O O9 0.272569 0.589174 0.822691
O O10 0.857960 0.861535 0.181319
O O11 0.800319 0.535785 0.763115
O O12 0.000000 0.000000 0.500000
O O13 0.179375 0.092487 0.420245
O O14 0.500000 0.500000 0.500000
#
# Coordination Sequence:
#
# PCOD9048075 Si02
#       6
#     2   2   2   2   2   2
#     4  12  28  45  68 107 144 188 241 301 357 426
#     4  11  23  44  73 105 140 184 241 298 356 431
#     4  11  24  45  72 103 143 180 238 292 361 426
#     4  10  24  44  73 104 136 184 231 297 356 427
#     4  11  24  47  72 100 140 191 238 287 358 428
#     4  11  24  44  72 105 144 194 239 293 366 434
#
# _framework density 25.906224000000002
#
# number of rings (size 3 to 8) (size 9 to 14) (size 15 to 20)
#    0.000    1.000    1.667    4.500    2.333    4.000 
#    6.000    0.000    0.000    0.000    0.000    0.000 
#    0.000    0.000    0.000    0.000    0.000    0.000 
#
# Total GULP energy -67199.249522 kJ/mol
# GULP energy per Si atom -5599.937460 kJ/mol
# Density = 2.584726 g / cm^3
# Si number density = 25.906224 Si / 1000 Ang^3
#
#
#
# Elastic Constant Matrix: (Units=GPa)
#
#
# Indices 1 2 3 4 5 6 
#
# 1 190.4520 68.1896 6.8854 17.4889 -10.2245 34.0334
# 2 68.1896 155.7684 20.8297 16.2133 20.8725 37.2679
# 3 6.8854 20.8297 87.2645 -1.3069 15.1911 11.2048
# 4 17.4889 16.2133 -1.3069 26.9440 17.0651 3.3581
# 5 -10.2245 20.8725 15.1911 17.0651 39.9508 -1.4946
# 6 34.0334 37.2679 11.2048 3.3581 -1.4946 67.0305
#
#
#
# Elastic Compliance Matrix: (Units=1/GPa)
#
#
# Indices 1 2 3 4 5 6 
#
# 1 0.007731 -0.003052 -0.001044 -0.007570 0.007147 -0.001515
# 2 -0.003052 0.009468 -0.000505 0.000447 -0.005868 -0.003784
# 3 -0.001044 -0.000505 0.013453 0.007087 -0.008220 -0.001976
# 4 -0.007570 0.000447 0.007087 0.062228 -0.031500 -0.001410
# 5 0.007147 -0.005868 -0.008220 -0.031500 0.046642 0.003626
# 6 -0.001515 -0.003784 -0.001976 -0.001410 0.003626 0.018273
#
#
# Mechanical properties :
#
#
# Convention : Reuss Voigt Hill
#
# Bulk Modulus (GPa) = 46.62159 69.47714 58.04936
# Shear Modulus (GPa) = 28.71112 49.29040 39.00076
#
# Velocity S-wave (km/s) = 3.33268 4.36667 3.88423
# Velocity P-wave (km/s) = 5.73100 7.23192 6.52476
#
# Compressibility (1/GPa) = 0.02144929
#
# Stress axis : x y z
#
# Youngs Moduli (GPa) = 129.35529 105.61560 74.33159
#
# Poissons Ratio (x) = 0.32231 0.07764
# Poissons Ratio (y) = 0.39476 0.03755
# Poissons Ratio (z) = 0.13511 0.05336
#
# Static dielectric constant tensor:
#      x y z
#    x 1.981240 -0.017850 0.056640 
#    y -0.017850 2.118340 -0.014010 
#    z 0.056640 -0.014010 2.106680 
# 
# From -- ./inp_files/334766.got.cif
#   From: 2010.05.17/outbox.cif.g08.bks.cpg/sg2_168_cif.got.tgz:334766.got - 2010.06.03 11:33:40.
