data_PCOD9048258
_publ_section_title
;
Structure prediction by ZEFSAII (Michael W. Deem and Ramdas Pophale) SiO2 
 PCOD9048258
Probable space group: P -1
;
_chemical_formula_sum "Si O2"
_cell_formula_units_Z 16
_cell_length_a 11.739285
_cell_length_b 11.136593
_cell_length_c 13.763866
_cell_angle_alpha 65.924583
_cell_angle_beta 33.118560
_cell_angle_gamma 50.672871
_cell_volume 727.675927
_symmetry_space_group_name_H-M "P -1"
_symmetry_group_IT_number 2
_symmetry_cell_setting 'triclinic'
loop_
_space_group_symop_operation_xyz
x,y,z
-x,-y,-z
loop_
_atom_site_type_symbol
_atom_site_label
_atom_site_fract_x
_atom_site_fract_y
_atom_site_fract_z
Si Si1 0.791474 0.524331 0.786632
Si Si2 0.647639 0.735270 0.504377
Si Si3 0.480572 0.043827 0.649808
Si Si4 0.190004 0.189725 0.005506
Si Si5 0.731615 0.257805 0.993020
Si Si6 0.973820 0.018804 0.733993
Si Si7 0.514375 0.700974 0.122581
Si Si8 0.304425 0.625287 0.811521
O O1 0.575208 0.656129 0.823925
O O2 0.093018 0.428756 0.587556
O O3 0.765585 0.376146 0.864095
O O4 0.702107 0.614643 0.924087
O O5 0.688435 0.805930 0.354108
O O6 0.453788 0.689160 0.633415
O O7 0.537777 0.883560 0.609496
O O8 0.351481 0.076052 0.835756
O O9 0.747357 0.027077 0.474090
O O10 0.366199 0.229704 0.919937
O O11 0.929582 0.343110 0.094302
O O12 0.089968 0.112007 0.174178
O O13 0.796281 0.268884 0.052552
O O14 0.906894 0.088699 0.869324
O O15 0.763448 0.160891 0.766435
O O16 0.517737 0.560822 0.221554
#
# Coordination Sequence:
#
# PCOD9048258 Si02
#       8
#     2   2   2   2   2   2   2   2
#     4   9  18  37  62  85 126 160 202 260 314 362
#     4  11  22  39  61 101 130 159 210 263 325 373
#     4  11  24  39  66  96 132 163 205 269 311 383
#     4  12  25  44  65  91 128 176 214 248 317 374
#     4   9  18  35  62  91 119 162 200 260 321 363
#     4  11  22  44  67  94 127 165 213 260 317 376
#     4  10  24  45  64  89 127 172 213 262 302 374
#     4  11  23  39  65  96 127 167 210 262 316 374
#
# _framework density 21.987808000000001
#
# number of rings (size 3 to 8) (size 9 to 14) (size 15 to 20)
#    0.000    1.500    2.500    3.750    1.750    2.000 
#    6.750    1.250    0.000    0.000    0.000    0.000 
#    0.000    0.000    0.000    0.000    0.000    0.000 
#
# Total GULP energy -89424.609006 kJ/mol
# GULP energy per Si atom -5589.038063 kJ/mol
# Density = 2.193776 g / cm^3
# Si number density = 21.987808 Si / 1000 Ang^3
#
#
#
# Elastic Constant Matrix: (Units=GPa)
#
#
# Indices 1 2 3 4 5 6 
#
# 1 79.8393 21.2930 10.0454 2.2964 -16.5399 -1.5699
# 2 21.2930 60.5027 26.7364 -10.6761 -3.4235 -14.2027
# 3 10.0454 26.7364 75.2721 -1.1115 -16.2597 -7.4433
# 4 2.2964 -10.6761 -1.1115 27.7008 -5.6833 -8.0585
# 5 -16.5399 -3.4235 -16.2597 -5.6833 24.1413 0.9289
# 6 -1.5699 -14.2027 -7.4433 -8.0585 0.9289 30.0548
#
#
#
# Elastic Compliance Matrix: (Units=1/GPa)
#
#
# Indices 1 2 3 4 5 6 
#
# 1 0.016628 -0.007580 0.002617 -0.002742 0.011556 -0.003158
# 2 -0.007580 0.028963 -0.008331 0.015178 -0.003717 0.015412
# 3 0.002617 -0.008331 0.018825 0.000208 0.013320 0.000506
# 4 -0.002742 0.015178 0.000208 0.050437 0.011508 0.020248
# 5 0.011556 -0.003717 0.013320 0.011508 0.060364 0.003366
# 6 -0.003158 0.015412 0.000506 0.020248 0.003366 0.045841
#
#
# Mechanical properties :
#
#
# Convention : Reuss Voigt Hill
#
# Bulk Modulus (GPa) = 26.43470 36.86263 31.64867
# Shear Modulus (GPa) = 19.21188 26.88199 23.04693
#
# Velocity S-wave (km/s) = 2.95914 3.50034 3.24106
# Velocity P-wave (km/s) = 4.87071 5.75656 5.33206
#
# Compressibility (1/GPa) = 0.03782906
#
# Stress axis : x y z
#
# Youngs Moduli (GPa) = 60.13904 34.52696 53.11967
#
# Poissons Ratio (x) = 0.26170 -0.13899
# Poissons Ratio (y) = 0.45583 0.44252
# Poissons Ratio (z) = -0.15736 0.28763
#
# Static dielectric constant tensor:
#      x y z
#    x 1.806850 -0.026270 -0.027920 
#    y -0.026270 1.824520 0.008330 
#    z -0.027920 0.008330 1.839960 
# 
# From -- ./inp_files/518821.got.cif
#   From: 2010.05.17/outbox.cif.g08.bks.cpg/sg2_260_cif.got.tgz:518821.got - 2010.06.03 11:33:40.
