data_PCOD9048437
_publ_section_title
;
Structure prediction by ZEFSAII (Michael W. Deem and Ramdas Pophale) SiO2 
 PCOD9048437
Probable space group: P -1
;
_chemical_formula_sum "Si O2"
_cell_formula_units_Z 16
_cell_length_a 9.471529
_cell_length_b 14.512285
_cell_length_c 12.565081
_cell_angle_alpha 114.439484
_cell_angle_beta 36.284278
_cell_angle_gamma 130.214389
_cell_volume 758.428893
_symmetry_space_group_name_H-M "P -1"
_symmetry_group_IT_number 2
_symmetry_cell_setting 'triclinic'
loop_
_space_group_symop_operation_xyz
x,y,z
-x,-y,-z
loop_
_atom_site_type_symbol
_atom_site_label
_atom_site_fract_x
_atom_site_fract_y
_atom_site_fract_z
Si Si1 0.802066 0.886035 0.145813
Si Si2 0.380401 0.388912 0.168313
Si Si3 0.304796 0.017323 0.543338
Si Si4 0.224407 0.345823 0.005803
Si Si5 0.200113 0.647297 0.976251
Si Si6 0.232212 0.354697 0.603033
Si Si7 0.125142 0.767553 0.454368
Si Si8 0.391174 0.750016 0.678890
O O1 0.843405 0.939706 0.265476
O O2 0.869684 0.783912 0.047591
O O3 0.462279 0.816504 0.282730
O O4 0.000000 0.000000 0.000000
O O5 0.564199 0.537000 0.140746
O O6 0.058906 0.322706 0.379064
O O7 0.377421 0.363623 0.033597
O O8 0.538643 0.336629 0.106934
O O9 0.489382 0.122330 0.393064
O O10 0.500000 0.000000 0.500000
O O11 0.117829 0.887125 0.533979
O O12 0.942239 0.345188 0.203128
O O13 0.991478 0.668239 0.180433
O O14 0.336906 0.734203 0.831259
O O15 0.000000 0.500000 0.000000
O O16 0.500000 0.500000 0.500000
O O17 0.389079 0.286762 0.496212
O O18 0.044149 0.303405 0.583872
#
# Coordination Sequence:
#
# PCOD9048437 Si02
#       8
#     2   2   2   2   2   2   2   2
#     4  11  23  43  72 104 139 194 242 296 366 426
#     4  11  22  42  65 101 145 187 228 314 352 422
#     4  10  24  45  68  96 141 184 237 303 347 416
#     4  11  23  38  69 103 141 183 249 292 361 424
#     4  12  23  46  68 100 148 187 231 297 358 431
#     4  12  25  43  74 105 145 193 235 290 368 431
#     4  11  23  45  69  97 146 186 239 298 361 420
#     4  12  25  45  72 103 142 189 242 289 360 425
#
# _framework density 21.096243000000001
#
# number of rings (size 3 to 8) (size 9 to 14) (size 15 to 20)
#    0.000    0.750    3.750    4.500    1.750    2.000 
#    0.000    0.625    0.000    0.000    0.000    0.000 
#    0.000    0.000    0.000    0.000    0.000    0.000 
#
# Total GULP energy -89414.571043 kJ/mol
# GULP energy per Si atom -5588.410690 kJ/mol
# Density = 2.104823 g / cm^3
# Si number density = 21.096243 Si / 1000 Ang^3
#
#
#
# Elastic Constant Matrix: (Units=GPa)
#
#
# Indices 1 2 3 4 5 6 
#
# 1 110.0550 30.0838 42.4365 -7.1554 8.5905 -9.9707
# 2 30.0838 92.2106 62.7137 -7.9053 20.0874 -6.4529
# 3 42.4365 62.7137 158.0762 -14.7745 10.5007 -15.2660
# 4 -7.1554 -7.9053 -14.7745 46.9355 -3.0851 9.4485
# 5 8.5905 20.0874 10.5007 -3.0851 44.2548 -7.6299
# 6 -9.9707 -6.4529 -15.2660 9.4485 -7.6299 36.4018
#
#
#
# Elastic Compliance Matrix: (Units=1/GPa)
#
#
# Indices 1 2 3 4 5 6 
#
# 1 0.010528 -0.001951 -0.001838 0.000350 -0.000424 0.001587
# 2 -0.001951 0.016669 -0.005771 0.000582 -0.006021 -0.001413
# 3 -0.001838 -0.005771 0.009374 0.001312 0.001245 0.002325
# 4 0.000350 0.000582 0.001312 0.022918 0.000060 -0.005187
# 5 -0.000424 -0.006021 0.001245 0.000060 0.025941 0.004760
# 6 0.001587 -0.001413 0.002325 -0.005187 0.004760 0.030974
#
#
# Mechanical properties :
#
#
# Convention : Reuss Voigt Hill
#
# Bulk Modulus (GPa) = 57.30824 70.08998 63.69911
# Shear Modulus (GPa) = 35.37484 40.52561 37.95022
#
# Velocity S-wave (km/s) = 4.09936 4.38766 4.24596
# Velocity P-wave (km/s) = 7.04488 7.67885 7.36869
#
# Compressibility (1/GPa) = 0.01744950
#
# Stress axis : x y z
#
# Youngs Moduli (GPa) = 94.98345 59.99055 106.68148
#
# Poissons Ratio (x) = 0.11706 0.19608
# Poissons Ratio (y) = 0.18535 0.61571
# Poissons Ratio (z) = 0.17458 0.34623
#
# Static dielectric constant tensor:
#      x y z
#    x 1.832240 0.002840 -0.002490 
#    y 0.002840 1.784140 0.012040 
#    z -0.002490 0.012040 1.764330 
# 
# From -- ./inp_files/274509.got.cif
#   From: 2010.05.17/outbox.cif.g08.bks.cpg/sg2_138_cif.got.tgz:274509.got - 2010.06.03 11:33:40.
