data_PCOD9048455
_publ_section_title
;
Structure prediction by ZEFSAII (Michael W. Deem and Ramdas Pophale) SiO2 
 PCOD9048455
Probable space group: P -1
;
_chemical_formula_sum "Si O2"
_cell_formula_units_Z 12
_cell_length_a 7.542558
_cell_length_b 9.209353
_cell_length_c 10.532416
_cell_angle_alpha 77.706443
_cell_angle_beta 95.303205
_cell_angle_gamma 48.930218
_cell_volume 511.413665
_symmetry_space_group_name_H-M "P -1"
_symmetry_group_IT_number 2
_symmetry_cell_setting 'triclinic'
loop_
_space_group_symop_operation_xyz
x,y,z
-x,-y,-z
loop_
_atom_site_type_symbol
_atom_site_label
_atom_site_fract_x
_atom_site_fract_y
_atom_site_fract_z
Si Si1 0.820227 0.119770 0.842382
Si Si2 0.078340 0.466532 0.176131
Si Si3 0.650957 0.472062 0.134269
Si Si4 0.783995 0.424496 0.609623
Si Si5 0.789377 0.241998 0.420928
Si Si6 0.712003 0.861209 0.930048
O O1 0.558567 0.328892 0.834952
O O2 0.873192 0.216944 0.723251
O O3 0.760192 0.983109 0.831243
O O4 0.000000 0.000000 0.000000
O O5 0.112801 0.499909 0.314846
O O6 0.308870 0.262397 0.150372
O O7 0.867040 0.466584 0.143442
O O8 0.962216 0.676991 0.059085
O O9 0.756262 0.278684 0.261961
O O10 0.500000 0.500000 0.000000
O O11 0.856844 0.354049 0.481847
O O12 0.486793 0.624885 0.566207
O O13 0.000000 0.000000 0.500000
O O14 0.500000 0.000000 0.000000
#
# Coordination Sequence:
#
# PCOD9048455 Si02
#       6
#     2   2   2   2   2   2
#     4  11  21  38  67  98 138 181 220 285 343 410
#     4  11  24  41  66 103 143 175 233 295 338 412
#     4  11  25  42  71 106 138 180 234 286 349 416
#     4  10  24  45  68  99 139 184 236 280 344 420
#     4  10  25  46  70  97 140 188 229 281 352 417
#     4  11  23  38  59 103 143 174 222 288 350 398
#
# _framework density 23.464371
#
# number of rings (size 3 to 8) (size 9 to 14) (size 15 to 20)
#    0.000    1.333    3.333    1.000   11.667    2.000 
#    0.000    0.833    0.000    0.000    0.000    0.000 
#    0.000    0.000    0.000    0.000    0.000    0.000 
#
# Total GULP energy -66890.468926 kJ/mol
# GULP energy per Si atom -5574.205744 kJ/mol
# Density = 2.341097 g / cm^3
# Si number density = 23.464371 Si / 1000 Ang^3
#
#
#
# Elastic Constant Matrix: (Units=GPa)
#
#
# Indices 1 2 3 4 5 6 
#
# 1 75.3600 38.3758 32.5576 6.8779 7.1370 9.0094
# 2 38.3758 131.0800 51.3611 1.2896 6.9920 15.6425
# 3 32.5576 51.3611 141.4622 -1.7981 15.5454 14.0891
# 4 6.8779 1.2896 -1.7981 60.4376 11.3438 5.3525
# 5 7.1370 6.9920 15.5454 11.3438 24.9513 5.3963
# 6 9.0094 15.6425 14.0891 5.3525 5.3963 31.2030
#
#
#
# Elastic Compliance Matrix: (Units=1/GPa)
#
#
# Indices 1 2 3 4 5 6 
#
# 1 0.016547 -0.003732 -0.002182 -0.001490 -0.001340 -0.001434
# 2 -0.003732 0.010040 -0.002524 0.000337 0.000306 -0.002927
# 3 -0.002182 -0.002524 0.009203 0.001623 -0.004770 -0.001714
# 4 -0.001490 0.000337 0.001623 0.018573 -0.008656 -0.002161
# 5 -0.001340 0.000306 -0.004770 -0.008656 0.048250 -0.004473
# 6 -0.001434 -0.002927 -0.001714 -0.002161 -0.004473 0.035847
#
#
# Mechanical properties :
#
#
# Convention : Reuss Voigt Hill
#
# Bulk Modulus (GPa) = 52.87213 65.83234 59.35223
# Shear Modulus (GPa) = 30.93249 38.35890 34.64569
#
# Velocity S-wave (km/s) = 3.63474 4.04762 3.84672
# Velocity P-wave (km/s) = 6.34011 7.06834 6.71411
#
# Compressibility (1/GPa) = 0.01891356
#
# Stress axis : x y z
#
# Youngs Moduli (GPa) = 60.43288 99.59889 108.65817
#
# Poissons Ratio (x) = 0.37172 0.23711
# Poissons Ratio (y) = 0.22555 0.27428
# Poissons Ratio (z) = 0.13187 0.25142
#
# Static dielectric constant tensor:
#      x y z
#    x 1.940370 0.072970 -0.140830 
#    y 0.072970 1.913170 0.103280 
#    z -0.140830 0.103280 1.891390 
# 
# From -- ./inp_files/378794.got.cif
#   From: 2010.05.17/outbox.cif.g08.bks.cpg/sg2_190_cif.got.tgz:378794.got - 2010.06.03 11:33:40.
