data_PCOD9048723
_publ_section_title
;
Structure prediction by ZEFSAII (Michael W. Deem and Ramdas Pophale) SiO2 
 PCOD9048723
Probable space group: P -1
;
_chemical_formula_sum "Si O2"
_cell_formula_units_Z 14
_cell_length_a 8.822524
_cell_length_b 8.779464
_cell_length_c 21.127198
_cell_angle_alpha 123.308252
_cell_angle_beta 149.514153
_cell_angle_gamma 69.544423
_cell_volume 663.623164
_symmetry_space_group_name_H-M "P -1"
_symmetry_group_IT_number 2
_symmetry_cell_setting 'triclinic'
loop_
_space_group_symop_operation_xyz
x,y,z
-x,-y,-z
loop_
_atom_site_type_symbol
_atom_site_label
_atom_site_fract_x
_atom_site_fract_y
_atom_site_fract_z
Si Si1 0.761594 0.394334 0.060136
Si Si2 0.552497 0.570961 0.827659
Si Si3 0.562961 0.705612 0.539210
Si Si4 0.444010 0.649818 0.336636
Si Si5 0.269845 0.777262 0.118400
Si Si6 0.776782 0.194407 0.151770
Si Si7 0.323134 0.986579 0.584765
O O1 0.832640 0.302870 0.129563
O O2 0.071282 0.551102 0.182131
O O3 0.500000 0.500000 0.000000
O O4 0.663890 0.232886 0.934172
O O5 0.438055 0.493605 0.698756
O O6 0.605251 0.390008 0.843279
O O7 0.331169 0.668122 0.806986
O O8 0.898467 0.719131 0.981388
O O9 0.500000 0.500000 0.500000
O O10 0.552742 0.684402 0.455440
O O11 0.903200 0.833592 0.713506
O O12 0.308716 0.795697 0.498553
O O13 0.539749 0.847831 0.379207
O O14 0.441196 0.969025 0.260649
O O15 0.500000 0.000000 0.000000
O O16 0.000000 0.000000 0.500000
#
# Coordination Sequence:
#
# PCOD9048723 Si02
#       7
#     2   2   2   2   2   2   2
#     4  11  22  39  72  97 132 181 232 277 343 407
#     4   9  19  40  66  97 127 175 223 281 335 396
#     4  12  27  47  66 101 152 176 223 291 354 410
#     4  10  24  45  71  97 133 185 234 281 337 417
#     4   9  19  39  65  94 129 166 232 282 317 397
#     4  12  26  42  67 102 140 181 226 284 352 405
#     4  11  26  44  71  99 134 183 238 278 335 415
#
# _framework density 21.096311
#
# number of rings (size 3 to 8) (size 9 to 14) (size 15 to 20)
#    0.000    1.429    2.857    2.143    8.000    1.714 
#    2.571    2.143    0.000    0.000    0.000    0.000 
#    0.000    0.000    0.000    0.000    0.000    0.000 
#
# Total GULP energy -78265.238238 kJ/mol
# GULP energy per Si atom -5590.374160 kJ/mol
# Density = 2.104829 g / cm^3
# Si number density = 21.096311 Si / 1000 Ang^3
#
#
#
# Elastic Constant Matrix: (Units=GPa)
#
#
# Indices 1 2 3 4 5 6 
#
# 1 149.2978 47.3546 41.3955 1.9331 -33.2038 -14.0829
# 2 47.3546 51.9445 11.1657 11.9083 -7.5242 -6.2906
# 3 41.3955 11.1657 90.9204 3.3207 -27.5867 1.9735
# 4 1.9331 11.9083 3.3207 28.0306 3.1207 1.2438
# 5 -33.2038 -7.5242 -27.5867 3.1207 48.5775 7.6518
# 6 -14.0829 -6.2906 1.9735 1.2438 7.6518 27.4507
#
#
#
# Elastic Compliance Matrix: (Units=1/GPa)
#
#
# Indices 1 2 3 4 5 6 
#
# 1 0.011847 -0.009934 -0.003082 0.003183 0.004177 0.002714
# 2 -0.009934 0.031237 0.000727 -0.012669 -0.001184 0.002914
# 3 -0.003082 0.000727 0.014676 -0.002441 0.007184 -0.004362
# 4 0.003183 -0.012669 -0.002441 0.041609 -0.003532 -0.001996
# 5 0.004177 -0.001184 0.007184 -0.003532 0.028580 -0.006452
# 6 0.002714 0.002914 -0.004362 -0.001996 -0.006452 0.040692
#
#
# Mechanical properties :
#
#
# Convention : Reuss Voigt Hill
#
# Bulk Modulus (GPa) = 30.13603 54.66603 42.40103
# Shear Modulus (GPa) = 24.47631 33.62822 29.05227
#
# Velocity S-wave (km/s) = 3.40989 3.99687 3.71499
# Velocity P-wave (km/s) = 5.46069 6.87523 6.20838
#
# Compressibility (1/GPa) = 0.03318287
#
# Stress axis : x y z
#
# Youngs Moduli (GPa) = 84.40891 32.01357 68.13748
#
# Poissons Ratio (x) = 0.31801 0.20999
# Poissons Ratio (y) = 0.83849 -0.04953
# Poissons Ratio (z) = 0.26013 -0.02327
#
# Static dielectric constant tensor:
#      x y z
#    x 1.770270 -0.021740 -0.018780 
#    y -0.021740 1.751300 0.014430 
#    z -0.018780 0.014430 1.802750 
# 
# From -- ./inp_files/222900.got.cif
#   From: 2010.05.17/outbox.cif.g08.bks.cpg/sg2_112_cif.got.tgz:222900.got - 2010.06.03 11:33:40.
