data_PCOD9048374
_publ_section_title
;
Structure prediction by ZEFSAII (Michael W. Deem and Ramdas Pophale) SiO2 
 PCOD9048374
Probable space group: P -1
;
_chemical_formula_sum "Si O2"
_cell_formula_units_Z 16
_cell_length_a 8.430086
_cell_length_b 14.338352
_cell_length_c 8.875046
_cell_angle_alpha 50.618318
_cell_angle_beta 70.251792
_cell_angle_gamma 71.398321
_cell_volume 772.297703
_symmetry_space_group_name_H-M "P -1"
_symmetry_group_IT_number 2
_symmetry_cell_setting 'triclinic'
loop_
_space_group_symop_operation_xyz
x,y,z
-x,-y,-z
loop_
_atom_site_type_symbol
_atom_site_label
_atom_site_fract_x
_atom_site_fract_y
_atom_site_fract_z
Si Si1 0.590485 0.369858 0.162697
Si Si2 0.631094 0.837890 0.521088
Si Si3 0.445160 0.414455 0.473792
Si Si4 0.676377 0.957842 0.681293
Si Si5 0.515822 0.206713 0.886391
Si Si6 0.228290 0.637679 0.177509
Si Si7 0.930583 0.806828 0.240112
Si Si8 0.828526 0.037729 0.823834
O O1 0.471480 0.266418 0.277545
O O2 0.590880 0.379955 0.333978
O O3 0.500000 0.500000 0.000000
O O4 0.753654 0.345599 0.025818
O O5 0.719979 0.903633 0.558675
O O6 0.768353 0.783566 0.411199
O O7 0.488991 0.940345 0.391418
O O8 0.500000 0.500000 0.500000
O O9 0.424863 0.293982 0.697000
O O10 0.290903 0.498657 0.352226
O O11 0.815394 0.014887 0.674198
O O12 0.616125 0.850963 0.909954
O O13 0.635178 0.282804 0.871700
O O14 0.642950 0.098802 0.878137
O O15 0.045992 0.692656 0.244695
O O16 0.047331 0.869778 0.256132
O O17 0.880209 0.910780 0.024290
#
# Coordination Sequence:
#
# PCOD9048374 Si02
#       8
#     2   2   2   2   2   2   2   2
#     4  10  20  38  61  86 116 155 206 250 293 350
#     4  11  23  38  61  97 120 160 205 261 301 362
#     4   9  19  33  60  90 109 152 206 251 289 355
#     4  11  22  35  61  92 125 154 214 254 297 357
#     4  10  17  34  58  89 118 147 208 255 290 350
#     4   9  19  38  58  86 118 163 192 250 304 361
#     4  10  22  38  59  87 133 160 197 243 318 373
#     4  10  21  36  57  88 122 173 188 248 311 366
#
# _framework density 20.717400999999999
#
# number of rings (size 3 to 8) (size 9 to 14) (size 15 to 20)
#    0.000    2.000    2.500    1.125    1.750    0.500 
#    0.000    6.250    0.000    0.750    0.000    0.000 
#    0.000    0.000    0.000    0.000    0.000    0.000 
#
# Total GULP energy -89304.783805 kJ/mol
# GULP energy per Si atom -5581.548988 kJ/mol
# Density = 2.067025 g / cm^3
# Si number density = 20.717401 Si / 1000 Ang^3
#
#
#
# Elastic Constant Matrix: (Units=GPa)
#
#
# Indices 1 2 3 4 5 6 
#
# 1 40.5673 41.2503 20.6156 9.8498 9.8998 2.4775
# 2 41.2503 113.1662 46.4961 23.9592 13.4549 -12.4261
# 3 20.6156 46.4961 104.3661 4.3709 7.3097 -18.4509
# 4 9.8498 23.9592 4.3709 38.9453 1.7778 5.4804
# 5 9.8998 13.4549 7.3097 1.7778 22.2098 12.4715
# 6 2.4775 -12.4261 -18.4509 5.4804 12.4715 42.8496
#
#
#
# Elastic Compliance Matrix: (Units=1/GPa)
#
#
# Indices 1 2 3 4 5 6 
#
# 1 0.042373 -0.014137 -0.002646 -0.000623 -0.006132 -0.005825
# 2 -0.014137 0.019053 -0.003273 -0.008589 -0.008204 0.008419
# 3 -0.002646 -0.003273 0.012914 0.000595 -0.004504 0.005999
# 4 -0.000623 -0.008589 0.000595 0.031900 0.007480 -0.008456
# 5 -0.006132 -0.008204 -0.004504 0.007480 0.067389 -0.024535
# 6 -0.005825 0.008419 0.005999 -0.008456 -0.024535 0.036921
#
#
# Mechanical properties :
#
#
# Convention : Reuss Voigt Hill
#
# Bulk Modulus (GPa) = 29.21589 52.75815 40.98702
# Shear Modulus (GPa) = 19.07877 30.78346 24.93111
#
# Velocity S-wave (km/s) = 3.03793 3.85889 3.47275
# Velocity P-wave (km/s) = 5.14180 6.73614 5.99223
#
# Compressibility (1/GPa) = 0.03422795
#
# Stress axis : x y z
#
# Youngs Moduli (GPa) = 23.59970 52.48630 77.43747
#
# Poissons Ratio (x) = 0.74199 0.20491
# Poissons Ratio (y) = 0.33363 0.25344
# Poissons Ratio (z) = 0.06245 0.17178
#
# Static dielectric constant tensor:
#      x y z
#    x 1.751320 0.037580 0.008610 
#    y 0.037580 1.779230 0.019470 
#    z 0.008610 0.019470 1.728750 
# 
# From -- ./inp_files/199412.got.cif
#   From: 2010.05.17/outbox.cif.g08.bks.cpg/sg2_100_cif.got.tgz:199412.got - 2010.06.03 11:33:40.
