data_PCOD9048622
_publ_section_title
;
Structure prediction by ZEFSAII (Michael W. Deem and Ramdas Pophale) SiO2 
 PCOD9048622
Probable space group: P -1
;
_chemical_formula_sum "Si O2"
_cell_formula_units_Z 16
_cell_length_a 12.554919
_cell_length_b 5.652838
_cell_length_c 17.081000
_cell_angle_alpha 97.312954
_cell_angle_beta 42.680612
_cell_angle_gamma 121.343355
_cell_volume 630.067114
_symmetry_space_group_name_H-M "P -1"
_symmetry_group_IT_number 2
_symmetry_cell_setting 'triclinic'
loop_
_space_group_symop_operation_xyz
x,y,z
-x,-y,-z
loop_
_atom_site_type_symbol
_atom_site_label
_atom_site_fract_x
_atom_site_fract_y
_atom_site_fract_z
Si Si1 0.629846 0.810332 0.093018
Si Si2 0.404848 0.645947 0.516497
Si Si3 0.784443 0.402199 0.084219
Si Si4 0.009953 0.485205 0.693150
Si Si5 0.947125 0.823500 0.863010
Si Si6 0.362006 0.323166 0.737306
Si Si7 0.243533 0.128629 0.288141
Si Si8 0.107130 0.817676 0.502522
O O1 0.670602 0.818991 0.165410
O O2 0.436233 0.460545 0.167528
O O3 0.619520 0.083892 0.113940
O O4 0.809472 0.926836 0.939092
O O5 0.500000 0.500000 0.500000
O O6 0.165250 0.456291 0.651649
O O7 0.440504 0.600208 0.405181
O O8 0.500000 0.000000 0.500000
O O9 0.681437 0.439797 0.213741
O O10 0.857109 0.644007 0.986101
O O11 0.000000 0.500000 0.000000
O O12 0.149239 0.748174 0.561782
O O13 0.923695 0.610110 0.799074
O O14 0.832240 0.165310 0.734514
O O15 0.183053 0.077799 0.764409
O O16 0.055406 0.131216 0.392123
O O17 0.268204 0.073886 0.363691
O O18 0.000000 0.500000 0.500000
#
# Coordination Sequence:
#
# PCOD9048622 Si02
#       8
#     2   2   2   2   2   2   2   2
#     4  11  24  42  71 104 139 190 249 304 370 448
#     4  12  30  47  73 115 153 200 250 309 389 461
#     4  11  21  40  71  96 136 193 240 305 365 437
#     4  11  26  47  74 103 155 191 243 314 378 452
#     4  11  23  44  67 106 141 190 243 307 380 444
#     4  11  24  42  69 101 147 182 251 304 372 439
#     4  10  24  45  70 108 143 192 252 303 373 452
#     4   9  22  45  71  97 143 193 244 298 368 433
#
# _framework density 25.394120999999998
#
# number of rings (size 3 to 8) (size 9 to 14) (size 15 to 20)
#    0.000    1.250    3.750    0.750   10.500    5.500 
#    0.000    1.250    0.000    0.000    0.000    0.000 
#    0.000    0.000    0.000    0.000    0.000    0.000 
#
# Total GULP energy -89374.020497 kJ/mol
# GULP energy per Si atom -5585.876281 kJ/mol
# Density = 2.533632 g / cm^3
# Si number density = 25.394121 Si / 1000 Ang^3
#
#
#
# Elastic Constant Matrix: (Units=GPa)
#
#
# Indices 1 2 3 4 5 6 
#
# 1 57.9283 2.4244 5.9698 4.9341 -3.2382 0.2428
# 2 2.4244 134.4554 30.6027 33.2883 -10.1693 19.4828
# 3 5.9698 30.6027 109.1576 28.7686 -11.9977 2.3088
# 4 4.9341 33.2883 28.7686 60.3684 0.5068 -1.9897
# 5 -3.2382 -10.1693 -11.9977 0.5068 32.1588 -1.7967
# 6 0.2428 19.4828 2.3088 -1.9897 -1.7967 34.8298
#
#
#
# Elastic Compliance Matrix: (Units=1/GPa)
#
#
# Indices 1 2 3 4 5 6 
#
# 1 0.017514 0.000303 -0.000486 -0.001389 0.001686 -0.000252
# 2 0.000303 0.009984 -0.001030 -0.005248 0.002568 -0.005686
# 3 -0.000486 -0.001030 0.011156 -0.004749 0.003849 -0.000233
# 4 -0.001389 -0.005248 -0.004749 0.022009 -0.003676 0.004328
# 5 0.001686 0.002568 0.003849 -0.003676 0.033561 -0.000182
# 6 -0.000252 -0.005686 -0.000233 0.004328 -0.000182 0.032147
#
#
# Mechanical properties :
#
#
# Convention : Reuss Voigt Hill
#
# Bulk Modulus (GPa) = 27.60342 42.17056 34.88699
# Shear Modulus (GPa) = 35.49313 42.97436 39.23375
#
# Velocity S-wave (km/s) = 3.74263 4.11822 3.93490
# Velocity P-wave (km/s) = 5.43782 6.26541 5.86623
#
# Compressibility (1/GPa) = 0.03622739
#
# Stress axis : x y z
#
# Youngs Moduli (GPa) = 57.09803 100.16188 89.63871
#
# Poissons Ratio (x) = -0.03032 0.04356
# Poissons Ratio (y) = -0.01728 0.09231
# Poissons Ratio (z) = 0.02775 0.10315
#
# Static dielectric constant tensor:
#      x y z
#    x 2.520950 -0.270600 -0.367570 
#    y -0.270600 2.174950 0.120270 
#    z -0.367570 0.120270 2.302070 
# 
# From -- ./inp_files/571753.got.cif
#   From: 2010.05.17/outbox.cif.g08.bks.cpg/sg2_286_cif.got.tgz:571753.got - 2010.06.03 11:33:40.
