data_PCOD9048171
_publ_section_title
;
Structure prediction by ZEFSAII (Michael W. Deem and Ramdas Pophale) SiO2 
 PCOD9048171
Probable space group: P -1
;
_chemical_formula_sum "Si O2"
_cell_formula_units_Z 16
_cell_length_a 12.425081
_cell_length_b 11.870073
_cell_length_c 12.161674
_cell_angle_alpha 81.893948
_cell_angle_beta 45.743706
_cell_angle_gamma 119.109405
_cell_volume 719.023237
_symmetry_space_group_name_H-M "P -1"
_symmetry_group_IT_number 2
_symmetry_cell_setting 'triclinic'
loop_
_space_group_symop_operation_xyz
x,y,z
-x,-y,-z
loop_
_atom_site_type_symbol
_atom_site_label
_atom_site_fract_x
_atom_site_fract_y
_atom_site_fract_z
Si Si1 0.476614 0.581575 0.596614
Si Si2 0.161373 0.750601 0.687083
Si Si3 0.094264 0.712709 0.992945
Si Si4 0.396093 0.335795 0.856492
Si Si5 0.304222 0.654072 0.246367
Si Si6 0.625059 0.303595 0.064930
Si Si7 0.409664 0.112860 0.780745
Si Si8 0.173472 0.021671 0.596071
O O1 0.500000 0.500000 0.500000
O O2 0.425551 0.474728 0.758296
O O3 0.711328 0.815893 0.421223
O O4 0.220233 0.495372 0.759561
O O5 0.354934 0.790268 0.474953
O O6 0.229695 0.925226 0.597136
O O7 0.184248 0.742786 0.801113
O O8 0.860259 0.540214 0.890703
O O9 0.247451 0.729544 0.966422
O O10 0.158293 0.882465 0.956470
O O11 0.648699 0.445318 0.728431
O O12 0.363862 0.219249 0.799782
O O13 0.144411 0.168753 0.140325
O O14 0.491151 0.842754 0.170135
O O15 0.000000 0.500000 0.500000
O O16 0.393298 0.719835 0.048898
O O17 0.344487 0.151601 0.345793
#
# Coordination Sequence:
#
# PCOD9048171 Si02
#       8
#     2   2   2   2   2   2   2   2
#     4  12  28  43  73 109 151 195 236 296 367 448
#     4  12  24  45  72 109 150 183 238 303 366 424
#     4  12  25  41  71 113 147 183 240 297 364 439
#     4  10  25  50  70 104 146 191 238 298 365 417
#     4  10  24  49  77 100 147 192 249 301 352 430
#     4  12  25  44  74 110 138 199 248 291 360 425
#     4  10  24  44  75 105 138 198 234 299 363 414
#     4  12  25  47  71 109 147 190 240 294 371 428
#
# _framework density 22.252412
#
# number of rings (size 3 to 8) (size 9 to 14) (size 15 to 20)
#    0.750    0.000    5.000    1.500    5.250    2.000 
#    0.000    3.750    0.000    0.000    0.000    0.000 
#    0.000    0.000    0.000    0.000    0.000    0.000 
#
# Total GULP energy -89399.207890 kJ/mol
# GULP energy per Si atom -5587.450493 kJ/mol
# Density = 2.220176 g / cm^3
# Si number density = 22.252412 Si / 1000 Ang^3
#
#
#
# Elastic Constant Matrix: (Units=GPa)
#
#
# Indices 1 2 3 4 5 6 
#
# 1 74.6053 37.5342 31.2431 7.9287 5.2575 9.2724
# 2 37.5342 100.5344 19.9435 6.6794 23.9868 -13.8083
# 3 31.2431 19.9435 89.5164 0.8250 -1.5376 -13.8787
# 4 7.9287 6.6794 0.8250 41.0562 3.0358 1.1696
# 5 5.2575 23.9868 -1.5376 3.0358 35.9435 9.7400
# 6 9.2724 -13.8083 -13.8787 1.1696 9.7400 30.6762
#
#
#
# Elastic Compliance Matrix: (Units=1/GPa)
#
#
# Indices 1 2 3 4 5 6 
#
# 1 0.026109 -0.013158 -0.009268 -0.002891 0.010569 -0.021253
# 2 -0.013158 0.021392 0.002698 -0.000263 -0.017763 0.020477
# 3 -0.009268 0.002698 0.015608 0.000925 -0.003116 0.012032
# 4 -0.002891 -0.000263 0.000925 0.025042 -0.001681 0.000753
# 5 0.010569 -0.017763 -0.003116 -0.001681 0.045445 -0.026965
# 6 -0.021253 0.020477 0.012032 0.000753 -0.026965 0.062216
#
#
# Mechanical properties :
#
#
# Convention : Reuss Voigt Hill
#
# Bulk Modulus (GPa) = 42.27566 49.12195 45.69881
# Shear Modulus (GPa) = 20.56330 33.26419 26.91374
#
# Velocity S-wave (km/s) = 3.04319 3.87053 3.48152
# Velocity P-wave (km/s) = 5.60245 6.48826 6.06156
#
# Compressibility (1/GPa) = 0.02365427
#
# Stress axis : x y z
#
# Youngs Moduli (GPa) = 38.30132 46.74654 64.06972
#
# Poissons Ratio (x) = 0.61508 0.59380
# Poissons Ratio (y) = 0.50396 -0.17289
# Poissons Ratio (z) = 0.35498 -0.12614
#
# Static dielectric constant tensor:
#      x y z
#    x 1.822510 -0.023980 0.000040 
#    y -0.023980 1.829580 -0.003450 
#    z 0.000040 -0.003450 1.873700 
# 
# From -- ./inp_files/428093.got.cif
#   From: 2010.05.17/outbox.cif.g08.bks.cpg/sg2_215_cif.got.tgz:428093.got - 2010.06.03 11:33:40.
