data_PCOD9048687
_publ_section_title
;
Structure prediction by ZEFSAII (Michael W. Deem and Ramdas Pophale) SiO2 
 PCOD9048687
Probable space group: P -1
;
_chemical_formula_sum "Si O2"
_cell_formula_units_Z 16
_cell_length_a 11.462599
_cell_length_b 11.741517
_cell_length_c 5.484543
_cell_angle_alpha 81.571156
_cell_angle_beta 74.582868
_cell_angle_gamma 73.059242
_cell_volume 678.800312
_symmetry_space_group_name_H-M "P -1"
_symmetry_group_IT_number 2
_symmetry_cell_setting 'triclinic'
loop_
_space_group_symop_operation_xyz
x,y,z
-x,-y,-z
loop_
_atom_site_type_symbol
_atom_site_label
_atom_site_fract_x
_atom_site_fract_y
_atom_site_fract_z
Si Si1 0.490833 0.869155 0.625576
Si Si2 0.297847 0.863644 0.076247
Si Si3 0.138057 0.488707 0.524363
Si Si4 0.301502 0.561816 0.756375
Si Si5 0.161271 0.229182 0.717985
Si Si6 0.508923 0.334187 0.695236
Si Si7 0.135641 0.714095 0.148782
Si Si8 0.282222 0.119078 0.201785
O O1 0.524214 0.759076 0.451189
O O2 0.591376 0.845852 0.800196
O O3 0.500000 0.000000 0.500000
O O4 0.346320 0.888833 0.776137
O O5 0.405119 0.747524 0.129564
O O6 0.167703 0.830345 0.206460
O O7 0.307640 0.978918 0.182972
O O8 0.172745 0.530923 0.753845
O O9 0.195763 0.348130 0.560675
O O10 0.178103 0.587434 0.307742
O O11 0.000000 0.500000 0.500000
O O12 0.391382 0.435315 0.837534
O O13 0.395703 0.598562 0.503257
O O14 0.238607 0.683675 0.889776
O O15 0.195841 0.148023 0.483071
O O16 0.010867 0.260210 0.833553
O O17 0.225473 0.182279 0.956878
#
# Coordination Sequence:
#
# PCOD9048687 Si02
#       8
#     2   2   2   2   2   2   2   2
#     4  12  25  47  73 107 148 199 244 307 376 442
#     4  12  26  46  75 104 150 194 248 306 376 444
#     4  10  24  45  71 104 142 197 241 308 367 437
#     4  11  24  43  71 105 148 186 245 305 377 443
#     4  11  29  48  77 113 148 199 252 310 372 443
#     4  11  25  43  71 110 145 191 241 306 377 448
#     4  11  26  48  75 106 148 199 247 310 371 446
#     4  12  28  48  76 112 151 197 252 311 372 440
#
# _framework density 23.570995
#
# number of rings (size 3 to 8) (size 9 to 14) (size 15 to 20)
#    0.000    0.750    3.750    1.875    8.750    3.500 
#    0.000    0.000    0.000    0.000    0.000    0.000 
#    0.000    0.000    0.000    0.000    0.000    0.000 
#
# Total GULP energy -89108.553126 kJ/mol
# GULP energy per Si atom -5569.284570 kJ/mol
# Density = 2.351735 g / cm^3
# Si number density = 23.570995 Si / 1000 Ang^3
#
#
#
# Elastic Constant Matrix: (Units=GPa)
#
#
# Indices 1 2 3 4 5 6 
#
# 1 121.2303 32.4293 19.0587 -6.7034 -3.0682 5.5824
# 2 32.4293 76.3219 9.8824 -5.4050 -8.5037 0.0994
# 3 19.0587 9.8824 49.0607 -5.6742 -7.5937 -24.1518
# 4 -6.7034 -5.4050 -5.6742 45.5239 -0.3919 -3.8366
# 5 -3.0682 -8.5037 -7.5937 -0.3919 31.0976 -10.7486
# 6 5.5824 0.0994 -24.1518 -3.8366 -10.7486 38.8332
#
#
#
# Elastic Compliance Matrix: (Units=1/GPa)
#
#
# Indices 1 2 3 4 5 6 
#
# 1 0.010845 -0.004125 -0.008144 -0.000625 -0.004823 -0.008010
# 2 -0.004125 0.015418 0.000611 0.001545 0.004814 0.002418
# 3 -0.008144 0.000611 0.046447 0.008021 0.023740 0.037420
# 4 -0.000625 0.001545 0.008021 0.023867 0.005738 0.009020
# 5 -0.004823 0.004814 0.023740 0.005738 0.049099 0.029603
# 6 -0.008010 0.002418 0.037420 0.009020 0.029603 0.059254
#
#
# Mechanical properties :
#
#
# Convention : Reuss Voigt Hill
#
# Bulk Modulus (GPa) = 20.24534 41.03932 30.64233
# Shear Modulus (GPa) = 20.43233 35.44044 27.93639
#
# Velocity S-wave (km/s) = 2.94741 3.88179 3.44641
# Velocity P-wave (km/s) = 4.49341 6.12697 5.37264
#
# Compressibility (1/GPa) = 0.04939408
#
# Stress axis : x y z
#
# Youngs Moduli (GPa) = 92.21108 64.85741 21.52999
#
# Poissons Ratio (x) = 0.26751 0.17534
# Poissons Ratio (y) = 0.38033 -0.01315
# Poissons Ratio (z) = 0.75097 -0.03961
#
# Static dielectric constant tensor:
#      x y z
#    x 1.939260 0.066480 0.062430 
#    y 0.066480 1.971780 0.015430 
#    z 0.062430 0.015430 2.101240 
# 
# From -- ./inp_files/68981.got.cif
#   From: 2010.05.17/outbox.cif.g08.bks.cpg/sg2_35_cif.got.tgz:68981.got - 2010.06.03 11:33:40.
