data_PCOD9048252
_publ_section_title
;
Structure prediction by ZEFSAII (Michael W. Deem and Ramdas Pophale) SiO2 
 PCOD9048252
Probable space group: P -1
;
_chemical_formula_sum "Si O2"
_cell_formula_units_Z 14
_cell_length_a 11.705943
_cell_length_b 18.022507
_cell_length_c 14.308605
_cell_angle_alpha 27.470216
_cell_angle_beta 152.673046
_cell_angle_gamma 136.394883
_cell_volume 609.231974
_symmetry_space_group_name_H-M "P -1"
_symmetry_group_IT_number 2
_symmetry_cell_setting 'triclinic'
loop_
_space_group_symop_operation_xyz
x,y,z
-x,-y,-z
loop_
_atom_site_type_symbol
_atom_site_label
_atom_site_fract_x
_atom_site_fract_y
_atom_site_fract_z
Si Si1 0.445701 0.732175 0.631544
Si Si2 0.581891 0.443413 0.394008
Si Si3 0.790418 0.684639 0.634916
Si Si4 0.966746 0.011811 0.832645
Si Si5 0.832051 0.194885 0.335478
Si Si6 0.402776 0.063690 0.622061
Si Si7 0.894935 0.640739 0.185668
O O1 0.418753 0.643400 0.612586
O O2 0.177073 0.855087 0.340295
O O3 0.619487 0.849370 0.592322
O O4 0.621669 0.632945 0.954992
O O5 0.482515 0.355087 0.507127
O O6 0.877048 0.430355 0.644806
O O7 0.385727 0.625536 0.029763
O O8 0.891089 0.778951 0.520413
O O9 0.762241 0.802240 0.573707
O O10 0.000000 0.500000 0.000000
O O11 0.850751 0.107276 0.546474
O O12 0.279924 0.986341 0.078959
O O13 0.894239 0.834542 0.989053
O O14 0.724140 0.085056 0.307349
O O15 0.000000 0.500000 0.500000
#
# Coordination Sequence:
#
# PCOD9048252 Si02
#       7
#     2   2   2   2   2   2   2
#     4  11  24  43  65  92 139 175 212 270 327 384
#     4  10  24  45  64 101 135 173 219 271 321 388
#     4   9  20  44  69  94 132 171 216 275 325 380
#     4  12  25  42  64 102 136 172 219 271 323 394
#     4  11  24  42  71  96 134 174 221 268 326 386
#     4  11  23  42  69  96 130 175 218 267 329 386
#     4  12  25  40  66  95 133 176 220 265 327 391
#
# _framework density 22.979752000000001
#
# number of rings (size 3 to 8) (size 9 to 14) (size 15 to 20)
#    0.000    1.143    4.286    2.143    2.000    4.000 
#    0.000    0.000    0.000   14.571    0.000    0.000 
#    0.000    0.000    0.000    0.000    0.000    0.000 
#
# Total GULP energy -77992.546173 kJ/mol
# GULP energy per Si atom -5570.896155 kJ/mol
# Density = 2.292745 g / cm^3
# Si number density = 22.979752 Si / 1000 Ang^3
#
#
#
# Elastic Constant Matrix: (Units=GPa)
#
#
# Indices 1 2 3 4 5 6 
#
# 1 79.7142 20.9261 32.9598 -27.3645 18.2724 10.1690
# 2 20.9261 71.6917 38.0978 -16.4603 2.8504 10.0332
# 3 32.9598 38.0978 100.9545 -4.9298 10.1998 -7.9781
# 4 -27.3645 -16.4603 -4.9298 33.1942 -1.9790 -0.3391
# 5 18.2724 2.8504 10.1998 -1.9790 40.8925 -5.9208
# 6 10.1690 10.0332 -7.9781 -0.3391 -5.9208 35.8251
#
#
#
# Elastic Compliance Matrix: (Units=1/GPa)
#
#
# Indices 1 2 3 4 5 6 
#
# 1 0.026889 0.004313 -0.009223 0.022168 -0.010746 -0.012461
# 2 0.004313 0.022316 -0.009789 0.012958 -0.001838 -0.009835
# 3 -0.009223 -0.009789 0.016711 -0.009792 0.001499 0.009236
# 4 0.022168 0.012958 -0.009792 0.052783 -0.007675 -0.012871
# 5 -0.010746 -0.001838 0.001499 -0.007675 0.029909 0.008769
# 6 -0.012461 -0.009835 0.009236 -0.012871 0.008769 0.037589
#
#
# Mechanical properties :
#
#
# Convention : Reuss Voigt Hill
#
# Bulk Modulus (GPa) = 27.38273 48.48088 37.93181
# Shear Modulus (GPa) = 21.95244 32.67414 27.31329
#
# Velocity S-wave (km/s) = 3.09414 3.77486 3.45132
# Velocity P-wave (km/s) = 4.97059 6.33580 5.69426
#
# Compressibility (1/GPa) = 0.03651936
#
# Stress axis : x y z
#
# Youngs Moduli (GPa) = 37.19051 44.81088 59.84148
#
# Poissons Ratio (x) = -0.19329 0.55191
# Poissons Ratio (y) = -0.16042 0.58576
# Poissons Ratio (z) = 0.34300 0.43863
#
# Static dielectric constant tensor:
#      x y z
#    x 1.902050 0.042560 -0.046860 
#    y 0.042560 1.917340 -0.012950 
#    z -0.046860 -0.012950 1.934020 
# 
# From -- ./inp_files/523214.got.cif
#   From: 2010.05.17/outbox.cif.g08.bks.cpg/sg2_262_cif.got.tgz:523214.got - 2010.06.03 11:33:40.
