data_PCOD9048216
_publ_section_title
;
Structure prediction by ZEFSAII (Michael W. Deem and Ramdas Pophale) SiO2 
 PCOD9048216
Probable space group: P -1
;
_chemical_formula_sum "Si O2"
_cell_formula_units_Z 15
_cell_length_a 11.994674
_cell_length_b 10.381076
_cell_length_c 6.871756
_cell_angle_alpha 57.633159
_cell_angle_beta 92.028867
_cell_angle_gamma 126.138985
_cell_volume 532.100199
_symmetry_space_group_name_H-M "P -1"
_symmetry_group_IT_number 2
_symmetry_cell_setting 'triclinic'
loop_
_space_group_symop_operation_xyz
x,y,z
-x,-y,-z
loop_
_atom_site_type_symbol
_atom_site_label
_atom_site_fract_x
_atom_site_fract_y
_atom_site_fract_z
Si Si1 0.529328 0.864015 0.707900
Si Si2 0.500000 0.500000 0.500000
Si Si3 0.145312 0.079832 0.076223
Si Si4 0.600723 0.873260 0.129735
Si Si5 0.930017 0.541710 0.177912
Si Si6 0.210723 0.846213 0.753468
Si Si7 0.079708 0.378222 0.478158
Si Si8 0.701148 0.600855 0.812530
O O1 0.500000 0.000000 0.500000
O O2 0.685221 0.957867 0.538468
O O3 0.563270 0.919170 0.892531
O O4 0.403529 0.618497 0.903962
O O5 0.468048 0.656937 0.394308
O O6 0.588589 0.575343 0.668169
O O7 0.203903 0.227095 0.147912
O O8 0.080730 0.856240 0.318448
O O9 0.295499 0.185592 0.866016
O O10 0.000000 0.000000 0.000000
O O11 0.691499 0.065872 0.117430
O O12 0.040963 0.510593 0.292537
O O13 0.861293 0.555591 0.350368
O O14 0.045518 0.750371 0.889594
O O15 0.180767 0.657900 0.800428
O O16 0.180186 0.376556 0.338270
#
# Coordination Sequence:
#
# PCOD9048216 Si02
#       8
#     2   1   2   2   2   2   2   2
#     4  11  27  51  77 113 157 214 265 324 396 484
#     4  10  26  48  76 110 158 218 260 324 390 480
#     4  12  27  46  76 119 157 205 264 333 402 474
#     4  11  26  47  77 117 155 209 266 324 403 475
#     4  10  24  44  77 112 150 207 256 328 405 463
#     4  11  24  46  73 111 158 199 257 327 391 468
#     4  11  23  46  75 111 153 198 266 329 396 470
#     4  11  27  50  81 118 160 212 267 330 399 477
#
# _framework density 28.190180000000002
#
# number of rings (size 3 to 8) (size 9 to 14) (size 15 to 20)
#    0.000    1.067    1.333    2.800    9.333    2.667 
#    4.800    0.000    0.000    0.000    0.000    0.000 
#    0.000    0.000    0.000    0.000    0.000    0.000 
#
# Total GULP energy -83792.817067 kJ/mol
# GULP energy per Si atom -5586.187804 kJ/mol
# Density = 2.812602 g / cm^3
# Si number density = 28.190180 Si / 1000 Ang^3
#
#
#
# Elastic Constant Matrix: (Units=GPa)
#
#
# Indices 1 2 3 4 5 6 
#
# 1 122.4835 55.9516 37.5198 31.9156 -9.3799 -0.9362
# 2 55.9516 293.0091 74.8622 26.4801 1.6817 -17.4876
# 3 37.5198 74.8622 152.6583 17.7264 19.7671 -4.3140
# 4 31.9156 26.4801 17.7264 50.3607 5.4922 0.0373
# 5 -9.3799 1.6817 19.7671 5.4922 46.8124 23.6429
# 6 -0.9362 -17.4876 -4.3140 0.0373 23.6429 39.4926
#
#
#
# Elastic Compliance Matrix: (Units=1/GPa)
#
#
# Indices 1 2 3 4 5 6 
#
# 1 0.011667 -0.001319 -0.002412 -0.006545 0.006388 -0.004389
# 2 -0.001319 0.004254 -0.001510 -0.000787 -0.000774 0.002152
# 3 -0.002412 -0.001510 0.008795 -0.000112 -0.006090 0.003881
# 4 -0.006545 -0.000787 -0.000112 0.025066 -0.005596 0.002811
# 5 0.006388 -0.000774 -0.006090 -0.005596 0.037738 -0.023444
# 6 -0.004389 0.002152 0.003881 0.002811 -0.023444 0.040626
#
#
# Mechanical properties :
#
#
# Convention : Reuss Voigt Hill
#
# Bulk Modulus (GPa) = 70.24882 100.53536 85.39209
# Shear Modulus (GPa) = 34.87430 53.98763 44.43096
#
# Velocity S-wave (km/s) = 3.52107 4.38096 3.97434
# Velocity P-wave (km/s) = 6.44238 7.83142 7.17061
#
# Compressibility (1/GPa) = 0.01423512
#
# Stress axis : x y z
#
# Youngs Moduli (GPa) = 85.71492 235.04972 113.70120
#
# Poissons Ratio (x) = 0.30996 0.27424
# Poissons Ratio (y) = 0.11303 0.17167
# Poissons Ratio (z) = 0.20674 0.35488
#
# Static dielectric constant tensor:
#      x y z
#    x 2.322350 -0.030020 0.127560 
#    y -0.030020 2.115290 0.209720 
#    z 0.127560 0.209720 1.839980 
# 
# From -- ./inp_files/310793.got.cif
#   From: 2010.05.17/outbox.cif.g08.bks.cpg/sg2_156_cif.got.tgz:310793.got - 2010.06.03 11:33:40.
