data_PCOD9048855
_publ_section_title
;
Structure prediction by ZEFSAII (Michael W. Deem and Ramdas Pophale) SiO2 
 PCOD9048855
Probable space group: P -1
;
_chemical_formula_sum "Si O2"
_cell_formula_units_Z 14
_cell_length_a 22.506598
_cell_length_b 21.665812
_cell_length_c 12.791346
_cell_angle_alpha 162.011943
_cell_angle_beta 153.569899
_cell_angle_gamma 17.421174
_cell_volume 571.806175
_symmetry_space_group_name_H-M "P -1"
_symmetry_group_IT_number 2
_symmetry_cell_setting 'triclinic'
loop_
_space_group_symop_operation_xyz
x,y,z
-x,-y,-z
loop_
_atom_site_type_symbol
_atom_site_label
_atom_site_fract_x
_atom_site_fract_y
_atom_site_fract_z
Si Si1 0.516093 0.728164 0.211233
Si Si2 0.851611 0.098637 0.831921
Si Si3 0.096485 0.588098 0.236310
Si Si4 0.155674 0.261606 0.623665
Si Si5 0.786820 0.127323 0.372860
Si Si6 0.147698 0.369035 0.428486
Si Si7 0.554280 0.547826 0.492291
O O1 0.674935 0.693483 0.351296
O O2 0.353557 0.052929 0.530727
O O3 0.657263 0.446595 0.060679
O O4 0.414609 0.678845 0.897776
O O5 0.780997 0.965676 0.553930
O O6 0.979688 0.901688 0.612316
O O7 0.000000 0.000000 0.000000
O O8 0.333117 0.393385 0.294661
O O9 0.074888 0.545479 0.013331
O O10 0.000000 0.500000 0.000000
O O11 0.978231 0.387009 0.470423
O O12 0.658506 0.408483 0.544353
O O13 0.677911 0.209121 0.445084
O O14 0.000000 0.000000 0.500000
O O15 0.787439 0.913139 0.971322
O O16 0.000000 0.500000 0.500000
#
# Coordination Sequence:
#
# PCOD9048855 Si02
#       7
#     2   2   2   2   2   2   2
#     4  12  26  43  74 103 145 184 241 302 360 430
#     4  11  23  46  73 100 139 197 233 292 366 427
#     4  10  24  45  74 101 143 189 238 300 359 429
#     4  11  24  46  67 103 142 181 245 295 354 435
#     4  11  25  45  74 104 151 194 241 298 366 429
#     4  12  26  42  70 103 143 192 237 295 370 421
#     4  11  25  44  72 110 142 192 246 297 364 439
#
# _framework density 24.483820999999999
#
# number of rings (size 3 to 8) (size 9 to 14) (size 15 to 20)
#    0.000    0.857    1.429    4.714    6.000    4.571 
#    0.000    2.143    0.000    0.000    0.000    0.000 
#    0.000    0.000    0.000    0.000    0.000    0.000 
#
# Total GULP energy -78113.620143 kJ/mol
# GULP energy per Si atom -5579.544296 kJ/mol
# Density = 2.442810 g / cm^3
# Si number density = 24.483821 Si / 1000 Ang^3
#
#
#
# Elastic Constant Matrix: (Units=GPa)
#
#
# Indices 1 2 3 4 5 6 
#
# 1 114.5615 47.4468 37.0030 -4.8158 0.8228 -31.5874
# 2 47.4468 113.7616 26.3936 -10.2344 -2.1060 -17.9003
# 3 37.0030 26.3936 91.6807 -7.5239 -17.7252 -14.0195
# 4 -4.8158 -10.2344 -7.5239 48.7196 -7.0843 7.2138
# 5 0.8228 -2.1060 -17.7252 -7.0843 52.6022 -6.6048
# 6 -31.5874 -17.9003 -14.0195 7.2138 -6.6048 52.8610
#
#
#
# Elastic Compliance Matrix: (Units=1/GPa)
#
#
# Indices 1 2 3 4 5 6 
#
# 1 0.012944 -0.003816 -0.003561 -0.001034 -0.001002 0.005514
# 2 -0.003816 0.010977 -0.001262 0.001657 0.000413 0.000928
# 3 -0.003561 -0.001262 0.014133 0.002097 0.005246 0.001562
# 4 -0.001034 0.001657 0.002097 0.021906 0.003481 -0.002055
# 5 -0.001002 0.000413 0.005246 0.003481 0.021677 0.003166
# 6 0.005514 0.000928 0.001562 -0.002055 0.003166 0.023617
#
#
# Mechanical properties :
#
#
# Convention : Reuss Voigt Hill
#
# Bulk Modulus (GPa) = 48.13373 60.18784 54.16079
# Shear Modulus (GPa) = 38.62246 44.78060 41.70153
#
# Velocity S-wave (km/s) = 3.97604 4.28131 4.13150
# Velocity P-wave (km/s) = 6.38597 7.00539 6.70284
#
# Compressibility (1/GPa) = 0.02077545
#
# Stress axis : x y z
#
# Youngs Moduli (GPa) = 77.25780 91.09561 70.75476
#
# Poissons Ratio (x) = 0.34765 0.25196
# Poissons Ratio (y) = 0.29484 0.08931
# Poissons Ratio (z) = 0.27511 0.11498
#
# Static dielectric constant tensor:
#      x y z
#    x 1.994830 0.007470 0.083530 
#    y 0.007470 1.969800 0.059320 
#    z 0.083530 0.059320 1.885340 
# 
# From -- ./inp_files/95633.got.cif
#   From: 2010.05.17/outbox.cif.g08.bks.cpg/sg2_48_cif.got.tgz:95633.got - 2010.06.03 11:33:40.
