data_PCOD9048836
_publ_section_title
;
Structure prediction by ZEFSAII (Michael W. Deem and Ramdas Pophale) SiO2 
 PCOD9048836
Probable space group: P -1
;
_chemical_formula_sum "Si O2"
_cell_formula_units_Z 16
_cell_length_a 9.089172
_cell_length_b 5.022593
_cell_length_c 18.070098
_cell_angle_alpha 117.962778
_cell_angle_beta 81.078314
_cell_angle_gamma 121.025923
_cell_volume 620.274355
_symmetry_space_group_name_H-M "P -1"
_symmetry_group_IT_number 2
_symmetry_cell_setting 'triclinic'
loop_
_space_group_symop_operation_xyz
x,y,z
-x,-y,-z
loop_
_atom_site_type_symbol
_atom_site_label
_atom_site_fract_x
_atom_site_fract_y
_atom_site_fract_z
Si Si1 0.124133 0.489045 0.050544
Si Si2 0.766906 0.350487 0.573654
Si Si3 0.840696 0.844690 0.433805
Si Si4 0.419592 0.582855 0.949157
Si Si5 0.517841 0.782449 0.241922
Si Si6 0.142782 0.187898 0.168783
Si Si7 0.457264 0.287565 0.381846
Si Si8 0.102649 0.744695 0.691069
O O1 0.121283 0.274859 0.095981
O O2 0.176679 0.865673 0.130173
O O3 0.229655 0.412084 0.971683
O O4 0.000000 0.500000 0.000000
O O5 0.643170 0.507343 0.594916
O O6 0.955379 0.645163 0.627094
O O7 0.799205 0.163251 0.476616
O O8 0.665395 0.038549 0.599540
O O9 0.647910 0.535454 0.432077
O O10 0.891259 0.615092 0.345624
O O11 0.000000 0.000000 0.500000
O O12 0.442663 0.397563 0.852889
O O13 0.500000 0.500000 0.000000
O O14 0.500000 0.000000 0.000000
O O15 0.317757 0.493244 0.232954
O O16 0.496656 0.126001 0.284144
O O17 0.697939 0.942162 0.295939
O O18 0.979644 0.158257 0.221299
#
# Coordination Sequence:
#
# PCOD9048836 Si02
#       8
#     2   2   2   2   2   2   2   2
#     4  12  26  47  73 102 137 185 236 295 360 425
#     4  11  23  45  72 103 145 184 240 288 352 420
#     4   9  21  45  70 108 146 184 241 292 346 424
#     4  12  24  44  67  98 133 177 230 287 348 419
#     4  11  24  46  72 101 142 186 236 291 360 415
#     4  12  25  47  73 100 147 181 237 298 353 425
#     4  11  24  43  73 102 141 193 231 292 358 416
#     4  10  24  45  73 108 142 190 240 293 352 427
#
# _framework density 25.795038000000002
#
# number of rings (size 3 to 8) (size 9 to 14) (size 15 to 20)
#    0.000    1.000    3.750    1.875    1.750    2.000 
#    0.000   27.500    0.000    0.000    0.000    0.000 
#    0.000    0.000    0.000    0.000    0.000    0.000 
#
# Total GULP energy -89114.661043 kJ/mol
# GULP energy per Si atom -5569.666315 kJ/mol
# Density = 2.573633 g / cm^3
# Si number density = 25.795038 Si / 1000 Ang^3
#
#
#
# Elastic Constant Matrix: (Units=GPa)
#
#
# Indices 1 2 3 4 5 6 
#
# 1 197.6203 41.7641 40.3226 11.5868 -14.7998 8.1955
# 2 41.7641 93.0586 28.6059 15.4319 -1.5675 -10.8161
# 3 40.3226 28.6059 165.7802 15.9923 -35.4469 -6.4191
# 4 11.5868 15.4319 15.9923 45.4271 3.9617 -3.8757
# 5 -14.7998 -1.5675 -35.4469 3.9617 68.7743 17.5277
# 6 8.1955 -10.8161 -6.4191 -3.8757 17.5277 56.8874
#
#
#
# Elastic Compliance Matrix: (Units=1/GPa)
#
#
# Indices 1 2 3 4 5 6 
#
# 1 0.005966 -0.002538 -0.000727 -0.000685 0.001374 -0.001894
# 2 -0.002538 0.013180 -0.001626 -0.002853 -0.001687 0.003013
# 3 -0.000727 -0.001626 0.007545 -0.002333 0.004021 -0.000751
# 4 -0.000685 -0.002853 -0.002333 0.024438 -0.003328 0.001983
# 5 0.001374 -0.001687 0.004021 -0.003328 0.018596 -0.006021
# 6 -0.001894 0.003013 -0.000751 0.001983 -0.006021 0.020330
#
#
# Mechanical properties :
#
#
# Convention : Reuss Voigt Hill
#
# Bulk Modulus (GPa) = 59.13422 75.31602 67.22512
# Shear Modulus (GPa) = 47.40536 57.26885 52.33711
#
# Velocity S-wave (km/s) = 4.29157 4.71696 4.50928
# Velocity P-wave (km/s) = 6.89429 7.67643 7.29585
#
# Compressibility (1/GPa) = 0.01691068
#
# Stress axis : x y z
#
# Youngs Moduli (GPa) = 167.60536 75.87517 132.53404
#
# Poissons Ratio (x) = 0.19254 0.09633
# Poissons Ratio (y) = 0.42532 0.21547
# Poissons Ratio (z) = 0.12182 0.12336
#
# Static dielectric constant tensor:
#      x y z
#    x 2.160100 0.196950 -0.219490 
#    y 0.196950 2.228470 -0.198990 
#    z -0.219490 -0.198990 2.357670 
# 
# From -- ./inp_files/585932.got.cif
#   From: 2010.05.17/outbox.cif.g08.bks.cpg/sg2_293_cif.got.tgz:585932.got - 2010.06.03 11:33:40.
