data_PCOD9048348
_publ_section_title
;
Structure prediction by ZEFSAII (Michael W. Deem and Ramdas Pophale) SiO2 
 PCOD9048348
Probable space group: P -1
;
_chemical_formula_sum "Si O2"
_cell_formula_units_Z 16
_cell_length_a 16.605374
_cell_length_b 11.490375
_cell_length_c 8.462695
_cell_angle_alpha 41.502050
_cell_angle_beta 133.240721
_cell_angle_gamma 110.991507
_cell_volume 738.272340
_symmetry_space_group_name_H-M "P -1"
_symmetry_group_IT_number 2
_symmetry_cell_setting 'triclinic'
loop_
_space_group_symop_operation_xyz
x,y,z
-x,-y,-z
loop_
_atom_site_type_symbol
_atom_site_label
_atom_site_fract_x
_atom_site_fract_y
_atom_site_fract_z
Si Si1 0.241044 0.757295 0.802164
Si Si2 0.409993 0.405029 0.540126
Si Si3 0.126668 0.347260 0.339075
Si Si4 0.319866 0.458242 0.679434
Si Si5 0.024093 0.066007 0.638179
Si Si6 0.315668 0.107391 0.598634
Si Si7 0.231572 0.837037 0.338752
Si Si8 0.624441 0.896703 0.688333
O O1 0.249640 0.766546 0.615067
O O2 0.103503 0.829599 0.575265
O O3 0.302424 0.902548 0.810418
O O4 0.294282 0.555911 0.156642
O O5 0.500000 0.500000 0.500000
O O6 0.423091 0.405127 0.745903
O O7 0.406596 0.199311 0.706341
O O8 0.212876 0.433951 0.458681
O O9 0.101616 0.195251 0.572096
O O10 0.193056 0.242831 0.375355
O O11 0.000000 0.500000 0.000000
O O12 0.295220 0.665076 0.489732
O O13 0.342410 0.314683 0.996833
O O14 0.000000 0.000000 0.500000
O O15 0.098822 0.914366 0.017331
O O16 0.350795 0.108972 0.460295
O O17 0.290793 0.995777 0.241732
O O18 0.500000 0.000000 0.500000
#
# Coordination Sequence:
#
# PCOD9048348 Si02
#       8
#     2   2   2   2   2   2   2   2
#     4  11  24  44  67 100 139 179 227 281 345 410
#     4  11  26  43  68 100 133 180 236 285 339 403
#     4  11  22  42  67 100 138 178 222 276 342 405
#     4  11  25  43  67  99 135 175 229 281 343 406
#     4  12  21  41  70 100 138 174 226 279 339 414
#     4  10  24  45  67  96 138 175 227 280 344 396
#     4  11  25  44  69 101 137 179 227 281 348 411
#     4  11  26  47  70  98 137 184 232 284 343 409
#
# _framework density 21.672219999999999
#
# number of rings (size 3 to 8) (size 9 to 14) (size 15 to 20)
#    0.000    1.000    2.500    4.125    5.250    1.000 
#    0.000    1.250    0.000    0.000    0.000    0.000 
#    0.000    0.000    0.000    0.000    0.000    0.000 
#
# Total GULP energy -89242.698435 kJ/mol
# GULP energy per Si atom -5577.668652 kJ/mol
# Density = 2.162289 g / cm^3
# Si number density = 21.672220 Si / 1000 Ang^3
#
#
#
# Elastic Constant Matrix: (Units=GPa)
#
#
# Indices 1 2 3 4 5 6 
#
# 1 104.0687 25.6147 -2.9285 -0.8436 -4.0548 5.3592
# 2 25.6147 99.2733 -0.6961 -14.1447 1.8041 -9.4482
# 3 -2.9285 -0.6961 59.8085 -4.9004 -6.7649 -7.9824
# 4 -0.8436 -14.1447 -4.9004 20.8452 8.7509 1.8168
# 5 -4.0548 1.8041 -6.7649 8.7509 32.3357 -7.3636
# 6 5.3592 -9.4482 -7.9824 1.8168 -7.3636 31.7954
#
#
#
# Elastic Compliance Matrix: (Units=1/GPa)
#
#
# Indices 1 2 3 4 5 6 
#
# 1 0.010584 -0.003292 0.000189 -0.002268 0.001663 -0.002200
# 2 -0.003292 0.012656 0.000905 0.009525 -0.002741 0.003364
# 3 0.000189 0.000905 0.018203 0.002569 0.004378 0.005674
# 4 -0.002268 0.009525 0.002569 0.062939 -0.018212 -0.003957
# 5 0.001663 -0.002741 0.004378 -0.018212 0.039450 0.010181
# 6 -0.002200 0.003364 0.005674 -0.003957 0.010181 0.036830
#
#
# Mechanical properties :
#
#
# Convention : Reuss Voigt Hill
#
# Bulk Modulus (GPa) = 26.99299 34.12562 30.55930
# Shear Modulus (GPa) = 25.32819 33.07262 29.20041
#
# Velocity S-wave (km/s) = 3.42232 3.91069 3.67463
# Velocity P-wave (km/s) = 5.30081 6.01430 5.66879
#
# Compressibility (1/GPa) = 0.03704666
#
# Stress axis : x y z
#
# Youngs Moduli (GPa) = 94.47825 79.01241 54.93652
#
# Poissons Ratio (x) = 0.26015 -0.01036
# Poissons Ratio (y) = 0.31107 -0.04974
# Poissons Ratio (z) = -0.01782 -0.07154
#
# Static dielectric constant tensor:
#      x y z
#    x 1.791690 -0.042680 0.010630 
#    y -0.042680 1.811380 0.058660 
#    z 0.010630 0.058660 1.877720 
# 
# From -- ./inp_files/306351.got.cif
#   From: 2010.05.17/outbox.cif.g08.bks.cpg/sg2_154_cif.got.tgz:306351.got - 2010.06.03 11:33:40.
