data_PCOD9048744
_publ_section_title
;
Structure prediction by ZEFSAII (Michael W. Deem and Ramdas Pophale) SiO2 
 PCOD9048744
Probable space group: P -1
;
_chemical_formula_sum "Si O2"
_cell_formula_units_Z 16
_cell_length_a 27.446744
_cell_length_b 11.826312
_cell_length_c 9.500350
_cell_angle_alpha 144.152892
_cell_angle_beta 152.414716
_cell_angle_gamma 29.458797
_cell_volume 691.985671
_symmetry_space_group_name_H-M "P -1"
_symmetry_group_IT_number 2
_symmetry_cell_setting 'triclinic'
loop_
_space_group_symop_operation_xyz
x,y,z
-x,-y,-z
loop_
_atom_site_type_symbol
_atom_site_label
_atom_site_fract_x
_atom_site_fract_y
_atom_site_fract_z
Si Si1 0.565441 0.535592 0.336104
Si Si2 0.899401 0.771306 0.242922
Si Si3 0.848899 0.118553 0.245533
Si Si4 0.415106 0.014442 0.581596
Si Si5 0.256242 0.431492 0.377469
Si Si6 0.785060 0.058721 0.522519
Si Si7 0.320812 0.157815 0.787486
Si Si8 0.166633 0.685186 0.884354
O O1 0.461515 0.762027 0.384743
O O2 0.668176 0.579648 0.578107
O O3 0.645238 0.296279 0.384988
O O4 0.500000 0.500000 0.000000
O O5 0.047378 0.672736 0.526385
O O6 0.840921 0.919392 0.098710
O O7 0.836986 0.948714 0.392554
O O8 0.862428 0.586539 0.975314
O O9 0.789743 0.334906 0.419214
O O10 0.796965 0.220985 0.061756
O O11 0.000000 0.000000 0.500000
O O12 0.350067 0.209576 0.491766
O O13 0.331894 0.083748 0.579147
O O14 0.542407 0.991086 0.938314
O O15 0.774182 0.879032 0.406983
O O16 0.863431 0.140382 0.888929
O O17 0.277391 0.424437 0.944910
#
# Coordination Sequence:
#
# PCOD9048744 Si02
#       8
#     2   2   2   2   2   2   2   2
#     4  12  25  44  70 101 138 185 234 285 338 404
#     4  11  26  45  73 103 137 184 231 282 345 412
#     4  10  24  45  72 102 137 178 233 281 341 408
#     4  11  24  45  68  98 138 181 229 283 341 410
#     4  12  24  45  74  99 141 179 233 284 345 403
#     4  12  25  44  70 101 141 180 231 284 344 410
#     4  11  25  45  68 100 138 182 227 282 352 407
#     4  11  25  46  70 102 141 180 228 286 346 412
#
# _framework density 23.121865
#
# number of rings (size 3 to 8) (size 9 to 14) (size 15 to 20)
#    0.000    0.750    3.750    3.000    1.750    5.000 
#    0.000    0.000    0.000    0.000    0.000    0.000 
#    0.000    0.000    0.000    0.000    0.000    0.000 
#
# Total GULP energy -89607.925361 kJ/mol
# GULP energy per Si atom -5600.495335 kJ/mol
# Density = 2.306924 g / cm^3
# Si number density = 23.121865 Si / 1000 Ang^3
#
#
#
# Elastic Constant Matrix: (Units=GPa)
#
#
# Indices 1 2 3 4 5 6 
#
# 1 105.6599 13.8563 4.0138 4.5482 -2.7051 11.1471
# 2 13.8563 45.9728 -22.2930 -2.7994 -5.5694 6.5852
# 3 4.0138 -22.2930 76.2309 6.1881 0.6789 12.6409
# 4 4.5482 -2.7994 6.1881 28.9372 -1.2691 -4.8454
# 5 -2.7051 -5.5694 0.6789 -1.2691 36.6980 8.2126
# 6 11.1471 6.5852 12.6409 -4.8454 8.2126 39.0962
#
#
#
# Elastic Compliance Matrix: (Units=1/GPa)
#
#
# Indices 1 2 3 4 5 6 
#
# 1 0.010298 -0.003210 -0.000895 -0.002128 0.000782 -0.002534
# 2 -0.003210 0.029639 0.010216 0.000004 0.006006 -0.008641
# 3 -0.000895 0.010216 0.017828 -0.003951 0.002881 -0.008325
# 4 -0.002128 0.000004 -0.003951 0.036814 -0.000265 0.006502
# 5 0.000782 0.006006 0.002881 -0.000265 0.030061 -0.008514
# 6 -0.002534 -0.008641 -0.008325 0.006502 -0.008514 0.033042
#
#
# Mechanical properties :
#
#
# Convention : Reuss Voigt Hill
#
# Bulk Modulus (GPa) = 14.28819 24.33531 19.31175
# Shear Modulus (GPa) = 29.62265 36.43206 33.02735
#
# Velocity S-wave (km/s) = 3.58320 3.97376 3.78352
# Velocity P-wave (km/s) = 4.82826 5.62156 5.23994
#
# Compressibility (1/GPa) = 0.06998788
#
# Stress axis : x y z
#
# Youngs Moduli (GPa) = 97.10413 33.73944 56.09089
#
# Poissons Ratio (x) = 0.10829 0.05019
# Poissons Ratio (y) = 0.31167 -0.57301
# Poissons Ratio (z) = 0.08690 -0.34468
#
# Static dielectric constant tensor:
#      x y z
#    x 1.830530 0.002380 0.002240 
#    y 0.002380 1.815210 -0.020080 
#    z 0.002240 -0.020080 1.900270 
# 
# From -- ./inp_files/85138.got.cif
#   From: 2010.05.17/outbox.cif.g08.bks.cpg/sg2_43_cif.got.tgz:85138.got - 2010.06.03 11:33:40.
