data_PCOD9048834
_publ_section_title
;
Structure prediction by ZEFSAII (Michael W. Deem and Ramdas Pophale) SiO2 
 PCOD9048834
Probable space group: P -1
;
_chemical_formula_sum "Si O2"
_cell_formula_units_Z 14
_cell_length_a 5.666127
_cell_length_b 11.870484
_cell_length_c 12.983060
_cell_angle_alpha 134.953303
_cell_angle_beta 78.179373
_cell_angle_gamma 111.199525
_cell_volume 574.454240
_symmetry_space_group_name_H-M "P -1"
_symmetry_group_IT_number 2
_symmetry_cell_setting 'triclinic'
loop_
_space_group_symop_operation_xyz
x,y,z
-x,-y,-z
loop_
_atom_site_type_symbol
_atom_site_label
_atom_site_fract_x
_atom_site_fract_y
_atom_site_fract_z
Si Si1 0.308879 0.338393 0.865648
Si Si2 0.396154 0.895021 0.338357
Si Si3 0.955804 0.833669 0.780966
Si Si4 0.232044 0.418844 0.530246
Si Si5 0.642278 0.238259 0.154524
Si Si6 0.166481 0.877512 0.138454
Si Si7 0.095903 0.205396 0.597025
O O1 0.402340 0.180322 0.776396
O O2 0.296786 0.320874 0.732503
O O3 0.034527 0.292314 0.910704
O O4 0.500000 0.500000 0.000000
O O5 0.306711 0.963553 0.285987
O O6 0.158539 0.755537 0.320868
O O7 0.500000 0.000000 0.500000
O O8 0.957960 0.678987 0.605671
O O9 0.659389 0.789340 0.818290
O O10 0.191210 0.854207 0.850994
O O11 0.969435 0.001120 0.825134
O O12 0.500000 0.500000 0.500000
O O13 0.212134 0.569726 0.701736
O O14 0.195946 0.267671 0.516982
O O15 0.672216 0.180051 0.998990
O O16 0.000000 0.000000 0.500000
#
# Coordination Sequence:
#
# PCOD9048834 Si02
#       7
#     2   2   2   2   2   2   2
#     4  11  27  43  70 108 147 192 250 321 396 447
#     4  11  25  44  73 106 142 194 253 318 388 464
#     4  11  25  47  74 110 148 204 260 313 381 469
#     4  10  24  45  73 107 152 200 259 318 386 453
#     4  11  26  46  73 110 152 199 254 318 387 458
#     4  11  27  44  74 105 151 197 257 316 391 465
#     4  11  23  47  72 109 148 197 259 308 381 471
#
# _framework density 24.370958999999999
#
# number of rings (size 3 to 8) (size 9 to 14) (size 15 to 20)
#    0.000    1.143    1.429    3.000    8.000    2.286 
#    2.571    0.000    0.000    0.000    0.000    0.000 
#    0.000    0.000    0.000    0.000    0.000    0.000 
#
# Total GULP energy -77938.946787 kJ/mol
# GULP energy per Si atom -5567.067628 kJ/mol
# Density = 2.431549 g / cm^3
# Si number density = 24.370959 Si / 1000 Ang^3
#
#
#
# Elastic Constant Matrix: (Units=GPa)
#
#
# Indices 1 2 3 4 5 6 
#
# 1 79.6911 25.4057 37.3595 -17.8977 4.0672 -2.7801
# 2 25.4057 95.9111 68.8981 -29.3789 2.5764 8.7471
# 3 37.3595 68.8981 188.5819 2.4707 12.0083 -2.2765
# 4 -17.8977 -29.3789 2.4707 32.9687 1.9805 6.0484
# 5 4.0672 2.5764 12.0083 1.9805 35.5948 -5.4398
# 6 -2.7801 8.7471 -2.2765 6.0484 -5.4398 26.2760
#
#
#
# Elastic Compliance Matrix: (Units=1/GPa)
#
#
# Indices 1 2 3 4 5 6 
#
# 1 0.016497 0.003000 -0.004453 0.012600 -0.001744 -0.002900
# 2 0.003000 0.030463 -0.012188 0.033413 -0.003236 -0.019241
# 3 -0.004453 -0.012188 0.010952 -0.015569 -0.000203 0.008077
# 4 0.012600 0.033413 -0.015569 0.073993 -0.007258 -0.029674
# 5 -0.001744 -0.003236 -0.000203 -0.007258 0.030349 0.008829
# 6 -0.002900 -0.019241 0.008077 -0.029674 0.008829 0.053514
#
#
# Mechanical properties :
#
#
# Convention : Reuss Voigt Hill
#
# Bulk Modulus (GPa) = 32.64738 69.72340 51.18539
# Shear Modulus (GPa) = 19.74239 34.46929 27.10584
#
# Velocity S-wave (km/s) = 2.84928 3.76488 3.33861
# Velocity P-wave (km/s) = 4.92439 6.89713 5.99249
#
# Compressibility (1/GPa) = 0.03063033
#
# Stress axis : x y z
#
# Youngs Moduli (GPa) = 60.61550 32.82623 91.30493
#
# Poissons Ratio (x) = -0.09848 0.40661
# Poissons Ratio (y) = -0.18185 1.11283
# Poissons Ratio (z) = 0.26994 0.40009
#
# Static dielectric constant tensor:
#      x y z
#    x 2.116200 -0.096300 -0.021410 
#    y -0.096300 2.010480 0.041260 
#    z -0.021410 0.041260 1.961050 
# 
# From -- ./inp_files/365391.got.cif
#   From: 2010.05.17/outbox.cif.g08.bks.cpg/sg2_183_cif.got.tgz:365391.got - 2010.06.03 11:33:40.
