data_PCOD9048453
_publ_section_title
;
Structure prediction by ZEFSAII (Michael W. Deem and Ramdas Pophale) SiO2 
 PCOD9048453
Probable space group: P -1
;
_chemical_formula_sum "Si O2"
_cell_formula_units_Z 16
_cell_length_a 8.660836
_cell_length_b 14.918829
_cell_length_c 14.915774
_cell_angle_alpha 151.224024
_cell_angle_beta 47.763474
_cell_angle_gamma 128.292535
_cell_volume 684.370021
_symmetry_space_group_name_H-M "P -1"
_symmetry_group_IT_number 2
_symmetry_cell_setting 'triclinic'
loop_
_space_group_symop_operation_xyz
x,y,z
-x,-y,-z
loop_
_atom_site_type_symbol
_atom_site_label
_atom_site_fract_x
_atom_site_fract_y
_atom_site_fract_z
Si Si1 0.812291 0.130657 0.708760
Si Si2 0.704621 0.622630 0.497762
Si Si3 0.756055 0.952403 0.906516
Si Si4 0.522388 0.123553 0.294044
Si Si5 0.699759 0.149607 0.572791
Si Si6 0.006343 0.174615 0.861214
Si Si7 0.004630 0.706963 0.722143
Si Si8 0.148879 0.458647 0.184158
O O1 0.757357 0.221715 0.715168
O O2 0.893030 0.221777 0.852975
O O3 0.588364 0.016311 0.714925
O O4 0.000000 0.000000 0.500000
O O5 0.500000 0.500000 0.500000
O O6 0.725904 0.777661 0.701054
O O7 0.645434 0.725757 0.521333
O O8 0.915895 0.526611 0.324906
O O9 0.913120 0.871567 0.846050
O O10 0.847522 0.125595 0.962622
O O11 0.557682 0.006128 0.086985
O O12 0.750098 0.227957 0.307961
O O13 0.706463 0.346803 0.690245
O O14 0.500000 0.000000 0.500000
O O15 0.887029 0.019874 0.362763
O O16 0.173553 0.333027 0.975901
O O17 0.000000 0.500000 0.500000
O O18 0.868296 0.670744 0.834162
#
# Coordination Sequence:
#
# PCOD9048453 Si02
#       8
#     2   2   2   2   2   2   2   2
#     4  10  24  45  68  99 135 189 235 284 341 413
#     4  12  21  39  63 103 141 173 219 280 358 413
#     4  12  23  41  67 106 145 180 221 296 361 418
#     4  12  24  39  72 101 136 181 234 279 365 420
#     4  11  26  48  73  96 139 193 238 289 350 414
#     4  11  23  46  72 100 144 181 238 296 347 418
#     4  12  24  41  63 105 147 180 223 288 360 423
#     4  12  25  43  74 101 143 186 235 294 351 415
#
# _framework density 23.379165
#
# number of rings (size 3 to 8) (size 9 to 14) (size 15 to 20)
#    0.000    0.500    6.250    1.500    5.250    1.000 
#    0.000    0.000    0.000    0.000    0.000    0.000 
#    0.000    0.000    0.000    0.000    0.000    0.000 
#
# Total GULP energy -89282.166103 kJ/mol
# GULP energy per Si atom -5580.135381 kJ/mol
# Density = 2.332595 g / cm^3
# Si number density = 23.379165 Si / 1000 Ang^3
#
#
#
# Elastic Constant Matrix: (Units=GPa)
#
#
# Indices 1 2 3 4 5 6 
#
# 1 90.5772 24.8091 9.0657 8.8639 12.4281 -4.6240
# 2 24.8091 94.5824 21.5759 0.1151 14.1635 16.5407
# 3 9.0657 21.5759 79.2679 14.5539 21.6195 2.5559
# 4 8.8639 0.1151 14.5539 30.4025 11.9638 10.6748
# 5 12.4281 14.1635 21.6195 11.9638 39.5112 5.9033
# 6 -4.6240 16.5407 2.5559 10.6748 5.9033 32.5588
#
#
#
# Elastic Compliance Matrix: (Units=1/GPa)
#
#
# Indices 1 2 3 4 5 6 
#
# 1 0.013396 -0.004546 0.001232 -0.005771 -0.002475 0.006456
# 2 -0.004546 0.014747 -0.003871 0.007593 -0.002565 -0.009858
# 3 0.001232 -0.003871 0.016482 -0.007224 -0.006487 0.004392
# 4 -0.005771 0.007593 -0.007224 0.047828 -0.008715 -0.018211
# 5 -0.002475 -0.002565 -0.006487 -0.008715 0.033457 -0.001748
# 6 0.006456 -0.009858 0.004392 -0.018211 -0.001748 0.042582
#
#
# Mechanical properties :
#
#
# Convention : Reuss Voigt Hill
#
# Bulk Modulus (GPa) = 33.05233 41.70320 37.37776
# Shear Modulus (GPa) = 25.91381 34.42628 30.17005
#
# Velocity S-wave (km/s) = 3.33290 3.84151 3.59620
# Velocity P-wave (km/s) = 5.38323 6.12803 5.76766
#
# Compressibility (1/GPa) = 0.03025506
#
# Stress axis : x y z
#
# Youngs Moduli (GPa) = 74.64796 67.80986 60.67124
#
# Poissons Ratio (x) = 0.30828 -0.07474
# Poissons Ratio (y) = 0.33937 0.23485
# Poissons Ratio (z) = -0.09196 0.26248
#
# Static dielectric constant tensor:
#      x y z
#    x 1.980350 -0.028370 0.043780 
#    y -0.028370 1.949330 0.013900 
#    z 0.043780 0.013900 1.892990 
# 
# From -- ./inp_files/391672.got.cif
#   From: 2010.05.17/outbox.cif.g08.bks.cpg/sg2_196_cif.got.tgz:391672.got - 2010.06.03 11:33:40.
