data_PCOD9048540
_publ_section_title
;
Structure prediction by ZEFSAII (Michael W. Deem and Ramdas Pophale) SiO2 
 PCOD9048540
Probable space group: P -1
;
_chemical_formula_sum "Si O2"
_cell_formula_units_Z 16
_cell_length_a 21.451622
_cell_length_b 10.169770
_cell_length_c 16.315162
_cell_angle_alpha 146.835191
_cell_angle_beta 157.350994
_cell_angle_gamma 34.472093
_cell_volume 726.726642
_symmetry_space_group_name_H-M "P -1"
_symmetry_group_IT_number 2
_symmetry_cell_setting 'triclinic'
loop_
_space_group_symop_operation_xyz
x,y,z
-x,-y,-z
loop_
_atom_site_type_symbol
_atom_site_label
_atom_site_fract_x
_atom_site_fract_y
_atom_site_fract_z
Si Si1 0.387525 0.277543 0.212381
Si Si2 0.494429 0.443017 0.061248
Si Si3 0.609557 0.000187 0.212249
Si Si4 0.044024 0.257928 0.515419
Si Si5 0.169933 0.905565 0.707652
Si Si6 0.672641 0.191160 0.629035
Si Si7 0.646269 0.146404 0.761555
Si Si8 0.998837 0.189143 0.232909
O O1 0.495223 0.163967 0.363289
O O2 0.302586 0.566834 0.262617
O O3 0.529727 0.236488 0.292743
O O4 0.258049 0.125527 0.947473
O O5 0.681245 0.323626 0.260367
O O6 0.410460 0.671380 0.135645
O O7 0.500000 0.500000 0.000000
O O8 0.397948 0.230623 0.856896
O O9 0.793836 0.957152 0.379580
O O10 0.500000 0.000000 0.000000
O O11 0.059471 0.518370 0.710031
O O12 0.882682 0.195114 0.323473
O O13 0.036374 0.234076 0.396409
O O14 0.000000 0.000000 0.500000
O O15 0.652521 0.249219 0.730681
O O16 0.831803 0.962595 0.684764
O O17 0.500000 0.000000 0.500000
O O18 0.848257 0.051195 0.971269
#
# Coordination Sequence:
#
# PCOD9048540 Si02
#       8
#     2   2   2   2   2   2   2   2
#     4  10  24  45  69  98 137 192 233 282 361 433
#     4  11  25  45  72 103 144 187 240 302 354 422
#     4  11  21  42  74  99 134 180 245 293 348 424
#     4  11  23  41  74 101 135 174 249 292 354 406
#     4  11  26  41  72 104 141 181 243 306 351 416
#     4  11  25  47  69  95 146 189 228 285 364 439
#     4  12  28  42  70 103 142 183 229 290 361 431
#     4  11  25  45  68 105 133 189 229 302 354 428
#
# _framework density 22.016529999999999
#
# number of rings (size 3 to 8) (size 9 to 14) (size 15 to 20)
#    0.000    1.000    2.500    3.375   10.500    1.000 
#    0.000    0.625    0.000    0.000    0.000    0.000 
#    0.000    0.000    0.000    0.000    0.000    0.000 
#
# Total GULP energy -89209.073249 kJ/mol
# GULP energy per Si atom -5575.567078 kJ/mol
# Density = 2.196642 g / cm^3
# Si number density = 22.016530 Si / 1000 Ang^3
#
#
#
# Elastic Constant Matrix: (Units=GPa)
#
#
# Indices 1 2 3 4 5 6 
#
# 1 104.4990 24.8235 20.4247 -0.9720 -9.1492 -11.6210
# 2 24.8235 63.4438 32.3981 -8.6427 -0.1612 -11.9962
# 3 20.4247 32.3981 129.2622 -19.0728 0.0261 -1.1101
# 4 -0.9720 -8.6427 -19.0728 38.5953 -0.5112 0.7089
# 5 -9.1492 -0.1612 0.0261 -0.5112 43.2898 -2.8089
# 6 -11.6210 -11.9962 -1.1101 0.7089 -2.8089 20.6653
#
#
#
# Elastic Compliance Matrix: (Units=1/GPa)
#
#
# Indices 1 2 3 4 5 6 
#
# 1 0.011285 -0.003039 -0.001128 -0.001009 0.002682 0.004920
# 2 -0.003039 0.021545 -0.004484 0.002341 0.000149 0.010497
# 3 -0.001128 -0.004484 0.009566 0.003743 -0.000405 -0.002907
# 4 -0.001009 0.002341 0.003743 0.028259 0.000130 0.000041
# 5 0.002682 0.000149 -0.000405 0.000130 0.023983 0.004828
# 6 0.004920 0.010497 -0.002907 0.000041 0.004828 0.057749
#
#
# Mechanical properties :
#
#
# Convention : Reuss Voigt Hill
#
# Bulk Modulus (GPa) = 39.85428 50.27751 45.06590
# Shear Modulus (GPa) = 28.08132 35.14733 31.61432
#
# Velocity S-wave (km/s) = 3.57524 3.99984 3.79349
# Velocity P-wave (km/s) = 5.93164 6.64962 6.30087
#
# Compressibility (1/GPa) = 0.02509141
#
# Stress axis : x y z
#
# Youngs Moduli (GPa) = 88.61677 46.41397 104.53926
#
# Poissons Ratio (x) = 0.14107 0.11797
# Poissons Ratio (y) = 0.26934 0.46878
# Poissons Ratio (z) = 0.10000 0.20813
#
# Static dielectric constant tensor:
#      x y z
#    x 1.828620 0.043510 -0.021880 
#    y 0.043510 1.909230 -0.031850 
#    z -0.021880 -0.031850 1.839700 
# 
# From -- ./inp_files/579207.got.cif
#   From: 2010.05.17/outbox.cif.g08.bks.cpg/sg2_290_cif.got.tgz:579207.got - 2010.06.03 11:33:40.
