data_PCOD9048879
_publ_section_title
;
Structure prediction by ZEFSAII (Michael W. Deem and Ramdas Pophale) SiO2 
 PCOD9048879
Probable space group: P -1
;
_chemical_formula_sum "Si O2"
_cell_formula_units_Z 13
_cell_length_a 5.460202
_cell_length_b 12.061886
_cell_length_c 8.825360
_cell_angle_alpha 96.273900
_cell_angle_beta 103.584083
_cell_angle_gamma 57.991097
_cell_volume 479.003509
_symmetry_space_group_name_H-M "P -1"
_symmetry_group_IT_number 2
_symmetry_cell_setting 'triclinic'
loop_
_space_group_symop_operation_xyz
x,y,z
-x,-y,-z
loop_
_atom_site_type_symbol
_atom_site_label
_atom_site_fract_x
_atom_site_fract_y
_atom_site_fract_z
Si Si1 0.893162 0.126527 0.331151
Si Si2 0.344416 0.469131 0.260195
Si Si3 0.000000 0.500000 0.000000
Si Si4 0.684659 0.966202 0.365490
Si Si5 0.382630 0.847417 0.218308
Si Si6 0.774185 0.304856 0.065994
Si Si7 0.659260 0.613938 0.443558
O O1 0.893348 0.228840 0.231054
O O2 0.002160 0.125246 0.518218
O O3 0.625526 0.101727 0.309715
O O4 0.111483 0.984834 0.259500
O O5 0.427881 0.407798 0.091290
O O6 0.491513 0.551318 0.326937
O O7 0.442747 0.366992 0.392762
O O8 0.001451 0.548257 0.185383
O O9 0.057179 0.625220 0.955536
O O10 0.612910 0.892140 0.216684
O O11 0.500000 0.000000 0.500000
O O12 0.561003 0.745495 0.363482
O O13 0.266910 0.784387 0.072973
O O14 0.000000 0.500000 0.500000
#
# Coordination Sequence:
#
# PCOD9048879 Si02
#       7
#     2   2   1   2   2   2   2
#     4  10  24  45  74 108 149 194 245 309 372 446
#     4  11  27  45  73 105 145 199 252 308 375 437
#     4  12  26  48  72 106 150 198 244 312 372 436
#     4   9  22  42  71 105 144 192 245 298 366 442
#     4  11  25  45  73 112 149 192 248 307 375 444
#     4  12  27  46  75 109 154 195 249 309 376 446
#     4  11  26  47  74 106 147 197 253 309 372 448
#
# _framework density 27.139673999999999
#
# number of rings (size 3 to 8) (size 9 to 14) (size 15 to 20)
#    0.000    1.231    1.538    1.846   12.923    4.308 
#    0.000    0.000    0.000    0.000    0.000    0.000 
#    0.000    0.000    0.000    0.000    0.000    0.000 
#
# Total GULP energy -72398.662599 kJ/mol
# GULP energy per Si atom -5569.127892 kJ/mol
# Density = 2.707790 g / cm^3
# Si number density = 27.139674 Si / 1000 Ang^3
#
#
#
# Elastic Constant Matrix: (Units=GPa)
#
#
# Indices 1 2 3 4 5 6 
#
# 1 88.5491 44.3925 43.0748 6.6067 13.6436 36.5582
# 2 44.3925 114.7779 24.5761 -7.1181 0.1213 33.7809
# 3 43.0748 24.5761 106.0138 12.4655 22.2083 21.5679
# 4 6.6067 -7.1181 12.4655 60.2043 14.0405 0.9456
# 5 13.6436 0.1213 22.2083 14.0405 45.2392 11.9546
# 6 36.5582 33.7809 21.5679 0.9456 11.9546 58.7263
#
#
#
# Elastic Compliance Matrix: (Units=1/GPa)
#
#
# Indices 1 2 3 4 5 6 
#
# 1 0.019126 -0.004227 -0.004924 -0.001231 -0.000990 -0.007445
# 2 -0.004227 0.011919 -0.000817 0.001569 0.002326 -0.004423
# 3 -0.004924 -0.000817 0.012716 -0.001176 -0.004328 -0.000234
# 4 -0.001231 0.001569 -0.001176 0.018327 -0.005014 0.001021
# 5 -0.000990 0.002326 -0.004328 -0.005014 0.027295 -0.004608
# 6 -0.007445 -0.004423 -0.000234 0.001021 -0.004608 0.025215
#
#
# Mechanical properties :
#
#
# Convention : Reuss Voigt Hill
#
# Bulk Modulus (GPa) = 41.97672 59.26974 50.62323
# Shear Modulus (GPa) = 35.09341 45.98711 40.54026
#
# Velocity S-wave (km/s) = 3.59982 4.12085 3.86912
# Velocity P-wave (km/s) = 5.72528 6.67293 6.21719
#
# Compressibility (1/GPa) = 0.02382273
#
# Stress axis : x y z
#
# Youngs Moduli (GPa) = 52.28528 83.89889 78.64300
#
# Poissons Ratio (x) = 0.35464 0.38727
# Poissons Ratio (y) = 0.22101 0.06429
# Poissons Ratio (z) = 0.25748 0.06859
#
# Static dielectric constant tensor:
#      x y z
#    x 3.007120 -0.135810 0.211650 
#    y -0.135810 2.245500 0.005480 
#    z 0.211650 0.005480 2.193170 
# 
# From -- ./inp_files/130902.got.cif
#   From: 2010.05.17/outbox.cif.g08.bks.cpg/sg2_66_cif.got.tgz:130902.got - 2010.06.03 11:33:40.
