data_PCOD9048166
_publ_section_title
;
Structure prediction by ZEFSAII (Michael W. Deem and Ramdas Pophale) SiO2 
 PCOD9048166
Probable space group: P -1
;
_chemical_formula_sum "Si O2"
_cell_formula_units_Z 12
_cell_length_a 8.753339
_cell_length_b 4.899818
_cell_length_c 14.062483
_cell_angle_alpha 65.618793
_cell_angle_beta 122.386543
_cell_angle_gamma 117.135801
_cell_volume 441.717962
_symmetry_space_group_name_H-M "P -1"
_symmetry_group_IT_number 2
_symmetry_cell_setting 'triclinic'
loop_
_space_group_symop_operation_xyz
x,y,z
-x,-y,-z
loop_
_atom_site_type_symbol
_atom_site_label
_atom_site_fract_x
_atom_site_fract_y
_atom_site_fract_z
Si Si1 0.535356 0.603183 0.107483
Si Si2 0.754355 0.042027 0.608174
Si Si3 0.494654 0.019494 0.290027
Si Si4 0.065637 0.859086 0.150303
Si Si5 0.800924 0.728355 0.486288
Si Si6 0.821986 0.248366 0.057201
O O1 0.592276 0.351627 0.225664
O O2 0.937362 0.514740 0.128967
O O3 0.687180 0.943699 0.109909
O O4 0.329937 0.622596 0.067241
O O5 0.802766 0.375587 0.522664
O O6 0.565955 0.969901 0.621212
O O7 0.751150 0.762676 0.576186
O O8 0.914871 0.094196 0.735206
O O9 0.284622 0.910250 0.189096
O O10 0.633706 0.809044 0.361069
O O11 0.958697 0.118687 0.054252
O O12 0.000000 0.000000 0.500000
O O13 0.500000 0.500000 0.000000
#
# Coordination Sequence:
#
# PCOD9048166 Si02
#       6
#     2   2   2   2   2   2
#     4  11  25  49  72 113 149 199 248 312 364 445
#     4  10  25  49  71 112 146 195 243 310 366 453
#     4  10  27  46  77 111 150 199 252 304 377 437
#     4  10  24  44  75 102 147 197 241 303 368 440
#     4  12  25  48  77 111 149 193 246 312 375 443
#     4  11  23  48  70 104 152 192 249 302 366 436
#
# _framework density 27.166656
#
# number of rings (size 3 to 8) (size 9 to 14) (size 15 to 20)
#    1.000    0.333    1.667    2.500    2.333    4.000 
#   21.000    0.000    0.000    0.000    0.000    0.000 
#    0.000    0.000    0.000    0.000    0.000    0.000 
#
# Total GULP energy -67290.198307 kJ/mol
# GULP energy per Si atom -5607.516526 kJ/mol
# Density = 2.710482 g / cm^3
# Si number density = 27.166656 Si / 1000 Ang^3
#
#
#
# Elastic Constant Matrix: (Units=GPa)
#
#
# Indices 1 2 3 4 5 6 
#
# 1 103.3323 18.7059 16.1861 9.2733 13.4292 -9.3800
# 2 18.7059 146.3579 29.1217 9.7599 3.6082 0.9672
# 3 16.1861 29.1217 105.4132 -15.2937 11.5114 3.8703
# 4 9.2733 9.7599 -15.2937 41.9653 8.8314 -0.5651
# 5 13.4292 3.6082 11.5114 8.8314 50.5526 3.4691
# 6 -9.3800 0.9672 3.8703 -0.5651 3.4691 59.0714
#
#
#
# Elastic Compliance Matrix: (Units=1/GPa)
#
#
# Indices 1 2 3 4 5 6 
#
# 1 0.010741 -0.000869 -0.001571 -0.002261 -0.002171 0.001929
# 2 -0.000869 0.007580 -0.002408 -0.002599 0.000704 -0.000170
# 3 -0.001571 -0.002408 0.011582 0.005750 -0.003002 -0.000738
# 4 -0.002261 -0.002599 0.005750 0.028172 -0.005438 -0.000104
# 5 -0.002171 0.000704 -0.003002 -0.005438 0.022045 -0.001506
# 6 0.001929 -0.000170 -0.000738 -0.000104 -0.001506 0.017373
#
#
# Mechanical properties :
#
#
# Convention : Reuss Voigt Hill
#
# Bulk Modulus (GPa) = 49.48798 53.68120 51.58459
# Shear Modulus (GPa) = 43.88857 49.72384 46.80620
#
# Velocity S-wave (km/s) = 4.02373 4.28287 4.15532
# Velocity P-wave (km/s) = 6.31214 6.65283 6.48473
#
# Compressibility (1/GPa) = 0.02020693
#
# Stress axis : x y z
#
# Youngs Moduli (GPa) = 93.10129 131.92831 86.33929
#
# Poissons Ratio (x) = 0.11459 0.13565
# Poissons Ratio (y) = 0.08087 0.20793
# Poissons Ratio (z) = 0.14627 0.31773
#
# Static dielectric constant tensor:
#      x y z
#    x 2.186620 -0.002560 -0.035400 
#    y -0.002560 2.032390 0.051070 
#    z -0.035400 0.051070 2.190500 
# 
# From -- ./inp_files/552337.got.cif
#   From: 2010.05.17/outbox.cif.g08.bks.cpg/sg2_277_cif.got.tgz:552337.got - 2010.06.03 11:33:40.
