data_PCOD9048436
_publ_section_title
;
Structure prediction by ZEFSAII (Michael W. Deem and Ramdas Pophale) SiO2 
 PCOD9048436
Probable space group: P -1
;
_chemical_formula_sum "Si O2"
_cell_formula_units_Z 16
_cell_length_a 15.913788
_cell_length_b 18.642239
_cell_length_c 8.957071
_cell_angle_alpha 121.835944
_cell_angle_beta 46.194005
_cell_angle_gamma 157.444367
_cell_volume 672.966202
_symmetry_space_group_name_H-M "P -1"
_symmetry_group_IT_number 2
_symmetry_cell_setting 'triclinic'
loop_
_space_group_symop_operation_xyz
x,y,z
-x,-y,-z
loop_
_atom_site_type_symbol
_atom_site_label
_atom_site_fract_x
_atom_site_fract_y
_atom_site_fract_z
Si Si1 0.710607 0.744267 0.226630
Si Si2 0.206518 0.009587 0.695849
Si Si3 0.209905 0.580988 0.430248
Si Si4 0.223632 0.800143 0.965780
Si Si5 0.088181 0.288487 0.509162
Si Si6 0.769689 0.774521 0.527517
Si Si7 0.711901 0.251500 0.894969
Si Si8 0.726507 0.446919 0.978377
O O1 0.752621 0.873510 0.311106
O O2 0.390370 0.515116 0.321987
O O3 0.743428 0.732723 0.341581
O O4 0.945407 0.855803 0.958379
O O5 0.496921 0.185675 0.620521
O O6 0.121395 0.878290 0.546774
O O7 0.000000 0.500000 0.500000
O O8 0.015613 0.432800 0.647761
O O9 0.286056 0.559585 0.192243
O O10 0.288578 0.758636 0.936022
O O11 0.037677 0.728197 0.237499
O O12 0.040270 0.663690 0.895784
O O13 0.492206 0.036658 0.870929
O O14 0.139171 0.239685 0.493153
O O15 0.474830 0.617221 0.773448
O O16 0.000000 0.000000 0.500000
O O17 0.627412 0.289158 0.986814
#
# Coordination Sequence:
#
# PCOD9048436 Si02
#       8
#     2   2   2   2   2   2   2   2
#     4  11  24  44  69 104 140 186 226 278 347 418
#     4  11  25  46  70  99 142 183 232 279 349 415
#     4  10  24  46  68  97 132 182 230 285 342 397
#     4  11  24  42  70 104 128 182 226 285 345 405
#     4  12  25  44  69 108 142 178 228 284 346 415
#     4  12  23  42  68 103 141 180 220 279 345 411
#     4  10  24  45  68  96 135 175 240 281 340 402
#     4  11  24  44  68  95 136 179 227 282 341 403
#
# _framework density 23.775341000000001
#
# number of rings (size 3 to 8) (size 9 to 14) (size 15 to 20)
#    0.000    1.000    2.500    3.375    1.750    5.500 
#    2.250    0.000    0.000    0.000    0.000    0.000 
#    0.000    0.000    0.000    0.000    0.000    0.000 
#
# Total GULP energy -89643.180368 kJ/mol
# GULP energy per Si atom -5602.698773 kJ/mol
# Density = 2.372123 g / cm^3
# Si number density = 23.775341 Si / 1000 Ang^3
#
#
#
# Elastic Constant Matrix: (Units=GPa)
#
#
# Indices 1 2 3 4 5 6 
#
# 1 68.7822 20.2100 22.1229 4.8420 -5.4283 8.0974
# 2 20.2100 151.7864 44.9507 -9.4179 16.5870 32.2922
# 3 22.1229 44.9507 99.6796 -14.3925 2.0644 4.4599
# 4 4.8420 -9.4179 -14.3925 38.2858 10.7544 1.6392
# 5 -5.4283 16.5870 2.0644 10.7544 16.6211 7.3691
# 6 8.0974 32.2922 4.4599 1.6392 7.3691 43.9236
#
#
#
# Elastic Compliance Matrix: (Units=1/GPa)
#
#
# Indices 1 2 3 4 5 6 
#
# 1 0.019404 -0.003041 -0.004558 -0.009769 0.017812 -0.003502
# 2 -0.003041 0.010651 -0.002808 0.005747 -0.012749 -0.005060
# 3 -0.004558 -0.002808 0.013227 0.006273 -0.005376 0.002229
# 4 -0.009769 0.005747 0.006273 0.041537 -0.037311 0.001649
# 5 0.017812 -0.012749 -0.005376 -0.037311 0.107987 -0.010090
# 6 -0.003502 -0.005060 0.002229 0.001649 -0.010090 0.028538
#
#
# Mechanical properties :
#
#
# Convention : Reuss Voigt Hill
#
# Bulk Modulus (GPa) = 44.50727 54.97950 49.74338
# Shear Modulus (GPa) = 20.02827 35.29705 27.66266
#
# Velocity S-wave (km/s) = 2.90556 3.85724 3.41472
# Velocity P-wave (km/s) = 5.47877 6.55839 6.04274
#
# Compressibility (1/GPa) = 0.02246824
#
# Stress axis : x y z
#
# Youngs Moduli (GPa) = 51.53600 93.88788 75.60162
#
# Poissons Ratio (x) = 0.28555 0.34457
# Poissons Ratio (y) = 0.15674 0.21228
# Poissons Ratio (z) = 0.23489 0.26363
#
# Static dielectric constant tensor:
#      x y z
#    x 1.945120 -0.006670 -0.014300 
#    y -0.006670 1.898300 0.004930 
#    z -0.014300 0.004930 1.904730 
# 
# From -- ./inp_files/337752.got.cif
#   From: 2010.05.17/outbox.cif.g08.bks.cpg/sg2_169_cif.got.tgz:337752.got - 2010.06.03 11:33:40.
