data_PCOD9048454
_publ_section_title
;
Structure prediction by ZEFSAII (Michael W. Deem and Ramdas Pophale) SiO2 
 PCOD9048454
Probable space group: P -1
;
_chemical_formula_sum "Si O2"
_cell_formula_units_Z 14
_cell_length_a 10.778809
_cell_length_b 11.001696
_cell_length_c 13.561056
_cell_angle_alpha 146.766394
_cell_angle_beta 137.011268
_cell_angle_gamma 53.736946
_cell_volume 600.058709
_symmetry_space_group_name_H-M "P -1"
_symmetry_group_IT_number 2
_symmetry_cell_setting 'triclinic'
loop_
_space_group_symop_operation_xyz
x,y,z
-x,-y,-z
loop_
_atom_site_type_symbol
_atom_site_label
_atom_site_fract_x
_atom_site_fract_y
_atom_site_fract_z
Si Si1 0.768306 0.423559 0.321847
Si Si2 0.428301 0.108931 0.934481
Si Si3 0.689218 0.213777 0.753135
Si Si4 0.933836 0.868122 0.773381
Si Si5 0.350580 0.328696 0.752514
Si Si6 0.723044 0.101776 0.473975
Si Si7 0.083154 0.363610 0.865958
O O1 0.821428 0.629811 0.564584
O O2 0.784909 0.540014 0.303335
O O3 0.896263 0.216435 0.249067
O O4 0.563849 0.323287 0.141816
O O5 0.224536 0.192786 0.875481
O O6 0.425662 0.936485 0.724187
O O7 0.500000 0.000000 0.000000
O O8 0.490022 0.202717 0.677588
O O9 0.670931 0.210526 0.621240
O O10 0.813931 0.028656 0.747201
O O11 0.802625 0.447762 0.001112
O O12 0.000000 0.000000 0.000000
O O13 0.253222 0.151793 0.648320
O O14 0.500000 0.500000 0.000000
O O15 0.905745 0.229833 0.628472
O O16 0.000000 0.500000 0.000000
#
# Coordination Sequence:
#
# PCOD9048454 Si02
#       7
#     2   2   2   2   2   2   2
#     4  11  25  44  66 106 144 176 239 292 358 422
#     4  12  27  45  70  99 142 186 238 300 357 420
#     4  11  23  43  70 100 141 182 241 290 347 433
#     4  11  26  42  69 103 145 184 223 296 367 417
#     4  12  21  40  74 104 135 178 237 295 348 423
#     4  11  24  42  73 101 138 189 238 288 357 420
#     4  10  24  45  68  99 137 187 240 284 350 431
#
# _framework density 23.331052
#
# number of rings (size 3 to 8) (size 9 to 14) (size 15 to 20)
#    0.000    0.857    4.286    1.714    4.000    1.143 
#    0.000    2.857    0.000    0.000    0.000    0.000 
#    0.000    0.000    0.000    0.000    0.000    0.000 
#
# Total GULP energy -78190.007286 kJ/mol
# GULP energy per Si atom -5585.000520 kJ/mol
# Density = 2.327795 g / cm^3
# Si number density = 23.331052 Si / 1000 Ang^3
#
#
#
# Elastic Constant Matrix: (Units=GPa)
#
#
# Indices 1 2 3 4 5 6 
#
# 1 67.9407 23.9401 38.0249 -6.7210 5.2831 1.1715
# 2 23.9401 123.7235 25.6651 -8.2164 -11.1842 1.0211
# 3 38.0249 25.6651 207.0138 -7.9537 -2.6083 7.7459
# 4 -6.7210 -8.2164 -7.9537 37.1183 3.8124 -3.4121
# 5 5.2831 -11.1842 -2.6083 3.8124 52.3687 5.3202
# 6 1.1715 1.0211 7.7459 -3.4121 5.3202 38.1193
#
#
#
# Elastic Compliance Matrix: (Units=1/GPa)
#
#
# Indices 1 2 3 4 5 6 
#
# 1 0.017805 -0.002955 -0.002878 0.002308 -0.002811 0.000716
# 2 -0.002955 0.009027 -0.000497 0.001113 0.002146 -0.000250
# 3 -0.002878 -0.000497 0.005482 0.000392 0.000535 -0.001052
# 4 0.002308 0.001113 0.000392 0.028170 -0.002297 0.002662
# 5 -0.002811 0.002146 0.000535 -0.002297 0.020349 -0.003125
# 6 0.000716 -0.000250 -0.001052 0.002662 -0.003125 0.027106
#
#
# Mechanical properties :
#
#
# Convention : Reuss Voigt Hill
#
# Bulk Modulus (GPa) = 50.87883 63.77092 57.32487
# Shear Modulus (GPa) = 39.32339 46.25778 42.79059
#
# Velocity S-wave (km/s) = 4.10988 4.45755 4.28724
# Velocity P-wave (km/s) = 6.66154 7.34067 7.00934
#
# Compressibility (1/GPa) = 0.01965454
#
# Stress axis : x y z
#
# Youngs Moduli (GPa) = 56.16361 110.77332 182.41580
#
# Poissons Ratio (x) = 0.32734 0.52493
# Poissons Ratio (y) = 0.16597 0.09071
# Poissons Ratio (z) = 0.16162 0.05508
#
# Static dielectric constant tensor:
#      x y z
#    x 1.934390 -0.020380 -0.049820 
#    y -0.020380 1.882860 0.052140 
#    z -0.049820 0.052140 2.021010 
# 
# From -- ./inp_files/519430.got.cif
#   From: 2010.05.17/outbox.cif.g08.bks.cpg/sg2_260_cif.got.tgz:519430.got - 2010.06.03 11:33:40.
