data_PCOD9048288
_publ_section_title
;
Structure prediction by ZEFSAII (Michael W. Deem and Ramdas Pophale) SiO2 
 PCOD9048288
Probable space group: P -1
;
_chemical_formula_sum "Si O2"
_cell_formula_units_Z 16
_cell_length_a 13.119329
_cell_length_b 8.615426
_cell_length_c 6.574913
_cell_angle_alpha 77.694422
_cell_angle_beta 105.623323
_cell_angle_gamma 81.280816
_cell_volume 681.786591
_symmetry_space_group_name_H-M "P -1"
_symmetry_group_IT_number 2
_symmetry_cell_setting 'triclinic'
loop_
_space_group_symop_operation_xyz
x,y,z
-x,-y,-z
loop_
_atom_site_type_symbol
_atom_site_label
_atom_site_fract_x
_atom_site_fract_y
_atom_site_fract_z
Si Si1 0.212947 0.595860 0.545195
Si Si2 0.309455 0.367747 0.002801
Si Si3 0.035740 0.616074 0.153434
Si Si4 0.169465 0.161493 0.132352
Si Si5 0.600754 0.897605 0.213167
Si Si6 0.804611 0.038240 0.430278
Si Si7 0.588989 0.601243 0.564615
Si Si8 0.110339 0.910498 0.964014
O O1 0.242239 0.521710 0.805200
O O2 0.101113 0.559432 0.407915
O O3 0.207626 0.788212 0.511248
O O4 0.304394 0.503090 0.464168
O O5 0.339075 0.233106 0.882600
O O6 0.247964 0.281921 0.161075
O O7 0.403908 0.400908 0.185246
O O8 0.112079 0.723131 0.056481
O O9 0.000000 0.500000 0.000000
O O10 0.921437 0.740047 0.095436
O O11 0.138171 0.111248 0.352012
O O12 0.205491 0.986230 0.094040
O O13 0.566273 0.783995 0.404432
O O14 0.687811 0.998832 0.315868
O O15 0.500000 0.000000 0.000000
O O16 0.879819 0.050705 0.275272
O O17 0.500000 0.500000 0.500000
O O18 0.000000 0.000000 0.000000
#
# Coordination Sequence:
#
# PCOD9048288 Si02
#       8
#     2   2   2   2   2   2   2   2
#     4  11  28  45  71 111 144 195 248 293 370 433
#     4  11  25  48  72 103 154 191 236 304 365 436
#     4  11  25  43  69 102 146 186 247 291 359 432
#     4  11  23  46  70 100 146 189 239 295 363 422
#     4  11  27  45  75 112 141 190 249 298 369 436
#     4  12  25  46  75 105 149 187 246 307 356 439
#     4  11  27  48  73 105 152 194 236 303 369 438
#     4  10  24  45  66 103 138 189 235 297 360 417
#
# _framework density 23.467753999999999
#
# number of rings (size 3 to 8) (size 9 to 14) (size 15 to 20)
#    0.000    1.000    3.750    0.750    8.750    5.000 
#    0.000    0.000    0.000    0.000    0.000    0.000 
#    0.000    0.000    0.000    0.000    0.000    0.000 
#
# Total GULP energy -89233.718617 kJ/mol
# GULP energy per Si atom -5577.107414 kJ/mol
# Density = 2.341434 g / cm^3
# Si number density = 23.467754 Si / 1000 Ang^3
#
#
#
# Elastic Constant Matrix: (Units=GPa)
#
#
# Indices 1 2 3 4 5 6 
#
# 1 49.1429 20.1316 22.3466 -5.2385 17.6991 16.4594
# 2 20.1316 108.4277 35.2410 10.7194 13.8832 20.4927
# 3 22.3466 35.2410 145.1206 -10.9529 17.0399 14.7861
# 4 -5.2385 10.7194 -10.9529 48.3061 9.5578 8.1962
# 5 17.6991 13.8832 17.0399 9.5578 47.4215 9.3659
# 6 16.4594 20.4927 14.7861 8.1962 9.3659 39.8252
#
#
#
# Elastic Compliance Matrix: (Units=1/GPa)
#
#
# Indices 1 2 3 4 5 6 
#
# 1 0.029271 -0.002736 -0.001276 0.006918 -0.009188 -0.009479
# 2 -0.002736 0.011364 -0.002167 -0.002686 -0.000338 -0.003280
# 3 -0.001276 -0.002167 0.008236 0.002888 -0.002133 -0.001508
# 4 0.006918 -0.002686 0.002888 0.025064 -0.006673 -0.006138
# 5 -0.009188 -0.000338 -0.002133 -0.006673 0.026758 -0.000157
# 6 -0.009479 -0.003280 -0.001508 -0.006138 -0.000157 0.032575
#
#
# Mechanical properties :
#
#
# Convention : Reuss Voigt Hill
#
# Bulk Modulus (GPa) = 27.38848 50.90330 39.14589
# Shear Modulus (GPa) = 31.68638 42.10868 36.89753
#
# Velocity S-wave (km/s) = 3.67851 4.24054 3.96948
# Velocity P-wave (km/s) = 5.45325 6.76122 6.14215
#
# Compressibility (1/GPa) = 0.03651170
#
# Stress axis : x y z
#
# Youngs Moduli (GPa) = 34.16334 87.99864 121.42388
#
# Poissons Ratio (x) = 0.24076 0.15497
# Poissons Ratio (y) = 0.09347 0.26315
# Poissons Ratio (z) = 0.04360 0.19071
#
# Static dielectric constant tensor:
#      x y z
#    x 1.968710 0.028260 0.036390 
#    y 0.028260 1.996670 0.005930 
#    z 0.036390 0.005930 1.972810 
# 
# From -- ./inp_files/90180.got.cif
#   From: 2010.05.17/outbox.cif.g08.bks.cpg/sg2_46_cif.got.tgz:90180.got - 2010.06.03 11:33:40.
