data_PCOD9048364
_publ_section_title
;
Structure prediction by ZEFSAII (Michael W. Deem and Ramdas Pophale) SiO2 
 PCOD9048364
Probable space group: P -1
;
_chemical_formula_sum "Si O2"
_cell_formula_units_Z 16
_cell_length_a 9.161478
_cell_length_b 12.108711
_cell_length_c 18.179371
_cell_angle_alpha 139.309922
_cell_angle_beta 48.592569
_cell_angle_gamma 99.875266
_cell_volume 727.714203
_symmetry_space_group_name_H-M "P -1"
_symmetry_group_IT_number 2
_symmetry_cell_setting 'triclinic'
loop_
_space_group_symop_operation_xyz
x,y,z
-x,-y,-z
loop_
_atom_site_type_symbol
_atom_site_label
_atom_site_fract_x
_atom_site_fract_y
_atom_site_fract_z
Si Si1 0.376106 0.711830 0.918519
Si Si2 0.709878 0.033414 0.791835
Si Si3 0.007447 0.884190 0.364820
Si Si4 0.915470 0.152146 0.213621
Si Si5 0.944953 0.514800 0.899370
Si Si6 0.744661 0.936482 0.083604
Si Si7 0.408093 0.308122 0.750717
Si Si8 0.163325 0.575920 0.488912
O O1 0.394014 0.518068 0.850260
O O2 0.559147 0.613015 0.737031
O O3 0.449933 0.805222 0.002775
O O4 0.087785 0.930887 0.098029
O O5 0.538507 0.984946 0.790364
O O6 0.778073 0.147914 0.773693
O O7 0.990532 0.802629 0.610309
O O8 0.076567 0.644203 0.221851
O O9 0.709783 0.072801 0.527594
O O10 0.000000 0.000000 0.500000
O O11 0.809915 0.359758 0.406975
O O12 0.105163 0.118926 0.071251
O O13 0.723960 0.131205 0.227801
O O14 0.218272 0.348532 0.770254
O O15 0.916157 0.699192 0.952840
O O16 0.720529 0.655771 0.108786
O O17 0.000000 0.500000 0.500000
#
# Coordination Sequence:
#
# PCOD9048364 Si02
#       8
#     2   2   2   2   2   2   2   2
#     4  11  21  44  71  94 129 177 221 272 330 389
#     4  11  24  41  66  95 138 170 221 273 328 397
#     4  12  26  42  64 104 135 171 220 275 332 397
#     4  10  24  45  67  99 135 172 227 272 329 395
#     4  11  25  45  70  95 134 179 223 268 335 391
#     4  11  23  44  68  96 138 180 213 276 337 391
#     4  11  23  44  71  97 128 177 224 269 328 396
#     4  11  23  41  70  99 127 175 225 273 330 390
#
# _framework density 21.986654999999999
#
# number of rings (size 3 to 8) (size 9 to 14) (size 15 to 20)
#    0.000    1.000    3.750    2.625    1.750    4.000 
#    4.500    8.125    0.000    0.000    0.000    0.000 
#    0.000    0.000    0.000    0.000    0.000    0.000 
#
# Total GULP energy -89466.148905 kJ/mol
# GULP energy per Si atom -5591.634307 kJ/mol
# Density = 2.193661 g / cm^3
# Si number density = 21.986655 Si / 1000 Ang^3
#
#
#
# Elastic Constant Matrix: (Units=GPa)
#
#
# Indices 1 2 3 4 5 6 
#
# 1 120.1487 9.3585 47.3660 -8.0535 19.4075 16.2978
# 2 9.3585 71.1782 8.9406 11.3890 5.7637 4.6439
# 3 47.3660 8.9406 78.7558 -5.2372 13.4909 1.6649
# 4 -8.0535 11.3890 -5.2372 27.3971 1.4037 -0.2574
# 5 19.4075 5.7637 13.4909 1.4037 40.9860 1.5503
# 6 16.2978 4.6439 1.6649 -0.2574 1.5503 33.7876
#
#
#
# Elastic Compliance Matrix: (Units=1/GPa)
#
#
# Indices 1 2 3 4 5 6 
#
# 1 0.012426 -0.000627 -0.006493 0.002803 -0.003550 -0.005404
# 2 -0.000627 0.015655 -0.001645 -0.006969 -0.001058 -0.001773
# 3 -0.006493 -0.001645 0.017324 0.002243 -0.002573 0.002640
# 4 0.002803 -0.006969 0.002243 0.040776 -0.002479 -0.000080
# 5 -0.003550 -0.001058 -0.002573 -0.002479 0.027133 0.000721
# 6 -0.005404 -0.001773 0.002640 -0.000080 0.000721 0.032283
#
#
# Mechanical properties :
#
#
# Convention : Reuss Voigt Hill
#
# Bulk Modulus (GPa) = 35.87576 44.60142 40.23859
# Shear Modulus (GPa) = 28.99931 34.06199 31.53065
#
# Velocity S-wave (km/s) = 3.63568 3.94027 3.79103
# Velocity P-wave (km/s) = 5.82895 6.40552 6.12403
#
# Compressibility (1/GPa) = 0.02787398
#
# Stress axis : x y z
#
# Youngs Moduli (GPa) = 80.47621 63.87891 57.72446
#
# Poissons Ratio (x) = 0.04003 0.37483
# Poissons Ratio (y) = 0.05043 0.09496
# Poissons Ratio (z) = 0.52257 0.10508
#
# Static dielectric constant tensor:
#      x y z
#    x 1.830780 -0.027500 0.010900 
#    y -0.027500 1.782470 0.019530 
#    z 0.010900 0.019530 1.778520 
# 
# From -- ./inp_files/109593.got.cif
#   From: 2010.05.17/outbox.cif.g08.bks.cpg/sg2_55_cif.got.tgz:109593.got - 2010.06.03 11:33:40.
