data_PCOD9048144
_publ_section_title
;
Structure prediction by ZEFSAII (Michael W. Deem and Ramdas Pophale) SiO2 
 PCOD9048144
Probable space group: P -1
;
_chemical_formula_sum "Si O2"
_cell_formula_units_Z 15
_cell_length_a 11.439075
_cell_length_b 15.282606
_cell_length_c 5.659818
_cell_angle_alpha 50.298410
_cell_angle_beta 101.461262
_cell_angle_gamma 127.159890
_cell_volume 577.737773
_symmetry_space_group_name_H-M "P -1"
_symmetry_group_IT_number 2
_symmetry_cell_setting 'triclinic'
loop_
_space_group_symop_operation_xyz
x,y,z
-x,-y,-z
loop_
_atom_site_type_symbol
_atom_site_label
_atom_site_fract_x
_atom_site_fract_y
_atom_site_fract_z
Si Si1 0.500000 0.000000 0.500000
Si Si2 0.400167 0.253441 0.767052
Si Si3 0.657524 0.569234 0.816153
Si Si4 0.294831 0.081426 0.519952
Si Si5 0.984850 0.788418 0.806566
Si Si6 0.316494 0.641323 0.045569
Si Si7 0.001039 0.604514 0.490430
Si Si8 0.758012 0.170683 0.487933
O O1 0.619567 0.988067 0.377456
O O2 0.392638 0.991824 0.251709
O O3 0.354868 0.359426 0.544029
O O4 0.341206 0.164856 0.646237
O O5 0.583446 0.339866 0.725895
O O6 0.333388 0.173897 0.133602
O O7 0.818101 0.702800 0.772281
O O8 0.644135 0.425683 0.021981
O O9 0.500000 0.500000 0.000000
O O10 0.108263 0.954844 0.660033
O O11 0.094532 0.790481 0.651507
O O12 0.957253 0.690870 0.186790
O O13 0.133900 0.513256 0.188321
O O14 0.341217 0.793212 0.766347
O O15 0.000000 0.500000 0.500000
O O16 0.170689 0.722912 0.450420
#
# Coordination Sequence:
#
# PCOD9048144 Si02
#       8
#     1   2   2   2   2   2   2   2
#     4  10  24  44  74 108 152 194 248 310 388 458
#     4  12  28  50  75 111 152 206 255 309 371 453
#     4  12  27  50  77 107 154 204 259 309 375 452
#     4  11  28  49  77 111 150 199 255 315 382 447
#     4  11  26  47  73 110 146 197 250 313 378 449
#     4  12  24  46  75 110 153 196 252 314 385 456
#     4  12  24  38  71 110 151 191 236 311 389 452
#     4  11  23  45  70 111 148 188 245 313 383 448
#
# _framework density 25.963336000000002
#
# number of rings (size 3 to 8) (size 9 to 14) (size 15 to 20)
#    0.000    0.533    4.000    3.200    5.600    2.667 
#    0.000    0.000    0.000    0.000    0.000    0.000 
#    0.000    0.000    0.000    0.000    0.000    0.000 
#
# Total GULP energy -83555.824653 kJ/mol
# GULP energy per Si atom -5570.388310 kJ/mol
# Density = 2.590424 g / cm^3
# Si number density = 25.963336 Si / 1000 Ang^3
#
#
#
# Elastic Constant Matrix: (Units=GPa)
#
#
# Indices 1 2 3 4 5 6 
#
# 1 122.8695 51.2504 18.1678 5.2863 -3.6755 25.6923
# 2 51.2504 214.3736 21.8752 20.3566 -4.6892 47.8489
# 3 18.1678 21.8752 116.5486 1.5917 18.8297 9.6935
# 4 5.2863 20.3566 1.5917 31.4099 6.3672 -0.8352
# 5 -3.6755 -4.6892 18.8297 6.3672 30.4632 8.5318
# 6 25.6923 47.8489 9.6935 -0.8352 8.5318 61.5382
#
#
#
# Elastic Compliance Matrix: (Units=1/GPa)
#
#
# Indices 1 2 3 4 5 6 
#
# 1 0.009725 -0.001215 -0.001501 -0.001503 0.003163 -0.003338
# 2 -0.001215 0.006847 -0.001273 -0.005171 0.004253 -0.005276
# 3 -0.001501 -0.001273 0.010127 0.002088 -0.007373 0.001072
# 4 -0.001503 -0.005171 0.002088 0.037945 -0.012019 0.006501
# 5 0.003163 0.004253 -0.007373 -0.012019 0.043643 -0.009680
# 6 -0.003338 -0.005276 0.001072 0.006501 -0.009680 0.023007
#
#
# Mechanical properties :
#
#
# Convention : Reuss Voigt Hill
#
# Bulk Modulus (GPa) = 53.41848 70.70871 62.06359
# Shear Modulus (GPa) = 34.36171 48.84883 41.60527
#
# Velocity S-wave (km/s) = 3.64190 4.34228 4.00742
# Velocity P-wave (km/s) = 6.18901 7.24111 6.73563
#
# Compressibility (1/GPa) = 0.01872011
#
# Stress axis : x y z
#
# Youngs Moduli (GPa) = 102.83222 146.05659 98.75004
#
# Poissons Ratio (x) = 0.17742 0.14820
# Poissons Ratio (y) = 0.12491 0.12575
# Poissons Ratio (z) = 0.15433 0.18599
#
# Static dielectric constant tensor:
#      x y z
#    x 1.344890 0.436890 -0.281930 
#    y 0.436890 1.901500 0.174030 
#    z -0.281930 0.174030 2.022280 
# 
# From -- ./inp_files/81138.got.cif
#   From: 2010.05.17/outbox.cif.g08.bks.cpg/sg2_41_cif.got.tgz:81138.got - 2010.06.03 11:33:40.
