data_PCOD9048661
_publ_section_title
;
Structure prediction by ZEFSAII (Michael W. Deem and Ramdas Pophale) SiO2 
 PCOD9048661
Probable space group: P -1
;
_chemical_formula_sum "Si O2"
_cell_formula_units_Z 12
_cell_length_a 6.875417
_cell_length_b 12.182131
_cell_length_c 7.671212
_cell_angle_alpha 107.588339
_cell_angle_beta 65.785600
_cell_angle_gamma 126.623814
_cell_volume 468.843554
_symmetry_space_group_name_H-M "P -1"
_symmetry_group_IT_number 2
_symmetry_cell_setting 'triclinic'
loop_
_space_group_symop_operation_xyz
x,y,z
-x,-y,-z
loop_
_atom_site_type_symbol
_atom_site_label
_atom_site_fract_x
_atom_site_fract_y
_atom_site_fract_z
Si Si1 0.186021 0.228243 0.145905
Si Si2 0.356471 0.848968 0.554875
Si Si3 0.678310 0.962063 0.813568
Si Si4 0.097410 0.262310 0.795418
Si Si5 0.641749 0.497595 0.662515
Si Si6 0.896629 0.396114 0.723047
O O1 0.237358 0.112544 0.121891
O O2 0.386180 0.375372 0.227979
O O3 0.919384 0.189636 0.305241
O O4 0.157162 0.243374 0.960412
O O5 0.516216 0.858604 0.668544
O O6 0.307609 0.740647 0.374169
O O7 0.500000 0.000000 0.500000
O O8 0.914973 0.106106 0.720938
O O9 0.500000 0.000000 0.000000
O O10 0.372044 0.361892 0.657821
O O11 0.951213 0.340920 0.851910
O O12 0.773548 0.484851 0.785265
O O13 0.845131 0.530737 0.452069
#
# Coordination Sequence:
#
# PCOD9048661 Si02
#       6
#     2   2   2   2   2   2
#     4  11  27  45  69 104 137 181 231 280 340 407
#     4  11  24  44  68 102 136 178 227 279 342 404
#     4  12  27  46  70 102 139 179 228 289 338 403
#     4  12  24  42  75  98 137 181 227 282 338 404
#     4  10  25  46  67 102 139 181 226 281 335 412
#     4  10  24  45  71 100 140 177 227 280 343 401
#
# _framework density 25.594889999999999
#
# number of rings (size 3 to 8) (size 9 to 14) (size 15 to 20)
#    0.000    1.000    3.333    1.500    4.667    8.000 
#    0.000    0.000    0.000    0.000    0.000    0.000 
#    0.000    0.000    0.000    0.000    0.000    0.000 
#
# Total GULP energy -67244.525758 kJ/mol
# GULP energy per Si atom -5603.710480 kJ/mol
# Density = 2.553664 g / cm^3
# Si number density = 25.594890 Si / 1000 Ang^3
#
#
#
# Elastic Constant Matrix: (Units=GPa)
#
#
# Indices 1 2 3 4 5 6 
#
# 1 145.1645 52.5404 13.4041 -5.3756 31.2448 -25.1846
# 2 52.5404 148.3032 17.5768 -10.5806 -9.1884 4.6892
# 3 13.4041 17.5768 18.9446 -8.1698 19.0860 9.2997
# 4 -5.3756 -10.5806 -8.1698 27.5834 -4.1089 5.0087
# 5 31.2448 -9.1884 19.0860 -4.1089 40.4425 -10.6461
# 6 -25.1846 4.6892 9.2997 5.0087 -10.6461 58.1719
#
#
#
# Elastic Compliance Matrix: (Units=1/GPa)
#
#
# Indices 1 2 3 4 5 6 
#
# 1 0.012865 -0.009697 0.032851 0.005121 -0.028316 -0.004524
# 2 -0.009697 0.022980 -0.091344 -0.015000 0.059767 0.020782
# 3 0.032851 -0.091344 0.600495 0.123399 -0.356550 -0.150290
# 4 0.005121 -0.015000 0.123399 0.064127 -0.068110 -0.034287
# 5 -0.028316 0.059767 -0.356550 -0.068110 0.245404 0.090699
# 6 -0.004524 0.020782 -0.150290 -0.034287 0.090699 0.057134
#
#
# Mechanical properties :
#
#
# Convention : Reuss Voigt Hill
#
# Bulk Modulus (GPa) = 2.00016 53.27276 27.63646
# Shear Modulus (GPa) = 3.82837 40.49896 22.16367
#
# Velocity S-wave (km/s) = 1.22434 3.98214 2.94588
# Velocity P-wave (km/s) = 1.66788 6.48091 4.73202
#
# Compressibility (1/GPa) = 0.49996049
#
# Stress axis : x y z
#
# Youngs Moduli (GPa) = 77.73263 43.51571 1.66529
#
# Poissons Ratio (x) = 0.42198 -0.05471
# Poissons Ratio (y) = 0.75379 0.15211
# Poissons Ratio (z) = -2.55362 3.97489
#
# Static dielectric constant tensor:
#      x y z
#    x 2.048150 0.037490 0.014940 
#    y 0.037490 2.103740 -0.025630 
#    z 0.014940 -0.025630 2.008610 
# 
# From -- ./inp_files/26097.got.cif
#   From: 2010.05.17/outbox.cif.g08.bks.cpg/sg2_14_cif.got.tgz:26097.got - 2010.06.03 11:33:40.
