data_PCOD9048382
_publ_section_title
;
Structure prediction by ZEFSAII (Michael W. Deem and Ramdas Pophale) SiO2 
 PCOD9048382
Probable space group: P -1
;
_chemical_formula_sum "Si O2"
_cell_formula_units_Z 14
_cell_length_a 11.102926
_cell_length_b 6.553536
_cell_length_c 11.249360
_cell_angle_alpha 65.119223
_cell_angle_beta 51.357243
_cell_angle_gamma 64.836631
_cell_volume 564.534506
_symmetry_space_group_name_H-M "P -1"
_symmetry_group_IT_number 2
_symmetry_cell_setting 'triclinic'
loop_
_space_group_symop_operation_xyz
x,y,z
-x,-y,-z
loop_
_atom_site_type_symbol
_atom_site_label
_atom_site_fract_x
_atom_site_fract_y
_atom_site_fract_z
Si Si1 0.111390 0.884488 0.213148
Si Si2 0.324909 0.453936 0.597265
Si Si3 0.706968 0.848334 0.794804
Si Si4 0.094630 0.694524 0.877303
Si Si5 0.497143 0.993215 0.699586
Si Si6 0.336439 0.604242 0.962568
Si Si7 0.797711 0.725882 0.508631
O O1 0.971274 0.761783 0.365582
O O2 0.170716 0.034052 0.241785
O O3 0.265888 0.724996 0.098682
O O4 0.026360 0.064273 0.122499
O O5 0.500000 0.500000 0.500000
O O6 0.200576 0.629063 0.710407
O O7 0.254373 0.451170 0.508295
O O8 0.352645 0.191939 0.697426
O O9 0.566848 0.041220 0.773039
O O10 0.789483 0.710311 0.660668
O O11 0.639954 0.667559 0.960435
O O12 0.204249 0.673678 0.927797
O O13 0.000000 0.500000 0.000000
O O14 0.464600 0.738600 0.802612
O O15 0.648767 0.951385 0.528715
#
# Coordination Sequence:
#
# PCOD9048382 Si02
#       7
#     2   2   2   2   2   2   2
#     4  12  24  46  70 101 142 181 232 285 344 407
#     4  12  24  44  76 102 135 183 232 290 348 400
#     4  10  26  44  72 100 144 184 228 276 348 420
#     4  12  24  42  70 100 133 175 236 282 341 399
#     4  10  24  45  68 101 142 174 233 284 339 408
#     4  12  24  46  70 101 142 181 232 285 344 407
#     4  10  24  45  68 101 142 174 233 284 339 408
#
# _framework density 24.799192999999999
#
# number of rings (size 3 to 8) (size 9 to 14) (size 15 to 20)
#    0.857    0.000    1.429    6.000    0.000    2.286 
#    0.000    0.000    0.000    0.000    0.000    0.000 
#    0.000    0.000    0.000    0.000    0.000    0.000 
#
# Total GULP energy -78213.886130 kJ/mol
# GULP energy per Si atom -5586.706152 kJ/mol
# Density = 2.474275 g / cm^3
# Si number density = 24.799193 Si / 1000 Ang^3
#
#
#
# Elastic Constant Matrix: (Units=GPa)
#
#
# Indices 1 2 3 4 5 6 
#
# 1 149.0121 14.1663 26.6737 -0.1722 6.0344 47.0384
# 2 14.1663 58.4168 35.7400 10.9858 0.7552 15.2064
# 3 26.6737 35.7400 99.3784 1.2174 -17.4775 37.5701
# 4 -0.1722 10.9858 1.2174 16.1015 -0.2914 -4.2282
# 5 6.0344 0.7552 -17.4775 -0.2914 48.6784 -4.0994
# 6 47.0384 15.2064 37.5701 -4.2282 -4.0994 42.5916
#
#
#
# Elastic Compliance Matrix: (Units=1/GPa)
#
#
# Indices 1 2 3 4 5 6 
#
# 1 0.011072 0.000803 0.002149 -0.004578 -0.001908 -0.015049
# 2 0.000803 0.027210 -0.008402 -0.019444 -0.004119 -0.005517
# 3 0.002149 -0.008402 0.019556 0.000155 0.005532 -0.016076
# 4 -0.004578 -0.019444 0.000155 0.080664 0.003106 0.020168
# 5 -0.001908 -0.004119 0.005532 0.003106 0.022951 0.001215
# 6 -0.015049 -0.005517 -0.016076 0.020168 0.001215 0.058369
#
#
# Mechanical properties :
#
#
# Convention : Reuss Voigt Hill
#
# Bulk Modulus (GPa) = 21.30412 51.10747 36.20580
# Shear Modulus (GPa) = 20.29491 36.82278 28.55884
#
# Velocity S-wave (km/s) = 2.86382 3.85754 3.39721
# Velocity P-wave (km/s) = 4.42093 6.36350 5.47899
#
# Compressibility (1/GPa) = 0.04693928
#
# Stress axis : x y z
#
# Youngs Moduli (GPa) = 90.31583 36.75126 51.13527
#
# Poissons Ratio (x) = -0.02952 -0.10989
# Poissons Ratio (y) = -0.07254 0.42962
# Poissons Ratio (z) = -0.19409 0.30877
#
# Static dielectric constant tensor:
#      x y z
#    x 1.917080 -0.050680 0.151070 
#    y -0.050680 2.043600 -0.107640 
#    z 0.151070 -0.107640 2.076170 
# 
# From -- ./inp_files/409954.got.cif
#   From: 2010.05.17/outbox.cif.g08.bks.cpg/sg2_205_cif.got.tgz:409954.got - 2010.06.03 11:33:40.
