data_PCOD9048874
_publ_section_title
;
Structure prediction by ZEFSAII (Michael W. Deem and Ramdas Pophale) SiO2 
 PCOD9048874
Probable space group: P -1
;
_chemical_formula_sum "Si O2"
_cell_formula_units_Z 16
_cell_length_a 9.520659
_cell_length_b 16.025131
_cell_length_c 9.364608
_cell_angle_alpha 51.692193
_cell_angle_beta 108.814170
_cell_angle_gamma 66.272488
_cell_volume 621.031993
_symmetry_space_group_name_H-M "P -1"
_symmetry_group_IT_number 2
_symmetry_cell_setting 'triclinic'
loop_
_space_group_symop_operation_xyz
x,y,z
-x,-y,-z
loop_
_atom_site_type_symbol
_atom_site_label
_atom_site_fract_x
_atom_site_fract_y
_atom_site_fract_z
Si Si1 0.010307 0.422243 0.727894
Si Si2 0.434455 0.843899 0.788943
Si Si3 0.684085 0.902980 0.297147
Si Si4 0.134046 0.732293 0.224190
Si Si5 0.379072 0.635860 0.105031
Si Si6 0.264024 0.351931 0.325585
Si Si7 0.234117 0.892855 0.382228
Si Si8 0.805044 0.309559 0.295287
O O1 0.987790 0.311657 0.799029
O O2 0.000000 0.500000 0.500000
O O3 0.794177 0.576901 0.607520
O O4 0.282294 0.290661 0.022940
O O5 0.426008 0.728783 0.969462
O O6 0.266984 0.940903 0.488493
O O7 0.366499 0.964268 0.765096
O O8 0.984542 0.730375 0.538578
O O9 0.635029 0.826589 0.452396
O O10 0.500000 0.000000 0.000000
O O11 0.276052 0.690950 0.172436
O O12 0.926493 0.943860 0.954470
O O13 0.176841 0.704184 0.857110
O O14 0.647763 0.417891 0.429658
O O15 0.484549 0.291574 0.390120
O O16 0.000000 0.500000 0.000000
O O17 0.123102 0.845854 0.448926
O O18 0.500000 0.500000 0.000000
#
# Coordination Sequence:
#
# PCOD9048874 Si02
#       8
#     2   2   2   2   2   2   2   2
#     4  12  25  44  74 102 150 205 249 306 384 455
#     4  11  23  46  74 102 151 198 254 305 384 455
#     4  12  28  47  74 112 154 200 254 318 380 448
#     4  11  24  43  75 106 143 187 256 312 372 445
#     4  10  24  45  74 107 140 197 251 302 378 461
#     4  12  27  46  71 111 149 196 261 309 379 453
#     4  11  25  46  73 115 143 197 255 324 371 447
#     4  11  26  47  77 106 158 200 247 304 394 454
#
# _framework density 25.763566000000001
#
# number of rings (size 3 to 8) (size 9 to 14) (size 15 to 20)
#    0.000    0.750    2.500    3.750    7.000    5.000 
#    0.000    1.250    0.000    0.000    0.000    0.000 
#    0.000    0.000    0.000    0.000    0.000    0.000 
#
# Total GULP energy -89720.587118 kJ/mol
# GULP energy per Si atom -5607.536695 kJ/mol
# Density = 2.570493 g / cm^3
# Si number density = 25.763566 Si / 1000 Ang^3
#
#
#
# Elastic Constant Matrix: (Units=GPa)
#
#
# Indices 1 2 3 4 5 6 
#
# 1 123.2180 18.1722 40.1555 6.5370 0.2607 7.0518
# 2 18.1722 112.5437 31.4502 4.4316 0.2128 -1.1073
# 3 40.1555 31.4502 152.1218 12.4837 -9.8301 14.9297
# 4 6.5370 4.4316 12.4837 36.0220 -3.8084 5.0516
# 5 0.2607 0.2128 -9.8301 -3.8084 44.4754 -6.2020
# 6 7.0518 -1.1073 14.9297 5.0516 -6.2020 47.2489
#
#
#
# Elastic Compliance Matrix: (Units=1/GPa)
#
#
# Indices 1 2 3 4 5 6 
#
# 1 0.009012 -0.000839 -0.002117 -0.000772 -0.000681 -0.000703
# 2 -0.000839 0.009563 -0.001825 -0.000562 -0.000361 0.000939
# 3 -0.002117 -0.001825 0.007923 -0.001731 0.001364 -0.001866
# 4 -0.000772 -0.000562 -0.001731 0.029072 0.001804 -0.002222
# 5 -0.000681 -0.000361 0.001364 0.001804 0.023298 0.002528
# 6 -0.000703 0.000939 -0.001866 -0.002222 0.002528 0.022450
#
#
# Mechanical properties :
#
#
# Convention : Reuss Voigt Hill
#
# Bulk Modulus (GPa) = 59.04520 63.04883 61.04701
# Shear Modulus (GPa) = 42.90866 45.42298 44.16582
#
# Velocity S-wave (km/s) = 4.08545 4.20345 4.14487
# Velocity P-wave (km/s) = 6.72476 6.93425 6.83031
#
# Compressibility (1/GPa) = 0.01693618
#
# Stress axis : x y z
#
# Youngs Moduli (GPa) = 110.96367 104.57075 126.21112
#
# Poissons Ratio (x) = 0.08771 0.26721
# Poissons Ratio (y) = 0.09307 0.23034
# Poissons Ratio (z) = 0.23493 0.19085
#
# Static dielectric constant tensor:
#      x y z
#    x 1.926260 -0.023860 0.038710 
#    y -0.023860 2.123050 -0.025820 
#    z 0.038710 -0.025820 2.121550 
# 
# From -- ./inp_files/277599.got.cif
#   From: 2010.05.17/outbox.cif.g08.bks.cpg/sg2_139_cif.got.tgz:277599.got - 2010.06.03 11:33:40.
