data_PCOD9048845
_publ_section_title
;
Structure prediction by ZEFSAII (Michael W. Deem and Ramdas Pophale) SiO2 
 PCOD9048845
Probable space group: P -1
;
_chemical_formula_sum "Si O2"
_cell_formula_units_Z 11
_cell_length_a 4.928984
_cell_length_b 14.417124
_cell_length_c 12.652641
_cell_angle_alpha 29.233926
_cell_angle_beta 112.286674
_cell_angle_gamma 119.400720
_cell_volume 379.994008
_symmetry_space_group_name_H-M "P -1"
_symmetry_group_IT_number 2
_symmetry_cell_setting 'triclinic'
loop_
_space_group_symop_operation_xyz
x,y,z
-x,-y,-z
loop_
_atom_site_type_symbol
_atom_site_label
_atom_site_fract_x
_atom_site_fract_y
_atom_site_fract_z
Si Si1 0.997170 0.723852 0.755843
Si Si2 0.838432 0.069312 0.809513
Si Si3 0.846375 0.949446 0.698177
Si Si4 0.375956 0.464119 0.831650
Si Si5 0.000000 0.500000 0.500000
Si Si6 0.667820 0.330599 0.827563
O O1 0.030818 0.866267 0.721091
O O2 0.206435 0.864977 0.554807
O O3 0.640059 0.661656 0.717165
O O4 0.000000 0.500000 0.000000
O O5 0.910811 0.303504 0.603014
O O6 0.958487 0.034408 0.746844
O O7 0.985752 0.568770 0.172103
O O8 0.000000 0.000000 0.000000
O O9 0.587096 0.731940 0.908934
O O10 0.487826 0.906094 0.930982
O O11 0.429867 0.427423 0.750931
O O12 0.276747 0.636390 0.320190
#
# Coordination Sequence:
#
# PCOD9048845 Si02
#       6
#     2   2   2   2   1   2
#     4  11  24  45  77 113 152 203 258 317 390 470
#     4  11  26  48  75 112 155 202 262 322 383 466
#     4  10  24  45  73 111 156 199 256 323 387 456
#     4  11  24  47  74 109 154 201 254 319 391 471
#     4  12  24  44  78 106 150 210 258 318 394 452
#     4  11  26  45  74 114 155 200 261 322 384 469
#
# _framework density 28.947823
#
# number of rings (size 3 to 8) (size 9 to 14) (size 15 to 20)
#    0.000    1.091    0.000    5.455    0.000    8.000 
#    0.000   10.000    0.000    0.000    0.000    0.000 
#    0.000    0.000    0.000    0.000    0.000    0.000 
#
# Total GULP energy -61408.325177 kJ/mol
# GULP energy per Si atom -5582.575016 kJ/mol
# Density = 2.888194 g / cm^3
# Si number density = 28.947823 Si / 1000 Ang^3
#
#
#
# Elastic Constant Matrix: (Units=GPa)
#
#
# Indices 1 2 3 4 5 6 
#
# 1 104.8916 53.1847 15.6572 -20.0841 -15.9400 -13.5029
# 2 53.1847 227.3781 73.5925 -8.7767 -13.5235 -21.7198
# 3 15.6572 73.5925 192.2861 1.1305 -15.5392 -18.6275
# 4 -20.0841 -8.7767 1.1305 79.9533 -12.4098 -19.3103
# 5 -15.9400 -13.5235 -15.5392 -12.4098 31.7080 -2.8886
# 6 -13.5029 -21.7198 -18.6275 -19.3103 -2.8886 59.6603
#
#
#
# Elastic Compliance Matrix: (Units=1/GPa)
#
#
# Indices 1 2 3 4 5 6 
#
# 1 0.013639 -0.002268 0.000922 0.005735 0.009027 0.004842
# 2 -0.002268 0.005691 -0.001827 0.000470 0.000682 0.001173
# 3 0.000922 -0.001827 0.006277 0.000929 0.003303 0.001964
# 4 0.005735 0.000470 0.000929 0.017658 0.011180 0.008016
# 5 0.009027 0.000682 0.003303 0.011180 0.043184 0.009032
# 6 0.004842 0.001173 0.001964 0.008016 0.009032 0.021930
#
#
# Mechanical properties :
#
#
# Convention : Reuss Voigt Hill
#
# Bulk Modulus (GPa) = 51.91977 89.93607 70.92792
# Shear Modulus (GPa) = 41.27351 59.73909 50.50630
#
# Velocity S-wave (km/s) = 3.78006 4.54770 4.18153
# Velocity P-wave (km/s) = 6.08493 7.66233 6.91873
#
# Compressibility (1/GPa) = 0.01926048
#
# Stress axis : x y z
#
# Youngs Moduli (GPa) = 73.31822 175.72766 159.32384
#
# Poissons Ratio (x) = 0.39854 -0.14694
# Poissons Ratio (y) = 0.16628 0.29113
# Poissons Ratio (z) = -0.06762 0.32110
#
# Static dielectric constant tensor:
#      x y z
#    x 2.376440 0.128390 0.337660 
#    y 0.128390 2.208240 0.277600 
#    z 0.337660 0.277600 2.809500 
# 
# From -- ./inp_files/365973.got.cif
#   From: 2010.05.17/outbox.cif.g08.bks.cpg/sg2_183_cif.got.tgz:365973.got - 2010.06.03 11:33:40.
