data_PCOD9048632
_publ_section_title
;
Structure prediction by ZEFSAII (Michael W. Deem and Ramdas Pophale) SiO2 
 PCOD9048632
Probable space group: P -1
;
_chemical_formula_sum "Si O2"
_cell_formula_units_Z 14
_cell_length_a 8.514791
_cell_length_b 8.542327
_cell_length_c 11.686455
_cell_angle_alpha 86.692362
_cell_angle_beta 132.038400
_cell_angle_gamma 112.090066
_cell_volume 561.213726
_symmetry_space_group_name_H-M "P -1"
_symmetry_group_IT_number 2
_symmetry_cell_setting 'triclinic'
loop_
_space_group_symop_operation_xyz
x,y,z
-x,-y,-z
loop_
_atom_site_type_symbol
_atom_site_label
_atom_site_fract_x
_atom_site_fract_y
_atom_site_fract_z
Si Si1 0.792670 0.630231 0.754561
Si Si2 0.265904 0.102719 0.747547
Si Si3 0.714369 0.669818 0.447985
Si Si4 0.750915 0.415137 0.067741
Si Si5 0.911087 0.821524 0.124001
Si Si6 0.312203 0.093410 0.186355
Si Si7 0.800423 0.275791 0.332910
O O1 0.751019 0.666871 0.601291
O O2 0.556489 0.470223 0.695033
O O3 0.810699 0.796252 0.823948
O O4 0.019113 0.595704 0.870120
O O5 0.246919 0.154970 0.605700
O O6 0.081126 0.122398 0.743055
O O7 0.238986 0.907325 0.741601
O O8 0.517398 0.254827 0.909497
O O9 0.923970 0.631484 0.500510
O O10 0.782899 0.611267 0.057088
O O11 0.756806 0.387761 0.208408
O O12 0.752724 0.900769 0.978273
O O13 0.171702 0.907278 0.188297
O O14 0.594337 0.202881 0.330237
#
# Coordination Sequence:
#
# PCOD9048632 Si02
#       7
#     2   2   2   2   2   2   2
#     4  10  24  47  68  98 137 178 218 280 329 397
#     4  12  24  44  71  99 135 175 225 278 327 399
#     4  10  24  45  70  94 137 179 226 265 338 394
#     4  11  24  43  73 100 132 174 228 273 335 392
#     4  11  25  42  67 107 135 168 222 283 335 388
#     4  11  25  43  68 100 140 171 222 277 333 394
#     4  11  25  44  69 100 133 183 220 268 338 397
#
# _framework density 24.945934999999999
#
# number of rings (size 3 to 8) (size 9 to 14) (size 15 to 20)
#    0.000    1.143    1.429    3.857    8.000    1.714 
#    5.143    1.429    0.000    0.000    0.000    0.000 
#    0.000    0.000    0.000    0.000    0.000    0.000 
#
# Total GULP energy -78355.283021 kJ/mol
# GULP energy per Si atom -5596.805930 kJ/mol
# Density = 2.488916 g / cm^3
# Si number density = 24.945935 Si / 1000 Ang^3
#
#
#
# Elastic Constant Matrix: (Units=GPa)
#
#
# Indices 1 2 3 4 5 6 
#
# 1 121.7941 35.6924 30.1496 14.3153 24.1641 20.3797
# 2 35.6924 127.3345 17.5106 1.6409 4.4457 32.3084
# 3 30.1496 17.5106 48.3984 -4.4605 6.8727 21.1083
# 4 14.3153 1.6409 -4.4605 32.6382 14.5220 3.2099
# 5 24.1641 4.4457 6.8727 14.5220 43.9165 17.1314
# 6 20.3797 32.3084 21.1083 3.2099 17.1314 45.1618
#
#
#
# Elastic Compliance Matrix: (Units=1/GPa)
#
#
# Indices 1 2 3 4 5 6 
#
# 1 0.011752 -0.002579 -0.006904 -0.004171 -0.004426 0.001744
# 2 -0.002579 0.010346 0.000835 0.000029 0.003307 -0.007885
# 3 -0.006904 0.000835 0.030854 0.007883 0.001339 -0.012971
# 4 -0.004171 0.000029 0.007883 0.038767 -0.011707 -0.000138
# 5 -0.004426 0.003307 0.001339 -0.011707 0.033562 -0.012894
# 6 0.001744 -0.007885 -0.012971 -0.000138 -0.012894 0.037960
#
#
# Mechanical properties :
#
#
# Convention : Reuss Voigt Hill
#
# Bulk Modulus (GPa) = 28.04578 51.58137 39.81357
# Shear Modulus (GPa) = 25.98451 38.62160 32.30306
#
# Velocity S-wave (km/s) = 3.23094 3.93900 3.60241
# Velocity P-wave (km/s) = 5.01853 6.43504 5.77042
#
# Compressibility (1/GPa) = 0.03565599
#
# Stress axis : x y z
#
# Youngs Moduli (GPa) = 85.09220 96.65489 32.41051
#
# Poissons Ratio (x) = 0.24927 0.22377
# Poissons Ratio (y) = 0.21945 -0.02707
# Poissons Ratio (z) = 0.58751 -0.08072
#
# Static dielectric constant tensor:
#      x y z
#    x 2.000310 0.033400 0.005910 
#    y 0.033400 1.973590 0.037690 
#    z 0.005910 0.037690 2.024970 
# 
# From -- ./inp_files/156975.got.cif
#   From: 2010.05.17/outbox.cif.g08.bks.cpg/sg2_79_cif.got.tgz:156975.got - 2010.06.03 11:33:40.
