data_PCOD9048935
_publ_section_title
;
Structure prediction by ZEFSAII (Michael W. Deem and Ramdas Pophale) SiO2 
 PCOD9048935
Probable space group: P -1
;
_chemical_formula_sum "Si O2"
_cell_formula_units_Z 10
_cell_length_a 11.713758
_cell_length_b 8.789821
_cell_length_c 9.261639
_cell_angle_alpha 70.897558
_cell_angle_beta 124.665280
_cell_angle_gamma 62.508425
_cell_volume 409.545641
_symmetry_space_group_name_H-M "P -1"
_symmetry_group_IT_number 2
_symmetry_cell_setting 'triclinic'
loop_
_space_group_symop_operation_xyz
x,y,z
-x,-y,-z
loop_
_atom_site_type_symbol
_atom_site_label
_atom_site_fract_x
_atom_site_fract_y
_atom_site_fract_z
Si Si1 0.030055 0.830575 0.885510
Si Si2 0.237966 0.194650 0.680964
Si Si3 0.359674 0.718060 0.964384
Si Si4 0.253298 0.196663 0.353864
Si Si5 0.688720 0.428103 0.566946
O O1 0.201113 0.721007 0.911666
O O2 0.791550 0.953609 0.639129
O O3 0.189607 0.594353 0.203834
O O4 0.925188 0.102695 0.777924
O O5 0.253394 0.234298 0.512532
O O6 0.000000 0.500000 0.500000
O O7 0.216848 0.020004 0.723822
O O8 0.500000 0.000000 0.000000
O O9 0.500000 0.500000 0.000000
O O10 0.535314 0.615508 0.254205
O O11 0.500000 0.000000 0.500000
O O12 0.000000 0.500000 0.000000
O O13 0.500000 0.500000 0.500000
#
# Coordination Sequence:
#
# PCOD9048935 Si02
#       5
#     2   2   2   2   2
#     4  10  24  45  76 109 150 203 276 322 394 470
#     4  12  31  53  79 120 169 211 265 341 417 473
#     4  11  26  46  83 113 156 206 274 327 399 477
#     4  12  30  50  78 111 159 218 269 326 403 489
#     4   9  21  40  72 108 145 193 259 331 384 461
#
# _framework density 24.417303
#
# number of rings (size 3 to 8) (size 9 to 14) (size 15 to 20)
#    0.000    1.200    0.000    2.400   16.800    8.000 
#    0.000    0.000    0.000    0.000    0.000    0.000 
#    0.000    0.000    0.000    0.000    0.000    0.000 
#
# Total GULP energy -55839.042843 kJ/mol
# GULP energy per Si atom -5583.904284 kJ/mol
# Density = 2.436173 g / cm^3
# Si number density = 24.417303 Si / 1000 Ang^3
#
#
#
# Elastic Constant Matrix: (Units=GPa)
#
#
# Indices 1 2 3 4 5 6 
#
# 1 184.5334 98.1274 83.2733 17.3802 4.6921 -35.7864
# 2 98.1274 149.9894 63.9498 4.4905 6.7624 -41.4483
# 3 83.2733 63.9498 153.3740 14.0503 -3.1146 -26.8136
# 4 17.3802 4.4905 14.0503 48.1366 4.5431 4.1517
# 5 4.6921 6.7624 -3.1146 4.5431 57.4998 3.3004
# 6 -35.7864 -41.4483 -26.8136 4.1517 3.3004 58.5044
#
#
#
# Elastic Compliance Matrix: (Units=1/GPa)
#
#
# Indices 1 2 3 4 5 6 
#
# 1 0.009687 -0.004611 -0.002862 -0.002335 -0.000307 0.001530
# 2 -0.004611 0.011752 -0.001663 0.000778 -0.001431 0.004769
# 3 -0.002862 -0.001663 0.009178 -0.001699 0.000983 0.001343
# 4 -0.002335 0.000778 -0.001699 0.022463 -0.001586 -0.003161
# 5 -0.000307 -0.001431 0.000983 -0.001586 0.017858 -0.001646
# 6 0.001530 0.004769 0.001343 -0.003161 -0.001646 0.022340
#
#
# Mechanical properties :
#
#
# Convention : Reuss Voigt Hill
#
# Bulk Modulus (GPa) = 81.00543 108.73312 94.86928
# Shear Modulus (GPa) = 43.22933 48.99790 46.11361
#
# Velocity S-wave (km/s) = 4.21222 4.48447 4.35047
# Velocity P-wave (km/s) = 7.54351 8.45232 8.01081
#
# Compressibility (1/GPa) = 0.01234485
#
# Stress axis : x y z
#
# Youngs Moduli (GPa) = 103.23491 85.09426 108.96149
#
# Poissons Ratio (x) = 0.39233 0.31181
# Poissons Ratio (y) = 0.47597 0.18123
# Poissons Ratio (z) = 0.29543 0.14153
#
# Static dielectric constant tensor:
#      x y z
#    x 2.140710 0.153410 -0.139680 
#    y 0.153410 2.053810 0.005570 
#    z -0.139680 0.005570 2.033880 
# 
# From -- ./inp_files/143516.got.cif
#   From: 2010.05.17/outbox.cif.g08.bks.cpg/sg2_72_cif.got.tgz:143516.got - 2010.06.03 11:33:40.
