data_PCOD9048952
_publ_section_title
;
Structure prediction by ZEFSAII (Michael W. Deem and Ramdas Pophale) SiO2 
 PCOD9048952
Probable space group: P -1
;
_chemical_formula_sum "Si O2"
_cell_formula_units_Z 16
_cell_length_a 5.759912
_cell_length_b 8.753284
_cell_length_c 17.380052
_cell_angle_alpha 57.886606
_cell_angle_beta 99.852217
_cell_angle_gamma 117.081928
_cell_volume 657.893611
_symmetry_space_group_name_H-M "P -1"
_symmetry_group_IT_number 2
_symmetry_cell_setting 'triclinic'
loop_
_space_group_symop_operation_xyz
x,y,z
-x,-y,-z
loop_
_atom_site_type_symbol
_atom_site_label
_atom_site_fract_x
_atom_site_fract_y
_atom_site_fract_z
Si Si1 0.661063 0.738858 0.776865
Si Si2 0.212903 0.594554 0.052475
Si Si3 0.511663 0.119453 0.134911
Si Si4 0.297800 0.766943 0.530502
Si Si5 0.314542 0.474917 0.714572
Si Si6 0.029562 0.830199 0.099276
Si Si7 0.815627 0.838074 0.469262
Si Si8 0.813023 0.910077 0.282696
O O1 0.759098 0.589378 0.860281
O O2 0.451363 0.747161 0.822857
O O3 0.583302 0.654960 0.709985
O O4 0.876589 0.965011 0.729724
O O5 0.145238 0.718789 0.078958
O O6 0.451687 0.748569 0.974388
O O7 0.000000 0.500000 0.000000
O O8 0.229554 0.939828 0.150460
O O9 0.708971 0.021530 0.185628
O O10 0.180612 0.609664 0.636890
O O11 0.518916 0.709404 0.518977
O O12 0.028772 0.752662 0.480499
O O13 0.500000 0.000000 0.500000
O O14 0.297444 0.314623 0.693414
O O15 0.210983 0.342689 0.822335
O O16 0.000000 0.000000 0.000000
O O17 0.744880 0.923201 0.364288
O O18 0.000000 0.000000 0.500000
#
# Coordination Sequence:
#
# PCOD9048952 Si02
#       8
#     2   2   2   2   2   2   2   2
#     4  12  25  46  71 104 151 196 260 315 379 464
#     4  12  23  42  68 105 148 203 253 308 384 453
#     4  12  25  45  73 104 153 202 255 320 383 457
#     4  10  24  47  75 111 150 197 261 319 396 470
#     4  12  27  47  76 112 146 205 253 315 396 461
#     4  12  25  46  74 110 159 199 258 317 379 466
#     4  10  24  45  77 107 151 195 250 319 401 460
#     4  12  27  47  74 111 149 193 256 322 385 472
#
# _framework density 24.320042999999998
#
# number of rings (size 3 to 8) (size 9 to 14) (size 15 to 20)
#    0.000    0.500    2.500    6.000    5.250    3.000 
#    0.000    0.000    0.000    0.000    0.000    0.000 
#    0.000    0.000    0.000    0.000    0.000    0.000 
#
# Total GULP energy -89210.697058 kJ/mol
# GULP energy per Si atom -5575.668566 kJ/mol
# Density = 2.426469 g / cm^3
# Si number density = 24.320043 Si / 1000 Ang^3
#
#
#
# Elastic Constant Matrix: (Units=GPa)
#
#
# Indices 1 2 3 4 5 6 
#
# 1 77.6290 15.9927 -0.0785 -6.9156 0.0426 7.5765
# 2 15.9927 137.4746 6.8041 16.3333 -7.7172 -9.7187
# 3 -0.0785 6.8041 104.2582 -0.2425 1.6053 -13.9383
# 4 -6.9156 16.3333 -0.2425 33.4241 -1.2059 12.9870
# 5 0.0426 -7.7172 1.6053 -1.2059 37.5918 1.6318
# 6 7.5765 -9.7187 -13.9383 12.9870 1.6318 31.4607
#
#
#
# Elastic Compliance Matrix: (Units=1/GPa)
#
#
# Indices 1 2 3 4 5 6 
#
# 1 0.015058 -0.003234 -0.000864 0.007901 -0.000032 -0.008268
# 2 -0.003234 0.009112 0.000279 -0.007730 0.001318 0.006840
# 3 -0.000864 0.000279 0.010381 -0.002599 -0.000729 0.006004
# 4 0.007901 -0.007730 -0.002599 0.044642 0.000986 -0.023922
# 5 -0.000032 0.001318 -0.000729 0.000986 0.027009 -0.001716
# 6 -0.008268 0.006840 0.006004 -0.023922 -0.001716 0.048514
#
#
# Mechanical properties :
#
#
# Convention : Reuss Voigt Hill
#
# Bulk Modulus (GPa) = 37.15682 40.53315 38.84499
# Shear Modulus (GPa) = 29.18425 40.27156 34.72791
#
# Velocity S-wave (km/s) = 3.46787 4.07369 3.78293
# Velocity P-wave (km/s) = 5.59878 6.23132 5.92350
#
# Compressibility (1/GPa) = 0.02691296
#
# Stress axis : x y z
#
# Youngs Moduli (GPa) = 66.40994 109.74035 96.33395
#
# Poissons Ratio (x) = 0.35490 0.08324
# Poissons Ratio (y) = 0.21477 -0.02688
# Poissons Ratio (z) = 0.05738 -0.03062
#
# Static dielectric constant tensor:
#      x y z
#    x 2.159810 0.045780 -0.206560 
#    y 0.045780 1.964870 -0.056980 
#    z -0.206560 -0.056980 2.141310 
# 
# From -- ./inp_files/52364.got.cif
#   From: 2010.05.17/outbox.cif.g08.bks.cpg/sg2_27_cif.got.tgz:52364.got - 2010.06.03 11:33:40.
