data_PCOD9048194
_publ_section_title
;
Structure prediction by ZEFSAII (Michael W. Deem and Ramdas Pophale) SiO2 
 PCOD9048194
Probable space group: P -1
;
_chemical_formula_sum "Si O2"
_cell_formula_units_Z 14
_cell_length_a 23.387514
_cell_length_b 16.268323
_cell_length_c 10.224161
_cell_angle_alpha 146.933498
_cell_angle_beta 32.485545
_cell_angle_gamma 157.457888
_cell_volume 767.417070
_symmetry_space_group_name_H-M "P -1"
_symmetry_group_IT_number 2
_symmetry_cell_setting 'triclinic'
loop_
_space_group_symop_operation_xyz
x,y,z
-x,-y,-z
loop_
_atom_site_type_symbol
_atom_site_label
_atom_site_fract_x
_atom_site_fract_y
_atom_site_fract_z
Si Si1 0.960032 0.558500 0.028060
Si Si2 0.375674 0.833094 0.300852
Si Si3 0.631442 0.321713 0.432289
Si Si4 0.736471 0.992877 0.081880
Si Si5 0.867337 0.313627 0.613607
Si Si6 0.398980 0.578775 0.088833
Si Si7 0.685069 0.837838 0.251434
O O1 0.926213 0.416898 0.779960
O O2 0.801114 0.487916 0.262373
O O3 0.106749 0.816468 0.047658
O O4 0.000000 0.500000 0.000000
O O5 0.286009 0.755091 0.232890
O O6 0.349073 0.644607 0.163698
O O7 0.556862 0.075219 0.259018
O O8 0.308320 0.892403 0.609314
O O9 0.648705 0.406096 0.656860
O O10 0.490643 0.269712 0.565045
O O11 0.589739 0.783666 0.000575
O O12 0.743953 0.891180 0.057774
O O13 0.000000 0.500000 0.500000
O O14 0.807418 0.079474 0.405387
O O15 0.333124 0.342773 0.890101
#
# Coordination Sequence:
#
# PCOD9048194 Si02
#       7
#     2   2   2   2   2   2   2
#     4  12  21  33  60  87 110 139 187 236 272 316
#     4   9  17  32  57  80 105 148 186 227 256 326
#     4   9  19  32  54  87 110 141 187 227 272 317
#     4   9  17  33  55  80 113 146 179 225 272 316
#     4  10  20  38  59  77 113 144 186 224 278 325
#     4  10  17  34  58  84 109 144 194 216 266 335
#     4   9  19  36  59  78 109 155 181 224 267 333
#
# _framework density 18.243013999999999
#
# number of rings (size 3 to 8) (size 9 to 14) (size 15 to 20)
#    0.000    2.857    2.857    5.143    0.000    2.286 
#    0.000    3.571    0.000    6.000    0.000    0.000 
#    0.000    0.000    0.000    0.000    0.000    0.000 
#
# Total GULP energy -78009.835830 kJ/mol
# GULP energy per Si atom -5572.131131 kJ/mol
# Density = 1.820149 g / cm^3
# Si number density = 18.243014 Si / 1000 Ang^3
#
#
#
# Elastic Constant Matrix: (Units=GPa)
#
#
# Indices 1 2 3 4 5 6 
#
# 1 68.1096 32.7916 30.2564 27.8091 6.3084 -9.3177
# 2 32.7916 137.9553 41.6587 -1.1378 -4.0426 -11.8566
# 3 30.2564 41.6587 28.7977 8.9728 -2.0386 -8.3637
# 4 27.8091 -1.1378 8.9728 44.7453 -9.9632 -4.3019
# 5 6.3084 -4.0426 -2.0386 -9.9632 22.1799 16.0607
# 6 -9.3177 -11.8566 -8.3637 -4.3019 16.0607 23.8434
#
#
#
# Elastic Compliance Matrix: (Units=1/GPa)
#
#
# Indices 1 2 3 4 5 6 
#
# 1 0.085140 -0.000652 -0.054875 -0.059611 -0.113786 0.079588
# 2 -0.000652 0.014047 -0.022484 0.006363 0.006918 -0.004668
# 3 -0.054875 -0.022484 0.117473 0.017821 0.042498 -0.016830
# 4 -0.059611 0.006363 0.017821 0.072177 0.103066 -0.070282
# 5 -0.113786 0.006918 0.042498 0.103066 0.262298 -0.184205
# 6 0.079588 -0.004668 -0.016830 -0.070282 -0.184205 0.176216
#
#
# Mechanical properties :
#
#
# Convention : Reuss Voigt Hill
#
# Bulk Modulus (GPa) = 16.49160 49.36401 32.92781
# Shear Modulus (GPa) = 5.53351 26.83078 16.18215
#
# Velocity S-wave (km/s) = 1.74350 3.83919 2.98154
# Velocity P-wave (km/s) = 3.62114 6.83889 5.47188
#
# Compressibility (1/GPa) = 0.06063693
#
# Stress axis : x y z
#
# Youngs Moduli (GPa) = 11.74542 71.18780 8.51260
#
# Poissons Ratio (x) = 0.04645 0.46713
# Poissons Ratio (y) = 0.00766 0.19140
# Poissons Ratio (z) = 0.64453 1.60059
#
# Static dielectric constant tensor:
#      x y z
#    x 1.643610 0.011230 -0.015970 
#    y 0.011230 1.656780 -0.014440 
#    z -0.015970 -0.014440 1.643920 
# 
# From -- ./inp_files/435170.got.cif
#   From: 2010.05.17/outbox.cif.g08.bks.cpg/sg2_218_cif.got.tgz:435170.got - 2010.06.03 11:33:40.
