data_PCOD9048329
_publ_section_title
;
Structure prediction by ZEFSAII (Michael W. Deem and Ramdas Pophale) SiO2 
 PCOD9048329
Probable space group: P -1
;
_chemical_formula_sum "Si O2"
_cell_formula_units_Z 14
_cell_length_a 25.043667
_cell_length_b 15.386064
_cell_length_c 15.623842
_cell_angle_alpha 150.662300
_cell_angle_beta 161.549098
_cell_angle_gamma 19.294361
_cell_volume 613.372603
_symmetry_space_group_name_H-M "P -1"
_symmetry_group_IT_number 2
_symmetry_cell_setting 'triclinic'
loop_
_space_group_symop_operation_xyz
x,y,z
-x,-y,-z
loop_
_atom_site_type_symbol
_atom_site_label
_atom_site_fract_x
_atom_site_fract_y
_atom_site_fract_z
Si Si1 0.062777 0.202391 0.204694
Si Si2 0.967250 0.880690 0.727136
Si Si3 0.948208 0.753461 0.158901
Si Si4 0.476578 0.230109 0.162481
Si Si5 0.242833 0.629553 0.762295
Si Si6 0.783079 0.124238 0.385450
Si Si7 0.439693 0.120635 0.603570
O O1 0.055852 0.226956 0.317940
O O2 0.322154 0.074108 0.450113
O O3 0.818326 0.484313 0.028068
O O4 0.044497 0.011497 0.990338
O O5 0.191951 0.651653 0.805089
O O6 0.691743 0.114353 0.460211
O O7 0.186158 0.700305 0.454590
O O8 0.846776 0.918511 0.236677
O O9 0.000000 0.500000 0.000000
O O10 0.702247 0.986619 0.925966
O O11 0.544007 0.265002 0.202571
O O12 0.500000 0.000000 0.000000
O O13 0.231119 0.439156 0.548252
O O14 0.500000 0.500000 0.000000
O O15 0.013413 0.927791 0.634990
O O16 0.500000 0.000000 0.500000
#
# Coordination Sequence:
#
# PCOD9048329 Si02
#       7
#     2   2   2   2   2   2   2
#     4  11  25  45  70 100 141 181 233 292 347 426
#     4  10  25  44  68 105 135 186 232 286 356 416
#     4  11  25  44  70 102 141 184 232 291 353 428
#     4  11  25  44  71 100 140 184 232 290 354 426
#     4  11  21  42  70  94 140 176 226 290 345 415
#     4  10  24  45  67 104 139 183 234 292 354 412
#     4  12  26  43  70 101 133 182 236 286 353 426
#
# _framework density 22.824625000000001
#
# number of rings (size 3 to 8) (size 9 to 14) (size 15 to 20)
#    0.000    1.143    1.429    3.857    6.000    3.429 
#    0.000    0.000    0.000    0.000    0.000    0.000 
#    0.000    0.000    0.000    0.000    0.000    0.000 
#
# Total GULP energy -78113.579071 kJ/mol
# GULP energy per Si atom -5579.541362 kJ/mol
# Density = 2.277268 g / cm^3
# Si number density = 22.824625 Si / 1000 Ang^3
#
#
#
# Elastic Constant Matrix: (Units=GPa)
#
#
# Indices 1 2 3 4 5 6 
#
# 1 137.5751 19.6398 53.1140 9.2234 4.5646 -19.9334
# 2 19.6398 75.4721 11.3701 18.1222 16.0636 -3.0004
# 3 53.1140 11.3701 76.4690 10.0195 6.3313 -7.6953
# 4 9.2234 18.1222 10.0195 42.4575 6.0075 1.8732
# 5 4.5646 16.0636 6.3313 6.0075 22.8001 -0.5251
# 6 -19.9334 -3.0004 -7.6953 1.8732 -0.5251 30.2945
#
#
#
# Elastic Compliance Matrix: (Units=1/GPa)
#
#
# Indices 1 2 3 4 5 6 
#
# 1 0.010915 -0.001751 -0.006829 -0.000413 0.001176 0.005320
# 2 -0.001751 0.017251 0.000330 -0.005626 -0.010394 0.000808
# 3 -0.006829 0.000330 0.018410 -0.002549 -0.003299 0.000316
# 4 -0.000413 -0.005626 -0.002549 0.027136 -0.002469 -0.003197
# 5 0.001176 -0.010394 -0.003299 -0.002469 0.052513 -0.000031
# 6 0.005320 0.000808 0.000316 -0.003197 -0.000031 0.036867
#
#
# Mechanical properties :
#
#
# Convention : Reuss Voigt Hill
#
# Bulk Modulus (GPa) = 33.24804 50.86268 42.05536
# Shear Modulus (GPa) = 26.36898 32.80324 29.58611
#
# Velocity S-wave (km/s) = 3.40264 3.79514 3.60423
# Velocity P-wave (km/s) = 5.48048 6.44489 5.98215
#
# Compressibility (1/GPa) = 0.03007696
#
# Stress axis : x y z
#
# Youngs Moduli (GPa) = 91.62109 57.96703 54.31798
#
# Poissons Ratio (x) = 0.10151 0.37091
# Poissons Ratio (y) = 0.16044 -0.01794
# Poissons Ratio (z) = 0.62564 -0.01915
#
# Static dielectric constant tensor:
#      x y z
#    x 2.080690 0.020220 0.028300 
#    y 0.020220 1.873990 0.027820 
#    z 0.028300 0.027820 1.857060 
# 
# From -- ./inp_files/270207.got.cif
#   From: 2010.05.17/outbox.cif.g08.bks.cpg/sg2_136_cif.got.tgz:270207.got - 2010.06.03 11:33:40.
