data_PCOD9048340
_publ_section_title
;
Structure prediction by ZEFSAII (Michael W. Deem and Ramdas Pophale) SiO2 
 PCOD9048340
Probable space group: P -1
;
_chemical_formula_sum "Si O2"
_cell_formula_units_Z 14
_cell_length_a 13.751391
_cell_length_b 12.876540
_cell_length_c 12.480707
_cell_angle_alpha 134.948804
_cell_angle_beta 45.858922
_cell_angle_gamma 158.812100
_cell_volume 559.123386
_symmetry_space_group_name_H-M "P -1"
_symmetry_group_IT_number 2
_symmetry_cell_setting 'triclinic'
loop_
_space_group_symop_operation_xyz
x,y,z
-x,-y,-z
loop_
_atom_site_type_symbol
_atom_site_label
_atom_site_fract_x
_atom_site_fract_y
_atom_site_fract_z
Si Si1 0.914299 0.379875 0.260236
Si Si2 0.886682 0.530074 0.177899
Si Si3 0.074109 0.788598 0.561827
Si Si4 0.364712 0.171970 0.218677
Si Si5 0.247880 0.146573 0.865792
Si Si6 0.480275 0.584866 0.360478
Si Si7 0.461815 0.736900 0.089179
O O1 0.917287 0.506815 0.258297
O O2 0.007318 0.559204 0.421945
O O3 0.145345 0.475817 0.128153
O O4 0.620572 0.030690 0.223612
O O5 0.580823 0.278681 0.195801
O O6 0.067409 0.841952 0.240548
O O7 0.000000 0.500000 0.000000
O O8 0.805831 0.627004 0.617904
O O9 0.144614 0.896506 0.708729
O O10 0.327672 0.097326 0.525947
O O11 0.429442 0.405135 0.349067
O O12 0.405631 0.173067 0.062040
O O13 0.358636 0.325165 0.802439
O O14 0.468270 0.313322 0.907664
O O15 0.000000 0.000000 0.000000
#
# Coordination Sequence:
#
# PCOD9048340 Si02
#       7
#     2   2   2   2   2   2   2
#     4  12  26  44  66  96 139 172 221 266 329 389
#     4  12  23  43  64  99 132 174 215 274 324 383
#     4  10  24  46  65  93 141 173 211 272 323 390
#     4  12  23  41  70 100 129 166 227 273 324 379
#     4  10  26  43  71  98 132 172 217 270 331 382
#     4  10  24  45  67  95 135 168 219 272 319 389
#     4  12  25  39  70 101 130 176 217 268 330 390
#
# _framework density 25.039197000000001
#
# number of rings (size 3 to 8) (size 9 to 14) (size 15 to 20)
#    0.857    0.000    2.857    3.857    6.000    2.286 
#    0.000    4.286    0.000    0.000    0.000    0.000 
#    0.000    0.000    0.000    0.000    0.000    0.000 
#
# Total GULP energy -78416.900589 kJ/mol
# GULP energy per Si atom -5601.207185 kJ/mol
# Density = 2.498221 g / cm^3
# Si number density = 25.039197 Si / 1000 Ang^3
#
#
#
# Elastic Constant Matrix: (Units=GPa)
#
#
# Indices 1 2 3 4 5 6 
#
# 1 91.0141 13.7881 10.0486 -0.5809 2.7277 -5.9431
# 2 13.7881 97.1241 4.2072 13.9439 -1.7268 5.6852
# 3 10.0486 4.2072 52.0096 14.2338 9.5862 -6.5298
# 4 -0.5809 13.9439 14.2338 39.9350 1.4272 -9.6575
# 5 2.7277 -1.7268 9.5862 1.4272 29.9203 4.1695
# 6 -5.9431 5.6852 -6.5298 -9.6575 4.1695 49.7351
#
#
#
# Elastic Compliance Matrix: (Units=1/GPa)
#
#
# Indices 1 2 3 4 5 6 
#
# 1 0.011700 -0.001990 -0.002316 0.002156 -0.000794 0.001807
# 2 -0.001990 0.011427 0.000189 -0.004753 0.001363 -0.002556
# 3 -0.002316 0.000189 0.023319 -0.007704 -0.007142 0.001866
# 4 0.002156 -0.004753 -0.007704 0.030893 -0.000286 0.005812
# 5 -0.000794 0.001363 -0.007142 -0.000286 0.036474 -0.004302
# 6 0.001807 -0.002556 0.001866 0.005812 -0.004302 0.022349
#
#
# Mechanical properties :
#
#
# Convention : Reuss Voigt Hill
#
# Bulk Modulus (GPa) = 26.17132 32.91506 29.54319
# Shear Modulus (GPa) = 31.81991 38.05833 34.93912
#
# Velocity S-wave (km/s) = 3.56870 3.90288 3.73953
# Velocity P-wave (km/s) = 5.23982 5.78653 5.51995
#
# Compressibility (1/GPa) = 0.03820977
#
# Stress axis : x y z
#
# Youngs Moduli (GPa) = 85.46956 87.51439 42.88418
#
# Poissons Ratio (x) = 0.17416 0.09934
# Poissons Ratio (y) = 0.17009 -0.00809
# Poissons Ratio (z) = 0.19798 -0.01651
#
# Static dielectric constant tensor:
#      x y z
#    x 1.956040 -0.080380 0.012600 
#    y -0.080380 1.949580 0.069930 
#    z 0.012600 0.069930 2.096290 
# 
# From -- ./inp_files/411303.got.cif
#   From: 2010.05.17/outbox.cif.g08.bks.cpg/sg2_206_cif.got.tgz:411303.got - 2010.06.03 11:33:40.
