data_PCOD9048544
_publ_section_title
;
Structure prediction by ZEFSAII (Michael W. Deem and Ramdas Pophale) SiO2 
 PCOD9048544
Probable space group: P -1
;
_chemical_formula_sum "Si O2"
_cell_formula_units_Z 16
_cell_length_a 18.232950
_cell_length_b 21.156005
_cell_length_c 8.505323
_cell_angle_alpha 57.341437
_cell_angle_beta 47.710729
_cell_angle_gamma 18.894929
_cell_volume 718.657316
_symmetry_space_group_name_H-M "P -1"
_symmetry_group_IT_number 2
_symmetry_cell_setting 'triclinic'
loop_
_space_group_symop_operation_xyz
x,y,z
-x,-y,-z
loop_
_atom_site_type_symbol
_atom_site_label
_atom_site_fract_x
_atom_site_fract_y
_atom_site_fract_z
Si Si1 0.944733 0.453665 0.585972
Si Si2 0.119634 0.348345 0.138423
Si Si3 0.661505 0.124925 0.998674
Si Si4 0.109668 0.909247 0.789695
Si Si5 0.932079 0.785714 0.148525
Si Si6 0.923089 0.922798 0.549429
Si Si7 0.766566 0.883563 0.898850
Si Si8 0.548989 0.479507 0.143171
O O1 0.000000 0.500000 0.500000
O O2 0.918227 0.475767 0.406342
O O3 0.665612 0.628899 0.848036
O O4 0.140360 0.242099 0.626184
O O5 0.168820 0.242130 0.099759
O O6 0.000000 0.500000 0.000000
O O7 0.430621 0.138994 0.049952
O O8 0.787376 0.022800 0.782214
O O9 0.835414 0.072049 0.879757
O O10 0.720421 0.007146 0.172625
O O11 0.328247 0.687099 0.753092
O O12 0.218422 0.911392 0.568434
O O13 0.000000 0.000000 0.000000
O O14 0.222367 0.618020 0.017613
O O15 0.917323 0.780648 0.989081
O O16 0.879458 0.867762 0.638853
O O17 0.255134 0.702341 0.354435
O O18 0.500000 0.500000 0.000000
#
# Coordination Sequence:
#
# PCOD9048544 Si02
#       8
#     2   2   2   2   2   2   2   2
#     4  12  25  42  72 100 133 179 229 282 340 409
#     4  11  26  47  71 101 138 178 229 288 345 410
#     4  10  25  42  62  99 132 178 223 272 341 395
#     4  11  23  39  65  95 134 175 222 277 328 401
#     4  10  24  45  69  98 142 177 229 283 337 409
#     4  11  23  42  67  95 137 175 223 279 333 407
#     4  10  25  45  68 102 136 180 229 281 351 402
#     4  11  24  42  68 100 140 179 229 275 341 406
#
# _framework density 22.263741
#
# number of rings (size 3 to 8) (size 9 to 14) (size 15 to 20)
#    0.000    1.250    1.250    3.375    1.750   12.500 
#    0.000    0.000    0.000    0.000    0.000    0.000 
#    0.000    0.000    0.000    0.000    0.000    0.000 
#
# Total GULP energy -89317.372767 kJ/mol
# GULP energy per Si atom -5582.335798 kJ/mol
# Density = 2.221307 g / cm^3
# Si number density = 22.263741 Si / 1000 Ang^3
#
#
#
# Elastic Constant Matrix: (Units=GPa)
#
#
# Indices 1 2 3 4 5 6 
#
# 1 102.0555 40.2514 30.1268 -10.4565 -4.1215 1.6689
# 2 40.2514 105.2822 46.0799 -26.3517 -12.1218 23.4876
# 3 30.1268 46.0799 82.6270 -24.4651 9.1341 4.6495
# 4 -10.4565 -26.3517 -24.4651 53.5087 13.0416 -12.7991
# 5 -4.1215 -12.1218 9.1341 13.0416 32.1553 -7.5343
# 6 1.6689 23.4876 4.6495 -12.7991 -7.5343 38.6640
#
#
#
# Elastic Compliance Matrix: (Units=1/GPa)
#
#
# Indices 1 2 3 4 5 6 
#
# 1 0.012115 -0.003918 -0.002745 -0.000676 0.001666 0.002288
# 2 -0.003918 0.017239 -0.008284 0.000511 0.006288 -0.007912
# 3 -0.002745 -0.008284 0.021627 0.009079 -0.012573 0.003106
# 4 -0.000676 0.000511 0.009079 0.027206 -0.012279 0.005240
# 5 0.001666 0.006288 -0.012573 -0.012279 0.042673 0.001871
# 6 0.002288 -0.007912 0.003106 0.005240 0.001871 0.032297
#
#
# Mechanical properties :
#
#
# Convention : Reuss Voigt Hill
#
# Bulk Modulus (GPa) = 47.42434 58.09787 52.76111
# Shear Modulus (GPa) = 26.30466 36.43271 31.36869
#
# Velocity S-wave (km/s) = 3.44103 4.04965 3.75768
# Velocity P-wave (km/s) = 6.09385 6.92951 6.52507
#
# Compressibility (1/GPa) = 0.02108622
#
# Stress axis : x y z
#
# Youngs Moduli (GPa) = 82.54286 58.00745 46.23908
#
# Poissons Ratio (x) = 0.22728 0.12694
# Poissons Ratio (y) = 0.32341 0.38304
# Poissons Ratio (z) = 0.22660 0.48053
#
# Static dielectric constant tensor:
#      x y z
#    x 1.854940 0.003200 -0.064040 
#    y 0.003200 1.878410 -0.026820 
#    z -0.064040 -0.026820 1.807450 
# 
# From -- ./inp_files/337668.got.cif
#   From: 2010.05.17/outbox.cif.g08.bks.cpg/sg2_169_cif.got.tgz:337668.got - 2010.06.03 11:33:40.
