data_PCOD9048896
_publ_section_title
;
Structure prediction by ZEFSAII (Michael W. Deem and Ramdas Pophale) SiO2 
 PCOD9048896
Probable space group: P -1
;
_chemical_formula_sum "Si O2"
_cell_formula_units_Z 15
_cell_length_a 20.980554
_cell_length_b 17.725483
_cell_length_c 12.479667
_cell_angle_alpha 29.479520
_cell_angle_beta 151.621072
_cell_angle_gamma 160.650154
_cell_volume 706.426152
_symmetry_space_group_name_H-M "P -1"
_symmetry_group_IT_number 2
_symmetry_cell_setting 'triclinic'
loop_
_space_group_symop_operation_xyz
x,y,z
-x,-y,-z
loop_
_atom_site_type_symbol
_atom_site_label
_atom_site_fract_x
_atom_site_fract_y
_atom_site_fract_z
Si Si1 0.820806 0.689529 0.196588
Si Si2 0.795736 0.953364 0.121164
Si Si3 0.551553 0.717651 0.273830
Si Si4 0.038162 0.867292 0.516351
Si Si5 0.874039 0.485684 0.062533
Si Si6 0.000000 0.500000 0.000000
Si Si7 0.080652 0.700163 0.450432
Si Si8 0.602763 0.808269 0.778853
O O1 0.641956 0.418631 0.306625
O O2 0.988910 0.852561 0.337202
O O3 0.925127 0.708958 0.221887
O O4 0.702209 0.748012 0.939248
O O5 0.650878 0.818217 0.178084
O O6 0.932309 0.917989 0.358982
O O7 0.670762 0.855876 0.945155
O O8 0.946306 0.230721 0.009212
O O9 0.500000 0.500000 0.500000
O O10 0.723475 0.927164 0.351774
O O11 0.341868 0.629449 0.080134
O O12 0.948133 0.629023 0.717095
O O13 0.912194 0.374438 0.332592
O O14 0.877559 0.433735 0.011149
O O15 0.000000 0.500000 0.500000
O O16 0.297544 0.954401 0.417223
#
# Coordination Sequence:
#
# PCOD9048896 Si02
#       8
#     2   2   2   2   2   1   2   2
#     4  10  24  48  67  99 136 188 227 280 344 409
#     4  11  23  46  71 100 138 183 229 285 343 412
#     4  12  25  44  74 104 131 184 240 277 341 420
#     4  11  23  45  70  97 140 179 224 288 340 409
#     4  12  26  45  69 104 140 185 227 284 351 409
#     4  12  24  46  68  96 146 180 216 292 348 398
#     4  12  25  43  70 105 142 176 231 290 340 410
#     4  10  24  45  74  98 137 185 230 280 346 413
#
# _framework density 21.233643000000001
#
# number of rings (size 3 to 8) (size 9 to 14) (size 15 to 20)
#    0.000    0.800    5.333    1.600    1.867    3.200 
#    9.600    0.000    0.000    0.000    0.000    0.000 
#    0.000    0.000    0.000    0.000    0.000    0.000 
#
# Total GULP energy -83635.280200 kJ/mol
# GULP energy per Si atom -5575.685347 kJ/mol
# Density = 2.118531 g / cm^3
# Si number density = 21.233643 Si / 1000 Ang^3
#
#
#
# Elastic Constant Matrix: (Units=GPa)
#
#
# Indices 1 2 3 4 5 6 
#
# 1 93.9941 48.0582 1.4231 0.2345 8.6585 11.5568
# 2 48.0582 83.6885 12.2863 -8.6545 4.8882 8.8740
# 3 1.4231 12.2863 51.9145 -13.3768 1.4144 5.5132
# 4 0.2345 -8.6545 -13.3768 32.3943 0.9193 -0.2310
# 5 8.6585 4.8882 1.4144 0.9193 15.2070 2.7428
# 6 11.5568 8.8740 5.5132 -0.2310 2.7428 13.7787
#
#
#
# Elastic Compliance Matrix: (Units=1/GPa)
#
#
# Indices 1 2 3 4 5 6 
#
# 1 0.016623 -0.008861 0.002272 -0.001458 -0.005275 -0.008119
# 2 -0.008861 0.018168 -0.002756 0.003764 -0.000214 -0.003061
# 3 0.002272 -0.002756 0.023099 0.008764 -0.001475 -0.008932
# 4 -0.001458 0.003764 0.008764 0.035556 -0.002700 -0.003575
# 5 -0.005275 -0.000214 -0.001475 -0.002700 0.070751 -0.008977
# 6 -0.008119 -0.003061 -0.008932 -0.003575 -0.008977 0.086658
#
#
# Mechanical properties :
#
#
# Convention : Reuss Voigt Hill
#
# Bulk Modulus (GPa) = 25.51026 39.23694 32.37360
# Shear Modulus (GPa) = 17.69204 23.46463 20.57834
#
# Velocity S-wave (km/s) = 2.88967 3.32786 3.11648
# Velocity P-wave (km/s) = 4.81391 5.76932 5.31313
#
# Compressibility (1/GPa) = 0.03919992
#
# Stress axis : x y z
#
# Youngs Moduli (GPa) = 60.15799 55.04062 43.29113
#
# Poissons Ratio (x) = 0.48771 -0.09834
# Poissons Ratio (y) = 0.53306 0.11932
# Poissons Ratio (z) = -0.13666 0.15170
#
# Static dielectric constant tensor:
#      x y z
#    x 1.792270 -0.012720 0.023960 
#    y -0.012720 1.773350 -0.005550 
#    z 0.023960 -0.005550 1.769780 
# 
# From -- ./inp_files/111056.got.cif
#   From: 2010.05.17/outbox.cif.g08.bks.cpg/sg2_56_cif.got.tgz:111056.got - 2010.06.03 11:33:40.
