data_PCOD9048344
_publ_section_title
;
Structure prediction by ZEFSAII (Michael W. Deem and Ramdas Pophale) SiO2 
 PCOD9048344
Probable space group: P -1
;
_chemical_formula_sum "Si O2"
_cell_formula_units_Z 12
_cell_length_a 8.471830
_cell_length_b 5.314161
_cell_length_c 11.697246
_cell_angle_alpha 80.286402
_cell_angle_beta 111.023563
_cell_angle_gamma 84.338429
_cell_volume 477.208302
_symmetry_space_group_name_H-M "P -1"
_symmetry_group_IT_number 2
_symmetry_cell_setting 'triclinic'
loop_
_space_group_symop_operation_xyz
x,y,z
-x,-y,-z
loop_
_atom_site_type_symbol
_atom_site_label
_atom_site_fract_x
_atom_site_fract_y
_atom_site_fract_z
Si Si1 0.519416 0.716089 0.581005
Si Si2 0.150372 0.261415 0.198548
Si Si3 0.942010 0.794622 0.585994
Si Si4 0.772978 0.537087 0.015763
Si Si5 0.501149 0.763545 0.103599
Si Si6 0.268398 0.430646 0.635619
O O1 0.500000 0.500000 0.500000
O O2 0.693916 0.641019 0.703480
O O3 0.361822 0.678547 0.624824
O O4 0.500000 0.000000 0.500000
O O5 0.099832 0.089803 0.305979
O O6 0.967820 0.440932 0.111770
O O7 0.223325 0.221464 0.090155
O O8 0.790928 0.687439 0.487733
O O9 0.092940 0.542963 0.647440
O O10 0.000000 0.000000 0.500000
O O11 0.650859 0.564854 0.092200
O O12 0.679741 0.335409 0.935548
O O13 0.589631 0.779117 0.247630
O O14 0.500000 0.000000 0.000000
#
# Coordination Sequence:
#
# PCOD9048344 Si02
#       6
#     2   2   2   2   2   2
#     4  12  26  47  73 109 148 193 241 307 376 445
#     4  11  22  46  68 100 142 184 240 297 366 434
#     4  11  24  42  71 100 138 184 235 302 368 434
#     4  10  24  45  67  95 139 186 237 298 357 434
#     4  11  24  44  70  98 137 188 240 297 362 438
#     4  11  24  43  67 103 139 184 244 299 371 435
#
# _framework density 25.146249000000001
#
# number of rings (size 3 to 8) (size 9 to 14) (size 15 to 20)
#    0.000    1.000    5.000    1.000    2.333    1.333 
#    3.000    1.667    0.000    0.000    0.000    0.000 
#    0.000    0.000    0.000    0.000    0.000    0.000 
#
# Total GULP energy -66862.982491 kJ/mol
# GULP energy per Si atom -5571.915208 kJ/mol
# Density = 2.508902 g / cm^3
# Si number density = 25.146249 Si / 1000 Ang^3
#
#
#
# Elastic Constant Matrix: (Units=GPa)
#
#
# Indices 1 2 3 4 5 6 
#
# 1 110.9242 27.2374 53.6873 9.3389 25.1290 27.9313
# 2 27.2374 81.7406 42.6292 -13.2486 13.8115 19.4769
# 3 53.6873 42.6292 197.2819 -9.7239 22.8658 26.2617
# 4 9.3389 -13.2486 -9.7239 27.5692 12.8063 -11.7578
# 5 25.1290 13.8115 22.8658 12.8063 76.0619 -3.7563
# 6 27.9313 19.4769 26.2617 -11.7578 -3.7563 31.8880
#
#
#
# Elastic Compliance Matrix: (Units=1/GPa)
#
#
# Indices 1 2 3 4 5 6 
#
# 1 0.016521 -0.002012 -0.002128 -0.012974 -0.003090 -0.016638
# 2 -0.002012 0.016701 -0.001673 0.007727 -0.003394 -0.004612
# 3 -0.002128 -0.001673 0.006525 0.002058 -0.001395 -0.001893
# 4 -0.012974 0.007727 0.002058 0.059181 -0.006415 0.026015
# 5 -0.003090 -0.003394 -0.001395 -0.006415 0.016556 0.005513
# 6 -0.016638 -0.004612 -0.001893 0.026015 0.005513 0.060550
#
#
# Mechanical properties :
#
#
# Convention : Reuss Voigt Hill
#
# Bulk Modulus (GPa) = 35.56002 70.78382 53.17192
# Shear Modulus (GPa) = 25.37641 44.86335 35.11988
#
# Velocity S-wave (km/s) = 3.18016 4.22844 3.74120
# Velocity P-wave (km/s) = 5.25895 7.21454 6.31293
#
# Compressibility (1/GPa) = 0.02812147
#
# Stress axis : x y z
#
# Youngs Moduli (GPa) = 60.53003 59.87495 153.26638
#
# Poissons Ratio (x) = 0.12044 0.32610
# Poissons Ratio (y) = 0.12176 0.25647
# Poissons Ratio (z) = 0.12879 0.10019
#
# Static dielectric constant tensor:
#      x y z
#    x 2.338160 -0.044220 -0.161330 
#    y -0.044220 2.007460 -0.026710 
#    z -0.161330 -0.026710 2.053310 
# 
# From -- ./inp_files/49644.got.cif
#   From: 2010.05.17/outbox.cif.g08.bks.cpg/sg2_25_cif.got.tgz:49644.got - 2010.06.03 11:33:40.
