data_PCOD9048950
_publ_section_title
;
Structure prediction by ZEFSAII (Michael W. Deem and Ramdas Pophale) SiO2 
 PCOD9048950
Probable space group: P -1
;
_chemical_formula_sum "Si O2"
_cell_formula_units_Z 14
_cell_length_a 10.043108
_cell_length_b 28.800718
_cell_length_c 5.018337
_cell_angle_alpha 62.462105
_cell_angle_beta 113.723313
_cell_angle_gamma 154.624626
_cell_volume 551.126762
_symmetry_space_group_name_H-M "P -1"
_symmetry_group_IT_number 2
_symmetry_cell_setting 'triclinic'
loop_
_space_group_symop_operation_xyz
x,y,z
-x,-y,-z
loop_
_atom_site_type_symbol
_atom_site_label
_atom_site_fract_x
_atom_site_fract_y
_atom_site_fract_z
Si Si1 0.852910 0.373547 0.648944
Si Si2 0.237957 0.275992 0.248735
Si Si3 0.146060 0.364163 0.077430
Si Si4 0.539659 0.157263 0.447604
Si Si5 0.280699 0.136955 0.781265
Si Si6 0.363974 0.614249 0.206830
Si Si7 0.266402 0.966539 0.536197
O O1 0.513226 0.257961 0.564470
O O2 0.779705 0.374592 0.878501
O O3 0.101585 0.489864 0.410641
O O4 0.980316 0.356232 0.799062
O O5 0.131299 0.302367 0.099346
O O6 0.352234 0.302067 0.575324
O O7 0.988538 0.156477 0.241047
O O8 0.531647 0.366183 0.053125
O O9 0.912715 0.284655 0.358950
O O10 0.500000 0.500000 0.000000
O O11 0.360469 0.120558 0.660877
O O12 0.463432 0.070965 0.588874
O O13 0.379500 0.141218 0.125152
O O14 0.950514 0.061163 0.729243
O O15 0.500000 0.000000 0.500000
#
# Coordination Sequence:
#
# PCOD9048950 Si02
#       7
#     2   2   2   2   2   2   2
#     4  10  24  45  77 104 151 188 241 295 358 439
#     4  12  27  47  72 108 148 188 239 299 361 425
#     4  11  24  46  73 109 148 188 237 298 362 427
#     4  11  27  50  74 107 141 197 240 292 360 432
#     4  11  26  47  78 105 140 191 246 293 361 430
#     4  11  26  46  73 110 141 195 237 293 364 428
#     4  12  26  52  74 107 148 189 244 306 357 427
#
# _framework density 25.402502999999999
#
# number of rings (size 3 to 8) (size 9 to 14) (size 15 to 20)
#    0.000    0.857    4.286    0.857    6.000    6.286 
#    0.000    5.000    0.000    0.000    0.000    0.000 
#    0.000    0.000    0.000    0.000    0.000    0.000 
#
# Total GULP energy -78163.365567 kJ/mol
# GULP energy per Si atom -5583.097541 kJ/mol
# Density = 2.534469 g / cm^3
# Si number density = 25.402503 Si / 1000 Ang^3
#
#
#
# Elastic Constant Matrix: (Units=GPa)
#
#
# Indices 1 2 3 4 5 6 
#
# 1 177.3471 35.0792 51.0142 -2.1283 17.5748 -3.5405
# 2 35.0792 105.9837 23.2008 -35.5513 7.9753 5.1963
# 3 51.0142 23.2008 82.4230 -8.2465 -6.8160 -5.4348
# 4 -2.1283 -35.5513 -8.2465 38.7497 -10.1259 7.8770
# 5 17.5748 7.9753 -6.8160 -10.1259 38.2770 -13.1797
# 6 -3.5405 5.1963 -5.4348 7.8770 -13.1797 51.1619
#
#
#
# Elastic Compliance Matrix: (Units=1/GPa)
#
#
# Indices 1 2 3 4 5 6 
#
# 1 0.008127 -0.002577 -0.005220 -0.004355 -0.005435 -0.000460
# 2 -0.002577 0.015865 -0.001650 0.014946 0.000075 -0.004247
# 3 -0.005220 -0.001650 0.016986 0.003191 0.007676 0.003097
# 4 -0.004355 0.014946 0.003191 0.043488 0.008936 -0.005874
# 5 -0.005435 0.000075 0.007676 0.008936 0.035126 0.008105
# 6 -0.000460 -0.004247 0.003097 -0.005874 0.008105 0.023266
#
#
# Mechanical properties :
#
#
# Convention : Reuss Voigt Hill
#
# Bulk Modulus (GPa) = 45.27815 64.92694 55.10254
# Shear Modulus (GPa) = 29.56573 42.73503 36.15038
#
# Velocity S-wave (km/s) = 3.41529 4.10605 3.77650
# Velocity P-wave (km/s) = 5.78059 6.93501 6.38395
#
# Compressibility (1/GPa) = 0.02208571
#
# Stress axis : x y z
#
# Youngs Moduli (GPa) = 123.04556 63.02985 58.87169
#
# Poissons Ratio (x) = 0.16240 0.30733
# Poissons Ratio (y) = 0.31703 0.09711
# Poissons Ratio (z) = 0.64234 0.10397
#
# Static dielectric constant tensor:
#      x y z
#    x 1.997270 -0.013080 0.007070 
#    y -0.013080 2.282400 0.018670 
#    z 0.007070 0.018670 2.014800 
# 
# From -- ./inp_files/56346.got.cif
#   From: 2010.05.17/outbox.cif.g08.bks.cpg/sg2_29_cif.got.tgz:56346.got - 2010.06.03 11:33:40.
