data_PCOD9048624
_publ_section_title
;
Structure prediction by ZEFSAII (Michael W. Deem and Ramdas Pophale) SiO2 
 PCOD9048624
Probable space group: P -1
;
_chemical_formula_sum "Si O2"
_cell_formula_units_Z 14
_cell_length_a 5.088016
_cell_length_b 9.650093
_cell_length_c 16.803992
_cell_angle_alpha 36.835610
_cell_angle_beta 101.527476
_cell_angle_gamma 104.767288
_cell_volume 478.297703
_symmetry_space_group_name_H-M "P -1"
_symmetry_group_IT_number 2
_symmetry_cell_setting 'triclinic'
loop_
_space_group_symop_operation_xyz
x,y,z
-x,-y,-z
loop_
_atom_site_type_symbol
_atom_site_label
_atom_site_fract_x
_atom_site_fract_y
_atom_site_fract_z
Si Si1 0.265905 0.145420 0.491162
Si Si2 0.071722 0.215359 0.602743
Si Si3 0.892094 0.909785 0.119152
Si Si4 0.424400 0.512065 0.774910
Si Si5 0.643797 0.191656 0.710556
Si Si6 0.170612 0.740531 0.772720
Si Si7 0.325922 0.709353 0.962864
O O1 0.380900 0.948498 0.642928
O O2 0.455240 0.289004 0.371927
O O3 0.000000 0.000000 0.500000
O O4 0.165133 0.306453 0.479397
O O5 0.809680 0.276739 0.601064
O O6 0.001694 0.933247 0.709522
O O7 0.158976 0.880032 0.923498
O O8 0.656334 0.742615 0.345761
O O9 0.433774 0.091469 0.148800
O O10 0.886457 0.235357 0.767421
O O11 0.000000 0.000000 0.000000
O O12 0.378561 0.271939 0.833485
O O13 0.147069 0.561809 0.779637
O O14 0.601155 0.470502 0.883364
O O15 0.219576 0.605764 0.918484
#
# Coordination Sequence:
#
# PCOD9048624 Si02
#       7
#     2   2   2   2   2   2   2
#     4  10  24  45  70 108 153 192 239 312 378 426
#     4   9  23  42  79  95 143 196 243 293 370 433
#     4  12  25  44  71 108 154 194 237 312 374 431
#     4  12  25  42  73 114 147 187 255 303 373 437
#     4  11  20  47  74 100 139 204 238 296 365 439
#     4   9  22  45  69 104 140 196 236 303 358 441
#     4  11  24  47  74 103 150 194 243 301 368 440
#
# _framework density 29.270472999999999
#
# number of rings (size 3 to 8) (size 9 to 14) (size 15 to 20)
#    0.857    0.571    4.286    1.286    4.000    1.143 
#    0.000    5.714    0.000    0.000    0.000    0.000 
#    0.000    0.000    0.000    0.000    0.000    0.000 
#
# Total GULP energy -78140.338690 kJ/mol
# GULP energy per Si atom -5581.452764 kJ/mol
# Density = 2.920385 g / cm^3
# Si number density = 29.270473 Si / 1000 Ang^3
#
#
#
# Elastic Constant Matrix: (Units=GPa)
#
#
# Indices 1 2 3 4 5 6 
#
# 1 124.8782 37.1524 45.2045 15.7009 -6.0848 -16.2812
# 2 37.1524 147.6320 58.6013 36.1040 6.9923 -18.7080
# 3 45.2045 58.6013 230.5357 24.0610 -21.5501 -10.4537
# 4 15.7009 36.1040 24.0610 57.3761 -8.6722 1.3923
# 5 -6.0848 6.9923 -21.5501 -8.6722 51.9689 12.7395
# 6 -16.2812 -18.7080 -10.4537 1.3923 12.7395 42.0285
#
#
#
# Elastic Compliance Matrix: (Units=1/GPa)
#
#
# Indices 1 2 3 4 5 6 
#
# 1 0.009356 -0.001108 -0.001294 -0.001429 -0.000249 0.002932
# 2 -0.001108 0.010197 -0.001929 -0.006128 -0.004606 0.005229
# 3 -0.001294 -0.001929 0.005304 -0.000267 0.002453 -0.000775
# 4 -0.001429 -0.006128 -0.000267 0.022805 0.005788 -0.005858
# 5 -0.000249 -0.004606 0.002453 0.005788 0.024025 -0.009011
# 6 0.002932 0.005229 -0.000775 -0.005858 -0.009011 0.029990
#
#
# Mechanical properties :
#
#
# Convention : Reuss Voigt Hill
#
# Bulk Modulus (GPa) = 61.74578 87.21803 74.48190
# Shear Modulus (GPa) = 43.20188 54.41388 48.80788
#
# Velocity S-wave (km/s) = 3.84598 4.31629 4.08791
# Velocity P-wave (km/s) = 6.39240 7.39611 6.91250
#
# Compressibility (1/GPa) = 0.01619544
#
# Stress axis : x y z
#
# Youngs Moduli (GPa) = 106.88703 98.06403 188.54617
#
# Poissons Ratio (x) = 0.10864 0.24400
# Poissons Ratio (y) = 0.11841 0.36367
# Poissons Ratio (z) = 0.13832 0.18915
#
# Static dielectric constant tensor:
#      x y z
#    x 2.536160 0.067570 0.114830 
#    y 0.067570 2.478330 -0.106340 
#    z 0.114830 -0.106340 2.341520 
# 
# From -- ./inp_files/549026.got.cif
#   From: 2010.05.17/outbox.cif.g08.bks.cpg/sg2_275_cif.got.tgz:549026.got - 2010.06.03 11:33:40.
