data_PCOD9048400
_publ_section_title
;
Structure prediction by ZEFSAII (Michael W. Deem and Ramdas Pophale) SiO2 
 PCOD9048400
Probable space group: P -1
;
_chemical_formula_sum "Si O2"
_cell_formula_units_Z 14
_cell_length_a 10.019158
_cell_length_b 16.116646
_cell_length_c 15.608023
_cell_angle_alpha 151.753274
_cell_angle_beta 144.896267
_cell_angle_gamma 34.019160
_cell_volume 629.426507
_symmetry_space_group_name_H-M "P -1"
_symmetry_group_IT_number 2
_symmetry_cell_setting 'triclinic'
loop_
_space_group_symop_operation_xyz
x,y,z
-x,-y,-z
loop_
_atom_site_type_symbol
_atom_site_label
_atom_site_fract_x
_atom_site_fract_y
_atom_site_fract_z
Si Si1 0.703948 0.619855 0.964930
Si Si2 0.300951 0.680240 0.664434
Si Si3 0.400529 0.546717 0.893220
Si Si4 0.712598 0.018723 0.371641
Si Si5 0.385690 0.286337 0.301209
Si Si6 0.566729 0.133576 0.589961
Si Si7 0.006063 0.895456 0.087367
O O1 0.531785 0.598610 0.778424
O O2 0.600072 0.566426 0.949319
O O3 0.677137 0.836290 0.149983
O O4 0.000000 0.500000 0.000000
O O5 0.221271 0.509225 0.438564
O O6 0.413756 0.729644 0.681855
O O7 0.098055 0.877127 0.775330
O O8 0.365883 0.352619 0.674069
O O9 0.500000 0.500000 0.000000
O O10 0.171169 0.754119 0.970322
O O11 0.534269 0.194328 0.381331
O O12 0.627563 0.040566 0.444979
O O13 0.000000 0.000000 0.500000
O O14 0.220477 0.172318 0.080601
O O15 0.820123 0.142637 0.771725
O O16 0.500000 0.000000 0.500000
#
# Coordination Sequence:
#
# PCOD9048400 Si02
#       7
#     2   2   2   2   2   2   2
#     4  12  26  45  72 103 144 188 241 296 355 431
#     4  11  25  44  72 104 146 185 241 291 366 413
#     4  10  24  45  68 103 138 187 233 289 359 419
#     4  12  24  44  71 105 139 187 244 289 351 427
#     4  11  25  45  69 110 140 192 236 296 359 424
#     4  11  25  46  71 103 142 188 235 289 357 429
#     4  11  24  45  74  99 148 183 236 295 356 423
#
# _framework density 22.242470000000001
#
# number of rings (size 3 to 8) (size 9 to 14) (size 15 to 20)
#    0.000    0.857    1.429    5.571    8.000    1.714 
#    2.571    1.429    0.000    0.000    0.000    0.000 
#    0.000    0.000    0.000    0.000    0.000    0.000 
#
# Total GULP energy -78288.129611 kJ/mol
# GULP energy per Si atom -5592.009258 kJ/mol
# Density = 2.219184 g / cm^3
# Si number density = 22.242470 Si / 1000 Ang^3
#
#
#
# Elastic Constant Matrix: (Units=GPa)
#
#
# Indices 1 2 3 4 5 6 
#
# 1 119.6130 34.0925 1.7848 14.8811 2.5803 14.7188
# 2 34.0925 92.9620 23.5508 22.7162 -0.2875 -6.9818
# 3 1.7848 23.5508 107.4508 27.2669 -0.4920 2.4983
# 4 14.8811 22.7162 27.2669 54.6210 0.3397 -14.1270
# 5 2.5803 -0.2875 -0.4920 0.3397 31.2046 7.7056
# 6 14.7188 -6.9818 2.4983 -14.1270 7.7056 33.0607
#
#
#
# Elastic Compliance Matrix: (Units=1/GPa)
#
#
# Indices 1 2 3 4 5 6 
#
# 1 0.011006 -0.004074 0.002020 -0.004403 0.001121 -0.008056
# 2 -0.004074 0.013743 -0.002447 -0.002339 -0.000544 0.004028
# 3 0.002020 -0.002447 0.011670 -0.006800 0.001436 -0.005538
# 4 -0.004403 -0.002339 -0.006800 0.027693 -0.003690 0.014673
# 5 0.001121 -0.000544 0.001436 -0.003690 0.034569 -0.010356
# 6 -0.008056 0.004028 -0.005538 0.014673 -0.010356 0.043787
#
#
# Mechanical properties :
#
#
# Convention : Reuss Voigt Hill
#
# Bulk Modulus (GPa) = 36.47270 48.76467 42.61869
# Shear Modulus (GPa) = 31.13137 41.15044 36.14091
#
# Velocity S-wave (km/s) = 3.74523 4.30593 4.03533
# Velocity P-wave (km/s) = 5.92754 6.83323 6.39644
#
# Compressibility (1/GPa) = 0.02741776
#
# Stress axis : x y z
#
# Youngs Moduli (GPa) = 90.85836 72.76214 85.68818
#
# Poissons Ratio (x) = 0.29641 -0.17307
# Poissons Ratio (y) = 0.37012 0.20969
# Poissons Ratio (z) = -0.18352 0.17806
#
# Static dielectric constant tensor:
#      x y z
#    x 1.792320 -0.061580 -0.022470 
#    y -0.061580 1.924100 0.085120 
#    z -0.022470 0.085120 1.827750 
# 
# From -- ./inp_files/153927.got.cif
#   From: 2010.05.17/outbox.cif.g08.bks.cpg/sg2_77_cif.got.tgz:153927.got - 2010.06.03 11:33:40.
