data_PCOD9048287
_publ_section_title
;
Structure prediction by ZEFSAII (Michael W. Deem and Ramdas Pophale) SiO2 
 PCOD9048287
Probable space group: P -1
;
_chemical_formula_sum "Si O2"
_cell_formula_units_Z 16
_cell_length_a 14.790768
_cell_length_b 12.804442
_cell_length_c 10.786576
_cell_angle_alpha 36.316494
_cell_angle_beta 71.772149
_cell_angle_gamma 46.008763
_cell_volume 709.489755
_symmetry_space_group_name_H-M "P -1"
_symmetry_group_IT_number 2
_symmetry_cell_setting 'triclinic'
loop_
_space_group_symop_operation_xyz
x,y,z
-x,-y,-z
loop_
_atom_site_type_symbol
_atom_site_label
_atom_site_fract_x
_atom_site_fract_y
_atom_site_fract_z
Si Si1 0.605829 0.831834 0.736471
Si Si2 0.227894 0.717885 0.715210
Si Si3 0.404497 0.793065 0.522564
Si Si4 0.216869 0.134052 0.028848
Si Si5 0.985858 0.880715 0.963584
Si Si6 0.589348 0.930324 0.152486
Si Si7 0.078519 0.721055 0.576561
Si Si8 0.249438 0.595109 0.278313
O O1 0.500000 0.000000 0.500000
O O2 0.672024 0.930080 0.638442
O O3 0.507305 0.928270 0.812832
O O4 0.734541 0.493376 0.003384
O O5 0.360933 0.667023 0.711741
O O6 0.209287 0.645645 0.661540
O O7 0.070279 0.053849 0.484788
O O8 0.586334 0.563515 0.675974
O O9 0.335259 0.907736 0.303681
O O10 0.320598 0.024028 0.967669
O O11 0.136661 0.438884 0.801636
O O12 0.087616 0.173835 0.027473
O O13 0.867008 0.085158 0.932733
O O14 0.978064 0.075792 0.706200
O O15 0.156191 0.615115 0.199770
O O16 0.709578 0.598036 0.443877
O O17 0.500000 0.000000 0.000000
#
# Coordination Sequence:
#
# PCOD9048287 Si02
#       8
#     2   2   2   2   2   2   2   2
#     4  11  26  46  68 107 154 185 237 311 371 422
#     4  11  25  44  73 100 142 200 243 292 363 444
#     4  11  24  45  74 108 136 191 253 300 357 435
#     4  12  23  43  77 109 136 188 253 306 358 428
#     4  11  25  44  68 103 150 188 232 307 380 423
#     4  11  21  43  76 105 139 185 244 303 350 435
#     4  11  24  45  68 102 147 188 247 301 358 439
#     4  10  24  45  66 102 153 180 233 310 373 426
#
# _framework density 22.551417000000001
#
# number of rings (size 3 to 8) (size 9 to 14) (size 15 to 20)
#    0.000    1.000    6.250    0.000    5.250    3.000 
#    0.000    0.000    0.000    0.000    0.000    0.000 
#    0.000    0.000    0.000    0.000    0.000    0.000 
#
# Total GULP energy -89355.233367 kJ/mol
# GULP energy per Si atom -5584.702085 kJ/mol
# Density = 2.250009 g / cm^3
# Si number density = 22.551417 Si / 1000 Ang^3
#
#
#
# Elastic Constant Matrix: (Units=GPa)
#
#
# Indices 1 2 3 4 5 6 
#
# 1 146.2498 14.4177 40.1304 -3.4558 13.2469 -4.8414
# 2 14.4177 57.6038 12.7269 -6.9334 6.3162 13.2207
# 3 40.1304 12.7269 99.4331 -1.9152 22.8491 6.3096
# 4 -3.4558 -6.9334 -1.9152 33.3974 6.2833 7.7965
# 5 13.2469 6.3162 22.8491 6.2833 42.5142 -5.2482
# 6 -4.8414 13.2207 6.3096 7.7965 -5.2482 17.2608
#
#
#
# Elastic Compliance Matrix: (Units=1/GPa)
#
#
# Indices 1 2 3 4 5 6 
#
# 1 0.008275 -0.003331 -0.003680 -0.001996 0.001110 0.007457
# 2 -0.003331 0.028688 0.002785 0.015983 -0.011354 -0.034597
# 3 -0.003680 0.002785 0.014427 0.006151 -0.009678 -0.014160
# 4 -0.001996 0.015983 0.006151 0.046183 -0.016953 -0.041065
# 5 0.001110 -0.011354 -0.009678 -0.016953 0.036431 0.031279
# 6 0.007457 -0.034597 -0.014160 -0.041065 0.031279 0.119760
#
#
# Mechanical properties :
#
#
# Convention : Reuss Voigt Hill
#
# Bulk Modulus (GPa) = 23.29044 48.64853 35.96949
# Shear Modulus (GPa) = 18.08136 34.36861 26.22498
#
# Velocity S-wave (km/s) = 2.83465 3.90809 3.41383
# Velocity P-wave (km/s) = 4.58953 6.47946 5.61459
#
# Compressibility (1/GPa) = 0.04293607
#
# Stress axis : x y z
#
# Youngs Moduli (GPa) = 120.84630 34.85831 69.31648
#
# Poissons Ratio (x) = 0.11613 0.25508
# Poissons Ratio (y) = 0.40260 -0.19304
# Poissons Ratio (z) = 0.44471 -0.09708
#
# Static dielectric constant tensor:
#      x y z
#    x 1.817450 0.006070 0.013520 
#    y 0.006070 1.979150 -0.035500 
#    z 0.013520 -0.035500 1.835820 
# 
# From -- ./inp_files/454355.got.cif
#   From: 2010.05.17/outbox.cif.g08.bks.cpg/sg2_228_cif.got.tgz:454355.got - 2010.06.03 11:33:40.
