data_PCOD9048112
_publ_section_title
;
Structure prediction by ZEFSAII (Michael W. Deem and Ramdas Pophale) SiO2 
 PCOD9048112
Probable space group: P -1
;
_chemical_formula_sum "Si O2"
_cell_formula_units_Z 16
_cell_length_a 8.785895
_cell_length_b 12.876911
_cell_length_c 9.185893
_cell_angle_alpha 51.393659
_cell_angle_beta 61.026319
_cell_angle_gamma 64.289102
_cell_volume 697.195474
_symmetry_space_group_name_H-M "P -1"
_symmetry_group_IT_number 2
_symmetry_cell_setting 'triclinic'
loop_
_space_group_symop_operation_xyz
x,y,z
-x,-y,-z
loop_
_atom_site_type_symbol
_atom_site_label
_atom_site_fract_x
_atom_site_fract_y
_atom_site_fract_z
Si Si1 0.341585 0.087644 0.581940
Si Si2 0.332218 0.363142 0.183980
Si Si3 0.996944 0.048391 0.627091
Si Si4 0.706312 0.353684 0.875359
Si Si5 0.030857 0.668946 0.742150
Si Si6 0.052646 0.213139 0.006995
Si Si7 0.655719 0.371458 0.540716
Si Si8 0.566812 0.861985 0.181145
O O1 0.322576 0.241636 0.404738
O O2 0.176819 0.028451 0.652337
O O3 0.383663 0.083610 0.734038
O O4 0.500000 0.000000 0.500000
O O5 0.314684 0.499491 0.166334
O O6 0.152544 0.378734 0.158941
O O7 0.516395 0.319105 0.046536
O O8 0.954143 0.208023 0.484560
O O9 0.897017 0.949500 0.847183
O O10 0.000000 0.000000 0.500000
O O11 0.718551 0.356821 0.692866
O O12 0.891590 0.261552 0.927271
O O13 0.025559 0.720632 0.863191
O O14 0.212616 0.580887 0.682074
O O15 0.249347 0.237891 0.864652
O O16 0.500000 0.500000 0.500000
O O17 0.579547 0.234545 0.655977
O O18 0.500000 0.000000 0.000000
#
# Coordination Sequence:
#
# PCOD9048112 Si02
#       8
#     2   2   2   2   2   2   2   2
#     4  11  25  42  74 101 141 189 237 294 367 430
#     4  10  24  46  72 103 141 185 243 297 365 427
#     4   9  21  41  69  98 135 179 236 288 357 421
#     4  11  26  44  74 103 142 184 246 301 355 432
#     4  10  24  44  73  98 140 190 237 292 364 436
#     4  11  25  44  72 103 142 187 243 295 361 429
#     4  12  29  48  72 103 150 193 240 298 367 430
#     4  12  30  47  71 109 152 188 245 304 362 428
#
# _framework density 22.949086000000001
#
# number of rings (size 3 to 8) (size 9 to 14) (size 15 to 20)
#    0.000    1.250    0.000    3.000   22.750    1.500 
#    0.000    0.000    0.000    0.000    0.000    0.000 
#    0.000    0.000    0.000    0.000    0.000    0.000 
#
# Total GULP energy -89272.526245 kJ/mol
# GULP energy per Si atom -5579.532890 kJ/mol
# Density = 2.289685 g / cm^3
# Si number density = 22.949086 Si / 1000 Ang^3
#
#
#
# Elastic Constant Matrix: (Units=GPa)
#
#
# Indices 1 2 3 4 5 6 
#
# 1 156.4077 32.3517 68.3344 20.3400 -4.4487 4.1522
# 2 32.3517 66.5064 28.5787 11.2822 4.6219 -3.8995
# 3 68.3344 28.5787 100.2754 19.2961 3.4227 4.6313
# 4 20.3400 11.2822 19.2961 47.0023 2.7773 -5.8867
# 5 -4.4487 4.6219 3.4227 2.7773 42.2042 7.7452
# 6 4.1522 -3.8995 4.6313 -5.8867 7.7452 38.0948
#
#
#
# Elastic Compliance Matrix: (Units=1/GPa)
#
#
# Indices 1 2 3 4 5 6 
#
# 1 0.009604 -0.002200 -0.005622 -0.001597 0.002044 -0.001251
# 2 -0.002200 0.018164 -0.003433 -0.001514 -0.002350 0.002760
# 3 -0.005622 -0.003433 0.015542 -0.003315 -0.000900 -0.001957
# 4 -0.001597 -0.001514 -0.003315 0.024401 -0.002191 0.004638
# 5 0.002044 -0.002350 -0.000900 -0.002191 0.025461 -0.005869
# 6 -0.001251 0.002760 -0.001957 0.004638 -0.005869 0.028817
#
#
# Mechanical properties :
#
#
# Convention : Reuss Voigt Hill
#
# Bulk Modulus (GPa) = 48.08285 64.63547 56.35916
# Shear Modulus (GPa) = 33.01768 38.38856 35.70312
#
# Velocity S-wave (km/s) = 3.79718 4.09439 3.94858
# Velocity P-wave (km/s) = 6.34210 7.11181 6.73796
#
# Compressibility (1/GPa) = 0.02079744
#
# Stress axis : x y z
#
# Youngs Moduli (GPa) = 104.12147 55.05476 64.34336
#
# Poissons Ratio (x) = 0.12114 0.36177
# Poissons Ratio (y) = 0.22910 0.22091
# Poissons Ratio (z) = 0.58542 0.18902
#
# Static dielectric constant tensor:
#      x y z
#    x 1.260770 0.065040 0.760080 
#    y 0.065040 1.888340 -0.224530 
#    z 0.760080 -0.224530 0.834070 
# 
# From -- ./inp_files/184814.got.cif
#   From: 2010.05.17/outbox.cif.g08.bks.cpg/sg2_93_cif.got.tgz:184814.got - 2010.06.03 11:33:40.
