data_PCOD9048675
_publ_section_title
;
Structure prediction by ZEFSAII (Michael W. Deem and Ramdas Pophale) SiO2 
 PCOD9048675
Probable space group: P -1
;
_chemical_formula_sum "Si O2"
_cell_formula_units_Z 16
_cell_length_a 5.196433
_cell_length_b 15.468260
_cell_length_c 11.279230
_cell_angle_alpha 54.064107
_cell_angle_beta 50.994405
_cell_angle_gamma 75.217825
_cell_volume 560.952484
_symmetry_space_group_name_H-M "P -1"
_symmetry_group_IT_number 2
_symmetry_cell_setting 'triclinic'
loop_
_space_group_symop_operation_xyz
x,y,z
-x,-y,-z
loop_
_atom_site_type_symbol
_atom_site_label
_atom_site_fract_x
_atom_site_fract_y
_atom_site_fract_z
Si Si1 0.234903 0.121839 0.876013
Si Si2 0.185048 0.429053 0.587734
Si Si3 0.099840 0.591614 0.063257
Si Si4 0.118413 0.244249 0.587548
Si Si5 0.765850 0.778315 0.968723
Si Si6 0.304015 0.853935 0.599354
Si Si7 0.108948 0.343243 0.274214
Si Si8 0.473495 0.966359 0.778692
O O1 0.039936 0.167544 0.787338
O O2 0.524949 0.060794 0.792414
O O3 0.369111 0.208641 0.869762
O O4 0.931054 0.047175 0.092463
O O5 0.500000 0.500000 0.500000
O O6 0.304548 0.344217 0.532800
O O7 0.000000 0.500000 0.500000
O O8 0.934050 0.384005 0.805382
O O9 0.031871 0.462106 0.168178
O O10 0.479376 0.636636 0.870721
O O11 0.815345 0.653698 0.040490
O O12 0.336059 0.176497 0.499707
O O13 0.971737 0.308641 0.473553
O O14 0.156111 0.837765 0.785898
O O15 0.587320 0.855589 0.874627
O O16 0.336749 0.972159 0.437557
O O17 0.059711 0.758540 0.674690
#
# Coordination Sequence:
#
# PCOD9048675 Si02
#       8
#     2   2   2   2   2   2   2   2
#     4  10  24  45  71 102 141 182 240 303 386 448
#     4  12  26  46  73 111 149 202 258 314 377 450
#     4  11  25  47  69 109 142 200 244 296 380 448
#     4  11  23  44  67 102 143 190 246 305 376 440
#     4  12  24  43  69 106 137 184 243 298 373 447
#     4  11  26  44  70 104 139 193 247 308 381 449
#     4  11  25  48  69 100 151 191 244 305 369 450
#     4  10  25  46  69 103 139 189 239 310 382 448
#
# _framework density 28.522918000000001
#
# number of rings (size 3 to 8) (size 9 to 14) (size 15 to 20)
#    0.000    1.000    3.750    1.500    1.750    8.000 
#    0.000    0.000    0.000    0.000    0.000    0.000 
#    0.000    0.000    0.000    0.000    0.000    0.000 
#
# Total GULP energy -89429.014256 kJ/mol
# GULP energy per Si atom -5589.313391 kJ/mol
# Density = 2.845800 g / cm^3
# Si number density = 28.522918 Si / 1000 Ang^3
#
#
#
# Elastic Constant Matrix: (Units=GPa)
#
#
# Indices 1 2 3 4 5 6 
#
# 1 95.7203 37.9598 33.7242 -26.9014 21.5795 -22.2553
# 2 37.9598 148.0498 31.5378 -21.0927 14.6716 -28.4691
# 3 33.7242 31.5378 161.8692 -12.9026 27.8181 -8.0722
# 4 -26.9014 -21.0927 -12.9026 59.8448 2.7268 12.5584
# 5 21.5795 14.6716 27.8181 2.7268 44.4724 3.4070
# 6 -22.2553 -28.4691 -8.0722 12.5584 3.4070 48.9985
#
#
#
# Elastic Compliance Matrix: (Units=1/GPa)
#
#
# Indices 1 2 3 4 5 6 
#
# 1 0.015806 -0.001269 -0.001069 0.005643 -0.007336 0.005329
# 2 -0.001269 0.008414 -0.000692 0.001512 -0.002123 0.003959
# 3 -0.001069 -0.000692 0.007299 0.000955 -0.003903 0.000341
# 4 0.005643 0.001512 0.000955 0.020487 -0.004991 -0.001305
# 5 -0.007336 -0.002123 -0.003903 -0.004991 0.029954 -0.006012
# 6 0.005329 0.003959 0.000341 -0.001305 -0.006012 0.025938
#
#
# Mechanical properties :
#
#
# Convention : Reuss Voigt Hill
#
# Bulk Modulus (GPa) = 39.27942 68.00922 53.64432
# Shear Modulus (GPa) = 40.83407 50.82433 45.82920
#
# Velocity S-wave (km/s) = 3.78778 4.22581 4.01278
# Velocity P-wave (km/s) = 5.73854 6.90691 6.34965
#
# Compressibility (1/GPa) = 0.02545863
#
# Stress axis : x y z
#
# Youngs Moduli (GPa) = 63.26630 118.84461 136.99612
#
# Poissons Ratio (x) = 0.15082 0.14651
# Poissons Ratio (y) = 0.08029 0.09483
# Poissons Ratio (z) = 0.06766 0.08227
#
# Static dielectric constant tensor:
#      x y z
#    x 2.279260 0.063400 -0.027370 
#    y 0.063400 2.328250 0.014110 
#    z -0.027370 0.014110 2.339440 
# 
# From -- ./inp_files/369326.got.cif
#   From: 2010.05.17/outbox.cif.g08.bks.cpg/sg2_185_cif.got.tgz:369326.got - 2010.06.03 11:33:40.
