data_PCOD9048048
_publ_section_title
;
Structure prediction by ZEFSAII (Michael W. Deem and Ramdas Pophale) SiO2 
 PCOD9048048
Probable space group: P -1
;
_chemical_formula_sum "Si O2"
_cell_formula_units_Z 11
_cell_length_a 9.620286
_cell_length_b 8.390842
_cell_length_c 9.236610
_cell_angle_alpha 54.934340
_cell_angle_beta 48.057063
_cell_angle_gamma 64.093009
_cell_volume 452.207568
_symmetry_space_group_name_H-M "P -1"
_symmetry_group_IT_number 2
_symmetry_cell_setting 'triclinic'
loop_
_space_group_symop_operation_xyz
x,y,z
-x,-y,-z
loop_
_atom_site_type_symbol
_atom_site_label
_atom_site_fract_x
_atom_site_fract_y
_atom_site_fract_z
Si Si1 0.330758 0.910040 0.586656
Si Si2 0.164504 0.479466 0.211391
Si Si3 0.341609 0.892594 0.250550
Si Si4 0.015989 0.830938 0.306156
Si Si5 0.392859 0.445664 0.821503
Si Si6 0.000000 0.500000 0.000000
O O1 0.325708 0.951109 0.397320
O O2 0.358553 0.677532 0.704551
O O3 0.500000 0.000000 0.500000
O O4 0.130945 0.999654 0.740155
O O5 0.145764 0.696558 0.177082
O O6 0.109166 0.326045 0.448343
O O7 0.025025 0.481860 0.169134
O O8 0.361070 0.413775 0.031130
O O9 0.146721 0.919419 0.288475
O O10 0.417779 0.663434 0.308929
O O11 0.500000 0.000000 0.000000
O O12 0.210351 0.377635 0.902679
#
# Coordination Sequence:
#
# PCOD9048048 Si02
#       6
#     2   2   2   2   2   1
#     4  12  29  44  71 102 141 181 235 281 343 411
#     4   9  22  42  76  93 138 183 230 280 346 399
#     4  12  28  45  72 101 140 181 233 281 349 409
#     4  11  25  45  69 102 141 179 230 283 346 406
#     4  10  24  44  72  96 140 176 232 279 344 401
#     4   8  20  40  70  96 130 176 226 274 344 386
#
# _framework density 24.325111
#
# number of rings (size 3 to 8) (size 9 to 14) (size 15 to 20)
#    1.091    0.364    0.000    3.273   12.727    1.455 
#    0.000    0.000    0.000    0.000    0.000    0.000 
#    0.000    0.000    0.000    0.000    0.000    0.000 
#
# Total GULP energy -61255.797854 kJ/mol
# GULP energy per Si atom -5568.708896 kJ/mol
# Density = 2.426975 g / cm^3
# Si number density = 24.325111 Si / 1000 Ang^3
#
#
#
# Elastic Constant Matrix: (Units=GPa)
#
#
# Indices 1 2 3 4 5 6 
#
# 1 96.6717 30.4968 -24.0903 2.1352 1.9168 -21.4620
# 2 30.4968 132.6300 11.5137 -2.4673 -3.0646 -8.0817
# 3 -24.0903 11.5137 41.4277 -4.8424 0.4938 10.3512
# 4 2.1352 -2.4673 -4.8424 40.9902 -0.9369 5.2948
# 5 1.9168 -3.0646 0.4938 -0.9369 17.3840 10.1662
# 6 -21.4620 -8.0817 10.3512 5.2948 10.1662 29.5051
#
#
#
# Elastic Compliance Matrix: (Units=1/GPa)
#
#
# Indices 1 2 3 4 5 6 
#
# 1 0.016337 -0.003947 0.007516 -0.001959 -0.009765 0.011882
# 2 -0.003947 0.008964 -0.004972 0.000107 0.001749 0.000707
# 3 0.007516 -0.004972 0.032663 0.004420 0.002968 -0.009170
# 4 -0.001959 0.000107 0.004420 0.026532 0.007572 -0.010317
# 5 -0.009765 0.001749 0.002968 0.007572 0.080789 -0.036860
# 6 0.011882 0.000707 -0.009170 -0.010317 -0.036860 0.060498
#
#
# Mechanical properties :
#
#
# Convention : Reuss Voigt Hill
#
# Bulk Modulus (GPa) = 18.12958 34.06332 26.09645
# Shear Modulus (GPa) = 20.24492 34.42981 27.33736
#
# Velocity S-wave (km/s) = 2.88803 3.76626 3.35600
# Velocity P-wave (km/s) = 4.31163 5.73993 5.07626
#
# Compressibility (1/GPa) = 0.05515849
#
# Stress axis : x y z
#
# Youngs Moduli (GPa) = 61.21060 111.55239 30.61571
#
# Poissons Ratio (x) = 0.44030 -0.23010
# Poissons Ratio (y) = 0.24160 0.15221
# Poissons Ratio (z) = -0.46004 0.55459
#
# Static dielectric constant tensor:
#      x y z
#    x 1.925790 0.038090 -0.073870 
#    y 0.038090 1.978780 -0.046590 
#    z -0.073870 -0.046590 2.025510 
# 
# From -- ./inp_files/152641.got.cif
#   From: 2010.05.17/outbox.cif.g08.bks.cpg/sg2_77_cif.got.tgz:152641.got - 2010.06.03 11:33:40.
