data_PCOD9048021
_publ_section_title
;
Structure prediction by ZEFSAII (Michael W. Deem and Ramdas Pophale) SiO2 
 PCOD9048021
Probable space group: P -1
;
_chemical_formula_sum "Si O2"
_cell_formula_units_Z 12
_cell_length_a 5.223370
_cell_length_b 4.918769
_cell_length_c 21.704583
_cell_angle_alpha 127.834410
_cell_angle_beta 85.960873
_cell_angle_gamma 90.595192
_cell_volume 438.946261
_symmetry_space_group_name_H-M "P -1"
_symmetry_group_IT_number 2
_symmetry_cell_setting 'triclinic'
loop_
_space_group_symop_operation_xyz
x,y,z
-x,-y,-z
loop_
_atom_site_type_symbol
_atom_site_label
_atom_site_fract_x
_atom_site_fract_y
_atom_site_fract_z
Si Si1 0.206164 0.530125 0.676235
Si Si2 0.704667 0.098797 0.654748
Si Si3 0.143039 0.865601 0.207904
Si Si4 0.111011 0.819380 0.911615
Si Si5 0.436972 0.321683 0.911818
Si Si6 0.249618 0.216364 0.511009
O O1 0.457079 0.339770 0.674124
O O2 0.230804 0.537860 0.602241
O O3 0.961252 0.305362 0.665701
O O4 0.118957 0.903050 0.753239
O O5 0.710527 0.031041 0.717663
O O6 0.723776 0.772753 0.561809
O O7 0.331180 0.905638 0.152620
O O8 0.064435 0.470238 0.152858
O O9 0.364379 0.610677 0.902946
O O10 0.192093 0.106558 0.903034
O O11 0.000000 0.000000 0.000000
O O12 0.500000 0.500000 0.000000
O O13 0.500000 0.000000 0.500000
O O14 0.000000 0.000000 0.500000
#
# Coordination Sequence:
#
# PCOD9048021 Si02
#       6
#     2   2   2   2   2   2
#     4  10  24  44  72 109 158 205 264 328 398 471
#     4  10  24  44  72 109 158 205 264 328 398 471
#     4  12  30  43  76 114 156 204 268 335 398 478
#     4  12  29  52  80 112 154 208 270 329 409 488
#     4  12  29  52  80 112 154 208 270 329 409 488
#     4   8  16  39  68 101 147 208 258 316 390 476
#
# _framework density 27.338203
#
# number of rings (size 3 to 8) (size 9 to 14) (size 15 to 20)
#    0.000    1.333    1.667    1.000    9.333    0.667 
#    0.000    0.000    0.000   12.000    0.000    3.500 
#    0.000    0.000    0.000    0.000    0.000    0.000 
#
# Total GULP energy -67376.636623 kJ/mol
# GULP energy per Si atom -5614.719719 kJ/mol
# Density = 2.727598 g / cm^3
# Si number density = 27.338203 Si / 1000 Ang^3
#
#
#
# Elastic Constant Matrix: (Units=GPa)
#
#
# Indices 1 2 3 4 5 6 
#
# 1 158.8589 23.5647 40.5282 -8.3499 -23.2652 -11.9777
# 2 23.5647 56.2700 43.3886 -3.7369 -7.6578 -7.7494
# 3 40.5282 43.3886 260.9039 -26.3107 -19.3164 -1.7782
# 4 -8.3499 -3.7369 -26.3107 44.9423 -5.3551 1.8262
# 5 -23.2652 -7.6578 -19.3164 -5.3551 47.2109 -6.7021
# 6 -11.9777 -7.7494 -1.7782 1.8262 -6.7021 53.1313
#
#
#
# Elastic Compliance Matrix: (Units=1/GPa)
#
#
# Indices 1 2 3 4 5 6 
#
# 1 0.007419 -0.001969 -0.000415 0.001325 0.003569 0.001776
# 2 -0.001969 0.021638 -0.003192 -0.000360 0.001593 0.002819
# 3 -0.000415 -0.003192 0.004806 0.002662 0.001503 -0.000300
# 4 0.001325 -0.000360 0.002662 0.024557 0.004477 0.000056
# 5 0.003569 0.001593 0.001503 0.004477 0.024900 0.004074
# 6 0.001776 0.002819 -0.000300 0.000056 0.004074 0.020135
#
#
# Mechanical properties :
#
#
# Convention : Reuss Voigt Hill
#
# Bulk Modulus (GPa) = 44.02929 76.77731 60.40330
# Shear Modulus (GPa) = 40.92443 53.62700 47.27572
#
# Velocity S-wave (km/s) = 3.87327 4.43382 4.16299
# Velocity P-wave (km/s) = 6.01193 7.37271 6.72682
#
# Compressibility (1/GPa) = 0.02271215
#
# Stress axis : x y z
#
# Youngs Moduli (GPa) = 134.78709 46.21492 208.07980
#
# Poissons Ratio (x) = 0.09097 0.08638
# Poissons Ratio (y) = 0.26533 0.66414
# Poissons Ratio (z) = 0.05595 0.14751
#
# Static dielectric constant tensor:
#      x y z
#    x 2.191950 -0.061830 0.009470 
#    y -0.061830 2.098620 -0.008340 
#    z 0.009470 -0.008340 2.136610 
# 
# From -- ./inp_files/6855.got.cif
#   From: 2010.05.17/outbox.cif.g08.bks.cpg/sg2_4_cif.got.tgz:6855.got - 2010.06.03 11:33:40.
