data_PCOD9048444
_publ_section_title
;
Structure prediction by ZEFSAII (Michael W. Deem and Ramdas Pophale) SiO2 
 PCOD9048444
Probable space group: P -1
;
_chemical_formula_sum "Si O2"
_cell_formula_units_Z 14
_cell_length_a 5.291189
_cell_length_b 5.299941
_cell_length_c 25.980161
_cell_angle_alpha 63.451727
_cell_angle_beta 70.791314
_cell_angle_gamma 61.030497
_cell_volume 564.268154
_symmetry_space_group_name_H-M "P -1"
_symmetry_group_IT_number 2
_symmetry_cell_setting 'triclinic'
loop_
_space_group_symop_operation_xyz
x,y,z
-x,-y,-z
loop_
_atom_site_type_symbol
_atom_site_label
_atom_site_fract_x
_atom_site_fract_y
_atom_site_fract_z
Si Si1 0.584567 0.674119 0.729949
Si Si2 0.254161 0.384215 0.835293
Si Si3 0.525705 0.175702 0.932004
Si Si4 0.381892 0.810664 0.368047
Si Si5 0.667022 0.760206 0.866184
Si Si6 0.167576 0.702680 0.662463
Si Si7 0.348226 0.870582 0.479292
O O1 0.503800 0.511936 0.797469
O O2 0.509646 0.035928 0.700065
O O3 0.920627 0.562801 0.700150
O O4 0.369376 0.643184 0.703849
O O5 0.234305 0.322971 0.903265
O O6 0.941630 0.642621 0.820110
O O7 0.384337 0.039941 0.835753
O O8 0.608146 0.462158 0.911949
O O9 0.720713 0.930913 0.898116
O O10 0.500000 0.000000 0.000000
O O11 0.036511 0.936273 0.367667
O O12 0.387897 0.959338 0.409328
O O13 0.609137 0.463371 0.382840
O O14 0.500000 0.500000 0.500000
O O15 0.500000 0.000000 0.500000
O O16 0.000000 0.000000 0.500000
#
# Coordination Sequence:
#
# PCOD9048444 Si02
#       7
#     2   2   2   2   2   2   2
#     4  10  26  43  70 101 138 185 230 295 348 428
#     4  10  26  40  68  97 137 174 229 282 351 412
#     4  10  24  45  68  98 134 178 227 282 346 414
#     4  10  26  43  73  98 144 180 241 284 359 415
#     4  10  25  41  68  96 133 173 227 279 349 410
#     4  10  25  40  71  97 140 178 240 278 361 407
#     4  12  28  47  75 108 146 191 241 299 357 424
#
# _framework density 24.810901999999999
#
# number of rings (size 3 to 8) (size 9 to 14) (size 15 to 20)
#    1.714    0.000    0.000    1.714   12.000    2.286 
#    0.000    0.000    0.000    0.000    0.000    0.000 
#    0.000    0.000    0.000    0.000    0.000    0.000 
#
# Total GULP energy -77980.978696 kJ/mol
# GULP energy per Si atom -5570.069907 kJ/mol
# Density = 2.475443 g / cm^3
# Si number density = 24.810902 Si / 1000 Ang^3
#
#
#
# Elastic Constant Matrix: (Units=GPa)
#
#
# Indices 1 2 3 4 5 6 
#
# 1 121.1243 66.3439 13.4911 6.0172 3.8911 -18.8530
# 2 66.3439 206.5577 31.1800 13.8555 -22.5065 -15.5955
# 3 13.4911 31.1800 99.3116 -9.8971 -0.4420 3.3052
# 4 6.0172 13.8555 -9.8971 29.4315 5.4129 -13.4205
# 5 3.8911 -22.5065 -0.4420 5.4129 33.4540 0.0843
# 6 -18.8530 -15.5955 3.3052 -13.4205 0.0843 42.9590
#
#
#
# Elastic Compliance Matrix: (Units=1/GPa)
#
#
# Indices 1 2 3 4 5 6 
#
# 1 0.011037 -0.003790 -0.000256 0.002106 -0.004188 0.004154
# 2 -0.003790 0.007354 -0.002225 -0.004699 0.006120 -0.000302
# 3 -0.000256 -0.002225 0.011320 0.005235 -0.002164 -0.000151
# 4 0.002106 -0.004699 0.005235 0.045432 -0.010721 0.013030
# 5 -0.004188 0.006120 -0.002164 -0.010721 0.036209 -0.002870
# 6 0.004154 -0.000302 -0.000151 0.013030 -0.002870 0.029079
#
#
# Mechanical properties :
#
#
# Convention : Reuss Voigt Hill
#
# Bulk Modulus (GPa) = 58.24925 72.11374 65.18150
# Shear Modulus (GPa) = 31.50671 42.23412 36.87041
#
# Velocity S-wave (km/s) = 3.56739 4.13030 3.85912
# Velocity P-wave (km/s) = 6.36370 7.20238 6.79599
#
# Compressibility (1/GPa) = 0.01716760
#
# Stress axis : x y z
#
# Youngs Moduli (GPa) = 90.60401 135.98728 88.34088
#
# Poissons Ratio (x) = 0.51543 0.02264
# Poissons Ratio (y) = 0.34342 0.19654
# Poissons Ratio (z) = 0.02322 0.30254
#
# Static dielectric constant tensor:
#      x y z
#    x 1.992500 -0.031270 0.033830 
#    y -0.031270 2.063230 -0.003850 
#    z 0.033830 -0.003850 2.081610 
# 
# From -- ./inp_files/621560.got.cif
#   From: 2010.05.17/outbox.cif.g08.bks.cpg/sg2_311_cif.got.tgz:621560.got - 2010.06.03 11:33:40.
