data_PCOD9048966
_publ_section_title
;
Structure prediction by ZEFSAII (Michael W. Deem and Ramdas Pophale) SiO2 
 PCOD9048966
Probable space group: P -1
;
_chemical_formula_sum "Si O2"
_cell_formula_units_Z 12
_cell_length_a 9.772887
_cell_length_b 5.517286
_cell_length_c 10.380386
_cell_angle_alpha 71.068763
_cell_angle_beta 115.238474
_cell_angle_gamma 104.493090
_cell_volume 474.778487
_symmetry_space_group_name_H-M "P -1"
_symmetry_group_IT_number 2
_symmetry_cell_setting 'triclinic'
loop_
_space_group_symop_operation_xyz
x,y,z
-x,-y,-z
loop_
_atom_site_type_symbol
_atom_site_label
_atom_site_fract_x
_atom_site_fract_y
_atom_site_fract_z
Si Si1 0.175634 0.102751 0.074736
Si Si2 0.229047 0.955683 0.641162
Si Si3 0.727905 0.562965 0.747959
Si Si4 0.456959 0.861955 0.140231
Si Si5 0.937991 0.468160 0.186008
Si Si6 0.819279 0.463571 0.533047
O O1 0.238485 0.143267 0.238720
O O2 0.288712 0.927370 0.090480
O O3 0.184774 0.372137 0.953498
O O4 0.000000 0.000000 0.000000
O O5 0.142656 0.809540 0.753942
O O6 0.217930 0.747087 0.556261
O O7 0.406760 0.029980 0.730938
O O8 0.165002 0.229093 0.547861
O O9 0.583126 0.443167 0.795822
O O10 0.703029 0.469729 0.607367
O O11 0.909884 0.524033 0.841464
O O12 0.500000 0.000000 0.000000
O O13 0.020577 0.587254 0.328481
#
# Coordination Sequence:
#
# PCOD9048966 Si02
#       6
#     2   2   2   2   2   2
#     4  12  25  47  80 109 148 201 262 315 379 455
#     4  12  27  49  76 114 159 199 254 317 381 456
#     4  10  26  46  72 113 146 201 254 309 385 453
#     4  12  30  48  76 111 154 200 255 321 388 444
#     4  10  24  45  78 108 151 198 261 307 377 450
#     4  10  27  47  79 112 156 204 255 307 384 459
#
# _framework density 25.274946
#
# number of rings (size 3 to 8) (size 9 to 14) (size 15 to 20)
#    1.000    0.000    1.667    2.500   11.667    2.667 
#    0.000    0.000    0.000    0.000    0.000    0.000 
#    0.000    0.000    0.000    0.000    0.000    0.000 
#
# Total GULP energy -66853.550527 kJ/mol
# GULP energy per Si atom -5571.129211 kJ/mol
# Density = 2.521742 g / cm^3
# Si number density = 25.274946 Si / 1000 Ang^3
#
#
#
# Elastic Constant Matrix: (Units=GPa)
#
#
# Indices 1 2 3 4 5 6 
#
# 1 81.5402 27.0731 10.2193 16.4571 -11.5004 30.6069
# 2 27.0731 124.2032 54.6254 20.4131 -13.6767 19.7086
# 3 10.2193 54.6254 87.2437 17.4343 -1.5833 6.0537
# 4 16.4571 20.4131 17.4343 52.2355 4.9779 -1.7052
# 5 -11.5004 -13.6767 -1.5833 4.9779 25.9151 -4.0468
# 6 30.6069 19.7086 6.0537 -1.7052 -4.0468 51.8903
#
#
#
# Elastic Compliance Matrix: (Units=1/GPa)
#
#
# Indices 1 2 3 4 5 6 
#
# 1 0.018879 -0.000645 0.000451 -0.006930 0.007746 -0.010567
# 2 -0.000645 0.013083 -0.007120 -0.003242 0.006279 -0.003375
# 3 0.000451 -0.007120 0.016332 -0.002609 -0.002013 0.000290
# 4 -0.006930 -0.003242 -0.002609 0.024487 -0.008752 0.005745
# 5 0.007746 0.006279 -0.002013 -0.008752 0.046368 -0.003391
# 6 -0.010567 -0.003375 0.000290 0.005745 -0.003391 0.026677
#
#
# Mechanical properties :
#
#
# Convention : Reuss Voigt Hill
#
# Bulk Modulus (GPa) = 29.70351 52.98032 41.34192
# Shear Modulus (GPa) = 29.12476 39.41278 34.26877
#
# Velocity S-wave (km/s) = 3.39826 3.95316 3.68617
# Velocity P-wave (km/s) = 5.21299 6.46867 5.87448
#
# Compressibility (1/GPa) = 0.03366605
#
# Stress axis : x y z
#
# Youngs Moduli (GPa) = 52.96907 76.43425 61.22867
#
# Poissons Ratio (x) = 0.04929 -0.02761
# Poissons Ratio (y) = 0.03416 0.43596
# Poissons Ratio (z) = -0.02388 0.54423
#
# Static dielectric constant tensor:
#      x y z
#    x 2.016040 -0.287090 0.035140 
#    y -0.287090 4.207470 -1.130970 
#    z 0.035140 -1.130970 2.746870 
# 
# From -- ./inp_files/372500.got.cif
#   From: 2010.05.17/outbox.cif.g08.bks.cpg/sg2_187_cif.got.tgz:372500.got - 2010.06.03 11:33:40.
