data_PCOD9048910
_publ_section_title
;
Structure prediction by ZEFSAII (Michael W. Deem and Ramdas Pophale) SiO2 
 PCOD9048910
Probable space group: P -1
;
_chemical_formula_sum "Si O2"
_cell_formula_units_Z 16
_cell_length_a 11.787584
_cell_length_b 8.835540
_cell_length_c 9.023898
_cell_angle_alpha 62.909286
_cell_angle_beta 54.196396
_cell_angle_gamma 76.852788
_cell_volume 677.616747
_symmetry_space_group_name_H-M "P -1"
_symmetry_group_IT_number 2
_symmetry_cell_setting 'triclinic'
loop_
_space_group_symop_operation_xyz
x,y,z
-x,-y,-z
loop_
_atom_site_type_symbol
_atom_site_label
_atom_site_fract_x
_atom_site_fract_y
_atom_site_fract_z
Si Si1 0.370386 0.602657 0.099333
Si Si2 0.786260 0.643817 0.479555
Si Si3 0.226692 0.823523 0.880475
Si Si4 0.991904 0.483061 0.836788
Si Si5 0.886679 0.995366 0.377017
Si Si6 0.524666 0.817116 0.131062
Si Si7 0.414568 0.124171 0.616584
Si Si8 0.157628 0.173962 0.207446
O O1 0.243458 0.475937 0.303817
O O2 0.418150 0.699314 0.169530
O O3 0.500000 0.500000 0.000000
O O4 0.338436 0.717551 0.931466
O O5 0.875836 0.814079 0.383673
O O6 0.641268 0.716927 0.499871
O O7 0.860140 0.537780 0.344779
O O8 0.207273 0.875928 0.699241
O O9 0.273360 0.011029 0.824017
O O10 0.093357 0.693395 0.060515
O O11 0.918229 0.653974 0.770323
O O12 0.000000 0.500000 0.000000
O O13 0.831720 0.949729 0.603494
O O14 0.045117 0.073791 0.231313
O O15 0.505631 0.820350 0.320479
O O16 0.687473 0.779173 0.992341
O O17 0.500000 0.000000 0.000000
O O18 0.500000 0.000000 0.500000
#
# Coordination Sequence:
#
# PCOD9048910 Si02
#       8
#     2   2   2   2   2   2   2   2
#     4  12  26  49  75 111 156 201 245 314 378 456
#     4  11  27  44  76 108 145 192 251 302 386 447
#     4  11  24  43  74 103 148 193 246 304 380 434
#     4  12  25  46  72 111 148 191 245 317 382 445
#     4  10  24  45  75 106 147 192 246 308 376 447
#     4  12  27  46  77 110 145 202 258 303 373 454
#     4  11  26  47  74 108 148 201 254 312 366 449
#     4  11  25  47  73 108 153 189 250 312 378 443
#
# _framework density 23.612165999999998
#
# number of rings (size 3 to 8) (size 9 to 14) (size 15 to 20)
#    0.000    0.750    2.500    3.750    5.250    6.500 
#    0.000    0.000    0.000    0.000    0.000    0.000 
#    0.000    0.000    0.000    0.000    0.000    0.000 
#
# Total GULP energy -89338.833813 kJ/mol
# GULP energy per Si atom -5583.677113 kJ/mol
# Density = 2.355842 g / cm^3
# Si number density = 23.612166 Si / 1000 Ang^3
#
#
#
# Elastic Constant Matrix: (Units=GPa)
#
#
# Indices 1 2 3 4 5 6 
#
# 1 143.4070 48.2262 53.6064 3.5220 34.5574 6.0812
# 2 48.2262 99.2635 58.4611 4.5667 8.6246 -4.4822
# 3 53.6064 58.4611 108.0802 -3.1808 16.9855 -20.7398
# 4 3.5220 4.5667 -3.1808 49.0376 -3.1952 -3.2042
# 5 34.5574 8.6246 16.9855 -3.1952 49.7827 -9.6745
# 6 6.0812 -4.4822 -20.7398 -3.2042 -9.6745 35.1861
#
#
#
# Elastic Compliance Matrix: (Units=1/GPa)
#
#
# Indices 1 2 3 4 5 6 
#
# 1 0.011833 -0.002504 -0.004794 -0.001920 -0.007723 -0.007488
# 2 -0.002504 0.015890 -0.007998 -0.001879 0.001185 -0.002102
# 3 -0.004794 -0.007998 0.018005 0.003030 0.000892 0.010944
# 4 -0.001920 -0.001879 0.003030 0.021393 0.002896 0.004623
# 5 -0.007723 0.001185 0.000892 0.002896 0.027010 0.009701
# 6 -0.007488 -0.002102 0.010944 0.004623 0.009701 0.038986
#
#
# Mechanical properties :
#
#
# Convention : Reuss Voigt Hill
#
# Bulk Modulus (GPa) = 66.06866 74.59313 70.33089
# Shear Modulus (GPa) = 29.62882 39.49840 34.56361
#
# Velocity S-wave (km/s) = 3.54617 4.09442 3.83012
# Velocity P-wave (km/s) = 6.69393 7.34928 7.02925
#
# Compressibility (1/GPa) = 0.01513577
#
# Stress axis : x y z
#
# Youngs Moduli (GPa) = 84.50781 62.93432 55.53887
#
# Poissons Ratio (x) = 0.15760 0.26627
# Poissons Ratio (y) = 0.21163 0.44418
# Poissons Ratio (z) = 0.40516 0.50333
#
# Static dielectric constant tensor:
#      x y z
#    x 3.003860 0.681730 0.414070 
#    y 0.681730 2.285860 0.288240 
#    z 0.414070 0.288240 2.106830 
# 
# From -- ./inp_files/242431.got.cif
#   From: 2010.05.17/outbox.cif.g08.bks.cpg/sg2_122_cif.got.tgz:242431.got - 2010.06.03 11:33:40.
