data_PCOD9048518
_publ_section_title
;
Structure prediction by ZEFSAII (Michael W. Deem and Ramdas Pophale) SiO2 
 PCOD9048518
Probable space group: P -1
;
_chemical_formula_sum "Si O2"
_cell_formula_units_Z 16
_cell_length_a 9.122867
_cell_length_b 17.084984
_cell_length_c 10.546379
_cell_angle_alpha 96.969217
_cell_angle_beta 86.787047
_cell_angle_gamma 152.258831
_cell_volume 754.796428
_symmetry_space_group_name_H-M "P -1"
_symmetry_group_IT_number 2
_symmetry_cell_setting 'triclinic'
loop_
_space_group_symop_operation_xyz
x,y,z
-x,-y,-z
loop_
_atom_site_type_symbol
_atom_site_label
_atom_site_fract_x
_atom_site_fract_y
_atom_site_fract_z
Si Si1 0.643274 0.642613 0.597689
Si Si2 0.868499 0.001514 0.403041
Si Si3 0.156912 0.494044 0.452798
Si Si4 0.579014 0.411903 0.814015
Si Si5 0.755248 0.896031 0.106530
Si Si6 0.252802 0.415114 0.780745
Si Si7 0.911283 0.365534 0.983577
Si Si8 0.719745 0.179831 0.545666
O O1 0.500000 0.500000 0.500000
O O2 0.397453 0.595363 0.575727
O O3 0.592300 0.599345 0.737642
O O4 0.955523 0.829860 0.564988
O O5 0.910064 0.996115 0.252908
O O6 0.501564 0.851024 0.410256
O O7 0.000000 0.000000 0.500000
O O8 0.359198 0.586131 0.332956
O O9 0.000000 0.500000 0.500000
O O10 0.909016 0.303305 0.438182
O O11 0.413677 0.265655 0.875795
O O12 0.341786 0.372727 0.823691
O O13 0.935257 0.593579 0.885954
O O14 0.465097 0.815506 0.060929
O O15 0.000000 0.000000 0.000000
O O16 0.113219 0.412671 0.881295
O O17 0.981099 0.282892 0.659559
O O18 0.000000 0.500000 0.000000
O O19 0.500000 0.000000 0.500000
#
# Coordination Sequence:
#
# PCOD9048518 Si02
#       8
#     2   2   2   2   2   2   2   2
#     4  11  23  40  69 100 137 179 226 280 354 414
#     4  12  25  43  70 104 141 180 233 292 350 412
#     4  11  23  41  67 102 135 179 236 282 338 420
#     4  11  24  44  72  97 136 187 244 277 340 433
#     4  11  26  47  68 102 144 181 229 297 359 410
#     4  11  23  45  68  98 139 181 234 282 341 425
#     4  10  24  45  69  94 131 184 236 281 340 416
#     4  11  25  41  67 103 145 178 216 294 364 404
#
# _framework density 21.197770999999999
#
# number of rings (size 3 to 8) (size 9 to 14) (size 15 to 20)
#    0.000    1.000    2.500    4.125   10.500    1.000 
#    0.000    0.625    0.000    0.000    0.000    0.000 
#    0.000    0.000    0.000    0.000    0.000    0.000 
#
# Total GULP energy -89155.358960 kJ/mol
# GULP energy per Si atom -5572.209935 kJ/mol
# Density = 2.114952 g / cm^3
# Si number density = 21.197771 Si / 1000 Ang^3
#
#
#
# Elastic Constant Matrix: (Units=GPa)
#
#
# Indices 1 2 3 4 5 6 
#
# 1 152.1328 35.8207 39.7852 0.2311 -0.8972 15.1912
# 2 35.8207 90.7618 28.3746 -14.9200 4.8063 -5.7917
# 3 39.7852 28.3746 91.7570 -3.3692 -3.3007 -5.5936
# 4 0.2311 -14.9200 -3.3692 40.0469 8.9375 2.4410
# 5 -0.8972 4.8063 -3.3007 8.9375 39.7821 1.5868
# 6 15.1912 -5.7917 -5.5936 2.4410 1.5868 27.7092
#
#
#
# Elastic Compliance Matrix: (Units=1/GPa)
#
#
# Indices 1 2 3 4 5 6 
#
# 1 0.008752 -0.003087 -0.003225 -0.001290 0.000833 -0.006029
# 2 -0.003087 0.014490 -0.002823 0.005724 -0.003494 0.003847
# 3 -0.003225 -0.002823 0.013437 -0.000434 0.001327 0.003853
# 4 -0.001290 0.005724 -0.000434 0.028698 -0.007192 -0.000300
# 5 0.000833 -0.003494 0.001327 -0.007192 0.027378 -0.001853
# 6 -0.006029 0.003847 0.003853 -0.000300 -0.001853 0.041109
#
#
# Mechanical properties :
#
#
# Convention : Reuss Voigt Hill
#
# Bulk Modulus (GPa) = 54.32439 60.29029 57.30734
# Shear Modulus (GPa) = 31.59151 36.88572 34.23862
#
# Velocity S-wave (km/s) = 3.86466 4.17595 4.02331
# Velocity P-wave (km/s) = 6.75257 7.19409 6.97682
#
# Compressibility (1/GPa) = 0.01840794
#
# Stress axis : x y z
#
# Youngs Moduli (GPa) = 114.25474 69.01171 74.42352
#
# Poissons Ratio (x) = 0.21303 0.24004
# Poissons Ratio (y) = 0.35269 0.21013
# Poissons Ratio (z) = 0.36851 0.19485
#
# Static dielectric constant tensor:
#      x y z
#    x 1.720320 -0.064720 0.051750 
#    y -0.064720 2.014010 0.158510 
#    z 0.051750 0.158510 1.804260 
# 
# From -- ./inp_files/217695.got.cif
#   From: 2010.05.17/outbox.cif.g08.bks.cpg/sg2_109_cif.got.tgz:217695.got - 2010.06.03 11:33:40.
