data_PCOD9048619
_publ_section_title
;
Structure prediction by ZEFSAII (Michael W. Deem and Ramdas Pophale) SiO2 
 PCOD9048619
Probable space group: P -1
;
_chemical_formula_sum "Si O2"
_cell_formula_units_Z 12
_cell_length_a 15.495746
_cell_length_b 9.494187
_cell_length_c 5.259124
_cell_angle_alpha 79.016294
_cell_angle_beta 107.777542
_cell_angle_gamma 50.520632
_cell_volume 484.587039
_symmetry_space_group_name_H-M "P -1"
_symmetry_group_IT_number 2
_symmetry_cell_setting 'triclinic'
loop_
_space_group_symop_operation_xyz
x,y,z
-x,-y,-z
loop_
_atom_site_type_symbol
_atom_site_label
_atom_site_fract_x
_atom_site_fract_y
_atom_site_fract_z
Si Si1 0.268089 0.701499 0.228844
Si Si2 0.191948 0.502980 0.512307
Si Si3 0.122628 0.136728 0.754581
Si Si4 0.458854 0.132970 0.164526
Si Si5 0.156716 0.272577 0.236920
Si Si6 0.462996 0.662638 0.711292
O O1 0.204206 0.644658 0.342383
O O2 0.331258 0.753404 0.437159
O O3 0.405846 0.479087 0.303139
O O4 0.168844 0.915324 0.895159
O O5 0.220501 0.344582 0.383113
O O6 0.039629 0.664399 0.422265
O O7 0.302557 0.359201 0.886843
O O8 0.161431 0.151715 0.510394
O O9 0.185486 0.169455 0.019806
O O10 0.548364 0.170641 0.234572
O O11 0.500000 0.000000 0.500000
O O12 0.500000 0.000000 0.000000
O O13 0.000000 0.500000 0.000000
O O14 0.500000 0.500000 0.000000
#
# Coordination Sequence:
#
# PCOD9048619 Si02
#       6
#     2   2   2   2   2   2
#     4  11  26  47  75 105 151 194 241 302 369 440
#     4  11  24  49  72 109 150 186 246 305 363 437
#     4  11  26  46  77 111 144 195 240 301 372 435
#     4  12  29  46  75 106 141 195 246 299 357 431
#     4  10  24  45  70 106 151 190 235 298 360 432
#     4  11  26  50  70 104 150 194 247 303 361 431
#
# _framework density 24.763354
#
# number of rings (size 3 to 8) (size 9 to 14) (size 15 to 20)
#    0.000    1.000    1.667    3.500    9.333    6.667 
#    0.000    5.000    0.000    0.000    0.000    0.000 
#    0.000    0.000    0.000    0.000    0.000    0.000 
#
# Total GULP energy -67165.017735 kJ/mol
# GULP energy per Si atom -5597.084811 kJ/mol
# Density = 2.470699 g / cm^3
# Si number density = 24.763354 Si / 1000 Ang^3
#
#
#
# Elastic Constant Matrix: (Units=GPa)
#
#
# Indices 1 2 3 4 5 6 
#
# 1 135.3818 60.7598 62.0709 2.2590 4.0070 20.7099
# 2 60.7598 109.4742 37.4092 3.8752 -15.9096 28.2462
# 3 62.0709 37.4092 158.4315 -6.9571 -18.0822 15.0543
# 4 2.2590 3.8752 -6.9571 48.4310 5.7653 -2.2161
# 5 4.0070 -15.9096 -18.0822 5.7653 42.2844 1.7503
# 6 20.7099 28.2462 15.0543 -2.2161 1.7503 39.4382
#
#
#
# Elastic Compliance Matrix: (Units=1/GPa)
#
#
# Indices 1 2 3 4 5 6 
#
# 1 0.012051 -0.006019 -0.003845 -0.000049 -0.005031 -0.000329
# 2 -0.006019 0.015776 0.000185 -0.002214 0.007246 -0.008655
# 3 -0.003845 0.000185 0.008403 0.000832 0.003974 -0.001450
# 4 -0.000049 -0.002214 0.000832 0.021486 -0.003512 0.002657
# 5 -0.005031 0.007246 0.003974 -0.003512 0.029261 -0.005561
# 6 -0.000329 -0.008655 -0.001450 0.002657 -0.005561 0.032678
#
#
# Mechanical properties :
#
#
# Convention : Reuss Voigt Hill
#
# Bulk Modulus (GPa) = 59.27005 80.41859 69.84432
# Shear Modulus (GPa) = 34.56947 42.23390 38.40168
#
# Velocity S-wave (km/s) = 3.74035 4.13425 3.94222
# Velocity P-wave (km/s) = 6.52995 7.43873 6.99910
#
# Compressibility (1/GPa) = 0.01687193
#
# Stress axis : x y z
#
# Youngs Moduli (GPa) = 82.98195 63.38583 119.01157
#
# Poissons Ratio (x) = 0.38151 0.45762
# Poissons Ratio (y) = 0.49946 -0.02203
# Poissons Ratio (z) = 0.31908 -0.01173
#
# Static dielectric constant tensor:
#      x y z
#    x 1.991190 -0.068320 0.242960 
#    y -0.068320 2.051450 -0.160440 
#    z 0.242960 -0.160440 2.430400 
# 
# From -- ./inp_files/89957.got.cif
#   From: 2010.05.17/outbox.cif.g08.bks.cpg/sg2_45_cif.got.tgz:89957.got - 2010.06.03 11:33:40.
