data_PCOD9048377
_publ_section_title
;
Structure prediction by ZEFSAII (Michael W. Deem and Ramdas Pophale) SiO2 
 PCOD9048377
Probable space group: P -1
;
_chemical_formula_sum "Si O2"
_cell_formula_units_Z 16
_cell_length_a 17.678710
_cell_length_b 5.177769
_cell_length_c 20.701424
_cell_angle_alpha 96.951539
_cell_angle_beta 19.652728
_cell_angle_gamma 101.725491
_cell_volume 609.593305
_symmetry_space_group_name_H-M "P -1"
_symmetry_group_IT_number 2
_symmetry_cell_setting 'triclinic'
loop_
_space_group_symop_operation_xyz
x,y,z
-x,-y,-z
loop_
_atom_site_type_symbol
_atom_site_label
_atom_site_fract_x
_atom_site_fract_y
_atom_site_fract_z
Si Si1 0.072114 0.659537 0.229353
Si Si2 0.268249 0.320940 0.284852
Si Si3 0.029243 0.260018 0.151127
Si Si4 0.083773 0.688514 0.540527
Si Si5 0.681398 0.899223 0.527271
Si Si6 0.524047 0.899953 0.050037
Si Si7 0.430961 0.704508 0.515369
Si Si8 0.239970 0.057439 0.852428
O O1 0.168255 0.503126 0.091354
O O2 0.089295 0.500805 0.275336
O O3 0.216392 0.967603 0.129753
O O4 0.802140 0.658747 0.437332
O O5 0.188436 0.470271 0.413440
O O6 0.376430 0.079983 0.210227
O O7 0.065315 0.210692 0.391520
O O8 0.434018 0.585401 0.124578
O O9 0.847960 0.049629 0.337969
O O10 0.847179 0.387148 0.264691
O O11 0.169821 0.143218 0.981934
O O12 0.258567 0.908684 0.451491
O O13 0.409860 0.858366 0.725113
O O14 0.500000 0.000000 0.000000
O O15 0.500000 0.500000 0.500000
O O16 0.575891 0.729013 0.333479
O O17 0.500000 0.000000 0.500000
O O18 0.000000 0.000000 0.000000
#
# Coordination Sequence:
#
# PCOD9048377 Si02
#       8
#     2   2   2   2   2   2   2   2
#     4  11  25  44  72  99 150 195 245 311 376 433
#     4  11  26  43  73 108 142 195 254 305 363 455
#     4  10  25  45  70 108 144 196 245 305 372 446
#     4  10  24  45  68 100 149 190 245 307 377 430
#     4  10  25  45  70 105 154 194 248 312 379 441
#     4  12  25  43  71 103 141 190 249 303 366 436
#     4  11  25  48  77 110 149 185 239 306 373 443
#     4  11  24  48  79 109 147 197 254 304 377 453
#
# _framework density 26.247008000000001
#
# number of rings (size 3 to 8) (size 9 to 14) (size 15 to 20)
#    0.000    1.250    2.500    1.125   10.500    1.500 
#    2.250    0.000    0.000    0.000    0.000    0.000 
#    0.000    0.000    0.000    0.000    0.000    0.000 
#
# Total GULP energy -89493.425632 kJ/mol
# GULP energy per Si atom -5593.339102 kJ/mol
# Density = 2.618727 g / cm^3
# Si number density = 26.247008 Si / 1000 Ang^3
#
#
#
# Elastic Constant Matrix: (Units=GPa)
#
#
# Indices 1 2 3 4 5 6 
#
# 1 113.8571 29.7638 62.1712 15.0985 5.6472 17.5659
# 2 29.7638 83.9855 39.7244 9.5378 3.5150 11.7168
# 3 62.1712 39.7244 156.0223 23.8433 -1.9659 8.8875
# 4 15.0985 9.5378 23.8433 50.4033 7.1097 -7.0029
# 5 5.6472 3.5150 -1.9659 7.1097 59.8617 10.7721
# 6 17.5659 11.7168 8.8875 -7.0029 10.7721 47.8747
#
#
#
# Elastic Compliance Matrix: (Units=1/GPa)
#
#
# Indices 1 2 3 4 5 6 
#
# 1 0.012196 -0.001742 -0.003927 -0.001912 -0.000315 -0.003528
# 2 -0.001742 0.014256 -0.002599 -0.001275 -0.000153 -0.002519
# 3 -0.003927 -0.002599 0.009105 -0.002852 0.001216 -0.000304
# 4 -0.001912 -0.001275 -0.002852 0.023320 -0.003647 0.005775
# 5 -0.000315 -0.000153 0.001216 -0.003647 0.018057 -0.004669
# 6 -0.003528 -0.002519 -0.000304 0.005775 -0.004669 0.024751
#
#
# Mechanical properties :
#
#
# Convention : Reuss Voigt Hill
#
# Bulk Modulus (GPa) = 52.57636 68.57597 60.57616
# Shear Modulus (GPa) = 40.14066 46.44162 43.29114
#
# Velocity S-wave (km/s) = 3.91492 4.21099 4.06565
# Velocity P-wave (km/s) = 6.36477 7.05884 6.72077
#
# Compressibility (1/GPa) = 0.01901995
#
# Stress axis : x y z
#
# Youngs Moduli (GPa) = 81.99204 70.14461 109.83561
#
# Poissons Ratio (x) = 0.12221 0.43135
# Poissons Ratio (y) = 0.14285 0.28548
# Poissons Ratio (z) = 0.32200 0.18232
#
# Static dielectric constant tensor:
#      x y z
#    x 2.118320 0.039300 -0.021320 
#    y 0.039300 2.081540 -0.000430 
#    z -0.021320 -0.000430 2.155830 
# 
# From -- ./inp_files/599022.got.cif
#   From: 2010.05.17/outbox.cif.g08.bks.cpg/sg2_300_cif.got.tgz:599022.got - 2010.06.03 11:33:40.
