data_PCOD9048671
_publ_section_title
;
Structure prediction by ZEFSAII (Michael W. Deem and Ramdas Pophale) SiO2 
 PCOD9048671
Probable space group: P -1
;
_chemical_formula_sum "Si O2"
_cell_formula_units_Z 14
_cell_length_a 11.703825
_cell_length_b 20.114960
_cell_length_c 11.640172
_cell_angle_alpha 139.862933
_cell_angle_beta 127.615732
_cell_angle_gamma 23.550716
_cell_volume 660.848808
_symmetry_space_group_name_H-M "P -1"
_symmetry_group_IT_number 2
_symmetry_cell_setting 'triclinic'
loop_
_space_group_symop_operation_xyz
x,y,z
-x,-y,-z
loop_
_atom_site_type_symbol
_atom_site_label
_atom_site_fract_x
_atom_site_fract_y
_atom_site_fract_z
Si Si1 0.794730 0.374227 0.558796
Si Si2 0.752785 0.962005 0.422612
Si Si3 0.705697 0.935376 0.726055
Si Si4 0.033394 0.878379 0.278290
Si Si5 0.697537 0.622872 0.999531
Si Si6 0.630915 0.599833 0.191940
Si Si7 0.793517 0.875874 0.971638
O O1 0.500000 0.500000 0.500000
O O2 0.021852 0.161940 0.496257
O O3 0.005722 0.277823 0.455544
O O4 0.699511 0.527931 0.785793
O O5 0.967801 0.831139 0.269912
O O6 0.573045 0.968939 0.336590
O O7 0.494310 0.212715 0.586443
O O8 0.787520 0.884997 0.843297
O O9 0.584770 0.123041 0.860978
O O10 0.351382 0.697499 0.171245
O O11 0.000000 0.000000 0.500000
O O12 0.808164 0.981440 0.175844
O O13 0.690612 0.586776 0.078002
O O14 0.000000 0.500000 0.000000
O O15 0.916251 0.372238 0.133158
O O16 0.500000 0.000000 0.000000
#
# Coordination Sequence:
#
# PCOD9048671 Si02
#       7
#     2   2   2   2   2   2   2
#     4  12  28  44  74 112 147 185 245 308 357 427
#     4  11  22  50  72 105 144 195 240 293 368 438
#     4  12  26  47  75 105 153 186 243 303 358 434
#     4  10  24  45  71 101 144 189 233 297 365 427
#     4  12  24  47  77 103 140 198 242 287 367 437
#     4  11  25  44  77 100 146 194 237 297 370 425
#     4  12  25  46  71 111 141 186 250 295 352 435
#
# _framework density 21.184877
#
# number of rings (size 3 to 8) (size 9 to 14) (size 15 to 20)
#    0.000    0.571    4.286    3.429    4.000    3.429 
#    2.571    0.000    0.000    0.000    0.000    0.000 
#    0.000    0.000    0.000    0.000    0.000    0.000 
#
# Total GULP energy -78215.411418 kJ/mol
# GULP energy per Si atom -5586.815101 kJ/mol
# Density = 2.113666 g / cm^3
# Si number density = 21.184877 Si / 1000 Ang^3
#
#
#
# Elastic Constant Matrix: (Units=GPa)
#
#
# Indices 1 2 3 4 5 6 
#
# 1 110.2738 45.6936 27.9876 10.1858 -40.4762 -11.6671
# 2 45.6936 129.5350 30.0487 -11.8446 -9.3832 -7.1069
# 3 27.9876 30.0487 77.9835 5.7337 2.2593 8.6306
# 4 10.1858 -11.8446 5.7337 26.9776 8.5987 1.3202
# 5 -40.4762 -9.3832 2.2593 8.5987 53.5117 -1.3407
# 6 -11.6671 -7.1069 8.6306 1.3202 -1.3407 48.3452
#
#
#
# Elastic Compliance Matrix: (Units=1/GPa)
#
#
# Indices 1 2 3 4 5 6 
#
# 1 0.022052 -0.006273 -0.005552 -0.016128 0.018565 0.006346
# 2 -0.006273 0.011076 -0.002588 0.009093 -0.004149 0.000213
# 3 -0.005552 -0.002588 0.016545 -0.000609 -0.005374 -0.004806
# 4 -0.016128 0.009093 -0.000609 0.053652 -0.019312 -0.004447
# 5 0.018565 -0.004149 -0.005374 -0.019312 0.035492 0.006341
# 6 0.006346 0.000213 -0.004806 -0.004447 0.006341 0.023403
#
#
# Mechanical properties :
#
#
# Convention : Reuss Voigt Hill
#
# Bulk Modulus (GPa) = 47.96728 58.36135 53.16431
# Shear Modulus (GPa) = 25.25312 40.03771 32.64542
#
# Velocity S-wave (km/s) = 3.45633 4.35204 3.92979
# Velocity P-wave (km/s) = 6.21447 7.27063 6.76320
#
# Compressibility (1/GPa) = 0.02084754
#
# Stress axis : x y z
#
# Youngs Moduli (GPa) = 45.34678 90.28723 60.43967
#
# Poissons Ratio (x) = 0.56636 0.33554
# Poissons Ratio (y) = 0.28446 0.15644
# Poissons Ratio (z) = 0.25175 0.23370
#
# Static dielectric constant tensor:
#      x y z
#    x 1.777160 0.017400 0.020120 
#    y 0.017400 1.737240 0.016510 
#    z 0.020120 0.016510 1.832060 
# 
# From -- ./inp_files/241144.got.cif
#   From: 2010.05.17/outbox.cif.g08.bks.cpg/sg2_121_cif.got.tgz:241144.got - 2010.06.03 11:33:40.
