data_PCOD9048858
_publ_section_title
;
Structure prediction by ZEFSAII (Michael W. Deem and Ramdas Pophale) SiO2 
 PCOD9048858
Probable space group: P -1
;
_chemical_formula_sum "Si O2"
_cell_formula_units_Z 14
_cell_length_a 9.830427
_cell_length_b 14.879612
_cell_length_c 14.905761
_cell_angle_alpha 160.527319
_cell_angle_beta 99.479379
_cell_angle_gamma 71.027074
_cell_volume 613.842361
_symmetry_space_group_name_H-M "P -1"
_symmetry_group_IT_number 2
_symmetry_cell_setting 'triclinic'
loop_
_space_group_symop_operation_xyz
x,y,z
-x,-y,-z
loop_
_atom_site_type_symbol
_atom_site_label
_atom_site_fract_x
_atom_site_fract_y
_atom_site_fract_z
Si Si1 0.456169 0.417863 0.513107
Si Si2 0.908447 0.557912 0.282754
Si Si3 0.606214 0.716099 0.921948
Si Si4 0.087428 0.636818 0.695633
Si Si5 0.674440 0.437507 0.845786
Si Si6 0.386586 0.334946 0.757693
Si Si7 0.911593 0.097449 0.402690
O O1 0.500000 0.500000 0.500000
O O2 0.475744 0.631920 0.792198
O O3 0.276118 0.486109 0.555963
O O4 0.571740 0.045282 0.191830
O O5 0.926195 0.445088 0.280244
O O6 0.732276 0.660159 0.324117
O O7 0.943832 0.834743 0.527118
O O8 0.035732 0.244806 0.948047
O O9 0.623758 0.721921 0.037459
O O10 0.771812 0.395350 0.611222
O O11 0.000000 0.500000 0.500000
O O12 0.000000 0.000000 0.000000
O O13 0.512567 0.424145 0.818950
O O14 0.826544 0.157654 0.547102
O O15 0.713631 0.462305 0.975685
O O16 0.500000 0.000000 0.500000
#
# Coordination Sequence:
#
# PCOD9048858 Si02
#       7
#     2   2   2   2   2   2   2
#     4  12  26  45  78 103 140 194 245 292 366 431
#     4  12  27  47  73 106 144 195 236 300 376 422
#     4  10  24  45  74 102 144 184 246 294 349 436
#     4  12  29  47  72 106 149 184 239 305 362 427
#     4   9  25  44  72 102 144 189 237 298 358 420
#     4  11  26  45  75 107 150 186 247 304 359 443
#     4  10  26  45  76  99 146 191 241 293 355 439
#
# _framework density 22.807158999999999
#
# number of rings (size 3 to 8) (size 9 to 14) (size 15 to 20)
#    0.857    0.286    0.000    3.857   16.000    1.143 
#    0.000    0.000    0.000    0.000    0.000    0.000 
#    0.000    0.000    0.000    0.000    0.000    0.000 
#
# Total GULP energy -78272.974969 kJ/mol
# GULP energy per Si atom -5590.926784 kJ/mol
# Density = 2.275525 g / cm^3
# Si number density = 22.807159 Si / 1000 Ang^3
#
#
#
# Elastic Constant Matrix: (Units=GPa)
#
#
# Indices 1 2 3 4 5 6 
#
# 1 71.1124 31.8938 0.0876 -18.0364 6.9833 -3.0973
# 2 31.8938 128.9770 23.6837 -4.0875 8.8653 -1.9565
# 3 0.0876 23.6837 71.3889 13.9846 12.0193 4.7643
# 4 -18.0364 -4.0875 13.9846 40.6204 -0.2004 0.3156
# 5 6.9833 8.8653 12.0193 -0.2004 37.3862 -7.3810
# 6 -3.0973 -1.9565 4.7643 0.3156 -7.3810 42.0647
#
#
#
# Elastic Compliance Matrix: (Units=1/GPa)
#
#
# Indices 1 2 3 4 5 6 
#
# 1 0.018061 -0.004098 0.000208 0.007519 -0.002299 0.000656
# 2 -0.004098 0.009375 -0.003107 0.000188 -0.000375 0.000419
# 3 0.000208 -0.003107 0.017386 -0.006210 -0.005521 -0.003021
# 4 0.007519 0.000188 -0.006210 0.030109 0.000947 0.001206
# 5 -0.002299 -0.000375 -0.005521 0.000947 0.030177 0.005727
# 6 0.000656 0.000419 -0.003021 0.001206 0.005727 0.025179
#
#
# Mechanical properties :
#
#
# Convention : Reuss Voigt Hill
#
# Bulk Modulus (GPa) = 32.43833 42.53429 37.48631
# Shear Modulus (GPa) = 32.35033 38.40181 35.37607
#
# Velocity S-wave (km/s) = 3.77029 4.10782 3.94267
# Velocity P-wave (km/s) = 5.76257 6.41786 6.09902
#
# Compressibility (1/GPa) = 0.03082773
#
# Stress axis : x y z
#
# Youngs Moduli (GPa) = 55.36644 106.66260 57.51803
#
# Poissons Ratio (x) = 0.43712 -0.01195
# Poissons Ratio (y) = 0.22690 0.17871
# Poissons Ratio (z) = -0.01150 0.33140
#
# Static dielectric constant tensor:
#      x y z
#    x 1.789630 -0.072340 -0.042580 
#    y -0.072340 1.767330 -0.025000 
#    z -0.042580 -0.025000 1.879850 
# 
# From -- ./inp_files/522046.got.cif
#   From: 2010.05.17/outbox.cif.g08.bks.cpg/sg2_262_cif.got.tgz:522046.got - 2010.06.03 11:33:40.
