data_PCOD9048195
_publ_section_title
;
Structure prediction by ZEFSAII (Michael W. Deem and Ramdas Pophale) SiO2 
 PCOD9048195
Probable space group: P -1
;
_chemical_formula_sum "Si O2"
_cell_formula_units_Z 15
_cell_length_a 9.024912
_cell_length_b 19.722456
_cell_length_c 14.193279
_cell_angle_alpha 148.223387
_cell_angle_beta 130.203919
_cell_angle_gamma 30.298848
_cell_volume 632.876260
_symmetry_space_group_name_H-M "P -1"
_symmetry_group_IT_number 2
_symmetry_cell_setting 'triclinic'
loop_
_space_group_symop_operation_xyz
x,y,z
-x,-y,-z
loop_
_atom_site_type_symbol
_atom_site_label
_atom_site_fract_x
_atom_site_fract_y
_atom_site_fract_z
Si Si1 0.041597 0.124219 0.705577
Si Si2 0.813143 0.283287 0.002935
Si Si3 0.779909 0.138940 0.279160
Si Si4 0.819216 0.461538 0.870114
Si Si5 0.189812 0.530789 0.618743
Si Si6 0.301147 0.090291 0.263474
Si Si7 0.169824 0.161019 0.504032
Si Si8 0.000000 0.000000 0.000000
O O1 0.963381 0.270741 0.767084
O O2 0.389549 0.986550 0.719849
O O3 0.000000 0.000000 0.500000
O O4 0.821421 0.264599 0.871883
O O5 0.534666 0.351382 0.020755
O O6 0.769667 0.443371 0.226334
O O7 0.141775 0.050565 0.894758
O O8 0.490521 0.344509 0.459871
O O9 0.066153 0.067659 0.357840
O O10 0.806343 0.146469 0.187934
O O11 0.892377 0.382157 0.700556
O O12 0.000000 0.500000 0.000000
O O13 0.000000 0.500000 0.500000
O O14 0.979264 0.745010 0.731575
O O15 0.202726 0.185772 0.439499
O O16 0.307242 0.932199 0.079732
O O17 0.500000 0.000000 0.500000
#
# Coordination Sequence:
#
# PCOD9048195 Si02
#       8
#     2   2   2   2   2   2   2   1
#     4  12  29  50  79 112 161 208 259 326 404 472
#     4  12  27  49  77 109 159 205 254 322 393 468
#     4  11  24  47  74 105 157 192 253 322 378 460
#     4  12  27  46  76 114 150 201 264 321 387 466
#     4  12  28  46  72 110 150 205 257 303 387 470
#     4  11  26  46  77 109 151 200 257 319 385 466
#     4  11  22  45  75 107 146 193 253 321 387 447
#     4  10  24  44  76 108 144 196 256 308 388 442
#
# _framework density 23.701315999999998
#
# number of rings (size 3 to 8) (size 9 to 14) (size 15 to 20)
#    0.000    0.533    4.000    2.800    7.467    5.333 
#    0.000    0.000    0.000    0.000    0.000    0.000 
#    0.000    0.000    0.000    0.000    0.000    0.000 
#
# Total GULP energy -83517.858761 kJ/mol
# GULP energy per Si atom -5567.857251 kJ/mol
# Density = 2.364737 g / cm^3
# Si number density = 23.701316 Si / 1000 Ang^3
#
#
#
# Elastic Constant Matrix: (Units=GPa)
#
#
# Indices 1 2 3 4 5 6 
#
# 1 110.8079 34.2160 69.9833 -23.3808 -22.6105 -21.9697
# 2 34.2160 75.6858 49.0439 -12.7590 -12.8421 -24.6984
# 3 69.9833 49.0439 185.0859 -32.0213 -37.1983 -20.6310
# 4 -23.3808 -12.7590 -32.0213 48.6322 1.6686 5.1279
# 5 -22.6105 -12.8421 -37.1983 1.6686 52.8699 -2.0289
# 6 -21.9697 -24.6984 -20.6310 5.1279 -2.0289 46.2689
#
#
#
# Elastic Compliance Matrix: (Units=1/GPa)
#
#
# Indices 1 2 3 4 5 6 
#
# 1 0.013684 -0.001794 -0.002948 0.003632 0.003380 0.003971
# 2 -0.001794 0.019052 -0.002809 0.001368 0.002148 0.008008
# 3 -0.002948 -0.002809 0.008776 0.003395 0.004156 0.000820
# 4 0.003632 0.001368 0.003395 0.024634 0.003550 0.001394
# 5 0.003380 0.002148 0.004156 0.003550 0.023895 0.005259
# 6 0.003971 0.008008 0.000820 0.001394 0.005259 0.028215
#
#
# Mechanical properties :
#
#
# Convention : Reuss Voigt Hill
#
# Bulk Modulus (GPa) = 37.86551 75.34066 56.60308
# Shear Modulus (GPa) = 35.17097 44.10996 39.64047
#
# Velocity S-wave (km/s) = 3.85635 4.31870 4.09406
# Velocity P-wave (km/s) = 5.98660 7.53159 6.80309
#
# Compressibility (1/GPa) = 0.02640926
#
# Stress axis : x y z
#
# Youngs Moduli (GPa) = 73.07745 52.48707 113.94734
#
# Poissons Ratio (x) = 0.09417 0.33597
# Poissons Ratio (y) = 0.13112 0.32007
# Poissons Ratio (z) = 0.21547 0.14743
#
# Static dielectric constant tensor:
#      x y z
#    x 2.036730 0.015170 0.067270 
#    y 0.015170 1.911930 -0.025040 
#    z 0.067270 -0.025040 1.894290 
# 
# From -- ./inp_files/508155.got.cif
#   From: 2010.05.17/outbox.cif.g08.bks.cpg/sg2_255_cif.got.tgz:508155.got - 2010.06.03 11:33:40.
