data_PCOD9048842
_publ_section_title
;
Structure prediction by ZEFSAII (Michael W. Deem and Ramdas Pophale) SiO2 
 PCOD9048842
Probable space group: P -1
;
_chemical_formula_sum "Si O2"
_cell_formula_units_Z 15
_cell_length_a 5.093595
_cell_length_b 6.554340
_cell_length_c 21.242213
_cell_angle_alpha 102.733830
_cell_angle_beta 121.232524
_cell_angle_gamma 100.591426
_cell_volume 552.410231
_symmetry_space_group_name_H-M "P -1"
_symmetry_group_IT_number 2
_symmetry_cell_setting 'triclinic'
loop_
_space_group_symop_operation_xyz
x,y,z
-x,-y,-z
loop_
_atom_site_type_symbol
_atom_site_label
_atom_site_fract_x
_atom_site_fract_y
_atom_site_fract_z
Si Si1 0.664602 0.667919 0.591389
Si Si2 0.000000 0.000000 0.000000
Si Si3 0.113648 0.956642 0.444921
Si Si4 0.434239 0.673719 0.193115
Si Si5 0.112029 0.464970 0.684072
Si Si6 0.369527 0.422053 0.047320
Si Si7 0.342678 0.106732 0.269071
Si Si8 0.878631 0.204591 0.130585
O O1 0.500000 0.500000 0.500000
O O2 0.560761 0.816920 0.641055
O O3 0.781186 0.514423 0.642623
O O4 0.926034 0.871558 0.599572
O O5 0.921825 0.051224 0.069409
O O6 0.999535 0.747987 0.003270
O O7 0.918724 0.699821 0.388722
O O8 0.500000 0.000000 0.500000
O O9 0.000000 0.000000 0.500000
O O10 0.786051 0.662328 0.256763
O O11 0.445495 0.624873 0.117933
O O12 0.134371 0.456060 0.166706
O O13 0.374249 0.880377 0.231900
O O14 0.397159 0.698905 0.726186
O O15 0.520154 0.233393 0.083977
O O16 0.500000 0.500000 0.000000
O O17 0.990765 0.120388 0.203731
#
# Coordination Sequence:
#
# PCOD9048842 Si02
#       8
#     2   1   2   2   2   2   2   2
#     4  12  26  45  74 108 143 199 254 312 392 465
#     4  10  24  46  72 112 152 192 252 312 374 466
#     4  12  28  47  77 111 155 195 257 328 396 476
#     4  10  25  46  72 110 149 196 254 315 381 463
#     4  11  25  46  72 103 150 193 253 316 389 460
#     4  11  25  46  78 109 151 203 252 312 391 465
#     4  11  26  46  77 105 148 198 253 320 386 461
#     4  10  24  45  73 110 151 194 252 309 384 453
#
# _framework density 27.153731000000001
#
# number of rings (size 3 to 8) (size 9 to 14) (size 15 to 20)
#    0.000    1.067    1.333    2.800    7.467    5.333 
#    2.400    0.000    0.000    0.000    0.000    0.000 
#    0.000    0.000    0.000    0.000    0.000    0.000 
#
# Total GULP energy -83676.004114 kJ/mol
# GULP energy per Si atom -5578.400274 kJ/mol
# Density = 2.709193 g / cm^3
# Si number density = 27.153731 Si / 1000 Ang^3
#
#
#
# Elastic Constant Matrix: (Units=GPa)
#
#
# Indices 1 2 3 4 5 6 
#
# 1 101.7023 30.0986 67.0737 -13.3035 -32.7519 -30.0594
# 2 30.0986 126.7453 75.1018 28.2124 -12.8028 -13.9055
# 3 67.0737 75.1018 179.3359 16.6219 -32.9291 -48.3889
# 4 -13.3035 28.2124 16.6219 67.1871 -15.1695 1.0025
# 5 -32.7519 -12.8028 -32.9291 -15.1695 57.6054 -1.7491
# 6 -30.0594 -13.9055 -48.3889 1.0025 -1.7491 36.8026
#
#
#
# Elastic Compliance Matrix: (Units=1/GPa)
#
#
# Indices 1 2 3 4 5 6 
#
# 1 0.021695 -0.003664 -0.000454 0.008887 0.014093 0.016167
# 2 -0.003664 0.012181 -0.005537 -0.005314 -0.004115 -0.005722
# 3 -0.000454 -0.005537 0.013495 0.000188 0.006748 0.015596
# 4 0.008887 -0.005314 0.000188 0.020928 0.009654 0.005387
# 5 0.014093 -0.004115 0.006748 0.009654 0.031466 0.020061
# 6 0.016167 -0.005722 0.015596 0.005387 0.020061 0.059527
#
#
# Mechanical properties :
#
#
# Convention : Reuss Voigt Hill
#
# Bulk Modulus (GPa) = 35.63830 83.59240 59.61535
# Shear Modulus (GPa) = 26.60208 48.01966 37.31087
#
# Velocity S-wave (km/s) = 3.13339 4.20984 3.71085
# Velocity P-wave (km/s) = 5.12288 7.38120 6.35319
#
# Compressibility (1/GPa) = 0.02805970
#
# Stress axis : x y z
#
# Youngs Moduli (GPa) = 46.09259 82.09797 74.10416
#
# Poissons Ratio (x) = 0.30083 0.03363
# Poissons Ratio (y) = 0.16889 0.41034
# Poissons Ratio (z) = 0.02092 0.45461
#
# Static dielectric constant tensor:
#      x y z
#    x 1.827720 -0.247800 -0.133160 
#    y -0.247800 2.070160 -0.223010 
#    z -0.133160 -0.223010 2.045110 
# 
# From -- ./inp_files/581202.got.cif
#   From: 2010.05.17/outbox.cif.g08.bks.cpg/sg2_291_cif.got.tgz:581202.got - 2010.06.03 11:33:40.
