data_PCOD9048700
_publ_section_title
;
Structure prediction by ZEFSAII (Michael W. Deem and Ramdas Pophale) SiO2 
 PCOD9048700
Probable space group: P -1
;
_chemical_formula_sum "Si O2"
_cell_formula_units_Z 14
_cell_length_a 13.400028
_cell_length_b 5.340148
_cell_length_c 11.329628
_cell_angle_alpha 128.433207
_cell_angle_beta 117.606763
_cell_angle_gamma 88.617932
_cell_volume 520.499612
_symmetry_space_group_name_H-M "P -1"
_symmetry_group_IT_number 2
_symmetry_cell_setting 'triclinic'
loop_
_space_group_symop_operation_xyz
x,y,z
-x,-y,-z
loop_
_atom_site_type_symbol
_atom_site_label
_atom_site_fract_x
_atom_site_fract_y
_atom_site_fract_z
Si Si1 0.691076 0.771012 0.734295
Si Si2 0.059963 0.414565 0.623422
Si Si3 0.385520 0.172454 0.888092
Si Si4 0.243764 0.144389 0.580043
Si Si5 0.004282 0.641413 0.178802
Si Si6 0.233373 0.416681 0.047729
Si Si7 0.430706 0.550798 0.648454
O O1 0.774012 0.677785 0.846319
O O2 0.558586 0.635548 0.683035
O O3 0.670307 0.549006 0.539581
O O4 0.730572 0.175354 0.841801
O O5 0.197304 0.457238 0.677039
O O6 0.038562 0.573464 0.783465
O O7 0.000000 0.500000 0.500000
O O8 0.000000 0.000000 0.500000
O O9 0.273269 0.049565 0.697528
O O10 0.432710 0.865364 0.820052
O O11 0.500000 0.500000 0.000000
O O12 0.333066 0.292346 0.008256
O O13 0.371843 0.227874 0.607699
O O14 0.138359 0.900655 0.364689
O O15 0.894974 0.777378 0.142995
O O16 0.000000 0.500000 0.000000
#
# Coordination Sequence:
#
# PCOD9048700 Si02
#       7
#     2   2   2   2   2   2   2
#     4  11  28  50  76 114 161 205 262 331 398 472
#     4  10  24  45  71 105 150 201 255 315 381 462
#     4  12  26  47  76 112 152 203 264 320 391 464
#     4  11  26  46  73 110 155 204 260 326 392 472
#     4  11  26  49  80 114 160 210 268 327 404 478
#     4  12  27  50  77 115 160 205 264 324 395 475
#     4  11  27  45  81 110 156 210 263 328 403 469
#
# _framework density 26.897234999999998
#
# number of rings (size 3 to 8) (size 9 to 14) (size 15 to 20)
#    0.000    0.857    2.857    1.714   10.000    4.571 
#    0.000    4.286    0.000    0.000    0.000    0.000 
#    0.000    0.000    0.000    0.000    0.000    0.000 
#
# Total GULP energy -78249.331026 kJ/mol
# GULP energy per Si atom -5589.237930 kJ/mol
# Density = 2.683602 g / cm^3
# Si number density = 26.897235 Si / 1000 Ang^3
#
#
#
# Elastic Constant Matrix: (Units=GPa)
#
#
# Indices 1 2 3 4 5 6 
#
# 1 97.9348 7.4556 31.4388 7.7180 -19.9839 10.7870
# 2 7.4556 125.8579 65.7237 -25.2076 -13.7237 14.6854
# 3 31.4388 65.7237 196.5549 -31.9169 -14.9192 12.2551
# 4 7.7180 -25.2076 -31.9169 62.2665 9.5918 -0.4536
# 5 -19.9839 -13.7237 -14.9192 9.5918 52.1775 -8.0089
# 6 10.7870 14.6854 12.2551 -0.4536 -8.0089 38.0767
#
#
#
# Elastic Compliance Matrix: (Units=1/GPa)
#
#
# Indices 1 2 3 4 5 6 
#
# 1 0.012254 0.000509 -0.002170 -0.003128 0.004464 -0.002068
# 2 0.000509 0.010386 -0.002881 0.002459 0.001200 -0.002941
# 3 -0.002170 -0.002881 0.006842 0.002636 -0.000192 -0.000485
# 4 -0.003128 0.002459 0.002636 0.019334 -0.003572 -0.001431
# 5 0.004464 0.001200 -0.000192 -0.003572 0.022249 0.002971
# 6 -0.002068 -0.002941 -0.000485 -0.001431 0.002971 0.028747
#
#
# Mechanical properties :
#
#
# Convention : Reuss Voigt Hill
#
# Bulk Modulus (GPa) = 49.02487 69.95373 59.48930
# Shear Modulus (GPa) = 43.21730 51.55278 47.38504
#
# Velocity S-wave (km/s) = 4.01279 4.38271 4.20182
# Velocity P-wave (km/s) = 6.30367 7.18854 6.76060
#
# Compressibility (1/GPa) = 0.02039781
#
# Stress axis : x y z
#
# Youngs Moduli (GPa) = 81.60565 96.28329 146.16248
#
# Poissons Ratio (x) = -0.04901 0.31723
# Poissons Ratio (y) = -0.04154 0.42103
# Poissons Ratio (z) = 0.17712 0.27735
#
# Static dielectric constant tensor:
#      x y z
#    x 2.191360 0.043020 0.006140 
#    y 0.043020 2.155180 0.065670 
#    z 0.006140 0.065670 2.165350 
# 
# From -- ./inp_files/442341.got.cif
#   From: 2010.05.17/outbox.cif.g08.bks.cpg/sg2_222_cif.got.tgz:442341.got - 2010.06.03 11:33:40.
