data_PCOD9048279
_publ_section_title
;
Structure prediction by ZEFSAII (Michael W. Deem and Ramdas Pophale) SiO2 
 PCOD9048279
Probable space group: P -1
;
_chemical_formula_sum "Si O2"
_cell_formula_units_Z 14
_cell_length_a 16.332260
_cell_length_b 6.775003
_cell_length_c 7.528772
_cell_angle_alpha 121.197457
_cell_angle_beta 114.253964
_cell_angle_gamma 69.761954
_cell_volume 640.159073
_symmetry_space_group_name_H-M "P -1"
_symmetry_group_IT_number 2
_symmetry_cell_setting 'triclinic'
loop_
_space_group_symop_operation_xyz
x,y,z
-x,-y,-z
loop_
_atom_site_type_symbol
_atom_site_label
_atom_site_fract_x
_atom_site_fract_y
_atom_site_fract_z
Si Si1 0.394317 0.638336 0.813730
Si Si2 0.550489 0.210992 0.702717
Si Si3 0.145930 0.548767 0.059038
Si Si4 0.059138 0.663133 0.527029
Si Si5 0.966550 0.820726 0.140283
Si Si6 0.233791 0.389528 0.684020
Si Si7 0.290463 0.838977 0.465163
O O1 0.482458 0.458860 0.742071
O O2 0.327938 0.478472 0.771091
O O3 0.342667 0.774850 0.666713
O O4 0.421321 0.802899 0.070987
O O5 0.637251 0.204135 0.650835
O O6 0.500000 0.000000 0.500000
O O7 0.214179 0.680091 0.289277
O O8 0.049412 0.726571 0.038697
O O9 0.245848 0.111093 0.553183
O O10 0.116975 0.319385 0.017302
O O11 0.159713 0.516097 0.538341
O O12 0.000000 0.500000 0.500000
O O13 0.011693 0.738859 0.333562
O O14 0.062603 0.903816 0.746125
O O15 0.192676 0.472004 0.877712
#
# Coordination Sequence:
#
# PCOD9048279 Si02
#       7
#     2   2   2   2   2   2   2
#     4  11  26  47  74 104 143 183 232 291 348 430
#     4  11  24  50  74 108 139 183 236 284 356 428
#     4  11  24  45  66 102 140 186 236 291 346 419
#     4  11  22  43  70  95 139 189 233 300 345 409
#     4  10  24  45  65  99 142 186 245 285 354 412
#     4  12  25  44  68 107 141 182 245 287 350 427
#     4  12  26  48  73 105 147 187 229 294 357 419
#
# _framework density 21.869562999999999
#
# number of rings (size 3 to 8) (size 9 to 14) (size 15 to 20)
#    0.000    0.857    4.286    2.143    4.000    2.286 
#   10.286    0.000    0.000    0.000    0.000    0.000 
#    0.000    0.000    0.000    0.000    0.000    0.000 
#
# Total GULP energy -78389.411770 kJ/mol
# GULP energy per Si atom -5599.243698 kJ/mol
# Density = 2.181979 g / cm^3
# Si number density = 21.869563 Si / 1000 Ang^3
#
#
#
# Elastic Constant Matrix: (Units=GPa)
#
#
# Indices 1 2 3 4 5 6 
#
# 1 117.4315 55.6666 44.0431 11.1094 -16.0221 -13.2932
# 2 55.6666 138.7209 80.2863 13.7249 -12.5890 -15.4911
# 3 44.0431 80.2863 157.5516 23.7000 -3.5358 -2.5520
# 4 11.1094 13.7249 23.7000 36.0811 1.9658 -2.3858
# 5 -16.0221 -12.5890 -3.5358 1.9658 37.8311 0.6831
# 6 -13.2932 -15.4911 -2.5520 -2.3858 0.6831 23.5188
#
#
#
# Elastic Compliance Matrix: (Units=1/GPa)
#
#
# Indices 1 2 3 4 5 6 
#
# 1 0.011529 -0.002859 -0.001390 -0.001477 0.003802 0.004222
# 2 -0.002859 0.012294 -0.005313 -0.000045 0.002281 0.005834
# 3 -0.001390 -0.005313 0.010006 -0.004300 -0.001133 -0.003603
# 4 -0.001477 -0.000045 -0.004300 0.031286 -0.002703 0.001921
# 5 0.003802 0.002281 -0.001133 -0.002703 0.028793 0.002417
# 6 0.004222 0.005834 -0.003603 0.001921 0.002417 0.048482
#
#
# Mechanical properties :
#
#
# Convention : Reuss Voigt Hill
#
# Bulk Modulus (GPa) = 68.00731 85.96622 76.98677
# Shear Modulus (GPa) = 30.04516 35.06674 32.55595
#
# Velocity S-wave (km/s) = 3.71055 4.00865 3.86248
# Velocity P-wave (km/s) = 7.03718 7.79870 7.42770
#
# Compressibility (1/GPa) = 0.01470430
#
# Stress axis : x y z
#
# Youngs Moduli (GPa) = 86.74082 81.33990 99.93736
#
# Poissons Ratio (x) = 0.23257 0.13890
# Poissons Ratio (y) = 0.24802 0.53099
# Poissons Ratio (z) = 0.12056 0.43218
#
# Static dielectric constant tensor:
#      x y z
#    x 1.807150 0.010720 -0.006040 
#    y 0.010720 1.768200 -0.014400 
#    z -0.006040 -0.014400 1.825110 
# 
# From -- ./inp_files/324187.got.cif
#   From: 2010.05.17/outbox.cif.g08.bks.cpg/sg2_163_cif.got.tgz:324187.got - 2010.06.03 11:33:40.
