data_PCOD9048407
_publ_section_title
;
Structure prediction by ZEFSAII (Michael W. Deem and Ramdas Pophale) SiO2 
 PCOD9048407
Probable space group: P -1
;
_chemical_formula_sum "Si O2"
_cell_formula_units_Z 14
_cell_length_a 9.827822
_cell_length_b 7.994750
_cell_length_c 8.758256
_cell_angle_alpha 86.368668
_cell_angle_beta 57.485232
_cell_angle_gamma 85.067828
_cell_volume 578.011323
_symmetry_space_group_name_H-M "P -1"
_symmetry_group_IT_number 2
_symmetry_cell_setting 'triclinic'
loop_
_space_group_symop_operation_xyz
x,y,z
-x,-y,-z
loop_
_atom_site_type_symbol
_atom_site_label
_atom_site_fract_x
_atom_site_fract_y
_atom_site_fract_z
Si Si1 0.915152 0.677918 0.499666
Si Si2 0.424447 0.684671 0.557703
Si Si3 0.752516 0.848015 0.344372
Si Si4 0.656641 0.689808 0.917148
Si Si5 0.684237 0.322177 0.027341
Si Si6 0.131503 0.854754 0.573662
Si Si7 0.167768 0.039496 0.042121
O O1 0.859887 0.691476 0.357308
O O2 0.755399 0.694728 0.699807
O O3 0.000000 0.500000 0.500000
O O4 0.042174 0.811371 0.474347
O O5 0.500000 0.500000 0.500000
O O6 0.568950 0.805976 0.431995
O O7 0.370026 0.704700 0.764323
O O8 0.269428 0.714236 0.541842
O O9 0.826959 0.920134 0.142684
O O10 0.772617 0.979066 0.463587
O O11 0.468092 0.687699 0.993565
O O12 0.724267 0.517317 0.970912
O O13 0.688477 0.856630 0.981517
O O14 0.805601 0.159774 0.933862
O O15 0.987577 0.874987 0.783233
#
# Coordination Sequence:
#
# PCOD9048407 Si02
#       7
#     2   2   2   2   2   2   2
#     4  11  25  45  68 104 143 186 230 296 363 419
#     4  12  25  44  71 106 143 185 236 296 355 426
#     4  12  24  46  71 104 141 185 236 293 357 423
#     4  10  24  45  68 105 142 187 239 292 353 436
#     4  11  23  45  72 103 142 190 240 289 361 427
#     4  11  26  45  71 105 140 186 240 289 360 425
#     4  11  25  46  75 102 142 187 244 295 357 418
#
# _framework density 24.220977000000001
#
# number of rings (size 3 to 8) (size 9 to 14) (size 15 to 20)
#    0.000    0.857    2.857    3.429    2.000    0.000 
#    0.000    3.571    0.000    0.000    0.000    0.000 
#    0.000    0.000    0.000    0.000    0.000    0.000 
#
# Total GULP energy -78352.393178 kJ/mol
# GULP energy per Si atom -5596.599513 kJ/mol
# Density = 2.416585 g / cm^3
# Si number density = 24.220977 Si / 1000 Ang^3
#
#
#
# Elastic Constant Matrix: (Units=GPa)
#
#
# Indices 1 2 3 4 5 6 
#
# 1 104.0517 14.3748 19.8946 6.9062 -7.8352 -18.8826
# 2 14.3748 93.0818 17.6929 4.6036 -9.6238 -22.4068
# 3 19.8946 17.6929 112.6328 -11.5679 2.9705 -17.5720
# 4 6.9062 4.6036 -11.5679 32.2401 0.0418 2.0923
# 5 -7.8352 -9.6238 2.9705 0.0418 29.5889 -4.7670
# 6 -18.8826 -22.4068 -17.5720 2.0923 -4.7670 54.7352
#
#
#
# Elastic Compliance Matrix: (Units=1/GPa)
#
#
# Indices 1 2 3 4 5 6 
#
# 1 0.011131 0.000082 -0.001834 -0.003302 0.003766 0.003739
# 2 0.000082 0.013033 -0.001649 -0.002828 0.005301 0.005404
# 3 -0.001834 -0.001649 0.010195 0.004182 -0.001786 0.001650
# 4 -0.003302 -0.002828 0.004182 0.033793 -0.002661 -0.002478
# 5 0.003766 0.005301 -0.001786 -0.002661 0.037713 0.006282
# 6 0.003739 0.005404 0.001650 -0.002478 0.006282 0.022943
#
#
# Mechanical properties :
#
#
# Convention : Reuss Voigt Hill
#
# Bulk Modulus (GPa) = 36.28738 45.96565 41.12651
# Shear Modulus (GPa) = 34.53135 40.49976 37.51556
#
# Velocity S-wave (km/s) = 3.77991 4.09356 3.93986
# Velocity P-wave (km/s) = 5.83649 6.43131 6.14111
#
# Compressibility (1/GPa) = 0.02755779
#
# Stress axis : x y z
#
# Youngs Moduli (GPa) = 89.83785 76.72994 98.08358
#
# Poissons Ratio (x) = -0.00632 0.17990
# Poissons Ratio (y) = -0.00740 0.16173
# Poissons Ratio (z) = 0.16477 0.12652
#
# Static dielectric constant tensor:
#      x y z
#    x 1.961340 -0.020520 -0.017860 
#    y -0.020520 2.057730 -0.082230 
#    z -0.017860 -0.082230 2.102330 
# 
# From -- ./inp_files/157870.got.cif
#   From: 2010.05.17/outbox.cif.g08.bks.cpg/sg2_79_cif.got.tgz:157870.got - 2010.06.03 11:33:40.
