data_PCOD9048789
_publ_section_title
;
Structure prediction by ZEFSAII (Michael W. Deem and Ramdas Pophale) SiO2 
 PCOD9048789
Probable space group: P -1
;
_chemical_formula_sum "Si O2"
_cell_formula_units_Z 15
_cell_length_a 8.027095
_cell_length_b 12.653312
_cell_length_c 10.142688
_cell_angle_alpha 32.527194
_cell_angle_beta 91.139124
_cell_angle_gamma 96.223826
_cell_volume 545.713736
_symmetry_space_group_name_H-M "P -1"
_symmetry_group_IT_number 2
_symmetry_cell_setting 'triclinic'
loop_
_space_group_symop_operation_xyz
x,y,z
-x,-y,-z
loop_
_atom_site_type_symbol
_atom_site_label
_atom_site_fract_x
_atom_site_fract_y
_atom_site_fract_z
Si Si1 0.078473 0.253191 0.880890
Si Si2 0.210448 0.019444 0.916974
Si Si3 0.128007 0.779075 0.684796
Si Si4 0.500000 0.000000 0.500000
Si Si5 0.761871 0.649599 0.832801
Si Si6 0.442330 0.337122 0.445456
Si Si7 0.429504 0.250848 0.026630
Si Si8 0.180920 0.701775 0.479990
O O1 0.106993 0.184365 0.803442
O O2 0.083769 0.486060 0.658275
O O3 0.247930 0.207285 0.001418
O O4 0.902009 0.111204 0.058942
O O5 0.379524 0.162782 0.729246
O O6 0.227651 0.857664 0.199393
O O7 0.093340 0.771599 0.534407
O O8 0.942925 0.776357 0.746326
O O9 0.292714 0.937860 0.551057
O O10 0.190878 0.571030 0.940947
O O11 0.507237 0.064216 0.272404
O O12 0.684292 0.697027 0.643197
O O13 0.610261 0.665735 0.915539
O O14 0.638529 0.337405 0.421130
O O15 0.451557 0.572696 0.235239
#
# Coordination Sequence:
#
# PCOD9048789 Si02
#       8
#     2   2   2   1   2   2   2   2
#     4  10  24  45  72  99 141 185 232 298 350 408
#     4  11  25  44  70 105 137 181 245 290 345 425
#     4  11  24  43  71 102 141 182 229 292 349 426
#     4  12  24  40  68 108 138 182 230 288 350 418
#     4  11  23  45  69  99 139 187 228 280 362 423
#     4  11  23  43  71  99 140 188 223 292 352 415
#     4  11  23  45  67 101 145 186 228 291 354 422
#     4  11  23  47  73 100 141 184 235 294 355 414
#
# _framework density 27.486940000000001
#
# number of rings (size 3 to 8) (size 9 to 14) (size 15 to 20)
#    0.000    1.067    4.000    2.800    5.600    2.667 
#    2.400    2.667    0.000    0.000    0.000    0.000 
#    0.000    0.000    0.000    0.000    0.000    0.000 
#
# Total GULP energy -83720.022317 kJ/mol
# GULP energy per Si atom -5581.334821 kJ/mol
# Density = 2.742438 g / cm^3
# Si number density = 27.486940 Si / 1000 Ang^3
#
#
#
# Elastic Constant Matrix: (Units=GPa)
#
#
# Indices 1 2 3 4 5 6 
#
# 1 93.6850 17.9271 4.0060 -15.8151 -21.5421 23.4138
# 2 17.9271 85.1734 31.4792 -18.8223 -3.1007 30.5971
# 3 4.0060 31.4792 162.5126 -16.3509 -7.0362 23.2796
# 4 -15.8151 -18.8223 -16.3509 45.3577 15.3742 1.3694
# 5 -21.5421 -3.1007 -7.0362 15.3742 45.1849 0.6184
# 6 23.4138 30.5971 23.2796 1.3694 0.6184 43.1941
#
#
#
# Elastic Compliance Matrix: (Units=1/GPa)
#
#
# Indices 1 2 3 4 5 6 
#
# 1 0.015063 0.001049 0.001572 0.004485 0.006109 -0.009985
# 2 0.001049 0.018525 -0.000874 0.008509 -0.001076 -0.013474
# 3 0.001572 -0.000874 0.007187 0.002566 0.000993 -0.004201
# 4 0.004485 0.008509 0.002566 0.030839 -0.007225 -0.010716
# 5 0.006109 -0.001076 0.000993 -0.007225 0.027627 -0.003251
# 6 -0.009985 -0.013474 -0.004201 -0.010716 -0.003251 0.040759
#
#
# Mechanical properties :
#
#
# Convention : Reuss Voigt Hill
#
# Bulk Modulus (GPa) = 22.58987 49.79953 36.19470
# Shear Modulus (GPa) = 33.05471 45.94457 39.49964
#
# Velocity S-wave (km/s) = 3.47156 4.09284 3.79493
# Velocity P-wave (km/s) = 4.93003 6.36333 5.69198
#
# Compressibility (1/GPa) = 0.04426762
#
# Stress axis : x y z
#
# Youngs Moduli (GPa) = 66.38609 53.98186 139.13901
#
# Poissons Ratio (x) = -0.05663 -0.21866
# Poissons Ratio (y) = -0.06965 0.12167
# Poissons Ratio (z) = -0.10433 0.04721
#
# Static dielectric constant tensor:
#      x y z
#    x 2.219650 -0.049530 0.130490 
#    y -0.049530 2.201070 -0.081340 
#    z 0.130490 -0.081340 2.451250 
# 
# From -- ./inp_files/398224.got.cif
#   From: 2010.05.17/outbox.cif.g08.bks.cpg/sg2_200_cif.got.tgz:398224.got - 2010.06.03 11:33:40.
