data_PCOD9048636
_publ_section_title
;
Structure prediction by ZEFSAII (Michael W. Deem and Ramdas Pophale) SiO2 
 PCOD9048636
Probable space group: P -1
;
_chemical_formula_sum "Si O2"
_cell_formula_units_Z 14
_cell_length_a 19.502701
_cell_length_b 10.911742
_cell_length_c 11.783302
_cell_angle_alpha 130.909109
_cell_angle_beta 141.337123
_cell_angle_gamma 22.353153
_cell_volume 571.392471
_symmetry_space_group_name_H-M "P -1"
_symmetry_group_IT_number 2
_symmetry_cell_setting 'triclinic'
loop_
_space_group_symop_operation_xyz
x,y,z
-x,-y,-z
loop_
_atom_site_type_symbol
_atom_site_label
_atom_site_fract_x
_atom_site_fract_y
_atom_site_fract_z
Si Si1 0.363863 0.198322 0.699237
Si Si2 0.896814 0.560036 0.015666
Si Si3 0.567179 0.673461 0.492818
Si Si4 0.062766 0.655518 0.391254
Si Si5 0.439466 0.586234 0.842337
Si Si6 0.726632 0.491414 0.035569
Si Si7 0.156350 0.732825 0.189440
O O1 0.186553 0.529776 0.594462
O O2 0.292296 0.311416 0.806354
O O3 0.390395 0.999524 0.540159
O O4 0.625332 0.916840 0.866143
O O5 0.977145 0.580370 0.227885
O O6 0.960133 0.290076 0.948243
O O7 0.000000 0.500000 0.000000
O O8 0.743667 0.561446 0.585318
O O9 0.473548 0.679954 0.278439
O O10 0.709437 0.391295 0.600014
O O11 0.834105 0.051848 0.309428
O O12 0.500000 0.500000 0.000000
O O13 0.558778 0.586855 0.941129
O O14 0.687114 0.521449 0.869166
O O15 0.979957 0.096198 0.144805
#
# Coordination Sequence:
#
# PCOD9048636 Si02
#       7
#     2   2   2   2   2   2   2
#     4  11  24  42  68 103 141 177 229 281 344 401
#     4  11  23  42  70 103 135 182 223 288 340 405
#     4  11  24  41  68 101 141 177 225 288 335 409
#     4  12  23  41  68 102 140 174 230 284 342 405
#     4  12  26  42  71 104 136 184 231 281 346 408
#     4  11  24  45  70  97 139 184 227 284 340 411
#     4  10  24  45  70  96 139 182 229 282 347 399
#
# _framework density 24.501550000000002
#
# number of rings (size 3 to 8) (size 9 to 14) (size 15 to 20)
#    0.000    0.857    4.286    3.429    2.000    2.857 
#    0.000    0.714    0.000    0.000    0.000    0.000 
#    0.000    0.000    0.000    0.000    0.000    0.000 
#
# Total GULP energy -78282.755411 kJ/mol
# GULP energy per Si atom -5591.625386 kJ/mol
# Density = 2.444578 g / cm^3
# Si number density = 24.501550 Si / 1000 Ang^3
#
#
#
# Elastic Constant Matrix: (Units=GPa)
#
#
# Indices 1 2 3 4 5 6 
#
# 1 41.9094 -5.1747 12.6110 12.2546 -19.2485 -8.1649
# 2 -5.1747 110.5508 36.7358 17.3664 -4.8076 -16.6298
# 3 12.6110 36.7358 145.7961 5.0942 -24.5005 -8.5533
# 4 12.2546 17.3664 5.0942 60.9314 -0.8746 -10.4881
# 5 -19.2485 -4.8076 -24.5005 -0.8746 24.7865 12.8945
# 6 -8.1649 -16.6298 -8.5533 -10.4881 12.8945 21.3138
#
#
#
# Elastic Compliance Matrix: (Units=1/GPa)
#
#
# Indices 1 2 3 4 5 6 
#
# 1 0.044309 0.003334 0.002226 -0.011294 0.042465 -0.010780
# 2 0.003334 0.012068 -0.003301 -0.002032 -0.004025 0.010803
# 3 0.002226 -0.003301 0.009502 -0.001322 0.014133 -0.007110
# 4 -0.011294 -0.002032 -0.001322 0.021658 -0.017365 0.014720
# 5 0.042465 -0.004025 0.014133 -0.017365 0.117565 -0.060871
# 6 -0.010780 0.010803 -0.007110 0.014720 -0.060871 0.092433
#
#
# Mechanical properties :
#
#
# Convention : Reuss Voigt Hill
#
# Bulk Modulus (GPa) = 14.20538 42.95561 28.58050
# Shear Modulus (GPa) = 15.79869 38.34528 27.07199
#
# Velocity S-wave (km/s) = 2.54205 3.96032 3.32762
# Velocity P-wave (km/s) = 3.79821 6.20339 5.14336
#
# Compressibility (1/GPa) = 0.07039588
#
# Stress axis : x y z
#
# Youngs Moduli (GPa) = 22.56898 82.86566 105.24007
#
# Poissons Ratio (x) = -0.27624 -0.23424
# Poissons Ratio (y) = -0.07524 0.34735
# Poissons Ratio (z) = -0.05023 0.27351
#
# Static dielectric constant tensor:
#      x y z
#    x 1.925930 0.033150 -0.005380 
#    y 0.033150 2.063530 0.043400 
#    z -0.005380 0.043400 1.990540 
# 
# From -- ./inp_files/433441.got.cif
#   From: 2010.05.17/outbox.cif.g08.bks.cpg/sg2_217_cif.got.tgz:433441.got - 2010.06.03 11:33:40.
