data_PCOD9048968
_publ_section_title
;
Structure prediction by ZEFSAII (Michael W. Deem and Ramdas Pophale) SiO2 
 PCOD9048968
Probable space group: P -1
;
_chemical_formula_sum "Si O2"
_cell_formula_units_Z 12
_cell_length_a 7.710992
_cell_length_b 7.736347
_cell_length_c 15.635638
_cell_angle_alpha 57.759249
_cell_angle_beta 38.927890
_cell_angle_gamma 46.258083
_cell_volume 423.401219
_symmetry_space_group_name_H-M "P -1"
_symmetry_group_IT_number 2
_symmetry_cell_setting 'triclinic'
loop_
_space_group_symop_operation_xyz
x,y,z
-x,-y,-z
loop_
_atom_site_type_symbol
_atom_site_label
_atom_site_fract_x
_atom_site_fract_y
_atom_site_fract_z
Si Si1 0.877947 0.345692 0.633948
Si Si2 0.272157 0.032205 0.834796
Si Si3 0.514572 0.401173 0.924035
Si Si4 0.993068 0.164906 0.113265
Si Si5 0.974010 0.920513 0.625110
Si Si6 0.233668 0.508632 0.732846
O O1 0.769534 0.404169 0.758137
O O2 0.561858 0.395679 0.688919
O O3 0.000000 0.500000 0.500000
O O4 0.075199 0.062869 0.614088
O O5 0.175880 0.598604 0.950634
O O6 0.320520 0.893156 0.055623
O O7 0.276307 0.907793 0.777683
O O8 0.161002 0.305190 0.793779
O O9 0.994729 0.718768 0.834013
O O10 0.500000 0.500000 0.000000
O O11 0.000000 0.000000 0.000000
O O12 0.224697 0.645773 0.616795
O O13 0.626744 0.935460 0.762056
O O14 0.000000 0.000000 0.500000
#
# Coordination Sequence:
#
# PCOD9048968 Si02
#       6
#     2   2   2   2   2   2
#     4  10  24  45  78 121 161 221 287 353 434 523
#     4  11  27  49  77 116 163 224 280 350 438 519
#     4  11  23  45  77 118 163 217 281 348 430 516
#     4  11  25  48  81 118 163 223 282 350 431 521
#     4  11  26  48  78 120 161 217 288 358 434 521
#     4  10  25  50  78 117 171 214 287 360 429 522
#
# _framework density 28.341911
#
# number of rings (size 3 to 8) (size 9 to 14) (size 15 to 20)
#    0.000    1.333    1.667    1.500    7.000    6.000 
#    0.000    2.500    0.000    0.000    0.000    0.000 
#    0.000    0.000    0.000    0.000    0.000    0.000 
#
# Total GULP energy -66859.304805 kJ/mol
# GULP energy per Si atom -5571.608734 kJ/mol
# Density = 2.827740 g / cm^3
# Si number density = 28.341911 Si / 1000 Ang^3
#
#
#
# Elastic Constant Matrix: (Units=GPa)
#
#
# Indices 1 2 3 4 5 6 
#
# 1 186.5011 67.2518 70.7697 -10.0391 -1.8358 36.7338
# 2 67.2518 197.9125 64.1228 -27.5240 6.0653 33.6067
# 3 70.7697 64.1228 190.4846 -16.2769 7.7371 18.9452
# 4 -10.0391 -27.5240 -16.2769 50.3173 -4.0480 4.8644
# 5 -1.8358 6.0653 7.7371 -4.0480 47.8835 -10.8907
# 6 36.7338 33.6067 18.9452 4.8644 -10.8907 61.3086
#
#
#
# Elastic Compliance Matrix: (Units=1/GPa)
#
#
# Indices 1 2 3 4 5 6 
#
# 1 0.007154 -0.001241 -0.001905 0.000433 0.000085 -0.003037
# 2 -0.001241 0.006901 -0.001218 0.003344 -0.001155 -0.003134
# 3 -0.001905 -0.001218 0.006543 0.001036 -0.000996 -0.000472
# 4 0.000433 0.003344 0.001036 0.022556 0.000393 -0.004132
# 5 0.000085 -0.001155 -0.000996 0.000393 0.022325 0.004825
# 6 -0.003037 -0.003134 -0.000472 -0.004132 0.004825 0.021179
#
#
# Mechanical properties :
#
#
# Convention : Reuss Voigt Hill
#
# Bulk Modulus (GPa) = 84.22817 108.79851 96.51334
# Shear Modulus (GPa) = 50.33042 56.75213 53.54127
#
# Velocity S-wave (km/s) = 4.21863 4.47968 4.35112
# Velocity P-wave (km/s) = 7.31521 8.07638 7.70520
#
# Compressibility (1/GPa) = 0.01187251
#
# Stress axis : x y z
#
# Youngs Moduli (GPa) = 139.77368 144.89616 152.82597
#
# Poissons Ratio (x) = 0.17976 0.29110
# Poissons Ratio (y) = 0.17340 0.18614
# Poissons Ratio (z) = 0.26624 0.17649
#
# Static dielectric constant tensor:
#      x y z
#    x 2.269020 0.048480 0.091460 
#    y 0.048480 2.488130 0.074910 
#    z 0.091460 0.074910 2.354880 
# 
# From -- ./inp_files/522739.got.cif
#   From: 2010.05.17/outbox.cif.g08.bks.cpg/sg2_262_cif.got.tgz:522739.got - 2010.06.03 11:33:40.
