data_PCOD9048018
_publ_section_title
;
Structure prediction by ZEFSAII (Michael W. Deem and Ramdas Pophale) SiO2 
 PCOD9048018
Probable space group: P -1
;
_chemical_formula_sum "Si O2"
_cell_formula_units_Z 14
_cell_length_a 13.847848
_cell_length_b 5.673921
_cell_length_c 15.299315
_cell_angle_alpha 89.255221
_cell_angle_beta 29.660122
_cell_angle_gamma 101.681837
_cell_volume 536.435330
_symmetry_space_group_name_H-M "P -1"
_symmetry_group_IT_number 2
_symmetry_cell_setting 'triclinic'
loop_
_space_group_symop_operation_xyz
x,y,z
-x,-y,-z
loop_
_atom_site_type_symbol
_atom_site_label
_atom_site_fract_x
_atom_site_fract_y
_atom_site_fract_z
Si Si1 0.737886 0.588961 0.769278
Si Si2 0.206200 0.440054 0.947154
Si Si3 0.635427 0.396500 0.654677
Si Si4 0.801680 0.939228 0.247707
Si Si5 0.012846 0.313542 0.767400
Si Si6 0.497579 0.015183 0.364841
Si Si7 0.754481 0.094517 0.819858
O O1 0.714562 0.502893 0.687533
O O2 0.843374 0.407150 0.728954
O O3 0.833564 0.901604 0.707704
O O4 0.500000 0.500000 0.000000
O O5 0.401004 0.387565 0.829710
O O6 0.321436 0.694284 0.795021
O O7 0.013530 0.197870 0.054715
O O8 0.092507 0.500601 0.119492
O O9 0.794469 0.579877 0.454336
O O10 0.603532 0.110870 0.648102
O O11 0.620907 0.860535 0.315495
O O12 0.892032 0.748481 0.219104
O O13 0.680431 0.994654 0.426349
O O14 0.819600 0.080733 0.869108
O O15 0.500000 0.000000 0.000000
#
# Coordination Sequence:
#
# PCOD9048018 Si02
#       7
#     2   2   2   2   2   2   2
#     4  10  24  44  72 108 149 201 255 325 389 463
#     4  12  25  46  76 108 150 208 254 316 391 458
#     4  12  27  46  76 111 153 203 261 321 392 470
#     4  11  26  48  76 113 155 202 261 320 387 470
#     4  12  27  46  76 111 153 203 261 321 392 470
#     4  11  26  48  76 113 155 202 261 320 387 470
#     4  10  24  44  72 108 149 201 255 325 389 463
#
# _framework density 26.098205
#
# number of rings (size 3 to 8) (size 9 to 14) (size 15 to 20)
#    0.000    0.857    2.857    3.000   12.000    5.143 
#    0.000    0.000    0.000    0.000    0.000    0.000 
#    0.000    0.000    0.000    0.000    0.000    0.000 
#
# Total GULP energy -78357.018793 kJ/mol
# GULP energy per Si atom -5596.929914 kJ/mol
# Density = 2.603880 g / cm^3
# Si number density = 26.098205 Si / 1000 Ang^3
#
#
#
# Elastic Constant Matrix: (Units=GPa)
#
#
# Indices 1 2 3 4 5 6 
#
# 1 84.7410 39.4651 26.6808 5.1154 13.2308 4.9182
# 2 39.4651 129.7103 32.7639 13.6390 11.7654 2.5714
# 3 26.6808 32.7639 135.1264 3.2878 10.7420 -2.4407
# 4 5.1154 13.6390 3.2878 40.8625 1.3306 4.9445
# 5 13.2308 11.7654 10.7420 1.3306 37.4672 4.0195
# 6 4.9182 2.5714 -2.4407 4.9445 4.0195 41.5304
#
#
#
# Elastic Compliance Matrix: (Units=1/GPa)
#
#
# Indices 1 2 3 4 5 6 
#
# 1 0.014676 -0.003667 -0.001757 -0.000209 -0.003384 -0.001262
# 2 -0.003667 0.009568 -0.001432 -0.002602 -0.001227 0.000186
# 3 -0.001757 -0.001432 0.008222 -0.000030 -0.001385 0.000917
# 4 -0.000209 -0.002602 -0.000030 0.025711 0.000298 -0.002906
# 5 -0.003384 -0.001227 -0.001385 0.000298 0.028918 -0.002439
# 6 -0.001262 0.000186 0.000917 -0.002906 -0.002439 0.024853
#
#
# Mechanical properties :
#
#
# Convention : Reuss Voigt Hill
#
# Bulk Modulus (GPa) = 53.32342 60.82193 57.07267
# Shear Modulus (GPa) = 37.90400 40.68322 39.29361
#
# Velocity S-wave (km/s) = 3.81512 3.95251 3.88442
# Velocity P-wave (km/s) = 6.31530 6.64721 6.48338
#
# Compressibility (1/GPa) = 0.01875349
#
# Stress axis : x y z
#
# Youngs Moduli (GPa) = 68.13771 104.51376 121.62593
#
# Poissons Ratio (x) = 0.38330 0.21373
# Poissons Ratio (y) = 0.24989 0.17412
# Poissons Ratio (z) = 0.11973 0.14963
#
# Static dielectric constant tensor:
#      x y z
#    x 2.006950 0.013830 0.003670 
#    y 0.013830 2.153690 -0.060860 
#    z 0.003670 -0.060860 2.020990 
# 
# From -- ./inp_files/525747.got.cif
#   From: 2010.05.17/outbox.cif.g08.bks.cpg/sg2_263_cif.got.tgz:525747.got - 2010.06.03 11:33:40.
