data_PCOD9048982
_publ_section_title
;
Structure prediction by ZEFSAII (Michael W. Deem and Ramdas Pophale) SiO2 
 PCOD9048982
Probable space group: P -1
;
_chemical_formula_sum "Si O2"
_cell_formula_units_Z 16
_cell_length_a 17.933470
_cell_length_b 12.800038
_cell_length_c 8.658480
_cell_angle_alpha 102.923712
_cell_angle_beta 50.037137
_cell_angle_gamma 142.229143
_cell_volume 742.890337
_symmetry_space_group_name_H-M "P -1"
_symmetry_group_IT_number 2
_symmetry_cell_setting 'triclinic'
loop_
_space_group_symop_operation_xyz
x,y,z
-x,-y,-z
loop_
_atom_site_type_symbol
_atom_site_label
_atom_site_fract_x
_atom_site_fract_y
_atom_site_fract_z
Si Si1 0.664544 0.388948 0.597802
Si Si2 0.235295 0.087730 0.524478
Si Si3 0.937639 0.954152 0.747781
Si Si4 0.290178 0.077803 0.801126
Si Si5 0.990461 0.643037 0.689155
Si Si6 0.995678 0.622144 0.020924
Si Si7 0.315314 0.771157 0.252236
Si Si8 0.591214 0.491067 0.977632
O O1 0.499988 0.273418 0.662996
O O2 0.859536 0.546908 0.302518
O O3 0.607579 0.224749 0.705904
O O4 0.686530 0.500149 0.734546
O O5 0.286673 0.119805 0.645789
O O6 0.424760 0.274841 0.226745
O O7 0.117350 0.084950 0.652983
O O8 0.094533 0.855108 0.583510
O O9 0.756245 0.701254 0.931891
O O10 0.852727 0.987060 0.923129
O O11 0.000000 0.000000 0.500000
O O12 0.205274 0.877013 0.838552
O O13 0.815763 0.434864 0.745564
O O14 0.162663 0.718550 0.481891
O O15 0.917421 0.575986 0.939951
O O16 0.000000 0.500000 0.000000
O O17 0.500000 0.000000 0.000000
O O18 0.500000 0.500000 0.000000
#
# Coordination Sequence:
#
# PCOD9048982 Si02
#       8
#     2   2   2   2   2   2   2   2
#     4  12  25  43  70 102 137 179 227 290 340 412
#     4  11  25  45  68  97 146 176 231 287 347 409
#     4  12  23  44  71 101 140 183 229 290 342 410
#     4  11  27  43  69 105 136 183 233 280 353 412
#     4  10  24  46  63 103 134 179 229 284 339 412
#     4  11  25  46  69  97 140 183 227 277 344 412
#     4  11  24  41  73  99 135 178 234 281 345 400
#     4  12  24  44  71 105 134 180 234 282 347 414
#
# _framework density 21.537499
#
# number of rings (size 3 to 8) (size 9 to 14) (size 15 to 20)
#    0.000    0.750    3.750    2.625    1.750    7.000 
#    0.000    0.000    0.000    0.000    0.000    0.000 
#    0.000    0.000    0.000    0.000    0.000    0.000 
#
# Total GULP energy -89513.237661 kJ/mol
# GULP energy per Si atom -5594.577354 kJ/mol
# Density = 2.148848 g / cm^3
# Si number density = 21.537499 Si / 1000 Ang^3
#
#
#
# Elastic Constant Matrix: (Units=GPa)
#
#
# Indices 1 2 3 4 5 6 
#
# 1 83.6112 21.6611 25.6428 -5.0066 1.8550 -3.5829
# 2 21.6611 81.2024 30.4910 -5.4236 2.5300 -3.9740
# 3 25.6428 30.4910 111.7544 1.5131 18.5495 -8.3551
# 4 -5.0066 -5.4236 1.5131 29.6915 -8.4730 -1.9732
# 5 1.8550 2.5300 18.5495 -8.4730 35.6961 -0.7973
# 6 -3.5829 -3.9740 -8.3551 -1.9732 -0.7973 29.5733
#
#
#
# Elastic Compliance Matrix: (Units=1/GPa)
#
#
# Indices 1 2 3 4 5 6 
#
# 1 0.013559 -0.002465 -0.002654 0.002434 0.001444 0.000763
# 2 -0.002465 0.014535 -0.003662 0.002976 0.001727 0.000865
# 3 -0.002654 -0.003662 0.011846 -0.003442 -0.006527 0.002127
# 4 0.002434 0.002976 -0.003442 0.037981 0.010523 0.002540
# 5 0.001444 0.001727 -0.006527 0.010523 0.033710 0.000174
# 6 0.000763 0.000865 0.002127 0.002540 0.000174 0.034798
#
#
# Mechanical properties :
#
#
# Convention : Reuss Voigt Hill
#
# Bulk Modulus (GPa) = 44.69082 48.01754 46.35418
# Shear Modulus (GPa) = 29.16270 32.24371 30.70320
#
# Velocity S-wave (km/s) = 3.68372 3.87343 3.77977
# Velocity P-wave (km/s) = 6.23605 6.50752 6.37324
#
# Compressibility (1/GPa) = 0.02237596
#
# Stress axis : x y z
#
# Youngs Moduli (GPa) = 73.75022 68.79920 84.42010
#
# Poissons Ratio (x) = 0.16962 0.22407
# Poissons Ratio (y) = 0.18183 0.30917
# Poissons Ratio (z) = 0.19575 0.25196
#
# Static dielectric constant tensor:
#      x y z
#    x 1.787710 -0.017960 0.004940 
#    y -0.017960 1.795020 0.007750 
#    z 0.004940 0.007750 1.782000 
# 
# From -- ./inp_files/333358.got.cif
#   From: 2010.05.17/outbox.cif.g08.bks.cpg/sg2_167_cif.got.tgz:333358.got - 2010.06.03 11:33:40.
