data_PCOD9048379
_publ_section_title
;
Structure prediction by ZEFSAII (Michael W. Deem and Ramdas Pophale) SiO2 
 PCOD9048379
Probable space group: P -1
;
_chemical_formula_sum "Si O2"
_cell_formula_units_Z 16
_cell_length_a 11.627896
_cell_length_b 6.393313
_cell_length_c 12.015621
_cell_angle_alpha 57.705817
_cell_angle_beta 99.039790
_cell_angle_gamma 87.994140
_cell_volume 738.092602
_symmetry_space_group_name_H-M "P -1"
_symmetry_group_IT_number 2
_symmetry_cell_setting 'triclinic'
loop_
_space_group_symop_operation_xyz
x,y,z
-x,-y,-z
loop_
_atom_site_type_symbol
_atom_site_label
_atom_site_fract_x
_atom_site_fract_y
_atom_site_fract_z
Si Si1 0.486184 0.071999 0.106091
Si Si2 0.737200 0.143239 0.219741
Si Si3 0.689236 0.006904 0.478416
Si Si4 0.464231 0.792638 0.401642
Si Si5 0.904823 0.769411 0.226416
Si Si6 0.053913 0.236835 0.390619
Si Si7 0.045484 0.218987 0.130413
Si Si8 0.764272 0.659137 0.016893
O O1 0.609989 0.134566 0.150754
O O2 0.452059 0.871738 0.248127
O O3 0.375514 0.287024 0.028612
O O4 0.500000 0.000000 0.000000
O O5 0.792752 0.359885 0.104683
O O6 0.723585 0.196908 0.334173
O O7 0.821202 0.884673 0.281653
O O8 0.575821 0.908365 0.435950
O O9 0.805221 0.802833 0.559831
O O10 0.646626 0.117464 0.560100
O O11 0.500000 0.500000 0.500000
O O12 0.819048 0.740743 0.117467
O O13 0.983901 0.505101 0.339897
O O14 0.985769 0.982414 0.148440
O O15 0.038841 0.222578 0.260232
O O16 0.000000 0.000000 0.500000
O O17 0.178428 0.195207 0.112035
O O18 0.000000 0.500000 0.000000
#
# Coordination Sequence:
#
# PCOD9048379 Si02
#       8
#     2   2   2   2   2   2   2   2
#     4  11  24  43  70 107 131 180 235 287 354 418
#     4  11  24  44  71 102 143 183 234 294 347 420
#     4  10  24  45  68 101 136 185 230 282 351 411
#     4  10  24  47  71  98 140 178 229 288 348 413
#     4  12  24  44  71 102 143 186 235 290 350 417
#     4  12  27  45  70 103 142 186 237 288 350 420
#     4  12  25  44  67 101 139 185 233 292 350 413
#     4  12  24  43  68 102 141 181 232 290 356 413
#
# _framework density 21.677498
#
# number of rings (size 3 to 8) (size 9 to 14) (size 15 to 20)
#    0.000    0.750    3.750    3.000    1.750    6.000 
#    4.500    0.000    0.000    0.000    0.000    0.000 
#    0.000    0.000    0.000    0.000    0.000    0.000 
#
# Total GULP energy -89353.123279 kJ/mol
# GULP energy per Si atom -5584.570205 kJ/mol
# Density = 2.162816 g / cm^3
# Si number density = 21.677498 Si / 1000 Ang^3
#
#
#
# Elastic Constant Matrix: (Units=GPa)
#
#
# Indices 1 2 3 4 5 6 
#
# 1 139.6290 42.5796 47.3241 -8.6515 0.2489 -22.0952
# 2 42.5796 90.8890 58.0997 -15.2635 -12.3613 -16.9231
# 3 47.3241 58.0997 156.0519 2.6725 -18.7659 -15.0835
# 4 -8.6515 -15.2635 2.6725 39.7850 -3.3068 -2.1684
# 5 0.2489 -12.3613 -18.7659 -3.3068 43.3025 -3.6797
# 6 -22.0952 -16.9231 -15.0835 -2.1684 -3.6797 30.4182
#
#
#
# Elastic Compliance Matrix: (Units=1/GPa)
#
#
# Indices 1 2 3 4 5 6 
#
# 1 0.009238 -0.002321 -0.001628 0.001402 -0.000923 0.004600
# 2 -0.002321 0.018593 -0.005141 0.007722 0.004293 0.007179
# 3 -0.001628 -0.005141 0.009208 -0.002713 0.002377 0.000618
# 4 0.001402 0.007722 -0.002713 0.029256 0.003808 0.006515
# 5 -0.000923 0.004293 0.002377 0.003808 0.026184 0.006336
# 6 0.004600 0.007179 0.000618 0.006515 0.006336 0.041748
#
#
# Mechanical properties :
#
#
# Convention : Reuss Voigt Hill
#
# Bulk Modulus (GPa) = 53.02180 75.84184 64.43182
# Shear Modulus (GPa) = 31.50766 38.60559 35.05663
#
# Velocity S-wave (km/s) = 3.81658 4.22466 4.02579
# Velocity P-wave (km/s) = 6.62829 7.67198 7.16915
#
# Compressibility (1/GPa) = 0.01886017
#
# Stress axis : x y z
#
# Youngs Moduli (GPa) = 108.25260 53.78303 108.60399
#
# Poissons Ratio (x) = 0.12482 0.17678
# Poissons Ratio (y) = 0.25123 0.55830
# Poissons Ratio (z) = 0.17621 0.27648
#
# Static dielectric constant tensor:
#      x y z
#    x 1.866270 -0.022470 -0.006860 
#    y -0.022470 1.814100 -0.000010 
#    z -0.006860 -0.000010 1.794290 
# 
# From -- ./inp_files/409887.got.cif
#   From: 2010.05.17/outbox.cif.g08.bks.cpg/sg2_205_cif.got.tgz:409887.got - 2010.06.03 11:33:40.
