data_PCOD9048736
_publ_section_title
;
Structure prediction by ZEFSAII (Michael W. Deem and Ramdas Pophale) SiO2 
 PCOD9048736
Probable space group: P -1
;
_chemical_formula_sum "Si O2"
_cell_formula_units_Z 14
_cell_length_a 6.082553
_cell_length_b 12.877085
_cell_length_c 10.649000
_cell_angle_alpha 53.788820
_cell_angle_beta 62.895456
_cell_angle_gamma 59.903411
_cell_volume 566.872709
_symmetry_space_group_name_H-M "P -1"
_symmetry_group_IT_number 2
_symmetry_cell_setting 'triclinic'
loop_
_space_group_symop_operation_xyz
x,y,z
-x,-y,-z
loop_
_atom_site_type_symbol
_atom_site_label
_atom_site_fract_x
_atom_site_fract_y
_atom_site_fract_z
Si Si1 0.988920 0.667938 0.743553
Si Si2 0.328450 0.144081 0.994118
Si Si3 0.539086 0.562311 0.578257
Si Si4 0.230764 0.043227 0.344075
Si Si5 0.733769 0.795028 0.318034
Si Si6 0.805695 0.424244 0.965583
Si Si7 0.735915 0.276885 0.864791
O O1 0.257417 0.666681 0.612645
O O2 0.777143 0.816668 0.682508
O O3 0.918527 0.539087 0.801785
O O4 0.061094 0.626267 0.900054
O O5 0.310013 0.220955 0.808637
O O6 0.509376 0.212158 0.976685
O O7 0.166437 0.095070 0.179717
O O8 0.500000 0.000000 0.000000
O O9 0.500000 0.500000 0.500000
O O10 0.731866 0.650814 0.474461
O O11 0.621293 0.432311 0.739455
O O12 0.508070 0.921023 0.348317
O O13 0.000000 0.000000 0.500000
O O14 0.026648 0.803837 0.230817
O O15 0.844975 0.293141 0.962386
O O16 0.500000 0.500000 0.000000
#
# Coordination Sequence:
#
# PCOD9048736 Si02
#       7
#     2   2   2   2   2   2   2
#     4  11  24  43  70 102 146 187 234 294 358 413
#     4  10  24  45  72 100 142 189 232 291 358 422
#     4  12  23  42  72 103 143 184 230 300 357 418
#     4  11  23  44  70  97 139 190 236 285 350 420
#     4  11  24  45  70 105 141 187 234 292 353 424
#     4  11  23  42  72 108 143 185 239 297 355 424
#     4  12  24  43  76 107 139 186 245 289 357 427
#
# _framework density 24.696902999999999
#
# number of rings (size 3 to 8) (size 9 to 14) (size 15 to 20)
#    0.000    0.857    4.286    3.000    2.000    2.286 
#    0.000    2.857    0.000    9.429    0.000    0.000 
#    0.000    0.000    0.000    0.000    0.000    0.000 
#
# Total GULP energy -78110.769036 kJ/mol
# GULP energy per Si atom -5579.340645 kJ/mol
# Density = 2.464069 g / cm^3
# Si number density = 24.696903 Si / 1000 Ang^3
#
#
#
# Elastic Constant Matrix: (Units=GPa)
#
#
# Indices 1 2 3 4 5 6 
#
# 1 30.3704 2.8352 21.8655 2.5530 -8.6665 1.2839
# 2 2.8352 137.1065 30.8473 4.4820 -7.6822 -23.1462
# 3 21.8655 30.8473 125.7795 3.0757 -13.5057 0.8168
# 4 2.5530 4.4820 3.0757 41.7009 -7.9006 -8.7408
# 5 -8.6665 -7.6822 -13.5057 -7.9006 36.4803 12.8554
# 6 1.2839 -23.1462 0.8168 -8.7408 12.8554 38.5420
#
#
#
# Elastic Compliance Matrix: (Units=1/GPa)
#
#
# Indices 1 2 3 4 5 6 
#
# 1 0.039967 0.000363 -0.006066 -0.001291 0.008494 -0.004111
# 2 0.000363 0.008701 -0.002332 0.000224 -0.000871 0.005604
# 3 -0.006066 -0.002332 0.009862 -0.000107 0.002493 -0.002264
# 4 -0.001291 0.000224 -0.000107 0.025731 0.003574 0.004823
# 5 0.008494 -0.000871 0.002493 0.003574 0.035084 -0.011751
# 6 -0.004111 0.005604 -0.002264 0.004823 -0.011751 0.034509
#
#
# Mechanical properties :
#
#
# Convention : Reuss Voigt Hill
#
# Bulk Modulus (GPa) = 23.55313 44.92803 34.24058
# Shear Modulus (GPa) = 27.16222 39.19188 33.17705
#
# Velocity S-wave (km/s) = 3.31996 3.98793 3.66918
# Velocity P-wave (km/s) = 4.92481 6.27981 5.64313
#
# Compressibility (1/GPa) = 0.04245720
#
# Stress axis : x y z
#
# Youngs Moduli (GPa) = 25.02082 114.93248 101.39906
#
# Poissons Ratio (x) = -0.04166 0.61512
# Poissons Ratio (y) = -0.00907 0.23649
# Poissons Ratio (z) = 0.15179 0.26806
#
# Static dielectric constant tensor:
#      x y z
#    x 2.361660 -0.346650 0.115000 
#    y -0.346650 2.398320 -0.066950 
#    z 0.115000 -0.066950 1.948320 
# 
# From -- ./inp_files/366686.got.cif
#   From: 2010.05.17/outbox.cif.g08.bks.cpg/sg2_184_cif.got.tgz:366686.got - 2010.06.03 11:33:40.
