data_PCOD9048046
_publ_section_title
;
Structure prediction by ZEFSAII (Michael W. Deem and Ramdas Pophale) SiO2 
 PCOD9048046
Probable space group: P -1
;
_chemical_formula_sum "Si O2"
_cell_formula_units_Z 15
_cell_length_a 11.452068
_cell_length_b 12.138789
_cell_length_c 12.177877
_cell_angle_alpha 133.908300
_cell_angle_beta 41.685899
_cell_angle_gamma 142.788315
_cell_volume 660.033397
_symmetry_space_group_name_H-M "P -1"
_symmetry_group_IT_number 2
_symmetry_cell_setting 'triclinic'
loop_
_space_group_symop_operation_xyz
x,y,z
-x,-y,-z
loop_
_atom_site_type_symbol
_atom_site_label
_atom_site_fract_x
_atom_site_fract_y
_atom_site_fract_z
Si Si1 0.224265 0.200048 0.980251
Si Si2 0.886200 0.305407 0.597967
Si Si3 0.499893 0.941866 0.699112
Si Si4 0.714802 0.672389 0.730028
Si Si5 0.427726 0.733008 0.384982
Si Si6 0.468996 0.649887 0.680970
Si Si7 0.985077 0.335944 0.120713
Si Si8 0.000000 0.500000 0.000000
O O1 0.298346 0.264312 0.096339
O O2 0.166956 0.331121 0.052311
O O3 0.393900 0.196930 0.785307
O O4 0.000000 0.000000 0.000000
O O5 0.782438 0.314965 0.565143
O O6 0.022894 0.508186 0.699638
O O7 0.039230 0.240122 0.417861
O O8 0.693075 0.161403 0.717440
O O9 0.498241 0.882606 0.533976
O O10 0.546939 0.824457 0.666255
O O11 0.252062 0.861875 0.843284
O O12 0.609858 0.451211 0.661897
O O13 0.601366 0.713878 0.745453
O O14 0.500000 0.500000 0.500000
O O15 0.220999 0.560079 0.820564
O O16 0.049152 0.400751 0.996074
#
# Coordination Sequence:
#
# PCOD9048046 Si02
#       8
#     2   2   2   2   2   2   2   1
#     4  12  26  42  64 100 138 178 227 284 345 409
#     4  12  24  42  70  98 133 176 229 284 343 406
#     4  11  24  44  68 101 131 179 229 280 342 413
#     4  12  23  43  68  99 133 182 228 278 347 411
#     4  12  22  41  69  95 136 176 224 282 342 412
#     4  11  23  45  72 101 142 180 235 284 345 419
#     4  11  23  46  67  95 138 176 227 281 342 411
#     4  10  24  44  72  96 138 192 218 284 354 400
#
# _framework density 22.726123000000001
#
# number of rings (size 3 to 8) (size 9 to 14) (size 15 to 20)
#    0.000    0.533    4.000    5.200    1.867    0.533 
#    2.400    1.333    0.000    0.000    0.000    0.000 
#    0.000    0.000    0.000    0.000    0.000    0.000 
#
# Total GULP energy -83782.663278 kJ/mol
# GULP energy per Si atom -5585.510885 kJ/mol
# Density = 2.267440 g / cm^3
# Si number density = 22.726123 Si / 1000 Ang^3
#
#
#
# Elastic Constant Matrix: (Units=GPa)
#
#
# Indices 1 2 3 4 5 6 
#
# 1 160.9804 9.0673 32.8564 -9.4341 2.0543 -24.1841
# 2 9.0673 72.9647 18.0311 -18.3167 0.4345 -5.6795
# 3 32.8564 18.0311 85.8063 -23.6331 -2.7047 -6.1323
# 4 -9.4341 -18.3167 -23.6331 30.5959 -2.9270 -1.1419
# 5 2.0543 0.4345 -2.7047 -2.9270 32.4248 -8.8543
# 6 -24.1841 -5.6795 -6.1323 -1.1419 -8.8543 31.2940
#
#
#
# Elastic Compliance Matrix: (Units=1/GPa)
#
#
# Indices 1 2 3 4 5 6 
#
# 1 0.007570 0.000339 -0.002206 0.001147 0.001022 0.005810
# 2 0.000339 0.016592 -0.000540 0.009933 0.001703 0.004012
# 3 -0.002206 -0.000540 0.016200 0.011930 0.003325 0.002747
# 4 0.001147 0.009933 0.011930 0.049272 0.007695 0.009002
# 5 0.001022 0.001703 0.003325 0.007695 0.034983 0.011929
# 6 0.005810 0.004012 0.002747 0.009002 0.011929 0.041416
#
#
# Mechanical properties :
#
#
# Convention : Reuss Voigt Hill
#
# Bulk Modulus (GPa) = 28.13228 48.85123 38.49176
# Shear Modulus (GPa) = 27.36776 36.18272 31.77524
#
# Velocity S-wave (km/s) = 3.47398 3.99447 3.74328
# Velocity P-wave (km/s) = 5.33827 6.54344 5.97134
#
# Compressibility (1/GPa) = 0.03554636
#
# Stress axis : x y z
#
# Youngs Moduli (GPa) = 132.09502 60.26877 61.73025
#
# Poissons Ratio (x) = -0.02042 0.13621
# Poissons Ratio (y) = -0.04475 0.03334
# Poissons Ratio (z) = 0.29146 0.03255
#
# Static dielectric constant tensor:
#      x y z
#    x 1.861700 -0.009700 -0.032790 
#    y -0.009700 1.875610 0.014640 
#    z -0.032790 0.014640 1.834210 
# 
# From -- ./inp_files/255716.got.cif
#   From: 2010.05.17/outbox.cif.g08.bks.cpg/sg2_128_cif.got.tgz:255716.got - 2010.06.03 11:33:40.
