data_PCOD9048237
_publ_section_title
;
Structure prediction by ZEFSAII (Michael W. Deem and Ramdas Pophale) SiO2 
 PCOD9048237
Probable space group: P -1
;
_chemical_formula_sum "Si O2"
_cell_formula_units_Z 16
_cell_length_a 13.168892
_cell_length_b 7.413366
_cell_length_c 16.848193
_cell_angle_alpha 139.577990
_cell_angle_beta 147.009828
_cell_angle_gamma 42.394255
_cell_volume 556.943820
_symmetry_space_group_name_H-M "P -1"
_symmetry_group_IT_number 2
_symmetry_cell_setting 'triclinic'
loop_
_space_group_symop_operation_xyz
x,y,z
-x,-y,-z
loop_
_atom_site_type_symbol
_atom_site_label
_atom_site_fract_x
_atom_site_fract_y
_atom_site_fract_z
Si Si1 0.564516 0.281943 0.667625
Si Si2 0.659695 0.790586 0.807096
Si Si3 0.999273 0.985560 0.898199
Si Si4 0.945566 0.146304 0.339631
Si Si5 0.001335 0.360103 0.625343
Si Si6 0.574665 0.612192 0.214715
Si Si7 0.268137 0.658208 0.412574
Si Si8 0.321049 0.195608 0.896062
O O1 0.562629 0.580997 0.721615
O O2 0.443968 0.372661 0.698173
O O3 0.500000 0.000000 0.500000
O O4 0.789858 0.185429 0.805196
O O5 0.500000 0.500000 0.500000
O O6 0.495182 0.062287 0.754622
O O7 0.790255 0.589752 0.757781
O O8 0.997390 0.680695 0.757227
O O9 0.822652 0.922343 0.994727
O O10 0.000000 0.000000 0.000000
O O11 0.956877 0.284482 0.481217
O O12 0.790764 0.396279 0.272531
O O13 0.850208 0.878370 0.190500
O O14 0.170462 0.969027 0.409827
O O15 0.830280 0.315993 0.557200
O O16 0.215910 0.177050 0.736374
O O17 0.404409 0.469494 0.029348
O O18 0.500000 0.000000 0.000000
#
# Coordination Sequence:
#
# PCOD9048237 Si02
#       8
#     2   2   2   2   2   2   2   2
#     4  12  28  46  78 125 166 215 278 346 421 503
#     4  12  27  46  82 118 167 220 278 342 417 506
#     4  12  22  47  79 120 169 220 273 342 420 502
#     4  10  24  44  79 117 159 221 278 345 418 493
#     4  11  20  43  79 116 161 216 279 340 415 491
#     4  11  23  47  79 116 161 215 278 342 421 498
#     4  11  25  43  74 118 161 214 275 345 418 491
#     4   9  18  37  71 109 151 211 266 327 411 485
#
# _framework density 28.728213
#
# number of rings (size 3 to 8) (size 9 to 14) (size 15 to 20)
#    0.000    1.000    3.750    2.625    7.000    0.000 
#    0.000    0.625    0.000    9.000    0.000    0.000 
#    0.000    0.000    0.000    0.000    0.000    0.000 
#
# Total GULP energy -89306.771341 kJ/mol
# GULP energy per Si atom -5581.673209 kJ/mol
# Density = 2.866283 g / cm^3
# Si number density = 28.728213 Si / 1000 Ang^3
#
#
#
# Elastic Constant Matrix: (Units=GPa)
#
#
# Indices 1 2 3 4 5 6 
#
# 1 151.5074 77.1624 67.5464 6.4794 11.0223 5.8089
# 2 77.1624 259.8750 100.4927 -23.7616 15.2052 13.8801
# 3 67.5464 100.4927 185.3616 -19.0368 27.9692 6.1961
# 4 6.4794 -23.7616 -19.0368 65.1825 2.1496 6.8313
# 5 11.0223 15.2052 27.9692 2.1496 50.2873 12.2657
# 6 5.8089 13.8801 6.1961 6.8313 12.2657 52.2771
#
#
#
# Elastic Compliance Matrix: (Units=1/GPa)
#
#
# Indices 1 2 3 4 5 6 
#
# 1 0.008715 -0.001873 -0.002406 -0.002264 0.000068 0.000094
# 2 -0.001873 0.005412 -0.002060 0.001682 0.000150 -0.001240
# 3 -0.002406 -0.002060 0.008107 0.001928 -0.003547 0.000434
# 4 -0.002264 0.001682 0.001928 0.017031 -0.001237 -0.002359
# 5 0.000068 0.000150 -0.003547 -0.001237 0.023039 -0.004871
# 6 0.000094 -0.001240 0.000434 -0.002359 -0.004871 0.020847
#
#
# Mechanical properties :
#
#
# Convention : Reuss Voigt Hill
#
# Bulk Modulus (GPa) = 104.65103 120.79414 112.72258
# Shear Modulus (GPa) = 50.49671 56.98554 53.74113
#
# Velocity S-wave (km/s) = 4.19709 4.45860 4.32982
# Velocity P-wave (km/s) = 7.74561 8.28517 8.01993
#
# Compressibility (1/GPa) = 0.00955557
#
# Stress axis : x y z
#
# Youngs Moduli (GPa) = 114.73835 184.77261 123.34761
#
# Poissons Ratio (x) = 0.34614 0.29681
# Poissons Ratio (y) = 0.21494 0.25409
# Poissons Ratio (z) = 0.27610 0.38062
#
# Static dielectric constant tensor:
#      x y z
#    x 2.396680 0.065410 -0.086120 
#    y 0.065410 2.379710 0.035340 
#    z -0.086120 0.035340 2.378100 
# 
# From -- ./inp_files/613710.got.cif
#   From: 2010.05.17/outbox.cif.g08.bks.cpg/sg2_307_cif.got.tgz:613710.got - 2010.06.03 11:33:40.
