data_PCOD9048406
_publ_section_title
;
Structure prediction by ZEFSAII (Michael W. Deem and Ramdas Pophale) SiO2 
 PCOD9048406
Probable space group: P -1
;
_chemical_formula_sum "Si O2"
_cell_formula_units_Z 16
_cell_length_a 18.411604
_cell_length_b 5.223858
_cell_length_c 21.405686
_cell_angle_alpha 98.360816
_cell_angle_beta 18.965923
_cell_angle_gamma 96.716082
_cell_volume 660.652277
_symmetry_space_group_name_H-M "P -1"
_symmetry_group_IT_number 2
_symmetry_cell_setting 'triclinic'
loop_
_space_group_symop_operation_xyz
x,y,z
-x,-y,-z
loop_
_atom_site_type_symbol
_atom_site_label
_atom_site_fract_x
_atom_site_fract_y
_atom_site_fract_z
Si Si1 0.135076 0.750241 0.413684
Si Si2 0.190158 0.655983 0.106783
Si Si3 0.191960 0.967823 0.625049
Si Si4 0.924648 0.680884 0.922622
Si Si5 0.265413 0.454872 0.724470
Si Si6 0.559762 0.955815 0.021603
Si Si7 0.684353 0.018361 0.236634
Si Si8 0.953752 0.333141 0.376796
O O1 0.000000 0.500000 0.500000
O O2 0.153456 0.726962 0.472422
O O3 0.381676 0.768688 0.186528
O O4 0.000000 0.000000 0.500000
O O5 0.205957 0.417192 0.036163
O O6 0.048780 0.598884 0.283042
O O7 0.417135 0.783045 0.947175
O O8 0.024104 0.853468 0.211236
O O9 0.422081 0.099444 0.444095
O O10 0.132793 0.827972 0.731446
O O11 0.205464 0.753058 0.551750
O O12 0.053392 0.453268 0.850145
O O13 0.779234 0.873740 0.092413
O O14 0.500000 0.500000 0.500000
O O15 0.296018 0.198913 0.732637
O O16 0.210664 0.717066 0.819136
O O17 0.500000 0.000000 0.000000
O O18 0.808495 0.829484 0.818601
#
# Coordination Sequence:
#
# PCOD9048406 Si02
#       8
#     2   2   2   2   2   2   2   2
#     4  12  27  45  73 108 141 184 237 301 362 444
#     4  10  24  45  75 100 150 196 244 309 372 441
#     4  10  24  45  68  99 144 190 240 299 365 431
#     4  11  25  45  70 106 144 191 245 304 369 438
#     4  12  25  46  76 106 147 193 246 304 367 429
#     4  11  23  45  74 105 142 190 242 302 368 438
#     4  12  27  45  73 109 142 197 243 307 361 437
#     4  10  24  45  68 105 139 190 238 301 366 433
#
# _framework density 24.218489000000002
#
# number of rings (size 3 to 8) (size 9 to 14) (size 15 to 20)
#    0.000    1.000    2.500    2.625    8.750    4.000 
#    0.000    1.250    0.000    0.000    0.000    0.000 
#    0.000    0.000    0.000    0.000    0.000    0.000 
#
# Total GULP energy -89470.638923 kJ/mol
# GULP energy per Si atom -5591.914933 kJ/mol
# Density = 2.416337 g / cm^3
# Si number density = 24.218489 Si / 1000 Ang^3
#
#
#
# Elastic Constant Matrix: (Units=GPa)
#
#
# Indices 1 2 3 4 5 6 
#
# 1 127.4788 46.5622 48.8878 -14.6610 14.0715 3.7128
# 2 46.5622 110.1809 14.3119 -15.0541 0.2054 1.4578
# 3 48.8878 14.3119 92.7647 -18.4587 13.2214 18.9384
# 4 -14.6610 -15.0541 -18.4587 36.2530 -0.8201 -4.3376
# 5 14.0715 0.2054 13.2214 -0.8201 47.0600 -10.0474
# 6 3.7128 1.4578 18.9384 -4.3376 -10.0474 42.7788
#
#
#
# Elastic Compliance Matrix: (Units=1/GPa)
#
#
# Indices 1 2 3 4 5 6 
#
# 1 0.011641 -0.004185 -0.005427 0.000309 -0.001682 0.001171
# 2 -0.004185 0.011189 0.001007 0.003505 0.001008 0.000128
# 3 -0.005427 0.001007 0.016827 0.005788 -0.004611 -0.007509
# 4 0.000309 0.003505 0.005788 0.032120 -0.001113 0.000287
# 5 -0.001682 0.001008 -0.004611 -0.001113 0.024698 0.007841
# 6 0.001171 0.000128 -0.007509 0.000287 0.007841 0.028465
#
#
# Mechanical properties :
#
#
# Convention : Reuss Voigt Hill
#
# Bulk Modulus (GPa) = 44.55108 61.10535 52.82822
# Shear Modulus (GPa) = 33.41487 39.92920 36.67203
#
# Velocity S-wave (km/s) = 3.71850 4.06483 3.89551
# Velocity P-wave (km/s) = 6.07221 6.87867 6.48798
#
# Compressibility (1/GPa) = 0.02244614
#
# Stress axis : x y z
#
# Youngs Moduli (GPa) = 85.89982 89.37360 59.42899
#
# Poissons Ratio (x) = 0.37401 0.32254
# Poissons Ratio (y) = 0.35948 -0.05982
# Poissons Ratio (z) = 0.46621 -0.08997
#
# Static dielectric constant tensor:
#      x y z
#    x 1.953500 0.076500 0.032280 
#    y 0.076500 2.050490 0.048030 
#    z 0.032280 0.048030 1.897590 
# 
# From -- ./inp_files/599023.got.cif
#   From: 2010.05.17/outbox.cif.g08.bks.cpg/sg2_300_cif.got.tgz:599023.got - 2010.06.03 11:33:40.
