data_PCOD9048079
_publ_section_title
;
Structure prediction by ZEFSAII (Michael W. Deem and Ramdas Pophale) SiO2 
 PCOD9048079
Probable space group: P -1
;
_chemical_formula_sum "Si O2"
_cell_formula_units_Z 15
_cell_length_a 17.818263
_cell_length_b 8.903033
_cell_length_c 8.069349
_cell_angle_alpha 63.550702
_cell_angle_beta 129.116803
_cell_angle_gamma 137.192930
_cell_volume 674.524441
_symmetry_space_group_name_H-M "P -1"
_symmetry_group_IT_number 2
_symmetry_cell_setting 'triclinic'
loop_
_space_group_symop_operation_xyz
x,y,z
-x,-y,-z
loop_
_atom_site_type_symbol
_atom_site_label
_atom_site_fract_x
_atom_site_fract_y
_atom_site_fract_z
Si Si1 0.750351 0.312394 0.334275
Si Si2 0.137447 0.705947 0.168804
Si Si3 0.014059 0.160191 0.071974
Si Si4 0.491933 0.430717 0.264719
Si Si5 0.708274 0.644243 0.212482
Si Si6 0.759151 0.342351 0.965303
Si Si7 0.516839 0.801120 0.317080
Si Si8 0.000000 0.000000 0.500000
O O1 0.833927 0.361928 0.588785
O O2 0.729059 0.488371 0.227411
O O3 0.802564 0.328391 0.215318
O O4 0.622012 0.059580 0.298880
O O5 0.112225 0.867896 0.102502
O O6 0.235886 0.781114 0.120852
O O7 0.000000 0.500000 0.000000
O O8 0.026719 0.108343 0.299700
O O9 0.139912 0.404127 0.075308
O O10 0.000000 0.000000 0.000000
O O11 0.620449 0.513221 0.314808
O O12 0.517097 0.646461 0.265133
O O13 0.457025 0.261806 0.442179
O O14 0.377204 0.326885 0.028533
O O15 0.846772 0.870125 0.331408
O O16 0.620065 0.263986 0.833706
#
# Coordination Sequence:
#
# PCOD9048079 Si02
#       8
#     2   2   2   2   2   2   2   1
#     4  12  25  45  74 104 143 192 237 293 365 429
#     4  10  25  44  66  98 137 181 232 286 349 427
#     4  11  26  44  71 101 139 187 237 291 356 427
#     4  10  24  44  73 104 145 186 246 300 362 427
#     4  11  24  45  71 106 142 193 243 299 361 434
#     4  11  24  46  68 100 144 182 238 294 357 424
#     4  11  24  44  71 103 142 187 239 303 356 430
#     4  12  26  46  74 104 148 190 236 300 368 428
#
# _framework density 22.237888000000002
#
# number of rings (size 3 to 8) (size 9 to 14) (size 15 to 20)
#    0.000    1.067    1.333    4.400    1.867    8.533 
#    0.000    0.000    0.000    0.000    0.000    0.000 
#    0.000    0.000    0.000    0.000    0.000    0.000 
#
# Total GULP energy -83640.154831 kJ/mol
# GULP energy per Si atom -5576.010322 kJ/mol
# Density = 2.218727 g / cm^3
# Si number density = 22.237888 Si / 1000 Ang^3
#
#
#
# Elastic Constant Matrix: (Units=GPa)
#
#
# Indices 1 2 3 4 5 6 
#
# 1 95.7774 23.4788 44.2580 -4.8282 -9.4930 -2.0650
# 2 23.4788 42.1296 26.6458 1.8817 -0.5367 19.6587
# 3 44.2580 26.6458 130.5069 4.6250 -23.0673 25.1322
# 4 -4.8282 1.8817 4.6250 16.0221 14.6661 6.6702
# 5 -9.4930 -0.5367 -23.0673 14.6661 32.5805 -9.1949
# 6 -2.0650 19.6587 25.1322 6.6702 -9.1949 40.6495
#
#
#
# Elastic Compliance Matrix: (Units=1/GPa)
#
#
# Indices 1 2 3 4 5 6 
#
# 1 0.015509 -0.010432 -0.004107 -0.001265 0.004733 0.009650
# 2 -0.010432 0.047115 -0.006998 0.037372 -0.033254 -0.032644
# 3 -0.004107 -0.006998 0.014551 -0.025526 0.021386 0.003205
# 4 -0.001265 0.037372 -0.025526 0.216829 -0.134739 -0.068414
# 5 0.004733 -0.033254 0.021386 -0.134739 0.122237 0.052860
# 6 0.009650 -0.032644 0.003205 -0.068414 0.052860 0.062079
#
#
# Mechanical properties :
#
#
# Convention : Reuss Voigt Hill
#
# Bulk Modulus (GPa) = 29.32293 50.79770 40.06032
# Shear Modulus (GPa) = 9.38508 29.45251 19.41879
#
# Velocity S-wave (km/s) = 2.05657 3.64322 2.95825
# Velocity P-wave (km/s) = 4.34211 6.37102 5.45178
#
# Compressibility (1/GPa) = 0.03410300
#
# Stress axis : x y z
#
# Youngs Moduli (GPa) = 64.47788 21.22453 68.72330
#
# Poissons Ratio (x) = 0.22142 0.28222
# Poissons Ratio (y) = 0.67264 0.48089
# Poissons Ratio (z) = 0.26479 0.14852
#
# Static dielectric constant tensor:
#      x y z
#    x 2.763260 -1.146540 0.312480 
#    y -1.146540 3.148820 -0.393560 
#    z 0.312480 -0.393560 1.960310 
# 
# From -- ./inp_files/327373.got.cif
#   From: 2010.05.17/outbox.cif.g08.bks.cpg/sg2_164_cif.got.tgz:327373.got - 2010.06.03 11:33:40.
