data_PCOD9048301
_publ_section_title
;
Structure prediction by ZEFSAII (Michael W. Deem and Ramdas Pophale) SiO2 
 PCOD9048301
Probable space group: P -1
;
_chemical_formula_sum "Si O2"
_cell_formula_units_Z 12
_cell_length_a 8.127487
_cell_length_b 13.421359
_cell_length_c 5.781544
_cell_angle_alpha 95.840862
_cell_angle_beta 91.116162
_cell_angle_gamma 55.330538
_cell_volume 515.424517
_symmetry_space_group_name_H-M "P -1"
_symmetry_group_IT_number 2
_symmetry_cell_setting 'triclinic'
loop_
_space_group_symop_operation_xyz
x,y,z
-x,-y,-z
loop_
_atom_site_type_symbol
_atom_site_label
_atom_site_fract_x
_atom_site_fract_y
_atom_site_fract_z
Si Si1 0.906071 0.944720 0.137993
Si Si2 0.719395 0.495388 0.262817
Si Si3 0.700487 0.988316 0.579838
Si Si4 0.439302 0.395960 0.220415
Si Si5 0.529724 0.161282 0.993575
Si Si6 0.899418 0.758582 0.866722
O O1 0.667878 0.027994 0.081691
O O2 0.872597 0.965820 0.409269
O O3 0.999390 0.804353 0.054283
O O4 0.000000 0.000000 0.000000
O O5 0.576087 0.447179 0.247302
O O6 0.671718 0.568898 0.522616
O O7 0.946002 0.377033 0.244812
O O8 0.681246 0.556695 0.019725
O O9 0.817496 0.861083 0.692869
O O10 0.500000 0.000000 0.500000
O O11 0.613956 0.119092 0.729368
O O12 0.566390 0.250954 0.150733
O O13 0.295994 0.220807 0.016813
#
# Coordination Sequence:
#
# PCOD9048301 Si02
#       6
#     2   2   2   2   2   2
#     4  11  23  41  63  97 131 170 220 270 335 398
#     4  10  24  45  66  94 133 176 224 279 334 392
#     4  11  21  41  67  94 138 175 209 277 339 395
#     4  10  24  45  66  94 133 176 224 279 334 392
#     4  11  23  39  65  97 130 174 221 275 331 400
#     4  11  23  39  65  97 130 174 221 275 331 400
#
# _framework density 23.281780999999999
#
# number of rings (size 3 to 8) (size 9 to 14) (size 15 to 20)
#    0.000    1.333    3.333    2.000    4.667    4.000 
#    6.000    0.000    0.000    0.000    0.000    0.000 
#    0.000    0.000    0.000    0.000    0.000    0.000 
#
# Total GULP energy -66838.323258 kJ/mol
# GULP energy per Si atom -5569.860271 kJ/mol
# Density = 2.322879 g / cm^3
# Si number density = 23.281781 Si / 1000 Ang^3
#
#
#
# Elastic Constant Matrix: (Units=GPa)
#
#
# Indices 1 2 3 4 5 6 
#
# 1 60.6231 -0.0250 35.0935 0.3817 -7.6153 6.9994
# 2 -0.0250 66.0168 33.8293 13.6570 0.7186 -7.8640
# 3 35.0935 33.8293 152.7177 16.6755 -13.0186 8.8712
# 4 0.3817 13.6570 16.6755 36.8054 6.3758 4.1576
# 5 -7.6153 0.7186 -13.0186 6.3758 34.3341 4.4489
# 6 6.9994 -7.8640 8.8712 4.1576 4.4489 34.0016
#
#
#
# Elastic Compliance Matrix: (Units=1/GPa)
#
#
# Indices 1 2 3 4 5 6 
#
# 1 0.019888 0.001796 -0.004680 0.001100 0.002778 -0.002956
# 2 0.001796 0.019410 -0.004593 -0.005578 -0.001517 0.006198
# 3 -0.004680 -0.004593 0.009400 -0.002810 0.003489 -0.002664
# 4 0.001100 -0.005578 -0.002810 0.032005 -0.006143 -0.003893
# 5 0.002778 -0.001517 0.003489 -0.006143 0.032936 -0.005391
# 6 -0.002956 0.006198 -0.002664 -0.003893 -0.005391 0.033329
#
#
# Mechanical properties :
#
#
# Convention : Reuss Voigt Hill
#
# Bulk Modulus (GPa) = 29.63390 46.35034 37.99212
# Shear Modulus (GPa) = 28.87331 35.05888 31.96610
#
# Velocity S-wave (km/s) = 3.52542 3.88474 3.70943
# Velocity P-wave (km/s) = 5.41548 6.33034 5.89070
#
# Compressibility (1/GPa) = 0.03374513
#
# Stress axis : x y z
#
# Youngs Moduli (GPa) = 50.28076 51.51854 106.38639
#
# Poissons Ratio (x) = -0.09250 0.49784
# Poissons Ratio (y) = -0.09028 0.48859
# Poissons Ratio (z) = 0.23529 0.23661
#
# Static dielectric constant tensor:
#      x y z
#    x 1.152350 -0.064240 0.451700 
#    y -0.064240 1.844400 -0.050890 
#    z 0.451700 -0.050890 2.134990 
# 
# From -- ./inp_files/30370.got.cif
#   From: 2010.05.17/outbox.cif.g08.bks.cpg/sg2_16_cif.got.tgz:30370.got - 2010.06.03 11:33:40.
