data_PCOD9048651
_publ_section_title
;
Structure prediction by ZEFSAII (Michael W. Deem and Ramdas Pophale) SiO2 
 PCOD9048651
Probable space group: P -1
;
_chemical_formula_sum "Si O2"
_cell_formula_units_Z 14
_cell_length_a 20.950547
_cell_length_b 8.040779
_cell_length_c 16.935343
_cell_angle_alpha 45.400636
_cell_angle_beta 20.767713
_cell_angle_gamma 35.802063
_cell_volume 569.628306
_symmetry_space_group_name_H-M "P -1"
_symmetry_group_IT_number 2
_symmetry_cell_setting 'triclinic'
loop_
_space_group_symop_operation_xyz
x,y,z
-x,-y,-z
loop_
_atom_site_type_symbol
_atom_site_label
_atom_site_fract_x
_atom_site_fract_y
_atom_site_fract_z
Si Si1 0.279764 0.708656 0.518902
Si Si2 0.633988 0.689625 0.595159
Si Si3 0.323096 0.795943 0.056223
Si Si4 0.650601 0.167306 0.356112
Si Si5 0.854291 0.662073 0.816829
Si Si6 0.937786 0.055014 0.928116
Si Si7 0.117123 0.178041 0.438688
O O1 0.304726 0.496636 0.492976
O O2 0.470447 0.508303 0.430237
O O3 0.042344 0.889805 0.780227
O O4 0.292500 0.941404 0.379211
O O5 0.872012 0.519589 0.425139
O O6 0.552828 0.011669 0.558303
O O7 0.441426 0.719061 0.859737
O O8 0.081153 0.858693 0.323244
O O9 0.278729 0.089629 0.044850
O O10 0.500000 0.500000 0.000000
O O11 0.849297 0.088073 0.210992
O O12 0.767611 0.025212 0.182713
O O13 0.791442 0.834018 0.749304
O O14 0.830516 0.400385 0.929163
O O15 0.000000 0.500000 0.500000
#
# Coordination Sequence:
#
# PCOD9048651 Si02
#       7
#     2   2   2   2   2   2   2
#     4  12  24  43  70  99 142 172 231 288 340 410
#     4  11  25  44  71 102 136 182 232 280 341 416
#     4  12  25  45  74 100 139 189 231 275 352 414
#     4  10  25  45  67 100 139 181 231 278 347 411
#     4  11  23  46  69 100 140 181 227 283 346 411
#     4  10  24  45  70  99 136 183 227 283 347 411
#     4  12  25  45  69 106 140 175 229 292 343 406
#
# _framework density 24.57743
#
# number of rings (size 3 to 8) (size 9 to 14) (size 15 to 20)
#    0.000    0.857    4.286    2.143    2.000    7.429 
#    0.000    2.143    0.000    0.000    0.000    0.000 
#    0.000    0.000    0.000    0.000    0.000    0.000 
#
# Total GULP energy -78407.970556 kJ/mol
# GULP energy per Si atom -5600.569325 kJ/mol
# Density = 2.452149 g / cm^3
# Si number density = 24.577430 Si / 1000 Ang^3
#
#
#
# Elastic Constant Matrix: (Units=GPa)
#
#
# Indices 1 2 3 4 5 6 
#
# 1 68.5669 39.0959 28.9849 1.4514 21.3913 -13.3399
# 2 39.0959 144.9028 23.9390 8.2741 1.3265 -34.2173
# 3 28.9849 23.9390 80.7399 -2.2268 24.7016 -6.1762
# 4 1.4514 8.2741 -2.2268 38.6606 0.8411 7.6709
# 5 21.3913 1.3265 24.7016 0.8411 49.8568 8.7634
# 6 -13.3399 -34.2173 -6.1762 7.6709 8.7634 54.0210
#
#
#
# Elastic Compliance Matrix: (Units=1/GPa)
#
#
# Indices 1 2 3 4 5 6 
#
# 1 0.021884 -0.004294 -0.003883 -0.000673 -0.007978 0.003630
# 2 -0.004294 0.009663 -0.001468 -0.003032 0.001470 0.005084
# 3 -0.003883 -0.001468 0.016322 0.001375 -0.006554 0.000845
# 4 -0.000673 -0.003032 0.001375 0.027788 0.000259 -0.005917
# 5 -0.007978 0.001470 -0.006554 0.000259 0.027797 -0.006334
# 6 0.003630 0.005084 0.000845 -0.005917 -0.006334 0.024592
#
#
# Mechanical properties :
#
#
# Convention : Reuss Voigt Hill
#
# Bulk Modulus (GPa) = 34.99165 53.13880 44.06522
# Shear Modulus (GPa) = 31.87516 41.98701 36.93108
#
# Velocity S-wave (km/s) = 3.60520 4.13771 3.88060
# Velocity P-wave (km/s) = 5.62122 6.67049 6.16821
#
# Compressibility (1/GPa) = 0.02857825
#
# Stress axis : x y z
#
# Youngs Moduli (GPa) = 45.69643 103.49237 61.26639
#
# Poissons Ratio (x) = 0.44443 0.23789
# Poissons Ratio (y) = 0.19623 0.08992
# Poissons Ratio (z) = 0.17744 0.15190
#
# Static dielectric constant tensor:
#      x y z
#    x 1.989330 -0.030720 -0.027960 
#    y -0.030720 1.925510 0.024780 
#    z -0.027960 0.024780 1.948030 
# 
# From -- ./inp_files/28117.got.cif
#   From: 2010.05.17/outbox.cif.g08.bks.cpg/sg2_15_cif.got.tgz:28117.got - 2010.06.03 11:33:40.
