data_PCOD9048962
_publ_section_title
;
Structure prediction by ZEFSAII (Michael W. Deem and Ramdas Pophale) SiO2 
 PCOD9048962
Probable space group: P -1
;
_chemical_formula_sum "Si O2"
_cell_formula_units_Z 16
_cell_length_a 18.467379
_cell_length_b 9.200947
_cell_length_c 5.066680
_cell_angle_alpha 83.446090
_cell_angle_beta 95.658447
_cell_angle_gamma 47.225383
_cell_volume 609.226894
_symmetry_space_group_name_H-M "P -1"
_symmetry_group_IT_number 2
_symmetry_cell_setting 'triclinic'
loop_
_space_group_symop_operation_xyz
x,y,z
-x,-y,-z
loop_
_atom_site_type_symbol
_atom_site_label
_atom_site_fract_x
_atom_site_fract_y
_atom_site_fract_z
Si Si1 0.501160 0.745969 0.969748
Si Si2 0.889614 0.230225 0.905889
Si Si3 0.196017 0.052869 0.265243
Si Si4 0.799323 0.203598 0.377658
Si Si5 0.627710 0.346389 0.881274
Si Si6 0.925844 0.608351 0.203127
Si Si7 0.407155 0.149496 0.638800
Si Si8 0.811475 0.614187 0.567760
O O1 0.450483 0.676721 0.098770
O O2 0.412604 0.984808 0.822035
O O3 0.563251 0.586943 0.780254
O O4 0.572936 0.744820 0.178388
O O5 0.816002 0.266460 0.645467
O O6 0.891152 0.398354 0.792208
O O7 0.844152 0.249307 0.166358
O O8 0.000000 0.000000 0.000000
O O9 0.205383 0.201448 0.352537
O O10 0.140487 0.027761 0.460486
O O11 0.140215 0.157669 0.947903
O O12 0.298507 0.821099 0.280820
O O13 0.697378 0.286819 0.175633
O O14 0.845527 0.597776 0.280788
O O15 0.000000 0.500000 0.500000
O O16 0.000000 0.500000 0.000000
O O17 0.296484 0.311919 0.447894
O O18 0.500000 0.000000 0.500000
#
# Coordination Sequence:
#
# PCOD9048962 Si02
#       8
#     2   2   2   2   2   2   2   2
#     4  10  24  45  77 116 160 204 281 331 419 492
#     4  12  31  52  80 116 171 216 275 341 430 496
#     4  12  26  49  82 115 165 210 288 334 423 484
#     4  12  27  51  79 115 162 213 270 336 413 497
#     4  11  24  47  78 116 156 220 268 348 406 498
#     4  12  28  49  81 119 159 214 284 349 411 487
#     4  11  24  46  79 118 169 214 273 342 423 501
#     4  12  29  49  82 126 166 226 280 352 423 507
#
# _framework density 26.262792999999999
#
# number of rings (size 3 to 8) (size 9 to 14) (size 15 to 20)
#    0.000    0.500    2.500    4.125    7.000    2.000 
#    0.000    3.125    0.000    0.000    0.000    0.000 
#    0.000    0.000    0.000    0.000    0.000    0.000 
#
# Total GULP energy -89397.433243 kJ/mol
# GULP energy per Si atom -5587.339578 kJ/mol
# Density = 2.620302 g / cm^3
# Si number density = 26.262793 Si / 1000 Ang^3
#
#
#
# Elastic Constant Matrix: (Units=GPa)
#
#
# Indices 1 2 3 4 5 6 
#
# 1 106.1500 63.4804 21.3426 -4.6323 -5.4544 17.5035
# 2 63.4804 167.2050 42.4823 9.7304 -11.0218 31.4959
# 3 21.3426 42.4823 131.5234 -8.0610 -32.8463 15.6971
# 4 -4.6323 9.7304 -8.0610 35.2222 -0.6575 -6.3228
# 5 -5.4544 -11.0218 -32.8463 -0.6575 45.1431 -1.0153
# 6 17.5035 31.4959 15.6971 -6.3228 -1.0153 54.1438
#
#
#
# Elastic Compliance Matrix: (Units=1/GPa)
#
#
# Indices 1 2 3 4 5 6 
#
# 1 0.012545 -0.004679 -0.000177 0.002735 0.000263 -0.000958
# 2 -0.004679 0.009237 -0.002019 -0.004306 0.000073 -0.003777
# 3 -0.000177 -0.002019 0.010372 0.002804 0.007044 -0.001316
# 4 0.002735 -0.004306 0.002804 0.031427 0.001878 0.004513
# 5 0.000263 0.000073 0.007044 0.001878 0.027321 -0.001438
# 6 -0.000958 -0.003777 -0.001316 0.004513 -0.001438 0.021857
#
#
# Mechanical properties :
#
#
# Convention : Reuss Voigt Hill
#
# Bulk Modulus (GPa) = 54.33602 73.27656 63.80629
# Shear Modulus (GPa) = 37.69437 45.40670 41.55053
#
# Velocity S-wave (km/s) = 3.79261 4.16256 3.98189
# Velocity P-wave (km/s) = 6.31766 7.14593 6.74452
#
# Compressibility (1/GPa) = 0.01840400
#
# Stress axis : x y z
#
# Youngs Moduli (GPa) = 79.71033 108.25952 96.41342
#
# Poissons Ratio (x) = 0.50659 0.01703
# Poissons Ratio (y) = 0.37300 0.19468
# Poissons Ratio (z) = 0.01408 0.21860
#
# Static dielectric constant tensor:
#      x y z
#    x 2.369800 0.146570 0.064050 
#    y 0.146570 2.232400 0.092990 
#    z 0.064050 0.092990 2.214490 
# 
# From -- ./inp_files/106702.got.cif
#   From: 2010.05.17/outbox.cif.g08.bks.cpg/sg2_54_cif.got.tgz:106702.got - 2010.06.03 11:33:40.
