data_PCOD9048709
_publ_section_title
;
Structure prediction by ZEFSAII (Michael W. Deem and Ramdas Pophale) SiO2 
 PCOD9048709
Probable space group: P -1
;
_chemical_formula_sum "Si O2"
_cell_formula_units_Z 12
_cell_length_a 19.028368
_cell_length_b 10.793967
_cell_length_c 7.384118
_cell_angle_alpha 136.509644
_cell_angle_beta 136.878451
_cell_angle_gamma 31.189537
_cell_volume 514.518008
_symmetry_space_group_name_H-M "P -1"
_symmetry_group_IT_number 2
_symmetry_cell_setting 'triclinic'
loop_
_space_group_symop_operation_xyz
x,y,z
-x,-y,-z
loop_
_atom_site_type_symbol
_atom_site_label
_atom_site_fract_x
_atom_site_fract_y
_atom_site_fract_z
Si Si1 0.257622 0.762190 0.405510
Si Si2 0.184362 0.326391 0.365838
Si Si3 0.613044 0.138939 0.956524
Si Si4 0.957183 0.141055 0.379981
Si Si5 0.737982 0.121776 0.842983
Si Si6 0.396472 0.253897 0.960852
O O1 0.300193 0.816458 0.722549
O O2 0.299867 0.834512 0.390809
O O3 0.333269 0.481869 0.215964
O O4 0.087989 0.945840 0.285497
O O5 0.069111 0.613132 0.400085
O O6 0.272341 0.295032 0.669556
O O7 0.145566 0.171383 0.191850
O O8 0.291627 0.154297 0.217947
O O9 0.604478 0.231934 0.836076
O O10 0.482125 0.244263 0.946078
O O11 0.811531 0.222358 0.129087
O O12 0.000000 0.000000 0.500000
O O13 0.500000 0.000000 0.000000
#
# Coordination Sequence:
#
# PCOD9048709 Si02
#       6
#     2   2   2   2   2   2
#     4  12  25  46  73 107 142 191 237 293 362 416
#     4  10  25  48  71 107 140 189 235 290 362 412
#     4  10  25  46  71 104 143 188 236 291 357 417
#     4  12  24  47  74 105 147 185 236 295 359 426
#     4  10  24  45  71 108 139 187 232 297 350 423
#     4  12  26  46  73 105 146 188 242 293 350 431
#
# _framework density 23.322799
#
# number of rings (size 3 to 8) (size 9 to 14) (size 15 to 20)
#    1.000    0.000    3.333    2.500    2.333    4.000 
#    3.000    0.000    0.000    0.000    0.000    0.000 
#    0.000    0.000    0.000    0.000    0.000    0.000 
#
# Total GULP energy -67061.259335 kJ/mol
# GULP energy per Si atom -5588.438278 kJ/mol
# Density = 2.326971 g / cm^3
# Si number density = 23.322799 Si / 1000 Ang^3
#
#
#
# Elastic Constant Matrix: (Units=GPa)
#
#
# Indices 1 2 3 4 5 6 
#
# 1 91.6107 29.3868 12.0504 5.3233 -8.8470 -0.5604
# 2 29.3868 146.6666 34.8748 42.4589 -11.6196 5.1937
# 3 12.0504 34.8748 74.8001 18.6003 -13.6985 11.5176
# 4 5.3233 42.4589 18.6003 44.4754 3.5380 -1.9131
# 5 -8.8470 -11.6196 -13.6985 3.5380 35.5623 -2.1854
# 6 -0.5604 5.1937 11.5176 -1.9131 -2.1854 31.3619
#
#
#
# Elastic Compliance Matrix: (Units=1/GPa)
#
#
# Indices 1 2 3 4 5 6 
#
# 1 0.011921 -0.002404 -0.000944 0.001171 0.001771 0.001153
# 2 -0.002404 0.010764 -0.001344 -0.009759 0.003267 -0.001699
# 3 -0.000944 -0.001344 0.018069 -0.006959 0.006585 -0.006396
# 4 0.001171 -0.009759 -0.006959 0.035515 -0.008758 0.005749
# 5 0.001771 0.003267 0.006585 -0.008758 0.032964 -0.001165
# 6 0.001153 -0.001699 -0.006396 0.005749 -0.001165 0.034806
#
#
# Mechanical properties :
#
#
# Convention : Reuss Voigt Hill
#
# Bulk Modulus (GPa) = 31.87865 51.74459 41.81162
# Shear Modulus (GPa) = 30.51007 38.06427 34.28717
#
# Velocity S-wave (km/s) = 3.62078 4.04426 3.83837
# Velocity P-wave (km/s) = 5.58374 6.63645 6.13273
#
# Compressibility (1/GPa) = 0.03136896
#
# Stress axis : x y z
#
# Youngs Moduli (GPa) = 83.88550 92.90606 55.34234
#
# Poissons Ratio (x) = 0.22332 0.05226
# Poissons Ratio (y) = 0.20163 0.07441
# Poissons Ratio (z) = 0.07922 0.12491
#
# Static dielectric constant tensor:
#      x y z
#    x 1.875940 -0.014100 0.010550 
#    y -0.014100 1.938100 0.012790 
#    z 0.010550 0.012790 1.860860 
# 
# From -- ./inp_files/344858.got.cif
#   From: 2010.05.17/outbox.cif.g08.bks.cpg/sg2_173_cif.got.tgz:344858.got - 2010.06.03 11:33:40.
