data_PCOD9048890
_publ_section_title
;
Structure prediction by ZEFSAII (Michael W. Deem and Ramdas Pophale) SiO2 
 PCOD9048890
Probable space group: P -1
;
_chemical_formula_sum "Si O2"
_cell_formula_units_Z 10
_cell_length_a 10.828170
_cell_length_b 5.658301
_cell_length_c 11.361246
_cell_angle_alpha 80.350636
_cell_angle_beta 38.498803
_cell_angle_gamma 97.301680
_cell_volume 387.512222
_symmetry_space_group_name_H-M "P -1"
_symmetry_group_IT_number 2
_symmetry_cell_setting 'triclinic'
loop_
_space_group_symop_operation_xyz
x,y,z
-x,-y,-z
loop_
_atom_site_type_symbol
_atom_site_label
_atom_site_fract_x
_atom_site_fract_y
_atom_site_fract_z
Si Si1 0.870324 0.689049 0.595430
Si Si2 0.613515 0.010757 0.589684
Si Si3 0.246430 0.150983 0.750923
Si Si4 0.113992 0.429699 0.654119
Si Si5 0.374936 0.764495 0.019535
O O1 0.791809 0.662385 0.520318
O O2 0.700983 0.519027 0.835462
O O3 0.000000 0.500000 0.500000
O O4 0.000000 0.000000 0.500000
O O5 0.425367 0.126434 0.705219
O O6 0.834165 0.267768 0.431176
O O7 0.676693 0.933561 0.422243
O O8 0.521760 0.829698 0.788419
O O9 0.225114 0.412540 0.696504
O O10 0.000000 0.000000 0.000000
O O11 0.856531 0.247659 0.854450
O O12 0.500000 0.000000 0.000000
#
# Coordination Sequence:
#
# PCOD9048890 Si02
#       5
#     2   2   2   2   2
#     4  10  24  45  74 113 158 208 259 326 402 481
#     4  11  25  49  75 115 153 207 265 333 396 481
#     4  11  25  48  76 109 153 208 269 329 398 473
#     4  11  24  45  76 107 162 199 268 324 402 473
#     4  11  23  47  78 114 159 205 262 330 402 481
#
# _framework density 25.805638999999999
#
# number of rings (size 3 to 8) (size 9 to 14) (size 15 to 20)
#    0.000    1.200    4.000    0.600    5.600    0.800 
#   10.800    5.000    0.000    0.000    0.000    0.000 
#    0.000    0.000    0.000    0.000    0.000    0.000 
#
# Total GULP energy -55697.572631 kJ/mol
# GULP energy per Si atom -5569.757263 kJ/mol
# Density = 2.574690 g / cm^3
# Si number density = 25.805639 Si / 1000 Ang^3
#
#
#
# Elastic Constant Matrix: (Units=GPa)
#
#
# Indices 1 2 3 4 5 6 
#
# 1 92.6015 10.7389 47.2930 -16.3651 11.1838 -6.9016
# 2 10.7389 94.9066 61.6192 -29.8009 9.5488 2.2320
# 3 47.2930 61.6192 228.8327 -6.1459 14.9399 -18.9596
# 4 -16.3651 -29.8009 -6.1459 53.9900 -19.7011 0.6025
# 5 11.1838 9.5488 14.9399 -19.7011 60.1205 -5.5890
# 6 -6.9016 2.2320 -18.9596 0.6025 -5.5890 34.7265
#
#
#
# Elastic Compliance Matrix: (Units=1/GPa)
#
#
# Indices 1 2 3 4 5 6 
#
# 1 0.013005 0.001912 -0.002997 0.004486 -0.000445 0.000676
# 2 0.001912 0.016489 -0.004927 0.009546 0.001065 -0.003364
# 3 -0.002997 -0.004927 0.006562 -0.003310 -0.001079 0.003187
# 4 0.004486 0.009546 -0.003310 0.027484 0.007403 -0.000815
# 5 -0.000445 0.001065 -0.001079 0.007403 0.019451 0.002256
# 6 0.000676 -0.003364 0.003187 -0.000815 0.002256 0.031264
#
#
# Mechanical properties :
#
#
# Convention : Reuss Voigt Hill
#
# Bulk Modulus (GPa) = 41.61305 72.84922 57.23113
# Shear Modulus (GPa) = 37.23306 49.54673 43.38989
#
# Velocity S-wave (km/s) = 3.80258 4.38653 4.10495
# Velocity P-wave (km/s) = 5.95315 7.34485 6.68531
#
# Compressibility (1/GPa) = 0.02403092
#
# Stress axis : x y z
#
# Youngs Moduli (GPa) = 76.89468 60.64750 152.39876
#
# Poissons Ratio (x) = -0.11595 0.45673
# Poissons Ratio (y) = -0.14701 0.75087
# Poissons Ratio (z) = 0.23045 0.29881
#
# Static dielectric constant tensor:
#      x y z
#    x 2.273600 -0.161270 -0.023150 
#    y -0.161270 2.128540 0.052470 
#    z -0.023150 0.052470 2.110710 
# 
# From -- ./inp_files/132638.got.cif
#   From: 2010.05.17/outbox.cif.g08.bks.cpg/sg2_67_cif.got.tgz:132638.got - 2010.06.03 11:33:40.
