data_PCOD9048814
_publ_section_title
;
Structure prediction by ZEFSAII (Michael W. Deem and Ramdas Pophale) SiO2 
 PCOD9048814
Probable space group: P -1
;
_chemical_formula_sum "Si O2"
_cell_formula_units_Z 12
_cell_length_a 21.168893
_cell_length_b 5.168496
_cell_length_c 8.178254
_cell_angle_alpha 79.767571
_cell_angle_beta 33.518645
_cell_angle_gamma 76.662779
_cell_volume 480.606481
_symmetry_space_group_name_H-M "P -1"
_symmetry_group_IT_number 2
_symmetry_cell_setting 'triclinic'
loop_
_space_group_symop_operation_xyz
x,y,z
-x,-y,-z
loop_
_atom_site_type_symbol
_atom_site_label
_atom_site_fract_x
_atom_site_fract_y
_atom_site_fract_z
Si Si1 0.903495 0.217912 0.769382
Si Si2 0.271008 0.365509 0.082223
Si Si3 0.664845 0.124485 0.230605
Si Si4 0.060116 0.710259 0.949282
Si Si5 0.313081 0.530618 0.318754
Si Si6 0.480018 0.154431 0.195985
O O1 0.850454 0.460888 0.735930
O O2 0.943303 0.320794 0.844216
O O3 0.000000 0.000000 0.500000
O O4 0.785371 0.093581 0.076884
O O5 0.297770 0.081593 0.973180
O O6 0.355239 0.568183 0.811997
O O7 0.285070 0.349484 0.247629
O O8 0.557580 0.036667 0.564927
O O9 0.192411 0.692567 0.610682
O O10 0.000000 0.500000 0.000000
O O11 0.000000 0.000000 0.000000
O O12 0.368678 0.374529 0.374647
O O13 0.410714 0.699008 0.029383
O O14 0.500000 0.000000 0.000000
#
# Coordination Sequence:
#
# PCOD9048814 Si02
#       6
#     2   2   2   2   2   2
#     4  10  24  45  73 103 148 192 244 297 367 432
#     4  10  25  44  72 101 147 185 243 298 362 433
#     4  10  25  45  70 101 141 187 237 299 363 424
#     4  12  29  45  76 109 150 193 244 305 365 442
#     4  11  27  47  72 111 144 193 251 296 373 431
#     4  11  26  46  77  99 150 193 242 308 359 442
#
# _framework density 24.968451999999999
#
# number of rings (size 3 to 8) (size 9 to 14) (size 15 to 20)
#    1.000    0.333    0.000    3.000   16.333    2.000 
#    0.000    0.000    0.000    0.000    0.000    0.000 
#    0.000    0.000    0.000    0.000    0.000    0.000 
#
# Total GULP energy -67210.439737 kJ/mol
# GULP energy per Si atom -5600.869978 kJ/mol
# Density = 2.491162 g / cm^3
# Si number density = 24.968452 Si / 1000 Ang^3
#
#
#
# Elastic Constant Matrix: (Units=GPa)
#
#
# Indices 1 2 3 4 5 6 
#
# 1 163.4482 47.3483 39.5781 8.8934 -7.1253 19.5324
# 2 47.3483 97.0297 9.9290 2.3324 -21.8681 5.6473
# 3 39.5781 9.9290 102.2048 2.8898 -24.4285 1.4027
# 4 8.8934 2.3324 2.8898 41.9909 -2.7687 3.4536
# 5 -7.1253 -21.8681 -24.4285 -2.7687 34.3656 14.2936
# 6 19.5324 5.6473 1.4027 3.4536 14.2936 51.6787
#
#
#
# Elastic Compliance Matrix: (Units=1/GPa)
#
#
# Indices 1 2 3 4 5 6 
#
# 1 0.008321 -0.004199 -0.003411 -0.001333 -0.002753 -0.001743
# 2 -0.004199 0.015059 0.003198 0.000967 0.012600 -0.003695
# 3 -0.003411 0.003198 0.013775 0.000652 0.012379 -0.002901
# 4 -0.001333 0.000967 0.000652 0.024431 0.003720 -0.002281
# 5 -0.002753 0.012600 0.012379 0.003720 0.052011 -0.015306
# 6 -0.001743 -0.003695 -0.002901 -0.002281 -0.015306 0.024878
#
#
# Mechanical properties :
#
#
# Convention : Reuss Voigt Hill
#
# Bulk Modulus (GPa) = 35.29586 61.82148 48.55867
# Shear Modulus (GPa) = 31.89948 43.32885 37.61417
#
# Velocity S-wave (km/s) = 3.57822 4.17027 3.88553
# Velocity P-wave (km/s) = 5.58913 6.92833 6.29445
#
# Compressibility (1/GPa) = 0.02833193
#
# Stress axis : x y z
#
# Youngs Moduli (GPa) = 120.17626 66.40398 72.59773
#
# Poissons Ratio (x) = 0.27880 0.24763
# Poissons Ratio (y) = 0.50457 -0.23216
# Poissons Ratio (z) = 0.40991 -0.21236
#
# Static dielectric constant tensor:
#      x y z
#    x 2.020220 -0.028640 -0.020500 
#    y -0.028640 1.963660 -0.019300 
#    z -0.020500 -0.019300 1.971270 
# 
# From -- ./inp_files/89736.got.cif
#   From: 2010.05.17/outbox.cif.g08.bks.cpg/sg2_45_cif.got.tgz:89736.got - 2010.06.03 11:33:40.
