data_PCOD9048697
_publ_section_title
;
Structure prediction by ZEFSAII (Michael W. Deem and Ramdas Pophale) SiO2 
 PCOD9048697
Probable space group: P -1
;
_chemical_formula_sum "Si O2"
_cell_formula_units_Z 12
_cell_length_a 15.509877
_cell_length_b 8.687672
_cell_length_c 5.637226
_cell_angle_alpha 64.980528
_cell_angle_beta 91.805278
_cell_angle_gamma 131.330958
_cell_volume 481.364880
_symmetry_space_group_name_H-M "P -1"
_symmetry_group_IT_number 2
_symmetry_cell_setting 'triclinic'
loop_
_space_group_symop_operation_xyz
x,y,z
-x,-y,-z
loop_
_atom_site_type_symbol
_atom_site_label
_atom_site_fract_x
_atom_site_fract_y
_atom_site_fract_z
Si Si1 0.432863 0.874869 0.820248
Si Si2 0.635995 0.535142 0.694330
Si Si3 0.927732 0.513551 0.176336
Si Si4 0.629561 0.867503 0.285893
Si Si5 0.829331 0.075304 0.768646
Si Si6 0.865415 0.766730 0.730490
O O1 0.500000 0.000000 0.500000
O O2 0.336041 0.891939 0.810226
O O3 0.399802 0.630317 0.976879
O O4 0.500000 0.000000 0.000000
O O5 0.651914 0.758651 0.558365
O O6 0.517961 0.347168 0.635570
O O7 0.766849 0.627887 0.592632
O O8 0.842464 0.260141 0.479531
O O9 0.038673 0.734481 0.209601
O O10 0.871851 0.603421 0.988505
O O11 0.000000 0.500000 0.000000
O O12 0.713398 0.934127 0.026878
O O13 0.824425 0.878019 0.793965
O O14 0.000000 0.000000 0.500000
#
# Coordination Sequence:
#
# PCOD9048697 Si02
#       6
#     2   2   2   2   2   2
#     4  10  24  45  71 105 146 198 249 305 368 450
#     4  10  25  43  72 104 147 191 243 301 379 439
#     4  11  25  47  73 103 143 194 244 303 376 447
#     4  10  24  46  70 107 149 189 249 303 380 447
#     4  11  26  45  74 107 143 192 243 311 371 445
#     4  12  25  43  71 105 145 189 248 303 370 448
#
# _framework density 24.929117000000002
#
# number of rings (size 3 to 8) (size 9 to 14) (size 15 to 20)
#    0.000    1.333    1.667    1.500    2.333   12.000 
#    0.000    0.000    0.000    0.000    0.000    0.000 
#    0.000    0.000    0.000    0.000    0.000    0.000 
#
# Total GULP energy -66945.908845 kJ/mol
# GULP energy per Si atom -5578.825737 kJ/mol
# Density = 2.487238 g / cm^3
# Si number density = 24.929117 Si / 1000 Ang^3
#
#
#
# Elastic Constant Matrix: (Units=GPa)
#
#
# Indices 1 2 3 4 5 6 
#
# 1 192.2750 62.8568 106.0086 -1.2888 46.8776 -2.5587
# 2 62.8568 123.7425 69.2443 -22.8028 23.9421 11.4675
# 3 106.0086 69.2443 172.6477 -33.0158 40.8903 -19.0397
# 4 -1.2888 -22.8028 -33.0158 32.2024 -10.2766 4.2023
# 5 46.8776 23.9421 40.8903 -10.2766 76.1589 0.7865
# 6 -2.5587 11.4675 -19.0397 4.2023 0.7865 60.2616
#
#
#
# Elastic Compliance Matrix: (Units=1/GPa)
#
#
# Indices 1 2 3 4 5 6 
#
# 1 0.010202 -0.002712 -0.006104 -0.008792 -0.003333 -0.000323
# 2 -0.002712 0.012394 -0.002449 0.006649 0.000023 -0.003711
# 3 -0.006104 -0.002449 0.013265 0.010767 -0.001180 0.003662
# 4 -0.008792 0.006649 0.010767 0.047947 0.004027 -0.001633
# 5 -0.003333 0.000023 -0.001180 0.004027 0.016362 -0.001013
# 6 -0.000323 -0.003711 0.003662 -0.001633 -0.001013 0.018571
#
#
# Mechanical properties :
#
#
# Convention : Reuss Voigt Hill
#
# Bulk Modulus (GPa) = 75.01625 107.20939 91.11282
# Shear Modulus (GPa) = 34.31364 50.42828 42.37096
#
# Velocity S-wave (km/s) = 3.71408 4.50251 4.12716
# Velocity P-wave (km/s) = 6.96776 8.37432 7.70321
#
# Compressibility (1/GPa) = 0.01333045
#
# Stress axis : x y z
#
# Youngs Moduli (GPa) = 98.01746 80.68451 75.38754
#
# Poissons Ratio (x) = 0.21881 0.46018
# Poissons Ratio (y) = 0.26582 0.18463
# Poissons Ratio (z) = 0.59832 0.19761
#
# Static dielectric constant tensor:
#      x y z
#    x 2.030530 0.203190 0.130060 
#    y 0.203190 2.320530 0.056320 
#    z 0.130060 0.056320 2.038660 
# 
# From -- ./inp_files/89699.got.cif
#   From: 2010.05.17/outbox.cif.g08.bks.cpg/sg2_45_cif.got.tgz:89699.got - 2010.06.03 11:33:40.
