data_PCOD9048369
_publ_section_title
;
Structure prediction by ZEFSAII (Michael W. Deem and Ramdas Pophale) SiO2 
 PCOD9048369
Probable space group: P -1
;
_chemical_formula_sum "Si O2"
_cell_formula_units_Z 13
_cell_length_a 14.685797
_cell_length_b 10.148241
_cell_length_c 7.128508
_cell_angle_alpha 134.711303
_cell_angle_beta 129.184440
_cell_angle_gamma 55.774888
_cell_volume 571.644808
_symmetry_space_group_name_H-M "P -1"
_symmetry_group_IT_number 2
_symmetry_cell_setting 'triclinic'
loop_
_space_group_symop_operation_xyz
x,y,z
-x,-y,-z
loop_
_atom_site_type_symbol
_atom_site_label
_atom_site_fract_x
_atom_site_fract_y
_atom_site_fract_z
Si Si1 0.008229 0.735236 0.593676
Si Si2 0.399079 0.426879 0.176782
Si Si3 0.980393 0.679905 0.919691
Si Si4 0.000000 0.000000 0.500000
Si Si5 0.718699 0.697578 0.761802
Si Si6 0.438757 0.913337 0.162692
Si Si7 0.296531 0.621887 0.864334
O O1 0.973461 0.541888 0.281415
O O2 0.153060 0.685657 0.751351
O O3 0.958995 0.773313 0.778517
O O4 0.974830 0.900054 0.565367
O O5 0.500000 0.500000 0.500000
O O6 0.295560 0.399082 0.156206
O O7 0.461943 0.224687 0.968532
O O8 0.350878 0.567217 0.084642
O O9 0.851481 0.710773 0.885602
O O10 0.053262 0.787021 0.260653
O O11 0.673919 0.566894 0.415023
O O12 0.638119 0.908767 0.870097
O O13 0.500000 0.000000 0.500000
O O14 0.351908 0.783776 0.002358
#
# Coordination Sequence:
#
# PCOD9048369 Si02
#       7
#     2   2   2   1   2   2   2
#     4  10  24  45  71  96 138 182 217 277 339 404
#     4  12  24  44  71  98 135 181 225 280 333 396
#     4  10  24  45  67  99 139 175 219 280 338 399
#     4  12  22  42  70 102 132 168 230 276 332 392
#     4  11  24  44  68  99 134 179 228 272 337 405
#     4  12  23  43  69  98 136 177 220 284 338 393
#     4  11  24  45  66 100 138 176 222 279 340 396
#
# _framework density 22.741396000000002
#
# number of rings (size 3 to 8) (size 9 to 14) (size 15 to 20)
#    0.000    0.923    3.077    3.692    0.000    6.154 
#    5.538    0.000    0.000    0.000    0.000    0.000 
#    0.000    0.000    0.000    0.000    0.000    0.000 
#
# Total GULP energy -72549.547856 kJ/mol
# GULP energy per Si atom -5580.734450 kJ/mol
# Density = 2.268964 g / cm^3
# Si number density = 22.741396 Si / 1000 Ang^3
#
#
#
# Elastic Constant Matrix: (Units=GPa)
#
#
# Indices 1 2 3 4 5 6 
#
# 1 104.6866 9.8353 32.9736 -5.7130 -6.8565 26.0254
# 2 9.8353 41.9141 41.7279 12.6036 29.3280 44.0491
# 3 32.9736 41.7279 105.5446 0.9872 -19.7619 -7.7686
# 4 -5.7130 12.6036 0.9872 25.2258 -2.5928 -10.6968
# 5 -6.8565 29.3280 -19.7619 -2.5928 22.3763 -12.2457
# 6 26.0254 44.0491 -7.7686 -10.6968 -12.2457 26.2253
#
#
#
# Elastic Compliance Matrix: (Units=1/GPa)
#
#
# Indices 1 2 3 4 5 6 
#
# 1 0.011553 -0.003176 -0.001592 0.003695 0.005287 -0.002627
# 2 -0.003176 -0.000398 0.003861 0.005400 0.010083 0.011874
# 3 -0.001592 0.003861 0.007409 -0.005689 -0.003247 -0.006547
# 4 0.003695 0.005400 -0.005689 0.035167 -0.009320 -0.004430
# 5 0.005287 0.010083 -0.003247 -0.009320 0.019345 -0.017912
# 6 -0.002627 0.011874 -0.006547 -0.004430 -0.017912 0.008683
#
#
# Mechanical properties :
#
#
# Convention : Reuss Voigt Hill
#
# Bulk Modulus (GPa) = 59.69934 46.80212 53.25073
# Shear Modulus (GPa) = 56.08158 25.93938 41.01048
#
# Velocity S-wave (km/s) = 4.97133 3.38098 4.25118
# Velocity P-wave (km/s) = 7.69809 5.98884 6.89662
#
# Compressibility (1/GPa) = 0.01675060
#
# Stress axis : x y z
#
# Youngs Moduli (GPa) = 86.55726 -2512.02718 134.97187
#
# Poissons Ratio (x) = -7.97718 0.21486
# Poissons Ratio (y) = 0.27487 -0.52110
# Poissons Ratio (z) = 0.13779 9.69847
#
# Static dielectric constant tensor:
#      x y z
#    x 1.840590 0.001710 0.030120 
#    y 0.001710 1.807260 -0.008660 
#    z 0.030120 -0.008660 1.896900 
# 
# From -- ./inp_files/34223.got.cif
#   From: 2010.05.17/outbox.cif.g08.bks.cpg/sg2_18_cif.got.tgz:34223.got - 2010.06.03 11:33:40.
