data_PCOD9048467
_publ_section_title
;
Structure prediction by ZEFSAII (Michael W. Deem and Ramdas Pophale) SiO2 
 PCOD9048467
Probable space group: P -1
;
_chemical_formula_sum "Si O2"
_cell_formula_units_Z 13
_cell_length_a 6.702243
_cell_length_b 9.687203
_cell_length_c 12.530285
_cell_angle_alpha 60.108725
_cell_angle_beta 87.028356
_cell_angle_gamma 50.038753
_cell_volume 494.610909
_symmetry_space_group_name_H-M "P -1"
_symmetry_group_IT_number 2
_symmetry_cell_setting 'triclinic'
loop_
_space_group_symop_operation_xyz
x,y,z
-x,-y,-z
loop_
_atom_site_type_symbol
_atom_site_label
_atom_site_fract_x
_atom_site_fract_y
_atom_site_fract_z
Si Si1 0.682669 0.862724 0.210530
Si Si2 0.908715 0.244314 0.521663
Si Si3 0.805505 0.499679 0.219973
Si Si4 0.401747 0.321603 0.518194
Si Si5 0.764634 0.164906 0.033093
Si Si6 0.944303 0.719206 0.900641
Si Si7 0.500000 0.000000 0.500000
O O1 0.828909 0.669498 0.191709
O O2 0.670228 0.760887 0.354835
O O3 0.768877 0.997811 0.164390
O O4 0.346916 0.067916 0.117045
O O5 0.764385 0.413641 0.357588
O O6 0.732055 0.183851 0.566517
O O7 0.798292 0.414618 0.558169
O O8 0.237327 0.054783 0.554404
O O9 0.066950 0.276279 0.230996
O O10 0.533884 0.644329 0.093735
O O11 0.354980 0.251116 0.439739
O O12 0.837231 0.277056 0.059238
O O13 0.000000 0.000000 0.000000
O O14 0.000000 0.500000 0.000000
#
# Coordination Sequence:
#
# PCOD9048467 Si02
#       7
#     2   2   2   2   2   2   1
#     4  11  24  45  67  96 142 178 225 285 337 406
#     4  10  24  46  70 100 141 181 227 288 345 404
#     4  11  23  45  66  99 139 179 223 282 337 405
#     4  10  24  45  69 101 139 181 228 286 344 406
#     4  12  24  43  68 101 134 183 226 278 347 406
#     4  12  24  41  68  99 136 177 228 279 339 412
#     4  12  22  44  72 102 134 178 240 278 344 410
#
# _framework density 26.283286
#
# number of rings (size 3 to 8) (size 9 to 14) (size 15 to 20)
#    0.000    0.923    3.077    3.692    0.000    2.462 
#   11.077    0.000    0.000    0.000    0.000    0.000 
#    0.000    0.000    0.000    0.000    0.000    0.000 
#
# Total GULP energy -72510.060216 kJ/mol
# GULP energy per Si atom -5577.696940 kJ/mol
# Density = 2.622346 g / cm^3
# Si number density = 26.283286 Si / 1000 Ang^3
#
#
#
# Elastic Constant Matrix: (Units=GPa)
#
#
# Indices 1 2 3 4 5 6 
#
# 1 159.3345 52.6626 12.0159 0.3393 -13.3355 9.6981
# 2 52.6626 192.8664 31.5308 1.0446 3.2738 18.7831
# 3 12.0159 31.5308 59.5306 -8.8102 -10.0517 14.1377
# 4 0.3393 1.0446 -8.8102 34.0179 -3.3930 -2.8830
# 5 -13.3355 3.2738 -10.0517 -3.3930 27.7005 -1.2792
# 6 9.6981 18.7831 14.1377 -2.8830 -1.2792 68.8842
#
#
#
# Elastic Compliance Matrix: (Units=1/GPa)
#
#
# Indices 1 2 3 4 5 6 
#
# 1 0.007292 -0.002096 0.000489 0.000475 0.003972 -0.000462
# 2 -0.002096 0.006493 -0.003593 -0.001512 -0.003305 -0.000863
# 3 0.000489 -0.003593 0.021856 0.006421 0.009233 -0.003135
# 4 0.000475 -0.001512 0.006421 0.031806 0.006656 0.000482
# 5 0.003972 -0.003305 0.009233 0.006656 0.042547 -0.000484
# 6 -0.000462 -0.000863 -0.003135 0.000482 -0.000484 0.015472
#
#
# Mechanical properties :
#
#
# Convention : Reuss Voigt Hill
#
# Bulk Modulus (GPa) = 39.61804 67.12779 53.37292
# Shear Modulus (GPa) = 34.65537 47.15534 40.90536
#
# Velocity S-wave (km/s) = 3.63510 4.24030 3.94931
# Velocity P-wave (km/s) = 5.72056 7.04053 6.41459
#
# Compressibility (1/GPa) = 0.02524102
#
# Stress axis : x y z
#
# Youngs Moduli (GPa) = 137.14533 154.01354 45.75398
#
# Poissons Ratio (x) = 0.32281 -0.02238
# Poissons Ratio (y) = 0.28745 0.16439
# Poissons Ratio (z) = -0.06709 0.55336
#
# Static dielectric constant tensor:
#      x y z
#    x 2.227930 -0.013310 0.175420 
#    y -0.013310 2.067590 0.071650 
#    z 0.175420 0.071650 2.223580 
# 
# From -- ./inp_files/479611.got.cif
#   From: 2010.05.17/outbox.cif.g08.bks.cpg/sg2_240_cif.got.tgz:479611.got - 2010.06.03 11:33:40.
