data_PCOD9048817
_publ_section_title
;
Structure prediction by ZEFSAII (Michael W. Deem and Ramdas Pophale) SiO2 
 PCOD9048817
Probable space group: P -1
;
_chemical_formula_sum "Si O2"
_cell_formula_units_Z 16
_cell_length_a 7.468862
_cell_length_b 15.684148
_cell_length_c 8.210839
_cell_angle_alpha 108.263889
_cell_angle_beta 86.230479
_cell_angle_gamma 47.465239
_cell_volume 617.811447
_symmetry_space_group_name_H-M "P -1"
_symmetry_group_IT_number 2
_symmetry_cell_setting 'triclinic'
loop_
_space_group_symop_operation_xyz
x,y,z
-x,-y,-z
loop_
_atom_site_type_symbol
_atom_site_label
_atom_site_fract_x
_atom_site_fract_y
_atom_site_fract_z
Si Si1 0.828667 0.652519 0.116888
Si Si2 0.563463 0.756999 0.852914
Si Si3 0.014124 0.118474 0.453681
Si Si4 0.523822 0.570497 0.744455
Si Si5 0.127523 0.729819 0.113662
Si Si6 0.056131 0.679805 0.617870
Si Si7 0.317885 0.006963 0.896763
Si Si8 0.593473 0.121974 0.504619
O O1 0.001232 0.678780 0.107157
O O2 0.655653 0.728583 0.335471
O O3 0.630880 0.725726 0.019272
O O4 0.000000 0.500000 0.000000
O O5 0.531773 0.668715 0.735118
O O6 0.314045 0.912886 0.931590
O O7 0.815263 0.712754 0.726809
O O8 0.902690 0.205407 0.678289
O O9 0.012350 0.194693 0.362215
O O10 0.823576 0.104638 0.422743
O O11 0.295322 0.974351 0.405367
O O12 0.292056 0.599902 0.687781
O O13 0.802727 0.422675 0.602495
O O14 0.424737 0.613717 0.960906
O O15 0.952398 0.846674 0.056265
O O16 0.450874 0.931999 0.669550
O O17 0.500000 0.000000 0.000000
#
# Coordination Sequence:
#
# PCOD9048817 Si02
#       8
#     2   2   2   2   2   2   2   2
#     4  12  28  45  72 107 151 191 245 301 358 447
#     4  12  26  46  71 106 141 193 245 301 371 425
#     4  10  24  45  73 104 142 190 247 304 364 429
#     4  11  25  45  69 101 149 189 244 305 361 441
#     4  11  25  47  69 107 143 194 245 301 369 428
#     4  11  25  44  72 104 146 193 247 300 366 439
#     4  11  23  46  77 107 147 184 243 306 358 438
#     4  10  25  46  73 110 143 191 248 299 365 432
#
# _framework density 25.897870999999999
#
# number of rings (size 3 to 8) (size 9 to 14) (size 15 to 20)
#    0.000    1.000    2.500    1.875    7.000    4.000 
#    0.000    0.000    0.000    0.000    0.000    0.000 
#    0.000    0.000    0.000    0.000    0.000    0.000 
#
# Total GULP energy -89743.928683 kJ/mol
# GULP energy per Si atom -5608.995543 kJ/mol
# Density = 2.583893 g / cm^3
# Si number density = 25.897871 Si / 1000 Ang^3
#
#
#
# Elastic Constant Matrix: (Units=GPa)
#
#
# Indices 1 2 3 4 5 6 
#
# 1 125.9701 14.8447 15.4007 2.7793 14.3698 6.7908
# 2 14.8447 114.3196 32.9056 4.5629 9.0958 13.8808
# 3 15.4007 32.9056 129.4043 20.0574 2.5856 -18.6143
# 4 2.7793 4.5629 20.0574 48.8064 2.8301 6.6050
# 5 14.3698 9.0958 2.5856 2.8301 28.1839 4.1119
# 6 6.7908 13.8808 -18.6143 6.6050 4.1119 37.9644
#
#
#
# Elastic Compliance Matrix: (Units=1/GPa)
#
#
# Indices 1 2 3 4 5 6 
#
# 1 0.008656 -0.000274 -0.001198 0.000486 -0.004018 -0.001685
# 2 -0.000274 0.010646 -0.003660 0.001420 -0.002280 -0.005638
# 3 -0.001198 -0.003660 0.010674 -0.005021 0.000203 0.007638
# 4 0.000486 0.001420 -0.005021 0.023428 -0.001580 -0.006973
# 5 -0.004018 -0.002280 0.000203 -0.001580 0.038737 -0.002269
# 6 -0.001685 -0.005638 0.007638 -0.006973 -0.002269 0.033907
#
#
# Mechanical properties :
#
#
# Convention : Reuss Voigt Hill
#
# Bulk Modulus (GPa) = 50.73241 55.11065 52.92153
# Shear Modulus (GPa) = 34.99428 43.42716 39.21072
#
# Velocity S-wave (km/s) = 3.67991 4.09939 3.89530
# Velocity P-wave (km/s) = 6.13902 6.61308 6.38046
#
# Compressibility (1/GPa) = 0.01971126
#
# Stress axis : x y z
#
# Youngs Moduli (GPa) = 115.53272 93.93390 93.68735
#
# Poissons Ratio (x) = 0.02577 0.11221
# Poissons Ratio (y) = 0.03170 0.34288
# Poissons Ratio (z) = 0.13837 0.34378
#
# Static dielectric constant tensor:
#      x y z
#    x 1.982870 -0.011010 0.007680 
#    y -0.011010 2.051690 -0.012460 
#    z 0.007680 -0.012460 2.083450 
# 
# From -- ./inp_files/218045.got.cif
#   From: 2010.05.17/outbox.cif.g08.bks.cpg/sg2_110_cif.got.tgz:218045.got - 2010.06.03 11:33:40.
