data_PCOD9048020
_publ_section_title
;
Structure prediction by ZEFSAII (Michael W. Deem and Ramdas Pophale) SiO2 
 PCOD9048020
Probable space group: P -1
;
_chemical_formula_sum "Si O2"
_cell_formula_units_Z 16
_cell_length_a 11.381178
_cell_length_b 7.221518
_cell_length_c 11.446860
_cell_angle_alpha 98.263282
_cell_angle_beta 130.031332
_cell_angle_gamma 56.039322
_cell_volume 562.011602
_symmetry_space_group_name_H-M "P -1"
_symmetry_group_IT_number 2
_symmetry_cell_setting 'triclinic'
loop_
_space_group_symop_operation_xyz
x,y,z
-x,-y,-z
loop_
_atom_site_type_symbol
_atom_site_label
_atom_site_fract_x
_atom_site_fract_y
_atom_site_fract_z
Si Si1 0.867719 0.496611 0.200881
Si Si2 0.045349 0.258135 0.055324
Si Si3 0.778674 0.181733 0.183402
Si Si4 0.551285 0.204129 0.829606
Si Si5 0.822112 0.262904 0.711057
Si Si6 0.496015 0.848077 0.834650
Si Si7 0.422642 0.901122 0.534147
Si Si8 0.216705 0.417764 0.471900
O O1 0.812845 0.374426 0.243313
O O2 0.008609 0.296765 0.172624
O O3 0.982572 0.580443 0.341956
O O4 0.690249 0.683075 0.020373
O O5 0.262038 0.027326 0.139221
O O6 0.000000 0.500000 0.000000
O O7 0.895874 0.238602 0.887264
O O8 0.670547 0.150219 0.212249
O O9 0.642747 0.274054 0.988439
O O10 0.984636 0.938369 0.256746
O O11 0.383792 0.394173 0.651755
O O12 0.462482 0.095951 0.834548
O O13 0.752587 0.510001 0.629919
O O14 0.667982 0.215100 0.590559
O O15 0.525201 0.770441 0.710483
O O16 0.257785 0.168199 0.502555
O O17 0.500000 0.000000 0.500000
#
# Coordination Sequence:
#
# PCOD9048020 Si02
#       8
#     2   2   2   2   2   2   2   2
#     4  12  24  44  72 109 147 198 249 305 375 443
#     4  11  22  43  74 107 146 197 249 309 377 440
#     4  11  25  47  73 106 147 201 259 295 371 455
#     4  10  24  44  72 109 145 195 254 307 370 445
#     4  11  25  48  75 108 150 199 250 310 379 441
#     4  11  25  47  75 100 153 201 242 313 372 441
#     4  11  28  49  73 114 152 191 247 314 378 447
#     4  11  25  44  73 112 148 195 242 312 374 434
#
# _framework density 28.469162000000001
#
# number of rings (size 3 to 8) (size 9 to 14) (size 15 to 20)
#    0.000    1.000    3.750    1.500    7.000    5.000 
#    0.000    3.125    0.000    0.000    0.000    0.000 
#    0.000    0.000    0.000    0.000    0.000    0.000 
#
# Total GULP energy -89673.332959 kJ/mol
# GULP energy per Si atom -5604.583310 kJ/mol
# Density = 2.840436 g / cm^3
# Si number density = 28.469162 Si / 1000 Ang^3
#
#
#
# Elastic Constant Matrix: (Units=GPa)
#
#
# Indices 1 2 3 4 5 6 
#
# 1 160.3079 32.2738 79.9543 -7.6699 9.0687 0.1278
# 2 32.2738 78.0584 44.9830 2.4999 -4.9869 6.8444
# 3 79.9543 44.9830 190.4890 5.4440 14.9090 -8.0163
# 4 -7.6699 2.4999 5.4440 43.0791 11.6741 -2.5934
# 5 9.0687 -4.9869 14.9090 11.6741 50.3950 10.9302
# 6 0.1278 6.8444 -8.0163 -2.5934 10.9302 57.0745
#
#
#
# Elastic Compliance Matrix: (Units=1/GPa)
#
#
# Indices 1 2 3 4 5 6 
#
# 1 0.008299 -0.001884 -0.002992 0.002346 -0.001372 0.000157
# 2 -0.001884 0.016200 -0.003440 -0.002175 0.004184 -0.003322
# 3 -0.002992 -0.003440 0.007597 -0.000545 -0.002337 0.001909
# 4 0.002346 -0.002175 -0.000545 0.025903 -0.007064 0.002709
# 5 -0.001372 0.004184 -0.002337 -0.007064 0.024081 -0.005760
# 6 0.000157 -0.003322 0.001909 0.002709 -0.005760 0.019413
#
#
# Mechanical properties :
#
#
# Convention : Reuss Voigt Hill
#
# Bulk Modulus (GPa) = 64.66211 82.58641 73.62426
# Shear Modulus (GPa) = 40.55805 48.21932 44.38869
#
# Velocity S-wave (km/s) = 3.77852 4.11997 3.95294
# Velocity P-wave (km/s) = 6.46519 7.19057 6.83750
#
# Compressibility (1/GPa) = 0.01546501
#
# Stress axis : x y z
#
# Youngs Moduli (GPa) = 120.49497 61.72668 131.63956
#
# Poissons Ratio (x) = 0.11629 0.39381
# Poissons Ratio (y) = 0.22700 0.45285
# Poissons Ratio (z) = 0.36047 0.21234
#
# Static dielectric constant tensor:
#      x y z
#    x 2.254930 -0.181480 0.059430 
#    y -0.181480 2.439730 -0.075690 
#    z 0.059430 -0.075690 2.235520 
# 
# From -- ./inp_files/419482.got.cif
#   From: 2010.05.17/outbox.cif.g08.bks.cpg/sg2_210_cif.got.tgz:419482.got - 2010.06.03 11:33:40.
