data_PCOD9048336
_publ_section_title
;
Structure prediction by ZEFSAII (Michael W. Deem and Ramdas Pophale) SiO2 
 PCOD9048336
Probable space group: P -1
;
_chemical_formula_sum "Si O2"
_cell_formula_units_Z 14
_cell_length_a 10.649743
_cell_length_b 5.760796
_cell_length_c 12.158848
_cell_angle_alpha 77.223249
_cell_angle_beta 125.113344
_cell_angle_gamma 93.001602
_cell_volume 592.471176
_symmetry_space_group_name_H-M "P -1"
_symmetry_group_IT_number 2
_symmetry_cell_setting 'triclinic'
loop_
_space_group_symop_operation_xyz
x,y,z
-x,-y,-z
loop_
_atom_site_type_symbol
_atom_site_label
_atom_site_fract_x
_atom_site_fract_y
_atom_site_fract_z
Si Si1 0.682134 0.535957 0.588524
Si Si2 0.692276 0.000623 0.914089
Si Si3 0.802024 0.425088 0.312346
Si Si4 0.358584 0.197242 0.670705
Si Si5 0.929779 0.224027 0.617530
Si Si6 0.817056 0.525065 0.896944
Si Si7 0.215018 0.926098 0.817693
O O1 0.500000 0.500000 0.500000
O O2 0.701254 0.743554 0.487067
O O3 0.788377 0.308423 0.616841
O O4 0.744397 0.587853 0.734024
O O5 0.527375 0.067453 0.769573
O O6 0.772352 0.251976 0.922346
O O7 0.763116 0.752452 0.923443
O O8 0.689371 0.974417 0.047118
O O9 0.658786 0.554623 0.295187
O O10 0.874800 0.240994 0.461902
O O11 0.748511 0.342862 0.174946
O O12 0.943045 0.581386 0.337444
O O13 0.256173 0.051691 0.712327
O O14 0.031722 0.987044 0.733700
O O15 0.000000 0.500000 0.000000
#
# Coordination Sequence:
#
# PCOD9048336 Si02
#       7
#     2   2   2   2   2   2   2
#     4  11  23  48  75 102 149 193 251 311 361 445
#     4  12  28  47  76 106 153 194 254 303 371 439
#     4   9  20  39  66  98 144 176 240 301 371 436
#     4  10  24  45  67 113 138 190 238 306 375 436
#     4   9  20  39  63 102 135 185 242 300 367 431
#     4  12  29  53  75 108 150 206 251 301 365 445
#     4  11  23  40  71 103 143 192 237 313 368 449
#
# _framework density 23.629840000000002
#
# number of rings (size 3 to 8) (size 9 to 14) (size 15 to 20)
#    0.000    1.429    1.429    3.000    8.000    1.143 
#    5.143    0.000    0.000    0.000    0.000    0.000 
#    0.000    0.000    0.000    0.000    0.000    0.000 
#
# Total GULP energy -78099.814252 kJ/mol
# GULP energy per Si atom -5578.558161 kJ/mol
# Density = 2.357606 g / cm^3
# Si number density = 23.629840 Si / 1000 Ang^3
#
#
#
# Elastic Constant Matrix: (Units=GPa)
#
#
# Indices 1 2 3 4 5 6 
#
# 1 69.1688 16.9450 8.6519 0.9297 -2.8181 -1.5574
# 2 16.9450 92.3787 35.1243 15.1042 -11.2011 -7.3864
# 3 8.6519 35.1243 89.1003 21.5269 -19.0453 -1.5315
# 4 0.9297 15.1042 21.5269 42.9029 -13.5245 0.0529
# 5 -2.8181 -11.2011 -19.0453 -13.5245 33.1871 -8.9614
# 6 -1.5574 -7.3864 -1.5315 0.0529 -8.9614 12.3540
#
#
#
# Elastic Compliance Matrix: (Units=1/GPa)
#
#
# Indices 1 2 3 4 5 6 
#
# 1 0.015198 -0.002600 -0.000533 0.001101 0.000788 0.000862
# 2 -0.002600 0.014539 -0.003843 -0.001594 0.004928 0.011470
# 3 -0.000533 -0.003843 0.015379 -0.004131 0.007064 0.004684
# 4 0.001101 -0.001594 -0.004131 0.029341 0.010881 0.006441
# 5 0.000788 0.004928 0.007064 0.010881 0.051481 0.041218
# 6 0.000862 0.011470 0.004684 0.006441 0.041218 0.118364
#
#
# Mechanical properties :
#
#
# Convention : Reuss Voigt Hill
#
# Bulk Modulus (GPa) = 32.09107 41.34337 36.71722
# Shear Modulus (GPa) = 18.61219 30.35058 24.48138
#
# Velocity S-wave (km/s) = 2.80957 3.58777 3.22224
# Velocity P-wave (km/s) = 4.91275 5.89041 5.42366
#
# Compressibility (1/GPa) = 0.03116132
#
# Stress axis : x y z
#
# Youngs Moduli (GPa) = 65.79860 68.78267 65.02570
#
# Poissons Ratio (x) = 0.17887 0.03468
# Poissons Ratio (y) = 0.17111 0.24989
# Poissons Ratio (z) = 0.03509 0.26433
#
# Static dielectric constant tensor:
#      x y z
#    x 1.912200 0.056760 -0.029160 
#    y 0.056760 2.315780 -0.014560 
#    z -0.029160 -0.014560 1.892680 
# 
# From -- ./inp_files/410931.got.cif
#   From: 2010.05.17/outbox.cif.g08.bks.cpg/sg2_206_cif.got.tgz:410931.got - 2010.06.03 11:33:40.
