data_PCOD9048319
_publ_section_title
;
Structure prediction by ZEFSAII (Michael W. Deem and Ramdas Pophale) SiO2 
 PCOD9048319
Probable space group: P -1
;
_chemical_formula_sum "Si O2"
_cell_formula_units_Z 12
_cell_length_a 4.808298
_cell_length_b 7.199966
_cell_length_c 22.000339
_cell_angle_alpha 46.643396
_cell_angle_beta 96.531236
_cell_angle_gamma 70.036803
_cell_volume 447.908875
_symmetry_space_group_name_H-M "P -1"
_symmetry_group_IT_number 2
_symmetry_cell_setting 'triclinic'
loop_
_space_group_symop_operation_xyz
x,y,z
-x,-y,-z
loop_
_atom_site_type_symbol
_atom_site_label
_atom_site_fract_x
_atom_site_fract_y
_atom_site_fract_z
Si Si1 0.079551 0.099942 0.351743
Si Si2 0.756349 0.872400 0.478330
Si Si3 0.504267 0.328722 0.111589
Si Si4 0.065596 0.269603 0.805830
Si Si5 0.064697 0.219289 0.683945
Si Si6 0.856952 0.666345 0.076208
O O1 0.959916 0.007372 0.428966
O O2 0.843133 0.477759 0.256519
O O3 0.477201 0.967021 0.397348
O O4 0.059191 0.925754 0.333336
O O5 0.018343 0.509345 0.583637
O O6 0.500000 0.000000 0.500000
O O7 0.748052 0.430393 0.115255
O O8 0.109190 0.611106 0.040593
O O9 0.644874 0.105565 0.106333
O O10 0.558706 0.069020 0.220256
O O11 0.879616 0.320135 0.724109
O O12 0.935857 0.356437 0.851993
O O13 0.500000 0.000000 0.000000
#
# Coordination Sequence:
#
# PCOD9048319 Si02
#       6
#     2   2   2   2   2   2
#     4  12  25  44  66  97 143 184 232 282 333 394
#     4  12  25  42  67  99 139 188 232 282 330 393
#     4  10  26  44  71 103 136 180 229 278 354 410
#     4  10  24  47  71 102 142 185 226 291 341 414
#     4  10  24  45  67 100 140 186 234 275 346 398
#     4  12  26  49  75 105 137 176 228 291 354 422
#
# _framework density 26.791162
#
# number of rings (size 3 to 8) (size 9 to 14) (size 15 to 20)
#    1.000    0.000    3.333    2.000    2.333    6.667 
#    0.000    0.000    0.000    0.000    0.000    0.000 
#    0.000    0.000    0.000    0.000    0.000    0.000 
#
# Total GULP energy -66977.671265 kJ/mol
# GULP energy per Si atom -5581.472605 kJ/mol
# Density = 2.673018 g / cm^3
# Si number density = 26.791162 Si / 1000 Ang^3
#
#
#
# Elastic Constant Matrix: (Units=GPa)
#
#
# Indices 1 2 3 4 5 6 
#
# 1 123.5526 45.9966 29.6655 -15.0055 4.7181 3.5048
# 2 45.9966 207.9689 25.3826 -5.0476 -10.5610 -4.3639
# 3 29.6655 25.3826 59.8570 -6.1559 -10.0885 -3.4485
# 4 -15.0055 -5.0476 -6.1559 43.2788 2.4978 -0.4137
# 5 4.7181 -10.5610 -10.0885 2.4978 31.6332 -0.3309
# 6 3.5048 -4.3639 -3.4485 -0.4137 -0.3309 37.1773
#
#
#
# Elastic Compliance Matrix: (Units=1/GPa)
#
#
# Indices 1 2 3 4 5 6 
#
# 1 0.010533 -0.001901 -0.004883 0.002951 -0.004014 -0.001672
# 2 -0.001901 0.005458 -0.001055 -0.000269 0.001798 0.000735
# 3 -0.004883 -0.001055 0.020975 0.000784 0.007028 0.002353
# 4 0.002951 -0.000269 0.000784 0.024337 -0.002202 0.000014
# 5 -0.004014 0.001798 0.007028 -0.002202 0.035243 0.001531
# 6 -0.001672 0.000735 0.002353 0.000014 0.001531 0.027374
#
#
# Mechanical properties :
#
#
# Convention : Reuss Voigt Hill
#
# Bulk Modulus (GPa) = 46.97523 65.94087 56.45805
# Shear Modulus (GPa) = 34.08487 41.77343 37.92915
#
# Velocity S-wave (km/s) = 3.57072 3.95299 3.76671
# Velocity P-wave (km/s) = 5.87979 6.74545 6.32745
#
# Compressibility (1/GPa) = 0.02128782
#
# Stress axis : x y z
#
# Youngs Moduli (GPa) = 94.93932 183.22611 47.67636
#
# Poissons Ratio (x) = 0.34828 0.23282
# Poissons Ratio (y) = 0.18046 0.05028
# Poissons Ratio (z) = 0.46363 0.19323
#
# Static dielectric constant tensor:
#      x y z
#    x 2.004810 -0.023780 0.021150 
#    y -0.023780 2.123600 -0.002170 
#    z 0.021150 -0.002170 2.243100 
# 
# From -- ./inp_files/121298.got.cif
#   From: 2010.05.17/outbox.cif.g08.bks.cpg/sg2_61_cif.got.tgz:121298.got - 2010.06.03 11:33:40.
