data_PCOD9048499
_publ_section_title
;
Structure prediction by ZEFSAII (Michael W. Deem and Ramdas Pophale) SiO2 
 PCOD9048499
Probable space group: P -1
;
_chemical_formula_sum "Si O2"
_cell_formula_units_Z 14
_cell_length_a 12.608158
_cell_length_b 5.050320
_cell_length_c 11.895670
_cell_angle_alpha 124.639059
_cell_angle_beta 122.460594
_cell_angle_gamma 73.510702
_cell_volume 525.584873
_symmetry_space_group_name_H-M "P -1"
_symmetry_group_IT_number 2
_symmetry_cell_setting 'triclinic'
loop_
_space_group_symop_operation_xyz
x,y,z
-x,-y,-z
loop_
_atom_site_type_symbol
_atom_site_label
_atom_site_fract_x
_atom_site_fract_y
_atom_site_fract_z
Si Si1 0.127802 0.166866 0.568861
Si Si2 0.954339 0.883604 0.722746
Si Si3 0.227614 0.501877 0.389610
Si Si4 0.725954 0.334217 0.778827
Si Si5 0.429435 0.167756 0.840839
Si Si6 0.196159 0.277685 0.867729
Si Si7 0.449719 0.426692 0.669879
O O1 0.164661 0.392160 0.749416
O O2 0.097409 0.304974 0.463416
O O3 0.212562 0.862875 0.514593
O O4 0.000000 0.000000 0.500000
O O5 0.842208 0.117125 0.753617
O O6 0.082953 0.063352 0.807125
O O7 0.920917 0.617926 0.732465
O O8 0.274952 0.436149 0.275482
O O9 0.338665 0.381884 0.505065
O O10 0.578730 0.241010 0.680528
O O11 0.764674 0.467108 0.954618
O O12 0.320688 0.097221 0.856089
O O13 0.398425 0.292097 0.727052
O O14 0.487509 0.812312 0.783239
O O15 0.500000 0.500000 0.000000
#
# Coordination Sequence:
#
# PCOD9048499 Si02
#       7
#     2   2   2   2   2   2   2
#     4   9  20  41  66  98 140 178 247 293 365 424
#     4  10  24  45  69 105 145 195 244 302 370 446
#     4  11  24  44  69 106 146 196 246 297 373 441
#     4  11  26  44  68 105 151 191 250 297 371 440
#     4  12  26  48  76 112 148 190 248 310 371 429
#     4  11  22  46  72 105 145 190 248 311 368 437
#     4  12  27  48  77 109 148 197 250 302 366 442
#
# _framework density 26.636990999999998
#
# number of rings (size 3 to 8) (size 9 to 14) (size 15 to 20)
#    0.000    1.143    2.857    2.143    4.000    3.429 
#    7.714    0.000    0.000    0.000    0.000    0.000 
#    0.000    0.000    0.000    0.000    0.000    0.000 
#
# Total GULP energy -77957.136114 kJ/mol
# GULP energy per Si atom -5568.366865 kJ/mol
# Density = 2.657636 g / cm^3
# Si number density = 26.636991 Si / 1000 Ang^3
#
#
#
# Elastic Constant Matrix: (Units=GPa)
#
#
# Indices 1 2 3 4 5 6 
#
# 1 190.2115 17.2703 28.2032 25.4855 -10.7040 -0.2462
# 2 17.2703 81.2930 10.3944 30.0162 -9.9328 -12.2304
# 3 28.2032 10.3944 62.0212 -9.7619 -27.9962 -4.7381
# 4 25.4855 30.0162 -9.7619 30.3397 10.0252 -7.3770
# 5 -10.7040 -9.9328 -27.9962 10.0252 55.0047 9.5381
# 6 -0.2462 -12.2304 -4.7381 -7.3770 9.5381 44.6245
#
#
#
# Elastic Compliance Matrix: (Units=1/GPa)
#
#
# Indices 1 2 3 4 5 6 
#
# 1 0.007586 0.003899 -0.005331 -0.013199 0.002239 -0.002116
# 2 0.003899 0.026036 -0.008128 -0.034486 0.007795 -0.001073
# 3 -0.005331 -0.008128 0.026248 0.019199 0.006971 0.002214
# 4 -0.013199 -0.034486 0.019199 0.093168 -0.018046 0.011773
# 5 0.002239 0.007795 0.006971 -0.018046 0.027912 -0.006060
# 6 -0.002116 -0.001073 0.002214 0.011773 -0.006060 0.025580
#
#
# Mechanical properties :
#
#
# Convention : Reuss Voigt Hill
#
# Bulk Modulus (GPa) = 24.54000 49.47349 37.00675
# Shear Modulus (GPa) = 20.90009 44.50431 32.70220
#
# Velocity S-wave (km/s) = 2.80416 4.09194 3.50765
# Velocity P-wave (km/s) = 4.44040 6.39835 5.50709
#
# Compressibility (1/GPa) = 0.04074979
#
# Stress axis : x y z
#
# Youngs Moduli (GPa) = 131.83008 38.40774 38.09856
#
# Poissons Ratio (x) = -0.14975 0.20311
# Poissons Ratio (y) = -0.51400 0.30966
# Poissons Ratio (z) = 0.70280 0.31217
#
# Static dielectric constant tensor:
#      x y z
#    x 2.207400 -0.091390 0.081380 
#    y -0.091390 2.453210 -0.055610 
#    z 0.081380 -0.055610 2.113150 
# 
# From -- ./inp_files/48308.got.cif
#   From: 2010.05.17/outbox.cif.g08.bks.cpg/sg2_25_cif.got.tgz:48308.got - 2010.06.03 11:33:40.
