data_PCOD9048022
_publ_section_title
;
Structure prediction by ZEFSAII (Michael W. Deem and Ramdas Pophale) SiO2 
 PCOD9048022
Probable space group: P -1
;
_chemical_formula_sum "Si O2"
_cell_formula_units_Z 13
_cell_length_a 7.243450
_cell_length_b 12.531463
_cell_length_c 8.312835
_cell_angle_alpha 130.860992
_cell_angle_beta 102.743739
_cell_angle_gamma 63.690797
_cell_volume 508.877899
_symmetry_space_group_name_H-M "P -1"
_symmetry_group_IT_number 2
_symmetry_cell_setting 'triclinic'
loop_
_space_group_symop_operation_xyz
x,y,z
-x,-y,-z
loop_
_atom_site_type_symbol
_atom_site_label
_atom_site_fract_x
_atom_site_fract_y
_atom_site_fract_z
Si Si1 0.052858 0.063712 0.735190
Si Si2 0.614411 0.272488 0.982378
Si Si3 0.329437 0.487879 0.580009
Si Si4 0.893085 0.729926 0.599825
Si Si5 0.500000 0.500000 0.000000
Si Si6 0.677657 0.051925 0.042560
Si Si7 0.019406 0.659021 0.186116
O O1 0.837877 0.147126 0.866861
O O2 0.110534 0.205486 0.831812
O O3 0.211428 0.940632 0.763047
O O4 0.000000 0.000000 0.500000
O O5 0.571895 0.208474 0.075910
O O6 0.618337 0.446080 0.175248
O O7 0.460558 0.332952 0.867287
O O8 0.500000 0.500000 0.500000
O O9 0.278226 0.339284 0.455583
O O10 0.107972 0.618469 0.614901
O O11 0.830571 0.901862 0.824467
O O12 0.945275 0.718247 0.409934
O O13 0.261775 0.616761 0.155791
O O14 0.500000 0.000000 0.000000
O O15 0.000000 0.500000 0.000000
#
# Coordination Sequence:
#
# PCOD9048022 Si02
#       7
#     2   2   2   2   1   2   2
#     4  11  25  47  71 104 144 195 243 310 385 442
#     4  11  23  46  72  97 148 189 249 303 376 452
#     4  11  23  41  74 105 141 192 249 306 371 448
#     4  11  24  44  71 108 144 193 254 308 373 444
#     4  10  24  44  72 110 140 194 246 306 380 450
#     4  12  27  47  74 109 149 199 255 314 374 453
#     4  11  25  44  75 102 150 191 246 316 379 447
#
# _framework density 25.546402
#
# number of rings (size 3 to 8) (size 9 to 14) (size 15 to 20)
#    0.000    0.923    1.538    5.077    6.462    0.000 
#   11.077    1.538    0.000    0.000    0.000    0.000 
#    0.000    0.000    0.000    0.000    0.000    0.000 
#
# Total GULP energy -72516.219832 kJ/mol
# GULP energy per Si atom -5578.170756 kJ/mol
# Density = 2.548826 g / cm^3
# Si number density = 25.546402 Si / 1000 Ang^3
#
#
#
# Elastic Constant Matrix: (Units=GPa)
#
#
# Indices 1 2 3 4 5 6 
#
# 1 126.7409 53.0837 37.7024 -14.5828 -9.7164 14.5893
# 2 53.0837 237.9671 26.7619 1.8184 5.9029 26.4659
# 3 37.7024 26.7619 117.5776 -15.2441 -1.9981 17.8830
# 4 -14.5828 1.8184 -15.2441 43.9676 12.0314 3.5371
# 5 -9.7164 5.9029 -1.9981 12.0314 35.1321 -2.4388
# 6 14.5893 26.4659 17.8830 3.5371 -2.4388 45.1877
#
#
#
# Elastic Compliance Matrix: (Units=1/GPa)
#
#
# Indices 1 2 3 4 5 6 
#
# 1 0.009896 -0.001884 -0.002245 0.002103 0.002119 -0.001253
# 2 -0.001884 0.004936 -0.000249 -0.000353 -0.001399 -0.002232
# 3 -0.002245 -0.000249 0.010249 0.003497 -0.001439 -0.003536
# 4 0.002103 -0.000353 0.003497 0.027458 -0.008875 -0.004484
# 5 0.002119 -0.001399 -0.001439 -0.008875 0.032461 0.003151
# 6 -0.001253 -0.002232 -0.003536 -0.004484 0.003151 0.025762
#
#
# Mechanical properties :
#
#
# Convention : Reuss Voigt Hill
#
# Bulk Modulus (GPa) = 61.26329 79.70908 70.48618
# Shear Modulus (GPa) = 40.01270 49.17331 44.59301
#
# Velocity S-wave (km/s) = 3.96191 4.39209 4.18253
# Velocity P-wave (km/s) = 6.70539 7.54917 7.13976
#
# Compressibility (1/GPa) = 0.01632299
#
# Stress axis : x y z
#
# Youngs Moduli (GPa) = 101.05324 202.58288 97.57486
#
# Poissons Ratio (x) = 0.38171 0.21906
# Poissons Ratio (y) = 0.19041 0.02434
# Poissons Ratio (z) = 0.22687 0.05054
#
# Static dielectric constant tensor:
#      x y z
#    x 2.120390 0.020320 -0.028350 
#    y 0.020320 2.178390 -0.004020 
#    z -0.028350 -0.004020 2.152750 
# 
# From -- ./inp_files/166626.got.cif
#   From: 2010.05.17/outbox.cif.g08.bks.cpg/sg2_84_cif.got.tgz:166626.got - 2010.06.03 11:33:40.
