data_PCOD9048124
_publ_section_title
;
Structure prediction by ZEFSAII (Michael W. Deem and Ramdas Pophale) SiO2 
 PCOD9048124
Probable space group: P -1
;
_chemical_formula_sum "Si O2"
_cell_formula_units_Z 16
_cell_length_a 8.180895
_cell_length_b 12.406282
_cell_length_c 8.969128
_cell_angle_alpha 102.574838
_cell_angle_beta 63.357240
_cell_angle_gamma 124.597372
_cell_volume 668.930814
_symmetry_space_group_name_H-M "P -1"
_symmetry_group_IT_number 2
_symmetry_cell_setting 'triclinic'
loop_
_space_group_symop_operation_xyz
x,y,z
-x,-y,-z
loop_
_atom_site_type_symbol
_atom_site_label
_atom_site_fract_x
_atom_site_fract_y
_atom_site_fract_z
Si Si1 0.043356 0.463308 0.695430
Si Si2 0.781956 0.835556 0.209270
Si Si3 0.934500 0.650943 0.070249
Si Si4 0.426983 0.864826 0.902573
Si Si5 0.783203 0.684526 0.580848
Si Si6 0.835403 0.878792 0.844687
Si Si7 0.705937 0.520737 0.835683
Si Si8 0.454258 0.744418 0.562209
O O1 0.112170 0.468231 0.841482
O O2 0.068170 0.347958 0.586228
O O3 0.222046 0.606819 0.599677
O O4 0.797995 0.426707 0.760287
O O5 0.794322 0.709770 0.194362
O O6 0.574771 0.812118 0.377805
O O7 0.809391 0.854399 0.024825
O O8 0.997983 0.969090 0.215074
O O9 0.892910 0.622943 0.903820
O O10 0.184016 0.762655 0.020093
O O11 0.592599 0.827657 0.881778
O O12 0.436265 0.844063 0.712827
O O13 0.500000 0.000000 0.000000
O O14 0.905729 0.801005 0.686846
O O15 0.672821 0.560846 0.699726
O O16 0.617307 0.707054 0.563350
O O17 0.500000 0.500000 0.000000
#
# Coordination Sequence:
#
# PCOD9048124 Si02
#       8
#     2   2   2   2   2   2   2   2
#     4  12  26  45  67 106 145 185 240 289 356 424
#     4  11  23  46  74 101 142 186 232 296 358 416
#     4  12  24  45  73 101 143 191 233 294 355 421
#     4  11  24  45  71 102 143 188 240 286 346 423
#     4  11  24  42  67 102 143 181 233 293 348 416
#     4  10  24  44  74 102 140 187 239 286 355 427
#     4  12  27  44  69 100 143 191 239 290 355 421
#     4  11  25  45  71 105 144 187 232 294 358 420
#
# _framework density 23.918766000000002
#
# number of rings (size 3 to 8) (size 9 to 14) (size 15 to 20)
#    0.000    0.750    5.000    1.875    5.250    3.000 
#    2.250    0.625    0.000    0.000    0.000    0.000 
#    0.000    0.000    0.000    0.000    0.000    0.000 
#
# Total GULP energy -89264.340542 kJ/mol
# GULP energy per Si atom -5579.021284 kJ/mol
# Density = 2.386433 g / cm^3
# Si number density = 23.918766 Si / 1000 Ang^3
#
#
#
# Elastic Constant Matrix: (Units=GPa)
#
#
# Indices 1 2 3 4 5 6 
#
# 1 44.9495 12.7558 4.5487 3.4949 -4.4645 7.1884
# 2 12.7558 66.7214 34.0527 18.3956 -3.8128 9.2316
# 3 4.5487 34.0527 129.1683 27.4843 -10.6427 -4.1289
# 4 3.4949 18.3956 27.4843 47.4956 -7.7861 -4.9645
# 5 -4.4645 -3.8128 -10.6427 -7.7861 31.7841 0.9570
# 6 7.1884 9.2316 -4.1289 -4.9645 0.9570 34.6479
#
#
#
# Elastic Compliance Matrix: (Units=1/GPa)
#
#
# Indices 1 2 3 4 5 6 
#
# 1 0.024334 -0.004013 0.000409 -0.000391 0.003101 -0.004072
# 2 -0.004013 0.020295 -0.004214 -0.005875 -0.000802 -0.005897
# 3 0.000409 -0.004214 0.009812 -0.003592 0.001908 0.001640
# 4 -0.000391 -0.005875 -0.003592 0.026677 0.004424 0.004918
# 5 0.003101 -0.000802 0.001908 0.004424 0.033539 -0.000495
# 6 -0.004072 -0.005897 0.001640 0.004918 -0.000495 0.032192
#
#
# Mechanical properties :
#
#
# Convention : Reuss Voigt Hill
#
# Bulk Modulus (GPa) = 25.76829 38.17264 31.97047
# Shear Modulus (GPa) = 28.50321 35.41766 31.96044
#
# Velocity S-wave (km/s) = 3.45580 3.85222 3.65938
# Velocity P-wave (km/s) = 5.16914 5.98165 5.59018
#
# Compressibility (1/GPa) = 0.03880738
#
# Stress axis : x y z
#
# Youngs Moduli (GPa) = 41.09462 49.27289 101.91397
#
# Poissons Ratio (x) = 0.19772 -0.04172
# Poissons Ratio (y) = 0.16490 0.42943
# Poissons Ratio (z) = -0.01682 0.20762
#
# Static dielectric constant tensor:
#      x y z
#    x 1.930470 -0.034970 0.003820 
#    y -0.034970 1.986540 0.097780 
#    z 0.003820 0.097780 2.065470 
# 
# From -- ./inp_files/188337.got.cif
#   From: 2010.05.17/outbox.cif.g08.bks.cpg/sg2_95_cif.got.tgz:188337.got - 2010.06.03 11:33:40.
