data_PCOD9048432
_publ_section_title
;
Structure prediction by ZEFSAII (Michael W. Deem and Ramdas Pophale) SiO2 
 PCOD9048432
Probable space group: P -1
;
_chemical_formula_sum "Si O2"
_cell_formula_units_Z 14
_cell_length_a 11.689633
_cell_length_b 9.301619
_cell_length_c 14.605560
_cell_angle_alpha 112.941766
_cell_angle_beta 151.711908
_cell_angle_gamma 83.337860
_cell_volume 591.722002
_symmetry_space_group_name_H-M "P -1"
_symmetry_group_IT_number 2
_symmetry_cell_setting 'triclinic'
loop_
_space_group_symop_operation_xyz
x,y,z
-x,-y,-z
loop_
_atom_site_type_symbol
_atom_site_label
_atom_site_fract_x
_atom_site_fract_y
_atom_site_fract_z
Si Si1 0.826056 0.296991 0.545976
Si Si2 0.268749 0.261457 0.193089
Si Si3 0.687417 0.341131 0.269556
Si Si4 0.230094 0.176947 0.760723
Si Si5 0.503941 0.416868 0.699520
Si Si6 0.980677 0.120597 0.149420
Si Si7 0.320674 0.685682 0.029050
O O1 0.561417 0.261838 0.410379
O O2 0.724618 0.239427 0.356113
O O3 0.034193 0.225570 0.695401
O O4 0.032987 0.515524 0.746479
O O5 0.334762 0.450207 0.240144
O O6 0.116743 0.215765 0.171426
O O7 0.090120 0.085909 0.957714
O O8 0.552409 0.451261 0.244825
O O9 0.000000 0.500000 0.500000
O O10 0.477669 0.204188 0.010760
O O11 0.422624 0.305953 0.844244
O O12 0.000000 0.000000 0.500000
O O13 0.657993 0.346919 0.856995
O O14 0.211763 0.240744 0.417612
O O15 0.705898 0.139495 0.966132
#
# Coordination Sequence:
#
# PCOD9048432 Si02
#       7
#     2   2   2   2   2   2   2
#     4  11  22  40  65  92 132 175 222 269 332 398
#     4  10  24  45  68  95 136 173 220 282 335 402
#     4  11  20  38  65  90 130 177 219 264 331 394
#     4  12  25  40  63 101 138 172 225 281 335 397
#     4  11  23  40  67  96 130 175 217 274 339 396
#     4  11  23  47  66  97 133 172 226 278 335 400
#     4  12  23  40  69  97 130 178 221 278 331 401
#
# _framework density 23.659758
#
# number of rings (size 3 to 8) (size 9 to 14) (size 15 to 20)
#    0.000    0.857    5.714    2.571    0.000    3.429 
#    2.571    1.429    0.000    0.000    0.000    0.000 
#    0.000    0.000    0.000    0.000    0.000    0.000 
#
# Total GULP energy -78194.088666 kJ/mol
# GULP energy per Si atom -5585.292048 kJ/mol
# Density = 2.360591 g / cm^3
# Si number density = 23.659758 Si / 1000 Ang^3
#
#
#
# Elastic Constant Matrix: (Units=GPa)
#
#
# Indices 1 2 3 4 5 6 
#
# 1 66.4085 1.5710 24.3104 -6.3762 16.1738 -5.6789
# 2 1.5710 52.3386 40.9874 -2.9967 -8.4243 3.5752
# 3 24.3104 40.9874 153.4796 0.5402 -13.6029 3.7630
# 4 -6.3762 -2.9967 0.5402 35.9826 0.9338 -4.0553
# 5 16.1738 -8.4243 -13.6029 0.9338 38.7446 4.5390
# 6 -5.6789 3.5752 3.7630 -4.0553 4.5390 22.9712
#
#
#
# Elastic Compliance Matrix: (Units=1/GPa)
#
#
# Indices 1 2 3 4 5 6 
#
# 1 0.020807 0.000999 -0.004803 0.005142 -0.011324 0.008921
# 2 0.000999 0.024950 -0.006492 0.001956 0.003012 -0.002823
# 3 -0.004803 -0.006492 0.009471 -0.001976 0.004309 -0.002929
# 4 0.005142 0.001956 -0.001976 0.029826 -0.003994 0.007345
# 5 -0.011324 0.003012 0.004309 -0.003994 0.034140 -0.011425
# 6 0.008921 -0.002823 -0.002929 0.007345 -0.011425 0.050211
#
#
# Mechanical properties :
#
#
# Convention : Reuss Voigt Hill
#
# Bulk Modulus (GPa) = 28.87141 45.10716 36.98928
# Shear Modulus (GPa) = 24.80860 33.23020 29.01940
#
# Velocity S-wave (km/s) = 3.24166 3.75174 3.50598
# Velocity P-wave (km/s) = 5.12253 6.15416 5.66189
#
# Compressibility (1/GPa) = 0.03463634
#
# Stress axis : x y z
#
# Youngs Moduli (GPa) = 48.05971 40.08010 105.58855
#
# Poissons Ratio (x) = -0.04005 0.50715
# Poissons Ratio (y) = -0.04802 0.68548
# Poissons Ratio (z) = 0.23084 0.26020
#
# Static dielectric constant tensor:
#      x y z
#    x 1.919680 -0.011770 0.019670 
#    y -0.011770 1.998640 -0.035350 
#    z 0.019670 -0.035350 1.930140 
# 
# From -- ./inp_files/255841.got.cif
#   From: 2010.05.17/outbox.cif.g08.bks.cpg/sg2_128_cif.got.tgz:255841.got - 2010.06.03 11:33:40.
