data_PCOD9048081
_publ_section_title
;
Structure prediction by ZEFSAII (Michael W. Deem and Ramdas Pophale) SiO2 
 PCOD9048081
Probable space group: P -1
;
_chemical_formula_sum "Si O2"
_cell_formula_units_Z 14
_cell_length_a 13.416832
_cell_length_b 11.163797
_cell_length_c 7.809774
_cell_angle_alpha 36.745899
_cell_angle_beta 111.432842
_cell_angle_gamma 124.183921
_cell_volume 570.368724
_symmetry_space_group_name_H-M "P -1"
_symmetry_group_IT_number 2
_symmetry_cell_setting 'triclinic'
loop_
_space_group_symop_operation_xyz
x,y,z
-x,-y,-z
loop_
_atom_site_type_symbol
_atom_site_label
_atom_site_fract_x
_atom_site_fract_y
_atom_site_fract_z
Si Si1 0.197445 0.468719 0.257876
Si Si2 0.897180 0.800099 0.051653
Si Si3 0.469907 0.811905 0.053003
Si Si4 0.066430 0.667721 0.152296
Si Si5 0.279526 0.081015 0.030043
Si Si6 0.848046 0.964525 0.472924
Si Si7 0.688832 0.116292 0.368641
O O1 0.166167 0.221870 0.459600
O O2 0.106049 0.485663 0.317928
O O3 0.338442 0.600301 0.258093
O O4 0.210923 0.624758 0.918920
O O5 0.887981 0.909434 0.740874
O O6 0.946410 0.622514 0.236804
O O7 0.774228 0.755555 0.123865
O O8 0.000000 0.000000 0.000000
O O9 0.436516 0.897545 0.756141
O O10 0.588357 0.784988 0.127727
O O11 0.500000 0.000000 0.000000
O O12 0.062015 0.790940 0.830995
O O13 0.182041 0.874271 0.086913
O O14 0.296183 0.955088 0.352339
O O15 0.721508 0.964319 0.433758
#
# Coordination Sequence:
#
# PCOD9048081 Si02
#       7
#     2   2   2   2   2   2   2
#     4   9  20  33  57  85 108 140 184 221 271 317
#     4   9  20  34  57  80 107 148 181 219 273 321
#     4  10  17  34  58  83 107 143 182 218 274 328
#     4  10  19  36  56  81 108 147 184 219 271 316
#     4  10  17  35  58  77 110 147 179 219 272 324
#     4  10  18  37  57  82 112 138 184 225 267 320
#     4   8  19  33  55  78 113 141 177 216 277 316
#
# _framework density 24.545525999999999
#
# number of rings (size 3 to 8) (size 9 to 14) (size 15 to 20)
#    0.857    1.714    1.429    0.857    0.000    0.571 
#    0.000   10.000    0.000   12.857    0.000    0.000 
#    0.000    0.000    0.000    0.000    0.000    0.000 
#
# Total GULP energy -78208.842803 kJ/mol
# GULP energy per Si atom -5586.345915 kJ/mol
# Density = 2.448966 g / cm^3
# Si number density = 24.545526 Si / 1000 Ang^3
#
#
#
# Elastic Constant Matrix: (Units=GPa)
#
#
# Indices 1 2 3 4 5 6 
#
# 1 218.4794 45.7554 33.5420 -13.7203 6.9962 8.1446
# 2 45.7554 91.8161 28.0945 6.4194 3.6693 -6.3792
# 3 33.5420 28.0945 89.0976 8.0957 -2.6191 -5.9578
# 4 -13.7203 6.4194 8.0957 30.0038 -2.7195 1.6159
# 5 6.9962 3.6693 -2.6191 -2.7195 41.1897 1.5816
# 6 8.1446 -6.3792 -5.9578 1.6159 1.5816 38.5717
#
#
#
# Elastic Compliance Matrix: (Units=1/GPa)
#
#
# Indices 1 2 3 4 5 6 
#
# 1 0.005750 -0.002698 -0.001810 0.003759 -0.000524 -0.002076
# 2 -0.002698 0.013577 -0.002799 -0.003638 -0.001269 0.002587
# 3 -0.001810 -0.002799 0.013307 -0.003835 0.001069 0.002091
# 4 0.003759 -0.003638 -0.003835 0.037242 0.002040 -0.003632
# 5 -0.000524 -0.001269 0.001069 0.002040 0.024722 -0.001033
# 6 -0.002076 0.002587 0.002091 -0.003632 -0.001033 0.027310
#
#
# Mechanical properties :
#
#
# Convention : Reuss Voigt Hill
#
# Bulk Modulus (GPa) = 55.49171 68.24188 61.86679
# Shear Modulus (GPa) = 35.08053 41.41979 38.25016
#
# Velocity S-wave (km/s) = 3.78458 4.11234 3.95186
# Velocity P-wave (km/s) = 6.46175 7.10007 6.78841
#
# Compressibility (1/GPa) = 0.01802071
#
# Stress axis : x y z
#
# Youngs Moduli (GPa) = 173.90713 73.65328 75.14614
#
# Poissons Ratio (x) = 0.19871 0.13600
# Poissons Ratio (y) = 0.46919 0.21035
# Poissons Ratio (z) = 0.31474 0.20618
#
# Static dielectric constant tensor:
#      x y z
#    x 2.006530 0.052570 -0.001060 
#    y 0.052570 1.905230 0.047070 
#    z -0.001060 0.047070 1.996930 
# 
# From -- ./inp_files/312403.got.cif
#   From: 2010.05.17/outbox.cif.g08.bks.cpg/sg2_157_cif.got.tgz:312403.got - 2010.06.03 11:33:40.
