data_PCOD9048047
_publ_section_title
;
Structure prediction by ZEFSAII (Michael W. Deem and Ramdas Pophale) SiO2 
 PCOD9048047
Probable space group: P -1
;
_chemical_formula_sum "Si O2"
_cell_formula_units_Z 16
_cell_length_a 10.515667
_cell_length_b 7.689008
_cell_length_c 14.078595
_cell_angle_alpha 116.886642
_cell_angle_beta 137.100807
_cell_angle_gamma 79.825273
_cell_volume 668.318170
_symmetry_space_group_name_H-M "P -1"
_symmetry_group_IT_number 2
_symmetry_cell_setting 'triclinic'
loop_
_space_group_symop_operation_xyz
x,y,z
-x,-y,-z
loop_
_atom_site_type_symbol
_atom_site_label
_atom_site_fract_x
_atom_site_fract_y
_atom_site_fract_z
Si Si1 0.888492 0.243493 0.582177
Si Si2 0.778714 0.795407 0.351836
Si Si3 0.511748 0.672508 0.339805
Si Si4 0.459834 0.243219 0.296087
Si Si5 0.493324 0.906848 0.079203
Si Si6 0.894308 0.271445 0.908380
Si Si7 0.823562 0.863216 0.706577
Si Si8 0.893840 0.366228 0.143784
O O1 0.676285 0.277169 0.465676
O O2 0.040796 0.297258 0.590977
O O3 0.854537 0.003289 0.503885
O O4 0.954514 0.090568 0.844029
O O5 0.609960 0.659896 0.288850
O O6 0.684153 0.855333 0.217126
O O7 0.446766 0.452772 0.295638
O O8 0.328893 0.760198 0.248576
O O9 0.665410 0.817418 0.526999
O O10 0.300216 0.184185 0.275664
O O11 0.447941 0.072925 0.167889
O O12 0.318397 0.705977 0.946460
O O13 0.500000 0.000000 0.000000
O O14 0.012101 0.396763 0.763723
O O15 0.900434 0.254508 0.020597
O O16 0.000000 0.500000 0.000000
O O17 0.958162 0.712062 0.728627
#
# Coordination Sequence:
#
# PCOD9048047 Si02
#       8
#     2   2   2   2   2   2   2   2
#     4  10  24  44  72  96 139 181 234 285 350 409
#     4  10  24  49  67 102 142 179 236 299 339 422
#     4  12  25  44  73 100 138 191 230 289 351 418
#     4  11  24  47  69 103 141 187 235 283 351 430
#     4  11  26  47  71  99 142 190 230 292 358 412
#     4  12  27  42  68 106 146 179 233 294 353 411
#     4  12  26  47  70 101 146 187 232 284 354 424
#     4  12  25  46  70 105 138 185 237 289 347 425
#
# _framework density 23.940695000000002
#
# number of rings (size 3 to 8) (size 9 to 14) (size 15 to 20)
#    0.000    0.750    3.750    2.625    7.000    5.000 
#    0.000    0.000    0.000    0.000    0.000    0.000 
#    0.000    0.000    0.000    0.000    0.000    0.000 
#
# Total GULP energy -89489.427350 kJ/mol
# GULP energy per Si atom -5593.089209 kJ/mol
# Density = 2.388620 g / cm^3
# Si number density = 23.940695 Si / 1000 Ang^3
#
#
#
# Elastic Constant Matrix: (Units=GPa)
#
#
# Indices 1 2 3 4 5 6 
#
# 1 63.2596 28.8152 20.8371 -17.5920 6.8942 9.3536
# 2 28.8152 73.7990 24.4563 16.8038 3.3847 10.2416
# 3 20.8371 24.4563 115.1047 13.3653 4.4450 8.5482
# 4 -17.5920 16.8038 13.3653 27.1680 -0.1685 -1.5782
# 5 6.8942 3.3847 4.4450 -0.1685 33.8154 -3.2753
# 6 9.3536 10.2416 8.5482 -1.5782 -3.2753 41.6331
#
#
#
# Elastic Compliance Matrix: (Units=1/GPa)
#
#
# Indices 1 2 3 4 5 6 
#
# 1 0.043558 -0.024861 -0.007854 0.047374 -0.005189 -0.000670
# 2 -0.024861 0.031369 0.002370 -0.036888 0.001052 -0.003933
# 3 -0.007854 0.002370 0.011145 -0.012128 -0.000316 -0.001591
# 4 0.047374 -0.036888 -0.012128 0.096495 -0.003474 0.004306
# 5 -0.005189 0.001052 -0.000316 -0.003474 0.030866 0.003268
# 6 -0.000670 -0.003933 -0.001591 0.004306 0.003268 0.025885
#
#
# Mechanical properties :
#
#
# Convention : Reuss Voigt Hill
#
# Bulk Modulus (GPa) = 39.39668 44.48673 41.94171
# Shear Modulus (GPa) = 16.20928 32.39361 24.30145
#
# Velocity S-wave (km/s) = 2.60486 3.68241 3.18947
# Velocity P-wave (km/s) = 5.05359 6.05827 5.57859
#
# Compressibility (1/GPa) = 0.02538285
#
# Stress axis : x y z
#
# Youngs Moduli (GPa) = 22.95791 31.87900 89.73015
#
# Poissons Ratio (x) = 0.79253 0.70471
# Poissons Ratio (y) = 0.57075 -0.21268
# Poissons Ratio (z) = 0.18030 -0.07556
#
# Static dielectric constant tensor:
#      x y z
#    x 1.912300 0.007860 -0.013530 
#    y 0.007860 1.900530 0.028650 
#    z -0.013530 0.028650 1.922980 
# 
# From -- ./inp_files/382788.got.cif
#   From: 2010.05.17/outbox.cif.g08.bks.cpg/sg2_192_cif.got.tgz:382788.got - 2010.06.03 11:33:40.
