data_PCOD9048260
_publ_section_title
;
Structure prediction by ZEFSAII (Michael W. Deem and Ramdas Pophale) SiO2 
 PCOD9048260
Probable space group: P -1
;
_chemical_formula_sum "Si O2"
_cell_formula_units_Z 16
_cell_length_a 27.587331
_cell_length_b 22.152577
_cell_length_c 7.925454
_cell_angle_alpha 56.007324
_cell_angle_beta 124.090094
_cell_angle_gamma 168.505425
_cell_volume 797.906192
_symmetry_space_group_name_H-M "P -1"
_symmetry_group_IT_number 2
_symmetry_cell_setting 'triclinic'
loop_
_space_group_symop_operation_xyz
x,y,z
-x,-y,-z
loop_
_atom_site_type_symbol
_atom_site_label
_atom_site_fract_x
_atom_site_fract_y
_atom_site_fract_z
Si Si1 0.268467 0.349858 0.421074
Si Si2 0.671091 0.268597 0.834109
Si Si3 0.644012 0.384364 0.800928
Si Si4 0.512481 0.930685 0.582245
Si Si5 0.244216 0.340056 0.986121
Si Si6 0.898990 0.675700 0.176609
Si Si7 0.138614 0.730372 0.015928
Si Si8 0.455024 0.364769 0.190020
O O1 0.337234 0.510828 0.390435
O O2 0.304414 0.396689 0.214785
O O3 0.440280 0.505197 0.619576
O O4 0.000000 0.000000 0.500000
O O5 0.688397 0.366622 0.806701
O O6 0.528111 0.116405 0.622117
O O7 0.938269 0.552884 0.911973
O O8 0.500000 0.000000 0.000000
O O9 0.856581 0.642793 0.950676
O O10 0.378800 0.051100 0.889270
O O11 0.270921 0.598185 0.695407
O O12 0.500000 0.000000 0.500000
O O13 0.743360 0.166562 0.747501
O O14 0.195978 0.368247 0.840775
O O15 0.427441 0.540593 0.880377
O O16 0.000000 0.000000 0.000000
O O17 0.180675 0.007055 0.237766
O O18 0.000000 0.500000 0.000000
O O19 0.500000 0.500000 0.000000
#
# Coordination Sequence:
#
# PCOD9048260 Si02
#       8
#     2   2   2   2   2   2   2   2
#     4  11  24  43  69  98 138 181 224 285 340 403
#     4  12  24  43  70 101 135 180 227 280 344 411
#     4  10  24  45  64  97 136 170 227 285 332 410
#     4  11  24  43  69  98 138 181 224 285 340 403
#     4  11  22  45  69  95 137 175 223 284 342 399
#     4  10  24  45  64  97 136 170 227 285 332 410
#     4  11  22  45  69  95 137 175 223 284 342 399
#     4  12  24  43  70 101 135 180 227 280 344 411
#
# _framework density 20.052482999999999
#
# number of rings (size 3 to 8) (size 9 to 14) (size 15 to 20)
#    0.000    1.000    5.000    1.500    3.500    4.000 
#    0.000    0.000    0.000    0.000    0.000    0.000 
#    0.000    0.000    0.000    0.000    0.000    0.000 
#
# Total GULP energy -89137.397428 kJ/mol
# GULP energy per Si atom -5571.087339 kJ/mol
# Density = 2.000684 g / cm^3
# Si number density = 20.052483 Si / 1000 Ang^3
#
#
#
# Elastic Constant Matrix: (Units=GPa)
#
#
# Indices 1 2 3 4 5 6 
#
# 1 140.9454 22.9462 20.1501 8.6116 8.1306 -1.5374
# 2 22.9462 117.0231 30.2646 22.5396 1.0554 1.8057
# 3 20.1501 30.2646 96.9056 15.6188 1.3853 6.4147
# 4 8.6116 22.5396 15.6188 34.0269 -15.1343 1.7426
# 5 8.1306 1.0554 1.3853 -15.1343 30.8201 -10.2693
# 6 -1.5374 1.8057 6.4147 1.7426 -10.2693 28.4090
#
#
#
# Elastic Compliance Matrix: (Units=1/GPa)
#
#
# Indices 1 2 3 4 5 6 
#
# 1 0.007684 -0.000763 -0.000887 -0.002483 -0.003307 -0.000378
# 2 -0.000763 0.010767 -0.001736 -0.008093 -0.004558 -0.001485
# 3 -0.000887 -0.001736 0.012371 -0.006156 -0.004627 -0.004026
# 4 -0.002483 -0.008093 -0.006156 0.050710 0.029178 0.009207
# 5 -0.003307 -0.004558 -0.004627 0.029178 0.054345 0.019010
# 6 -0.000378 -0.001485 -0.004026 0.009207 0.019010 0.042490
#
#
# Mechanical properties :
#
#
# Convention : Reuss Voigt Hill
#
# Bulk Modulus (GPa) = 41.58101 55.73289 48.65695
# Shear Modulus (GPa) = 25.88583 37.41874 31.65229
#
# Velocity S-wave (km/s) = 3.59681 4.32446 3.97731
# Velocity P-wave (km/s) = 6.16689 7.26556 6.73865
#
# Compressibility (1/GPa) = 0.02404944
#
# Stress axis : x y z
#
# Youngs Moduli (GPa) = 130.13412 92.87777 80.83652
#
# Poissons Ratio (x) = 0.07091 0.07169
# Poissons Ratio (y) = 0.09935 0.14033
# Poissons Ratio (z) = 0.11541 0.16123
#
# Static dielectric constant tensor:
#      x y z
#    x 1.722030 0.080390 0.062600 
#    y 0.080390 1.548230 -0.168680 
#    z 0.062600 -0.168680 1.364230 
# 
# From -- ./inp_files/359045.got.cif
#   From: 2010.05.17/outbox.cif.g08.bks.cpg/sg2_180_cif.got.tgz:359045.got - 2010.06.03 11:33:40.
