data_PCOD9048994
_publ_section_title
;
Structure prediction by ZEFSAII (Michael W. Deem and Ramdas Pophale) SiO2 
 PCOD9048994
Probable space group: P -1
;
_chemical_formula_sum "Si O2"
_cell_formula_units_Z 15
_cell_length_a 9.520985
_cell_length_b 11.024163
_cell_length_c 11.328009
_cell_angle_alpha 42.775280
_cell_angle_beta 128.527389
_cell_angle_gamma 112.829380
_cell_volume 626.312942
_symmetry_space_group_name_H-M "P -1"
_symmetry_group_IT_number 2
_symmetry_cell_setting 'triclinic'
loop_
_space_group_symop_operation_xyz
x,y,z
-x,-y,-z
loop_
_atom_site_type_symbol
_atom_site_label
_atom_site_fract_x
_atom_site_fract_y
_atom_site_fract_z
Si Si1 0.045730 0.751903 0.011139
Si Si2 0.280562 0.713716 0.938735
Si Si3 0.518553 0.422958 0.432782
Si Si4 0.288009 0.008075 0.399432
Si Si5 0.879230 0.323711 0.565567
Si Si6 0.686375 0.910733 0.383248
Si Si7 0.000000 0.000000 0.000000
Si Si8 0.995918 0.370047 0.342424
O O1 0.834067 0.836347 0.848298
O O2 0.121854 0.774170 0.905989
O O3 0.066030 0.542629 0.197150
O O4 0.130054 0.879873 0.055838
O O5 0.182784 0.660654 0.805257
O O6 0.379927 0.891850 0.845830
O O7 0.395982 0.545197 0.185236
O O8 0.500000 0.500000 0.500000
O O9 0.719972 0.425414 0.487519
O O10 0.455524 0.225523 0.557540
O O11 0.237162 0.039832 0.485200
O O12 0.500000 0.000000 0.500000
O O13 0.226194 0.827966 0.445904
O O14 0.954992 0.415425 0.426037
O O15 0.023899 0.191464 0.809299
O O16 0.847481 0.798558 0.472420
#
# Coordination Sequence:
#
# PCOD9048994 Si02
#       8
#     2   2   2   2   2   2   1   2
#     4  11  23  42  67  98 142 187 229 285 349 413
#     4  12  24  44  74 103 137 180 239 290 350 412
#     4  12  28  48  67 102 144 187 231 287 345 424
#     4  11  21  39  66  98 136 176 225 290 350 400
#     4  11  25  44  69  99 141 174 236 289 338 420
#     4  12  23  44  74 100 140 183 229 289 354 404
#     4  10  24  46  64  92 138 190 226 272 346 416
#     4  12  24  42  74 107 132 181 239 296 343 408
#
# _framework density 23.949687999999998
#
# number of rings (size 3 to 8) (size 9 to 14) (size 15 to 20)
#    0.000    0.533    5.333    4.000    0.000    2.667 
#    2.400    0.000    0.000    0.000    0.000    0.000 
#    0.000    0.000    0.000    0.000    0.000    0.000 
#
# Total GULP energy -83589.421638 kJ/mol
# GULP energy per Si atom -5572.628109 kJ/mol
# Density = 2.389518 g / cm^3
# Si number density = 23.949688 Si / 1000 Ang^3
#
#
#
# Elastic Constant Matrix: (Units=GPa)
#
#
# Indices 1 2 3 4 5 6 
#
# 1 109.2280 20.2162 47.0776 -1.2732 -10.8916 -3.1936
# 2 20.2162 56.8588 25.4675 -13.0161 -8.5789 0.1659
# 3 47.0776 25.4675 128.8619 -7.9846 -19.6893 17.0037
# 4 -1.2732 -13.0161 -7.9846 41.3504 3.4930 -14.5566
# 5 -10.8916 -8.5789 -19.6893 3.4930 42.9212 3.3084
# 6 -3.1936 0.1659 17.0037 -14.5566 3.3084 60.2653
#
#
#
# Elastic Compliance Matrix: (Units=1/GPa)
#
#
# Indices 1 2 3 4 5 6 
#
# 1 0.011337 -0.002389 -0.003818 -0.000664 0.000587 0.001492
# 2 -0.002389 0.021576 -0.003020 0.006780 0.001599 0.002216
# 3 -0.003818 -0.003020 0.010750 -0.000558 0.003679 -0.003564
# 4 -0.000664 0.006780 -0.000558 0.028887 -0.001974 0.007189
# 5 0.000587 0.001599 0.003679 -0.001974 0.025839 -0.002907
# 6 0.001492 0.002216 -0.003564 0.007189 -0.002907 0.019568
#
#
# Mechanical properties :
#
#
# Convention : Reuss Voigt Hill
#
# Bulk Modulus (GPa) = 39.66634 53.38572 46.52603
# Shear Modulus (GPa) = 34.52716 42.38655 38.45686
#
# Velocity S-wave (km/s) = 3.80103 4.21148 4.01151
# Velocity P-wave (km/s) = 5.98850 6.78144 6.39727
#
# Compressibility (1/GPa) = 0.02521029
#
# Stress axis : x y z
#
# Youngs Moduli (GPa) = 88.20431 46.34781 93.02586
#
# Poissons Ratio (x) = 0.11071 0.35519
# Poissons Ratio (y) = 0.21069 0.28089
# Poissons Ratio (z) = 0.33678 0.13995
#
# Static dielectric constant tensor:
#      x y z
#    x 1.904870 -0.008590 -0.031460 
#    y -0.008590 2.016420 0.063230 
#    z -0.031460 0.063230 1.989620 
# 
# From -- ./inp_files/388919.got.cif
#   From: 2010.05.17/outbox.cif.g08.bks.cpg/sg2_195_cif.got.tgz:388919.got - 2010.06.03 11:33:40.
