data_PCOD9048608
_publ_section_title
;
Structure prediction by ZEFSAII (Michael W. Deem and Ramdas Pophale) SiO2 
 PCOD9048608
Probable space group: P -1
;
_chemical_formula_sum "Si O2"
_cell_formula_units_Z 14
_cell_length_a 7.938888
_cell_length_b 7.439160
_cell_length_c 12.833898
_cell_angle_alpha 85.583669
_cell_angle_beta 50.066502
_cell_angle_gamma 73.479022
_cell_volume 551.425430
_symmetry_space_group_name_H-M "P -1"
_symmetry_group_IT_number 2
_symmetry_cell_setting 'triclinic'
loop_
_space_group_symop_operation_xyz
x,y,z
-x,-y,-z
loop_
_atom_site_type_symbol
_atom_site_label
_atom_site_fract_x
_atom_site_fract_y
_atom_site_fract_z
Si Si1 0.669370 0.326640 0.002191
Si Si2 0.227455 0.057098 0.122474
Si Si3 0.593973 0.677690 0.313887
Si Si4 0.088019 0.187600 0.957936
Si Si5 0.869978 0.678640 0.402136
Si Si6 0.107160 0.928149 0.573004
Si Si7 0.637053 0.581005 0.702573
O O1 0.506312 0.279434 0.158109
O O2 0.884904 0.353136 0.977938
O O3 0.500000 0.500000 0.000000
O O4 0.789140 0.152446 0.887443
O O5 0.086287 0.125688 0.280412
O O6 0.125398 0.204869 0.064355
O O7 0.500000 0.000000 0.000000
O O8 0.773981 0.608752 0.339836
O O9 0.535656 0.528757 0.266815
O O10 0.348035 0.771836 0.463249
O O11 0.686516 0.818963 0.198631
O O12 0.000000 0.000000 0.000000
O O13 0.838268 0.900502 0.397003
O O14 0.723116 0.663235 0.563453
O O15 0.133844 0.561710 0.329646
O O16 0.000000 0.000000 0.500000
#
# Coordination Sequence:
#
# PCOD9048608 Si02
#       7
#     2   2   2   2   2   2   2
#     4  11  25  45  71  98 150 187 239 296 371 422
#     4  11  26  45  73 108 143 189 243 300 361 434
#     4  12  25  46  78 103 144 191 245 293 363 434
#     4  10  24  45  70 105 144 186 244 297 360 431
#     4  11  25  45  69 107 146 185 243 300 359 425
#     4  12  25  44  76 103 142 189 248 295 360 429
#     4  11  26  45  71 105 146 189 236 299 365 436
#
# _framework density 25.388745
#
# number of rings (size 3 to 8) (size 9 to 14) (size 15 to 20)
#    0.000    0.857    1.429    5.143   10.000    0.571 
#    2.571    0.000    0.000    0.000    0.000    0.000 
#    0.000    0.000    0.000    0.000    0.000    0.000 
#
# Total GULP energy -78338.782360 kJ/mol
# GULP energy per Si atom -5595.627311 kJ/mol
# Density = 2.533096 g / cm^3
# Si number density = 25.388745 Si / 1000 Ang^3
#
#
#
# Elastic Constant Matrix: (Units=GPa)
#
#
# Indices 1 2 3 4 5 6 
#
# 1 143.9176 19.2550 37.8679 -8.4384 0.9025 -25.8501
# 2 19.2550 58.2989 20.2807 -1.9246 5.4378 -1.1676
# 3 37.8679 20.2807 221.7606 -11.9116 20.1216 1.7888
# 4 -8.4384 -1.9246 -11.9116 40.2564 -2.0640 3.7877
# 5 0.9025 5.4378 20.1216 -2.0640 30.3932 -11.0675
# 6 -25.8501 -1.1676 1.7888 3.7877 -11.0675 41.8328
#
#
#
# Elastic Compliance Matrix: (Units=1/GPa)
#
#
# Indices 1 2 3 4 5 6 
#
# 1 0.008890 -0.002557 -0.001621 0.000848 0.003647 0.006379
# 2 -0.002557 0.018599 -0.000944 0.000083 -0.003315 -0.001905
# 3 -0.001621 -0.000944 0.005332 0.001212 -0.004125 -0.002457
# 4 0.000848 0.000083 0.001212 0.025561 0.000247 -0.001774
# 5 0.003647 -0.003315 -0.004125 0.000247 0.040920 0.013141
# 6 0.006379 -0.001905 -0.002457 -0.001774 0.013141 0.031536
#
#
# Mechanical properties :
#
#
# Convention : Reuss Voigt Hill
#
# Bulk Modulus (GPa) = 44.29070 64.30935 54.30002
# Shear Modulus (GPa) = 33.64579 45.60139 39.62359
#
# Velocity S-wave (km/s) = 3.64431 4.24267 3.95482
# Velocity P-wave (km/s) = 5.93219 7.02746 6.50293
#
# Compressibility (1/GPa) = 0.02257810
#
# Stress axis : x y z
#
# Youngs Moduli (GPa) = 112.48934 53.76491 187.55585
#
# Poissons Ratio (x) = 0.13746 0.30403
# Poissons Ratio (y) = 0.28759 0.17701
# Poissons Ratio (z) = 0.18235 0.05074
#
# Static dielectric constant tensor:
#      x y z
#    x 2.147290 0.093880 -0.022860 
#    y 0.093880 2.053900 -0.047380 
#    z -0.022860 -0.047380 2.009060 
# 
# From -- ./inp_files/494786.got.cif
#   From: 2010.05.17/outbox.cif.g08.bks.cpg/sg2_248_cif.got.tgz:494786.got - 2010.06.03 11:33:40.
