data_PCOD9048383
_publ_section_title
;
Structure prediction by ZEFSAII (Michael W. Deem and Ramdas Pophale) SiO2 
 PCOD9048383
Probable space group: P -1
;
_chemical_formula_sum "Si O2"
_cell_formula_units_Z 15
_cell_length_a 8.874499
_cell_length_b 21.157943
_cell_length_c 5.385218
_cell_angle_alpha 124.449190
_cell_angle_beta 124.049176
_cell_angle_gamma 49.588660
_cell_volume 604.087347
_symmetry_space_group_name_H-M "P -1"
_symmetry_group_IT_number 2
_symmetry_cell_setting 'triclinic'
loop_
_space_group_symop_operation_xyz
x,y,z
-x,-y,-z
loop_
_atom_site_type_symbol
_atom_site_label
_atom_site_fract_x
_atom_site_fract_y
_atom_site_fract_z
Si Si1 0.051467 0.320476 0.903103
Si Si2 0.767493 0.575650 0.912053
Si Si3 0.559746 0.291591 0.748751
Si Si4 0.110374 0.056788 0.989854
Si Si5 0.668670 0.097666 0.537696
Si Si6 0.578904 0.422745 0.700411
Si Si7 0.500000 0.000000 0.500000
Si Si8 0.007370 0.240463 0.192552
O O1 0.815190 0.396606 0.806883
O O2 0.089984 0.257183 0.563829
O O3 0.058689 0.280822 0.090727
O O4 0.205410 0.359960 0.112469
O O5 0.605308 0.546789 0.598812
O O6 0.656649 0.634463 0.178510
O O7 0.000000 0.500000 0.000000
O O8 0.573548 0.196888 0.567714
O O9 0.599857 0.331281 0.624321
O O10 0.756245 0.282089 0.073468
O O11 0.873510 0.077769 0.844861
O O12 0.245811 0.967589 0.764262
O O13 0.245809 0.048526 0.335488
O O14 0.090539 0.138357 0.993837
O O15 0.517645 0.073010 0.495327
O O16 0.500000 0.500000 0.000000
#
# Coordination Sequence:
#
# PCOD9048383 Si02
#       8
#     2   2   2   2   2   2   1   2
#     4  11  26  46  76 106 151 192 252 302 373 437
#     4  12  28  43  72 107 146 189 247 307 377 445
#     4  10  24  47  71 102 146 191 251 300 372 435
#     4  10  24  45  69 102 145 189 245 294 365 426
#     4  10  24  45  68 101 142 193 241 302 358 439
#     4  11  26  48  75 100 144 196 245 311 375 446
#     4  12  24  40  70 106 142 186 242 300 360 428
#     4  10  24  48  75 107 147 201 243 308 362 441
#
# _framework density 24.830846000000001
#
# number of rings (size 3 to 8) (size 9 to 14) (size 15 to 20)
#    0.000    1.333    1.333    1.600    9.333    3.200 
#    4.800    0.000    0.000    0.000    0.000    0.000 
#    0.000    0.000    0.000    0.000    0.000    0.000 
#
# Total GULP energy -83682.242049 kJ/mol
# GULP energy per Si atom -5578.816137 kJ/mol
# Density = 2.477433 g / cm^3
# Si number density = 24.830846 Si / 1000 Ang^3
#
#
#
# Elastic Constant Matrix: (Units=GPa)
#
#
# Indices 1 2 3 4 5 6 
#
# 1 139.4883 29.9574 28.9797 6.0847 19.6728 23.6488
# 2 29.9574 95.6455 23.4779 3.6169 3.8718 0.0896
# 3 28.9797 23.4779 83.7050 9.8262 5.0551 -13.7393
# 4 6.0847 3.6169 9.8262 26.0503 -1.2737 8.7703
# 5 19.6728 3.8718 5.0551 -1.2737 37.6600 0.2392
# 6 23.6488 0.0896 -13.7393 8.7703 0.2392 46.9275
#
#
#
# Elastic Compliance Matrix: (Units=1/GPa)
#
#
# Indices 1 2 3 4 5 6 
#
# 1 0.010072 -0.002075 -0.003848 0.001332 -0.004446 -0.006425
# 2 -0.002075 0.011719 -0.002486 -0.000314 0.000200 0.000353
# 3 -0.003848 -0.002486 0.016216 -0.007616 -0.000220 0.008116
# 4 0.001332 -0.000314 -0.007616 0.044892 0.001949 -0.011300
# 5 -0.004446 0.000200 -0.000220 0.001949 0.028940 0.001664
# 6 -0.006425 0.000353 0.008116 -0.011300 0.001664 0.029026
#
#
# Mechanical properties :
#
#
# Convention : Reuss Voigt Hill
#
# Bulk Modulus (GPa) = 47.19229 53.74097 50.46663
# Shear Modulus (GPa) = 30.35004 37.88914 34.11959
#
# Velocity S-wave (km/s) = 3.49989 3.91050 3.71088
# Velocity P-wave (km/s) = 5.94803 6.48685 6.22327
#
# Compressibility (1/GPa) = 0.02118990
#
# Stress axis : x y z
#
# Youngs Moduli (GPa) = 99.28382 85.33336 61.66934
#
# Poissons Ratio (x) = 0.17704 0.23728
# Poissons Ratio (y) = 0.20598 0.15331
# Poissons Ratio (z) = 0.38201 0.21213
#
# Static dielectric constant tensor:
#      x y z
#    x 1.922400 0.014990 0.000930 
#    y 0.014990 1.994630 -0.027120 
#    z 0.000930 -0.027120 2.010940 
# 
# From -- ./inp_files/53848.got.cif
#   From: 2010.05.17/outbox.cif.g08.bks.cpg/sg2_27_cif.got.tgz:53848.got - 2010.06.03 11:33:40.
