data_PCOD9048513
_publ_section_title
;
Structure prediction by ZEFSAII (Michael W. Deem and Ramdas Pophale) SiO2 
 PCOD9048513
Probable space group: P -1
;
_chemical_formula_sum "Si O2"
_cell_formula_units_Z 12
_cell_length_a 12.123612
_cell_length_b 8.128111
_cell_length_c 5.941780
_cell_angle_alpha 57.054637
_cell_angle_beta 102.769132
_cell_angle_gamma 87.496128
_cell_volume 469.500346
_symmetry_space_group_name_H-M "P -1"
_symmetry_group_IT_number 2
_symmetry_cell_setting 'triclinic'
loop_
_space_group_symop_operation_xyz
x,y,z
-x,-y,-z
loop_
_atom_site_type_symbol
_atom_site_label
_atom_site_fract_x
_atom_site_fract_y
_atom_site_fract_z
Si Si1 0.189379 0.443462 0.691357
Si Si2 0.972108 0.706061 0.626411
Si Si3 0.689056 0.403668 0.715519
Si Si4 0.934309 0.120613 0.087419
Si Si5 0.334633 0.208103 0.276183
Si Si6 0.552028 0.128430 0.113409
O O1 0.116752 0.393018 0.481685
O O2 0.302775 0.517864 0.594429
O O3 0.099737 0.615765 0.651561
O O4 0.235658 0.250421 0.009991
O O5 0.995863 0.718326 0.894480
O O6 0.925179 0.939626 0.382407
O O7 0.688619 0.594625 0.729358
O O8 0.807009 0.239931 0.897447
O O9 0.593152 0.297328 0.858033
O O10 0.000000 0.000000 0.000000
O O11 0.454149 0.197123 0.204844
O O12 0.348060 0.016777 0.588377
O O13 0.500000 0.000000 0.000000
#
# Coordination Sequence:
#
# PCOD9048513 Si02
#       6
#     2   2   2   2   2   2
#     4  11  24  46  76 113 150 203 249 314 370 457
#     4  10  24  45  69 109 160 199 251 299 377 448
#     4  12  26  46  76 113 148 201 255 312 382 445
#     4  11  23  45  70 113 153 204 250 307 366 458
#     4  11  26  50  77 109 148 202 249 319 388 448
#     4  11  28  53  76 109 148 198 258 325 380 455
#
# _framework density 25.559085
#
# number of rings (size 3 to 8) (size 9 to 14) (size 15 to 20)
#    0.000    1.000    3.333    1.500    4.667    7.333 
#    3.000    0.000    0.000    0.000    0.000    0.000 
#    0.000    0.000    0.000    0.000    0.000    0.000 
#
# Total GULP energy -67121.283733 kJ/mol
# GULP energy per Si atom -5593.440311 kJ/mol
# Density = 2.550091 g / cm^3
# Si number density = 25.559085 Si / 1000 Ang^3
#
#
#
# Elastic Constant Matrix: (Units=GPa)
#
#
# Indices 1 2 3 4 5 6 
#
# 1 124.5709 32.7582 20.0607 9.7803 -23.7399 -29.3162
# 2 32.7582 112.4760 7.5228 19.0372 -1.4171 -35.7218
# 3 20.0607 7.5228 131.5815 -8.2535 11.4253 -0.2515
# 4 9.7803 19.0372 -8.2535 32.2920 -8.3014 -0.6390
# 5 -23.7399 -1.4171 11.4253 -8.3014 37.9071 -6.7979
# 6 -29.3162 -35.7218 -0.2515 -0.6390 -6.7979 38.7578
#
#
#
# Elastic Compliance Matrix: (Units=1/GPa)
#
#
# Indices 1 2 3 4 5 6 
#
# 1 0.013824 0.000969 -0.003289 -0.002365 0.011555 0.013315
# 2 0.000969 0.014886 -0.001721 -0.008590 0.002442 0.014728
# 3 -0.003289 -0.001721 0.008807 0.002876 -0.005019 -0.004850
# 4 -0.002365 -0.008590 0.002876 0.038412 0.004253 -0.008308
# 5 0.011555 0.002442 -0.005019 0.004253 0.039368 0.017933
# 6 0.013315 0.014728 -0.004850 -0.008308 0.017933 0.052424
#
#
# Mechanical properties :
#
#
# Convention : Reuss Voigt Hill
#
# Bulk Modulus (GPa) = 33.97611 54.36799 44.17205
# Shear Modulus (GPa) = 26.93741 42.34382 34.64062
#
# Velocity S-wave (km/s) = 3.24995 4.07468 3.68545
# Velocity P-wave (km/s) = 5.23497 6.59204 5.95231
#
# Compressibility (1/GPa) = 0.02943245
#
# Stress axis : x y z
#
# Youngs Moduli (GPa) = 72.33890 67.17674 113.55112
#
# Poissons Ratio (x) = -0.06506 0.37348
# Poissons Ratio (y) = -0.07006 0.19547
# Poissons Ratio (z) = 0.23793 0.11564
#
# Static dielectric constant tensor:
#      x y z
#    x 2.064150 0.052840 -0.067880 
#    y 0.052840 1.993140 0.018900 
#    z -0.067880 0.018900 2.217290 
# 
# From -- ./inp_files/60184.got.cif
#   From: 2010.05.17/outbox.cif.g08.bks.cpg/sg2_31_cif.got.tgz:60184.got - 2010.06.03 11:33:40.
