data_PCOD9048338
_publ_section_title
;
Structure prediction by ZEFSAII (Michael W. Deem and Ramdas Pophale) SiO2 
 PCOD9048338
Probable space group: P -1
;
_chemical_formula_sum "Si O2"
_cell_formula_units_Z 16
_cell_length_a 9.083640
_cell_length_b 11.329261
_cell_length_c 14.002899
_cell_angle_alpha 122.766760
_cell_angle_beta 42.703381
_cell_angle_gamma 135.588786
_cell_volume 683.533247
_symmetry_space_group_name_H-M "P -1"
_symmetry_group_IT_number 2
_symmetry_cell_setting 'triclinic'
loop_
_space_group_symop_operation_xyz
x,y,z
-x,-y,-z
loop_
_atom_site_type_symbol
_atom_site_label
_atom_site_fract_x
_atom_site_fract_y
_atom_site_fract_z
Si Si1 0.065880 0.566794 0.635054
Si Si2 0.655076 0.317622 0.954730
Si Si3 0.254557 0.100788 0.222437
Si Si4 0.548702 0.590119 0.150242
Si Si5 0.269655 0.773815 0.812767
Si Si6 0.026424 0.284833 0.872665
Si Si7 0.116891 0.767690 0.522030
Si Si8 0.559685 0.894354 0.218557
O O1 0.758843 0.497614 0.746503
O O2 0.063767 0.408162 0.527034
O O3 0.177635 0.629011 0.714338
O O4 0.189672 0.715509 0.563007
O O5 0.931912 0.378981 0.894698
O O6 0.615905 0.208694 0.833919
O O7 0.441755 0.198070 0.084350
O O8 0.611349 0.464491 0.015759
O O9 0.444150 0.155414 0.248081
O O10 0.045139 0.149694 0.349851
O O11 0.102397 0.901071 0.189602
O O12 0.675433 0.783396 0.141462
O O13 0.666147 0.610902 0.209631
O O14 0.261015 0.916520 0.819846
O O15 0.096441 0.736247 0.972847
O O16 0.377067 0.879495 0.384890
#
# Coordination Sequence:
#
# PCOD9048338 Si02
#       8
#     2   2   2   2   2   2   2   2
#     4  10  24  47  64  98 135 173 227 272 326 396
#     4  11  21  45  67  98 138 167 226 274 327 394
#     4  11  22  47  70  96 133 181 217 271 337 387
#     4  11  25  39  67  98 131 179 214 271 334 383
#     4  11  24  43  70  99 137 171 222 279 323 397
#     4  11  24  42  70 102 135 172 220 274 333 392
#     4  10  24  45  67  93 138 178 221 271 328 397
#     4  11  24  42  65 104 134 170 222 276 329 393
#
# _framework density 23.407786999999999
#
# number of rings (size 3 to 8) (size 9 to 14) (size 15 to 20)
#    0.000    1.250    3.750    1.500    7.000    2.000 
#    4.500    0.000    0.000    0.000    0.000    0.000 
#    0.000    0.000    0.000    0.000    0.000    0.000 
#
# Total GULP energy -89529.779374 kJ/mol
# GULP energy per Si atom -5595.611211 kJ/mol
# Density = 2.335451 g / cm^3
# Si number density = 23.407787 Si / 1000 Ang^3
#
#
#
# Elastic Constant Matrix: (Units=GPa)
#
#
# Indices 1 2 3 4 5 6 
#
# 1 70.3042 17.9215 39.6292 2.1398 13.2822 -2.2574
# 2 17.9215 80.2830 34.7598 14.5676 1.1175 -13.4914
# 3 39.6292 34.7598 101.3475 6.0237 15.4696 -6.8075
# 4 2.1398 14.5676 6.0237 33.9823 4.3337 5.5984
# 5 13.2822 1.1175 15.4696 4.3337 29.2735 11.7654
# 6 -2.2574 -13.4914 -6.8075 5.5984 11.7654 48.2600
#
#
#
# Elastic Compliance Matrix: (Units=1/GPa)
#
#
# Indices 1 2 3 4 5 6 
#
# 1 0.019164 -0.001648 -0.006023 0.001182 -0.005990 0.000909
# 2 -0.001648 0.016889 -0.004717 -0.007262 0.001922 0.004353
# 3 -0.006023 -0.004717 0.014822 0.000194 -0.005695 0.001856
# 4 0.001182 -0.007262 0.000194 0.033686 -0.003321 -0.005046
# 5 -0.005990 0.001922 -0.005695 -0.003321 0.044756 -0.011072
# 6 0.000909 0.004353 0.001856 -0.005046 -0.011072 0.025527
#
#
# Mechanical properties :
#
#
# Convention : Reuss Voigt Hill
#
# Bulk Modulus (GPa) = 38.31736 48.50619 43.41178
# Shear Modulus (GPa) = 26.55040 32.94477 29.74759
#
# Velocity S-wave (km/s) = 3.37152 3.75564 3.56875
# Velocity P-wave (km/s) = 5.61794 6.29076 5.96385
#
# Compressibility (1/GPa) = 0.02609783
#
# Stress axis : x y z
#
# Youngs Moduli (GPa) = 52.18095 59.21098 67.46520
#
# Poissons Ratio (x) = 0.09761 0.40635
# Poissons Ratio (y) = 0.08602 0.31824
# Poissons Ratio (z) = 0.31429 0.27931
#
# Static dielectric constant tensor:
#      x y z
#    x 1.907310 0.005490 0.012490 
#    y 0.005490 1.938930 -0.022570 
#    z 0.012490 -0.022570 1.867770 
# 
# From -- ./inp_files/392810.got.cif
#   From: 2010.05.17/outbox.cif.g08.bks.cpg/sg2_197_cif.got.tgz:392810.got - 2010.06.03 11:33:40.
