data_PCOD9048626
_publ_section_title
;
Structure prediction by ZEFSAII (Michael W. Deem and Ramdas Pophale) SiO2 
 PCOD9048626
Probable space group: P -1
;
_chemical_formula_sum "Si O2"
_cell_formula_units_Z 14
_cell_length_a 19.936534
_cell_length_b 5.485491
_cell_length_c 9.912022
_cell_angle_alpha 117.823203
_cell_angle_beta 41.079846
_cell_angle_gamma 121.984128
_cell_volume 599.729571
_symmetry_space_group_name_H-M "P -1"
_symmetry_group_IT_number 2
_symmetry_cell_setting 'triclinic'
loop_
_space_group_symop_operation_xyz
x,y,z
-x,-y,-z
loop_
_atom_site_type_symbol
_atom_site_label
_atom_site_fract_x
_atom_site_fract_y
_atom_site_fract_z
Si Si1 0.904797 0.400687 0.008476
Si Si2 0.029765 0.347341 0.545254
Si Si3 0.434629 0.675892 0.565259
Si Si4 0.268601 0.944831 0.000419
Si Si5 0.242958 0.774569 0.295505
Si Si6 0.730026 0.643673 0.476653
Si Si7 0.390074 0.514677 0.104267
O O1 0.821098 0.546537 0.237622
O O2 0.816642 0.099104 0.005193
O O3 0.000000 0.500000 0.000000
O O4 0.975335 0.466572 0.782171
O O5 0.158419 0.470561 0.382236
O O6 0.000000 0.500000 0.500000
O O7 0.000000 0.000000 0.500000
O O8 0.500000 0.500000 0.500000
O O9 0.376825 0.470541 0.478520
O O10 0.500000 0.000000 0.500000
O O11 0.338873 0.731485 0.810717
O O12 0.219508 0.850245 0.198230
O O13 0.349447 0.260743 0.989242
O O14 0.366289 0.780689 0.130870
O O15 0.225991 0.014330 0.482493
O O16 0.689121 0.524028 0.655992
O O17 0.500000 0.500000 0.000000
#
# Coordination Sequence:
#
# PCOD9048626 Si02
#       7
#     2   2   2   2   2   2   2
#     4  11  24  48  75 108 153 198 253 322 385 452
#     4  12  27  51  81 111 151 207 260 317 391 464
#     4  11  26  46  73 105 152 198 251 315 384 455
#     4  10  24  45  70 109 142 201 252 309 382 458
#     4  11  25  45  74 105 154 192 262 315 375 470
#     4  10  26  46  68 115 145 196 258 313 386 451
#     4  11  24  43  75 105 150 200 257 309 384 456
#
# _framework density 23.343855000000001
#
# number of rings (size 3 to 8) (size 9 to 14) (size 15 to 20)
#    0.000    1.143    1.429    2.571   12.000    1.714 
#    2.571    0.000    0.000    0.000    0.000    0.000 
#    0.000    0.000    0.000    0.000    0.000    0.000 
#
# Total GULP energy -78003.754281 kJ/mol
# GULP energy per Si atom -5571.696734 kJ/mol
# Density = 2.329072 g / cm^3
# Si number density = 23.343855 Si / 1000 Ang^3
#
#
#
# Elastic Constant Matrix: (Units=GPa)
#
#
# Indices 1 2 3 4 5 6 
#
# 1 216.2398 53.6983 55.0861 13.7277 7.1094 25.9854
# 2 53.6983 108.0286 32.1048 9.3435 12.9233 17.2568
# 3 55.0861 32.1048 117.6011 19.3923 10.9868 3.4114
# 4 13.7277 9.3435 19.3923 32.0494 14.3101 5.6173
# 5 7.1094 12.9233 10.9868 14.3101 40.4427 6.0736
# 6 25.9854 17.2568 3.4114 5.6173 6.0736 39.3823
#
#
#
# Elastic Compliance Matrix: (Units=1/GPa)
#
#
# Indices 1 2 3 4 5 6 
#
# 1 0.006027 -0.001912 -0.002202 -0.000516 0.000782 -0.002995
# 2 -0.001912 0.011595 -0.001998 0.000319 -0.002441 -0.003315
# 3 -0.002202 -0.001998 0.010927 -0.005292 -0.000400 0.002199
# 4 -0.000516 0.000319 -0.005292 0.040668 -0.012480 -0.003217
# 5 0.000782 -0.002441 -0.000400 -0.012480 0.030238 -0.002295
# 6 -0.002995 -0.003315 0.002199 -0.003217 -0.002295 0.029444
#
#
# Mechanical properties :
#
#
# Convention : Reuss Voigt Hill
#
# Bulk Modulus (GPa) = 61.25922 80.40532 70.83227
# Shear Modulus (GPa) = 34.11438 42.44023 38.27731
#
# Velocity S-wave (km/s) = 3.82696 4.26848 4.05373
# Velocity P-wave (km/s) = 6.76953 7.66889 7.23320
#
# Compressibility (1/GPa) = 0.01632407
#
# Stress axis : x y z
#
# Youngs Moduli (GPa) = 165.91052 86.24364 91.51831
#
# Poissons Ratio (x) = 0.16489 0.20157
# Poissons Ratio (y) = 0.31721 0.18287
# Poissons Ratio (z) = 0.36541 0.17233
#
# Static dielectric constant tensor:
#      x y z
#    x 1.993400 0.044030 -0.047850 
#    y 0.044030 1.968670 -0.036690 
#    z -0.047850 -0.036690 1.880680 
# 
# From -- ./inp_files/324063.got.cif
#   From: 2010.05.17/outbox.cif.g08.bks.cpg/sg2_163_cif.got.tgz:324063.got - 2010.06.03 11:33:40.
