data_PCOD9048974
_publ_section_title
;
Structure prediction by ZEFSAII (Michael W. Deem and Ramdas Pophale) SiO2 
 PCOD9048974
Probable space group: P -1
;
_chemical_formula_sum "Si O2"
_cell_formula_units_Z 16
_cell_length_a 15.843220
_cell_length_b 11.675249
_cell_length_c 9.163041
_cell_angle_alpha 116.024281
_cell_angle_beta 70.144996
_cell_angle_gamma 53.285977
_cell_volume 670.678392
_symmetry_space_group_name_H-M "P -1"
_symmetry_group_IT_number 2
_symmetry_cell_setting 'triclinic'
loop_
_space_group_symop_operation_xyz
x,y,z
-x,-y,-z
loop_
_atom_site_type_symbol
_atom_site_label
_atom_site_fract_x
_atom_site_fract_y
_atom_site_fract_z
Si Si1 0.494027 0.986190 0.824259
Si Si2 0.273059 0.731270 0.373701
Si Si3 0.059487 0.014816 0.139879
Si Si4 0.967699 0.816767 0.466565
Si Si5 0.071147 0.424273 0.247849
Si Si6 0.288448 0.479523 0.749659
Si Si7 0.907284 0.865718 0.100971
Si Si8 0.417813 0.327204 0.902229
O O1 0.625292 0.705636 0.539131
O O2 0.283767 0.210666 0.023639
O O3 0.536424 0.065587 0.761416
O O4 0.500000 0.000000 0.000000
O O5 0.437811 0.435534 0.040334
O O6 0.157395 0.931219 0.415439
O O7 0.135005 0.810580 0.593971
O O8 0.279794 0.845339 0.542380
O O9 0.095655 0.079583 0.271707
O O10 0.049065 0.090772 0.031731
O O11 0.227310 0.700335 0.877001
O O12 0.954971 0.681623 0.376917
O O13 0.189148 0.583718 0.196882
O O14 0.084954 0.280330 0.061857
O O15 0.000000 0.500000 0.500000
O O16 0.085598 0.659574 0.993006
O O17 0.428648 0.303687 0.707743
#
# Coordination Sequence:
#
# PCOD9048974 Si02
#       8
#     2   2   2   2   2   2   2   2
#     4  11  26  39  61  86 115 160 202 241 295 351
#     4  10  18  33  59  94 115 144 207 248 288 335
#     4  10  18  32  60  90 119 151 199 247 285 340
#     4  10  17  34  59  87 117 152 199 242 291 338
#     4  11  23  41  59  84 127 157 193 243 298 357
#     4  11  20  38  61  91 119 150 200 245 294 345
#     4  11  22  34  63  94 120 155 195 245 298 347
#     4  10  19  36  59  85 120 151 192 252 286 343
#
# _framework density 23.856439999999999
#
# number of rings (size 3 to 8) (size 9 to 14) (size 15 to 20)
#    0.000    1.500    5.000    3.375    5.250    0.500 
#    0.000    0.625    0.000    0.750    0.000    0.000 
#    0.000    0.000    0.000    0.000    0.000    0.000 
#
# Total GULP energy -89347.808513 kJ/mol
# GULP energy per Si atom -5584.238032 kJ/mol
# Density = 2.380214 g / cm^3
# Si number density = 23.856440 Si / 1000 Ang^3
#
#
#
# Elastic Constant Matrix: (Units=GPa)
#
#
# Indices 1 2 3 4 5 6 
#
# 1 100.4559 24.0581 31.7222 3.5500 36.8026 2.8046
# 2 24.0581 77.6579 3.3970 -9.0150 19.3536 1.6411
# 3 31.7222 3.3970 114.0206 -11.2514 44.0581 2.0729
# 4 3.5500 -9.0150 -11.2514 34.9079 -5.4463 15.3732
# 5 36.8026 19.3536 44.0581 -5.4463 53.7076 2.5040
# 6 2.8046 1.6411 2.0729 15.3732 2.5040 22.6671
#
#
#
# Elastic Compliance Matrix: (Units=1/GPa)
#
#
# Indices 1 2 3 4 5 6 
#
# 1 0.014200 -0.002936 -0.001206 -0.005232 -0.008355 0.003037
# 2 -0.002936 0.015899 0.003203 0.006852 -0.005411 -0.005130
# 3 -0.001206 0.003203 0.013846 0.005365 -0.010966 -0.003776
# 4 -0.005232 0.006852 0.005365 0.047710 0.003094 -0.033039
# 5 -0.008355 -0.005411 -0.010966 0.003094 0.035773 -0.003622
# 6 0.003037 -0.005130 -0.003776 -0.033039 -0.003622 0.067265
#
#
# Mechanical properties :
#
#
# Convention : Reuss Voigt Hill
#
# Bulk Modulus (GPa) = 23.77129 45.60988 34.69058
# Shear Modulus (GPa) = 23.74264 37.78701 30.76483
#
# Velocity S-wave (km/s) = 3.15815 3.98418 3.59497
# Velocity P-wave (km/s) = 4.82540 6.35019 5.63957
#
# Compressibility (1/GPa) = 0.04206756
#
# Stress axis : x y z
#
# Youngs Moduli (GPa) = 70.42493 62.89807 72.22409
#
# Poissons Ratio (x) = 0.18464 0.08711
# Poissons Ratio (y) = 0.20674 -0.23137
# Poissons Ratio (z) = 0.08494 -0.20149
#
# Static dielectric constant tensor:
#      x y z
#    x 2.034120 0.065620 -0.078190 
#    y 0.065620 1.914930 -0.084930 
#    z -0.078190 -0.084930 2.134470 
# 
# From -- ./inp_files/189350.got.cif
#   From: 2010.05.17/outbox.cif.g08.bks.cpg/sg2_95_cif.got.tgz:189350.got - 2010.06.03 11:33:40.
