data_PCOD9048609
_publ_section_title
;
Structure prediction by ZEFSAII (Michael W. Deem and Ramdas Pophale) SiO2 
 PCOD9048609
Probable space group: P -1
;
_chemical_formula_sum "Si O2"
_cell_formula_units_Z 16
_cell_length_a 14.169101
_cell_length_b 11.063505
_cell_length_c 8.892397
_cell_angle_alpha 111.281302
_cell_angle_beta 43.876621
_cell_angle_gamma 79.848349
_cell_volume 661.772906
_symmetry_space_group_name_H-M "P -1"
_symmetry_group_IT_number 2
_symmetry_cell_setting 'triclinic'
loop_
_space_group_symop_operation_xyz
x,y,z
-x,-y,-z
loop_
_atom_site_type_symbol
_atom_site_label
_atom_site_fract_x
_atom_site_fract_y
_atom_site_fract_z
Si Si1 0.726657 0.562132 0.632069
Si Si2 0.898859 0.193156 0.268166
Si Si3 0.418110 0.179029 0.602736
Si Si4 0.105336 0.023553 0.233371
Si Si5 0.458184 0.896219 0.912865
Si Si6 0.033300 0.529541 0.145689
Si Si7 0.490862 0.373098 0.791601
Si Si8 0.792644 0.299656 0.929202
O O1 0.842607 0.367775 0.338796
O O2 0.542820 0.720718 0.825640
O O3 0.854802 0.606454 0.484136
O O4 0.658011 0.567562 0.880418
O O5 0.688589 0.283903 0.593243
O O6 0.048377 0.132644 0.196843
O O7 0.000000 0.000000 0.000000
O O8 0.447617 0.160023 0.382860
O O9 0.521674 0.228932 0.587813
O O10 0.500000 0.000000 0.500000
O O11 0.201405 0.343113 0.944977
O O12 0.194243 0.822434 0.016025
O O13 0.245223 0.010498 0.171765
O O14 0.907820 0.152190 0.600499
O O15 0.500000 0.000000 0.000000
O O16 0.102819 0.634448 0.115236
O O17 0.000000 0.500000 0.000000
O O18 0.399085 0.534255 0.852865
#
# Coordination Sequence:
#
# PCOD9048609 Si02
#       8
#     2   2   2   2   2   2   2   2
#     4  12  26  47  75 107 150 200 248 310 375 455
#     4  12  28  46  75 111 149 198 247 312 377 451
#     4  11  26  44  70 103 148 192 241 311 367 447
#     4  11  25  43  73 105 147 188 253 302 370 441
#     4  12  26  47  73 112 150 199 251 308 384 451
#     4  11  25  46  71 105 149 195 250 300 384 434
#     4  11  25  48  74 106 148 195 251 304 379 444
#     4  10  24  45  70 105 146 195 242 311 363 453
#
# _framework density 24.177479000000002
#
# number of rings (size 3 to 8) (size 9 to 14) (size 15 to 20)
#    0.000    0.750    2.500    3.375    8.750    2.000 
#    0.000    3.125    0.000    0.000    0.000    0.000 
#    0.000    0.000    0.000    0.000    0.000    0.000 
#
# Total GULP energy -89370.468411 kJ/mol
# GULP energy per Si atom -5585.654276 kJ/mol
# Density = 2.412245 g / cm^3
# Si number density = 24.177479 Si / 1000 Ang^3
#
#
#
# Elastic Constant Matrix: (Units=GPa)
#
#
# Indices 1 2 3 4 5 6 
#
# 1 150.8688 65.4255 32.9613 18.5510 -9.7217 10.6585
# 2 65.4255 120.7215 39.6110 46.5862 -2.5537 10.6228
# 3 32.9613 39.6110 84.1866 20.4090 -15.4945 6.1734
# 4 18.5510 46.5862 20.4090 55.4981 0.7866 -5.6604
# 5 -9.7217 -2.5537 -15.4945 0.7866 48.9733 8.7678
# 6 10.6585 10.6228 6.1734 -5.6604 8.7678 40.7181
#
#
#
# Elastic Compliance Matrix: (Units=1/GPa)
#
#
# Indices 1 2 3 4 5 6 
#
# 1 0.009009 -0.004925 -0.001261 0.001472 0.001279 -0.000953
# 2 -0.004925 0.016847 -0.002797 -0.011909 -0.000017 -0.004334
# 3 -0.001261 -0.002797 0.015657 -0.003355 0.005128 -0.002885
# 4 0.001472 -0.011909 -0.003355 0.029626 -0.003310 0.008061
# 5 0.001279 -0.000017 0.005128 -0.003310 0.023536 -0.006636
# 6 -0.000953 -0.004334 -0.002885 0.008061 -0.006636 0.028926
#
#
# Mechanical properties :
#
#
# Convention : Reuss Voigt Hill
#
# Bulk Modulus (GPa) = 42.47016 70.19692 56.33354
# Shear Modulus (GPa) = 33.46377 43.55652 38.51015
#
# Velocity S-wave (km/s) = 3.72437 4.24905 3.99533
# Velocity P-wave (km/s) = 6.00822 7.29175 6.68088
#
# Compressibility (1/GPa) = 0.02354595
#
# Stress axis : x y z
#
# Youngs Moduli (GPa) = 111.00568 59.35760 63.87038
#
# Poissons Ratio (x) = 0.29236 0.08054
# Poissons Ratio (y) = 0.54676 0.17863
# Poissons Ratio (z) = 0.13998 0.16601
#
# Static dielectric constant tensor:
#      x y z
#    x 1.966230 0.004500 -0.001370 
#    y 0.004500 2.027570 -0.050190 
#    z -0.001370 -0.050190 1.979610 
# 
# From -- ./inp_files/307906.got.cif
#   From: 2010.05.17/outbox.cif.g08.bks.cpg/sg2_154_cif.got.tgz:307906.got - 2010.06.03 11:33:40.
