data_PCOD9048868
_publ_section_title
;
Structure prediction by ZEFSAII (Michael W. Deem and Ramdas Pophale) SiO2 
 PCOD9048868
Probable space group: P -1
;
_chemical_formula_sum "Si O2"
_cell_formula_units_Z 16
_cell_length_a 8.957439
_cell_length_b 23.989739
_cell_length_c 5.488357
_cell_angle_alpha 132.852792
_cell_angle_beta 54.960649
_cell_angle_gamma 129.639468
_cell_volume 644.933885
_symmetry_space_group_name_H-M "P -1"
_symmetry_group_IT_number 2
_symmetry_cell_setting 'triclinic'
loop_
_space_group_symop_operation_xyz
x,y,z
-x,-y,-z
loop_
_atom_site_type_symbol
_atom_site_label
_atom_site_fract_x
_atom_site_fract_y
_atom_site_fract_z
Si Si1 0.238935 0.333390 0.785239
Si Si2 0.876422 0.788796 0.865739
Si Si3 0.382033 0.982759 0.312385
Si Si4 0.770655 0.506307 0.966809
Si Si5 0.921837 0.952882 0.181694
Si Si6 0.250295 0.577498 0.766686
Si Si7 0.508811 0.726528 0.290741
Si Si8 0.172214 0.782083 0.922143
O O1 0.267680 0.279989 0.381786
O O2 0.384717 0.328832 0.846642
O O3 0.279423 0.422080 0.897599
O O4 0.003837 0.279986 0.920021
O O5 0.040333 0.760757 0.734689
O O6 0.976326 0.874824 0.890999
O O7 0.720265 0.801279 0.236821
O O8 0.500000 0.000000 0.500000
O O9 0.301123 0.055140 0.618626
O O10 0.235861 0.882735 0.170543
O O11 0.500000 0.000000 0.000000
O O12 0.711240 0.438188 0.598614
O O13 0.011177 0.546703 0.892869
O O14 0.703887 0.477026 0.221680
O O15 0.000000 0.000000 0.500000
O O16 0.000000 0.000000 0.000000
O O17 0.361883 0.669627 0.048295
O O18 0.365494 0.760490 0.671107
#
# Coordination Sequence:
#
# PCOD9048868 Si02
#       8
#     2   2   2   2   2   2   2   2
#     4  11  27  44  75 107 145 193 241 297 365 431
#     4  11  26  47  71 105 146 193 240 298 366 433
#     4  12  27  46  73 108 141 189 246 298 358 430
#     4  10  24  45  74 105 144 193 240 292 366 429
#     4  12  25  47  76 102 144 192 240 297 363 427
#     4  10  24  45  74 106 143 192 240 297 358 433
#     4  11  27  45  73 110 144 190 245 298 360 433
#     4  11  26  48  72 102 150 193 236 303 365 428
#
# _framework density 24.808744999999998
#
# number of rings (size 3 to 8) (size 9 to 14) (size 15 to 20)
#    0.000    1.000    1.250    3.000   15.750    2.000 
#    0.000    0.000    0.000    0.000    0.000    0.000 
#    0.000    0.000    0.000    0.000    0.000    0.000 
#
# Total GULP energy -89201.095978 kJ/mol
# GULP energy per Si atom -5575.068499 kJ/mol
# Density = 2.475228 g / cm^3
# Si number density = 24.808745 Si / 1000 Ang^3
#
#
#
# Elastic Constant Matrix: (Units=GPa)
#
#
# Indices 1 2 3 4 5 6 
#
# 1 133.8233 9.6986 21.6615 -9.8790 -0.4649 -11.1528
# 2 9.6986 84.5887 6.1549 -15.8719 -6.8972 -6.6140
# 3 21.6615 6.1549 60.1832 -11.3512 3.4393 0.9794
# 4 -9.8790 -15.8719 -11.3512 46.5596 6.5987 0.3186
# 5 -0.4649 -6.8972 3.4393 6.5987 52.1231 3.0176
# 6 -11.1528 -6.6140 0.9794 0.3186 3.0176 39.6174
#
#
#
# Elastic Compliance Matrix: (Units=1/GPa)
#
#
# Indices 1 2 3 4 5 6 
#
# 1 0.008211 -0.000389 -0.002776 0.000923 -0.000046 0.002311
# 2 -0.000389 0.012901 -0.000517 0.004018 0.001117 0.001940
# 3 -0.002776 -0.000517 0.018545 0.004013 -0.001754 -0.001225
# 4 0.000923 0.004018 0.004013 0.024422 -0.002866 0.000853
# 5 -0.000046 0.001117 -0.001754 -0.002866 0.019885 -0.001275
# 6 0.002311 0.001940 -0.001225 0.000853 -0.001275 0.026336
#
#
# Mechanical properties :
#
#
# Convention : Reuss Voigt Hill
#
# Bulk Modulus (GPa) = 30.96760 39.29167 35.12964
# Shear Modulus (GPa) = 38.93206 43.73203 41.33205
#
# Velocity S-wave (km/s) = 3.96572 4.20309 4.08613
# Velocity P-wave (km/s) = 5.78609 6.27908 6.03762
#
# Compressibility (1/GPa) = 0.03229182
#
# Stress axis : x y z
#
# Youngs Moduli (GPa) = 121.79153 77.51512 53.92252
#
# Poissons Ratio (x) = 0.03017 0.14971
# Poissons Ratio (y) = 0.04740 0.02787
# Poissons Ratio (z) = 0.33813 0.04007
#
# Static dielectric constant tensor:
#      x y z
#    x 1.832360 0.129130 0.071320 
#    y 0.129130 1.934050 -0.132920 
#    z 0.071320 -0.132920 1.874150 
# 
# From -- ./inp_files/55688.got.cif
#   From: 2010.05.17/outbox.cif.g08.bks.cpg/sg2_28_cif.got.tgz:55688.got - 2010.06.03 11:33:40.
