data_PCOD9048016
_publ_section_title
;
Structure prediction by ZEFSAII (Michael W. Deem and Ramdas Pophale) SiO2 
 PCOD9048016
Probable space group: P -1
;
_chemical_formula_sum "Si O2"
_cell_formula_units_Z 11
_cell_length_a 14.219094
_cell_length_b 5.309207
_cell_length_c 9.141094
_cell_angle_alpha 81.098216
_cell_angle_beta 139.346311
_cell_angle_gamma 94.615476
_cell_volume 443.430603
_symmetry_space_group_name_H-M "P -1"
_symmetry_group_IT_number 2
_symmetry_cell_setting 'triclinic'
loop_
_space_group_symop_operation_xyz
x,y,z
-x,-y,-z
loop_
_atom_site_type_symbol
_atom_site_label
_atom_site_fract_x
_atom_site_fract_y
_atom_site_fract_z
Si Si1 0.438898 0.935216 0.590837
Si Si2 0.695314 0.366194 0.325017
Si Si3 0.997746 0.499935 0.741351
Si Si4 0.127076 0.197093 0.153834
Si Si5 0.326534 0.080841 0.888293
Si Si6 0.000000 0.000000 0.500000
O O1 0.282297 0.081812 0.393109
O O2 0.500000 0.000000 0.500000
O O3 0.386802 0.662009 0.614704
O O4 0.566154 0.991859 0.847601
O O5 0.872039 0.327208 0.545951
O O6 0.655831 0.637783 0.182220
O O7 0.654086 0.132686 0.195604
O O8 0.920205 0.628570 0.780575
O O9 0.027661 0.723882 0.647396
O O10 0.130197 0.343525 0.988973
O O11 0.000000 0.000000 0.000000
O O12 0.158811 0.085692 0.732212
#
# Coordination Sequence:
#
# PCOD9048016 Si02
#       6
#     2   2   2   2   2   1
#     4  12  27  45  76 114 150 189 252 313 374 440
#     4  11  24  51  74 103 148 203 245 304 378 453
#     4  10  24  45  79 104 142 202 253 301 372 452
#     4  11  24  47  74 100 153 196 246 296 386 449
#     4  11  27  47  76 107 153 195 253 303 383 447
#     4  10  24  44  72 108 144 190 254 308 362 436
#
# _framework density 24.806587
#
# number of rings (size 3 to 8) (size 9 to 14) (size 15 to 20)
#    0.000    1.091    1.818    3.273    2.545    5.818 
#    0.000    9.091    0.000    0.000    0.000    0.000 
#    0.000    0.000    0.000    0.000    0.000    0.000 
#
# Total GULP energy -61332.746118 kJ/mol
# GULP energy per Si atom -5575.704193 kJ/mol
# Density = 2.475013 g / cm^3
# Si number density = 24.806587 Si / 1000 Ang^3
#
#
#
# Elastic Constant Matrix: (Units=GPa)
#
#
# Indices 1 2 3 4 5 6 
#
# 1 87.2474 30.0749 56.5524 -5.0225 -15.1343 35.0520
# 2 30.0749 130.4021 80.6861 -13.4050 -19.0721 35.4997
# 3 56.5524 80.6861 244.2110 -33.0604 2.0195 21.6208
# 4 -5.0225 -13.4050 -33.0604 38.1466 0.1208 -3.1739
# 5 -15.1343 -19.0721 2.0195 0.1208 45.7716 -8.8713
# 6 35.0520 35.4997 21.6208 -3.1739 -8.8713 44.9325
#
#
#
# Elastic Compliance Matrix: (Units=1/GPa)
#
#
# Indices 1 2 3 4 5 6 
#
# 1 0.020236 0.002798 -0.004544 -0.001546 0.005174 -0.014898
# 2 0.002798 0.012797 -0.003999 0.000602 0.004607 -0.009417
# 3 -0.004544 -0.003999 0.006771 0.004138 -0.002863 0.003173
# 4 -0.001546 0.000602 0.004138 0.029874 -0.000371 0.000777
# 5 0.005174 0.004607 -0.002863 -0.000371 0.025350 -0.001319
# 6 -0.014898 -0.009417 0.003173 0.000777 -0.001319 0.039585
#
#
# Mechanical properties :
#
#
# Convention : Reuss Voigt Hill
#
# Bulk Modulus (GPa) = 35.31732 88.49859 61.90796
# Shear Modulus (GPa) = 32.14588 45.40662 38.77625
#
# Velocity S-wave (km/s) = 3.60371 4.28299 3.95795
# Velocity P-wave (km/s) = 5.61993 7.75961 6.77478
#
# Compressibility (1/GPa) = 0.02831472
#
# Stress axis : x y z
#
# Youngs Moduli (GPa) = 49.41633 78.14484 147.68500
#
# Poissons Ratio (x) = -0.21863 0.67103
# Poissons Ratio (y) = -0.13826 0.59057
# Poissons Ratio (z) = 0.22453 0.31249
#
# Static dielectric constant tensor:
#      x y z
#    x 2.168290 -0.141380 -0.093090 
#    y -0.141380 2.077000 0.080670 
#    z -0.093090 0.080670 2.069720 
# 
# From -- ./inp_files/22833.got.cif
#   From: 2010.05.17/outbox.cif.g08.bks.cpg/sg2_12_cif.got.tgz:22833.got - 2010.06.03 11:33:40.
