data_PCOD9048054
_publ_section_title
;
Structure prediction by ZEFSAII (Michael W. Deem and Ramdas Pophale) SiO2 
 PCOD9048054
Probable space group: P -1
;
_chemical_formula_sum "Si O2"
_cell_formula_units_Z 15
_cell_length_a 8.338692
_cell_length_b 14.026348
_cell_length_c 6.722984
_cell_angle_alpha 59.814012
_cell_angle_beta 84.002107
_cell_angle_gamma 63.184369
_cell_volume 598.932378
_symmetry_space_group_name_H-M "P -1"
_symmetry_group_IT_number 2
_symmetry_cell_setting 'triclinic'
loop_
_space_group_symop_operation_xyz
x,y,z
-x,-y,-z
loop_
_atom_site_type_symbol
_atom_site_label
_atom_site_fract_x
_atom_site_fract_y
_atom_site_fract_z
Si Si1 0.500000 0.500000 0.500000
Si Si2 0.813733 0.419812 0.221339
Si Si3 0.645957 0.684558 0.786415
Si Si4 0.274551 0.706738 0.985371
Si Si5 0.331313 0.167041 0.037078
Si Si6 0.114651 0.361357 0.547638
Si Si7 0.295433 0.953005 0.055205
Si Si8 0.042571 0.993953 0.732029
O O1 0.638997 0.447492 0.347156
O O2 0.645067 0.384242 0.744095
O O3 0.818255 0.347364 0.098909
O O4 0.989368 0.348471 0.408647
O O5 0.780748 0.557119 0.016042
O O6 0.442608 0.709165 0.837965
O O7 0.702947 0.661797 0.572734
O O8 0.671940 0.794082 0.776203
O O9 0.131968 0.845831 0.917123
O O10 0.170008 0.269163 0.821415
O O11 0.517861 0.157489 0.929029
O O12 0.338992 0.036660 0.117386
O O13 0.000000 0.500000 0.500000
O O14 0.148831 0.927527 0.217414
O O15 0.190188 0.024891 0.791007
O O16 0.000000 0.000000 0.500000
#
# Coordination Sequence:
#
# PCOD9048054 Si02
#       8
#     1   2   2   2   2   2   2   2
#     4  10  24  44  72  98 142 178 228 282 358 414
#     4  11  26  42  67 106 139 181 231 287 352 430
#     4  11  24  45  66 103 144 180 231 289 353 428
#     4  11  26  44  73 104 141 184 234 288 358 419
#     4  11  25  46  70  98 141 187 231 293 350 416
#     4  12  28  41  72 102 143 188 229 287 359 423
#     4  10  26  48  69 102 136 184 246 284 349 417
#     4  11  26  46  74 103 138 181 240 297 347 411
#
# _framework density 25.044564999999999
#
# number of rings (size 3 to 8) (size 9 to 14) (size 15 to 20)
#    0.000    1.067    2.667    2.000   11.200    1.067 
#    0.000    2.667    0.000    0.000    0.000    0.000 
#    0.000    0.000    0.000    0.000    0.000    0.000 
#
# Total GULP energy -83723.179443 kJ/mol
# GULP energy per Si atom -5581.545296 kJ/mol
# Density = 2.498756 g / cm^3
# Si number density = 25.044565 Si / 1000 Ang^3
#
#
#
# Elastic Constant Matrix: (Units=GPa)
#
#
# Indices 1 2 3 4 5 6 
#
# 1 56.9717 22.4560 15.5626 9.1110 19.0683 -2.7797
# 2 22.4560 105.8411 24.5540 30.7592 -3.3727 -5.4737
# 3 15.5626 24.5540 104.6695 21.6209 11.3606 -4.1605
# 4 9.1110 30.7592 21.6209 38.5066 -13.0775 6.8581
# 5 19.0683 -3.3727 11.3606 -13.0775 30.3447 10.1414
# 6 -2.7797 -5.4737 -4.1605 6.8581 10.1414 38.4739
#
#
#
# Elastic Compliance Matrix: (Units=1/GPa)
#
#
# Indices 1 2 3 4 5 6 
#
# 1 0.038680 -0.000582 0.007584 -0.033682 -0.049252 0.022518
# 2 -0.000582 0.013843 0.001005 -0.015109 -0.007198 0.006626
# 3 0.007584 0.001005 0.015912 -0.022097 -0.024407 0.012784
# 4 -0.033682 -0.015109 -0.022097 0.095240 0.084229 -0.046151
# 5 -0.049252 -0.007198 -0.024407 0.084229 0.127176 -0.055758
# 6 0.022518 0.006626 0.012784 -0.046151 -0.055758 0.052868
#
#
# Mechanical properties :
#
#
# Convention : Reuss Voigt Hill
#
# Bulk Modulus (GPa) = 11.84163 43.62527 27.73345
# Shear Modulus (GPa) = 14.05063 35.12571 24.58817
#
# Velocity S-wave (km/s) = 2.37117 3.74910 3.13673
# Velocity P-wave (km/s) = 3.49787 6.01646 4.92102
#
# Compressibility (1/GPa) = 0.08444782
#
# Stress axis : x y z
#
# Youngs Moduli (GPa) = 25.85310 72.24031 62.84434
#
# Poissons Ratio (x) = 0.04206 -0.47660
# Poissons Ratio (y) = 0.01505 -0.06314
# Poissons Ratio (z) = -0.19606 -0.07258
#
# Static dielectric constant tensor:
#      x y z
#    x 2.102360 0.042580 -0.019090 
#    y 0.042580 1.964600 0.013650 
#    z -0.019090 0.013650 1.958640 
# 
# From -- ./inp_files/37376.got.cif
#   From: 2010.05.17/outbox.cif.g08.bks.cpg/sg2_19_cif.got.tgz:37376.got - 2010.06.03 11:33:40.
