data_PCOD9048715
_publ_section_title
;
Structure prediction by ZEFSAII (Michael W. Deem and Ramdas Pophale) SiO2 
 PCOD9048715
Probable space group: P -1
;
_chemical_formula_sum "Si O2"
_cell_formula_units_Z 14
_cell_length_a 18.317271
_cell_length_b 7.067997
_cell_length_c 9.626782
_cell_angle_alpha 59.998965
_cell_angle_beta 35.913015
_cell_angle_gamma 51.904280
_cell_volume 575.323624
_symmetry_space_group_name_H-M "P -1"
_symmetry_group_IT_number 2
_symmetry_cell_setting 'triclinic'
loop_
_space_group_symop_operation_xyz
x,y,z
-x,-y,-z
loop_
_atom_site_type_symbol
_atom_site_label
_atom_site_fract_x
_atom_site_fract_y
_atom_site_fract_z
Si Si1 0.098297 0.125009 0.257701
Si Si2 0.725098 0.895357 0.263813
Si Si3 0.595726 0.680570 0.927888
Si Si4 0.444515 0.844520 0.349602
Si Si5 0.026954 0.371995 0.852695
Si Si6 0.708539 0.231364 0.734422
Si Si7 0.764072 0.373967 0.311972
O O1 0.006563 0.408379 0.281034
O O2 0.216495 0.034645 0.224386
O O3 0.000000 0.000000 0.500000
O O4 0.188491 0.035036 0.009790
O O5 0.716716 0.657755 0.302706
O O6 0.577754 0.067983 0.489187
O O7 0.822233 0.824461 0.278850
O O8 0.695581 0.430652 0.797044
O O9 0.606936 0.910546 0.755918
O O10 0.586008 0.690523 0.106714
O O11 0.443844 0.710233 0.103603
O O12 0.354098 0.691478 0.539388
O O13 0.907990 0.283091 0.044930
O O14 0.000000 0.500000 0.000000
O O15 0.791432 0.262920 0.465070
#
# Coordination Sequence:
#
# PCOD9048715 Si02
#       7
#     2   2   2   2   2   2   2
#     4  10  19  32  59  87 109 142 178 226 283 327
#     4  10  19  35  58  82 111 145 183 222 273 331
#     4   9  20  33  56  83 107 145 192 225 259 326
#     4  10  19  34  58  81 104 145 194 222 265 320
#     4   8  17  32  53  83 106 140 180 219 268 335
#     4  10  17  34  59  81 110 147 180 225 278 315
#     4   9  17  32  58  78 108 140 182 226 264 329
#
# _framework density 24.334132
#
# number of rings (size 3 to 8) (size 9 to 14) (size 15 to 20)
#    0.000    2.857    1.429    2.571    0.000    0.571 
#    0.000    1.429   18.857    6.857    0.000    0.000 
#    0.000    0.000    0.000    0.000    0.000    0.000 
#
# Total GULP energy -78049.604627 kJ/mol
# GULP energy per Si atom -5574.971759 kJ/mol
# Density = 2.427875 g / cm^3
# Si number density = 24.334132 Si / 1000 Ang^3
#
#
#
# Elastic Constant Matrix: (Units=GPa)
#
#
# Indices 1 2 3 4 5 6 
#
# 1 26.8522 28.9260 18.2814 -1.7276 -4.0377 3.2591
# 2 28.9260 75.0375 30.9833 -22.5013 -1.8646 -1.5834
# 3 18.2814 30.9833 139.3305 -28.8044 11.2917 4.7166
# 4 -1.7276 -22.5013 -28.8044 33.4164 6.5394 -0.9265
# 5 -4.0377 -1.8646 11.2917 6.5394 32.5014 -2.1751
# 6 3.2591 -1.5834 4.7166 -0.9265 -2.1751 47.4377
#
#
#
# Elastic Compliance Matrix: (Units=1/GPa)
#
#
# Indices 1 2 3 4 5 6 
#
# 1 0.090773 -0.040854 -0.011946 -0.037231 0.020158 -0.006215
# 2 -0.040854 0.035466 0.003677 0.026897 -0.009481 0.003716
# 3 -0.011946 0.003677 0.011284 0.013113 -0.007851 -0.000282
# 4 -0.037231 0.026897 0.013113 0.061362 -0.019821 0.002442
# 5 0.020158 -0.009481 -0.007851 -0.019821 0.039477 0.000502
# 6 -0.006215 0.003716 -0.000282 0.002442 0.000502 0.021730
#
#
# Mechanical properties :
#
#
# Convention : Reuss Voigt Hill
#
# Bulk Modulus (GPa) = 25.46029 44.17797 34.81913
# Shear Modulus (GPa) = 13.46150 33.53972 23.50061
#
# Velocity S-wave (km/s) = 2.35456 3.71657 3.11102
# Velocity P-wave (km/s) = 4.22817 6.05073 5.21962
#
# Compressibility (1/GPa) = 0.03927685
#
# Stress axis : x y z
#
# Youngs Moduli (GPa) = 11.01647 28.19638 88.62410
#
# Poissons Ratio (x) = 1.15194 1.05867
# Poissons Ratio (y) = 0.45007 -0.32587
# Poissons Ratio (z) = 0.13160 -0.10368
#
# Static dielectric constant tensor:
#      x y z
#    x 2.015260 -0.031920 -0.014820 
#    y -0.031920 1.990360 0.053830 
#    z -0.014820 0.053830 1.992360 
# 
# From -- ./inp_files/474107.got.cif
#   From: 2010.05.17/outbox.cif.g08.bks.cpg/sg2_238_cif.got.tgz:474107.got - 2010.06.03 11:33:40.
