data_PCOD9048615
_publ_section_title
;
Structure prediction by ZEFSAII (Michael W. Deem and Ramdas Pophale) SiO2 
 PCOD9048615
Probable space group: P -1
;
_chemical_formula_sum "Si O2"
_cell_formula_units_Z 16
_cell_length_a 26.077777
_cell_length_b 18.177478
_cell_length_c 5.181844
_cell_angle_alpha 117.226869
_cell_angle_beta 61.516741
_cell_angle_gamma 162.478563
_cell_volume 649.964235
_symmetry_space_group_name_H-M "P -1"
_symmetry_group_IT_number 2
_symmetry_cell_setting 'triclinic'
loop_
_space_group_symop_operation_xyz
x,y,z
-x,-y,-z
loop_
_atom_site_type_symbol
_atom_site_label
_atom_site_fract_x
_atom_site_fract_y
_atom_site_fract_z
Si Si1 0.119383 0.579755 0.302163
Si Si2 0.749693 0.535917 0.157986
Si Si3 0.361620 0.442153 0.759087
Si Si4 0.413043 0.084009 0.520697
Si Si5 0.120373 0.983922 0.831260
Si Si6 0.420332 0.804383 0.349103
Si Si7 0.403471 0.252255 0.812844
Si Si8 0.079585 0.415083 0.643938
O O1 0.118513 0.524920 0.478040
O O2 0.000000 0.500000 0.500000
O O3 0.309228 0.874432 0.280454
O O4 0.056449 0.441787 0.990081
O O5 0.663973 0.337599 0.938832
O O6 0.952460 0.790890 0.081920
O O7 0.715067 0.567741 0.101832
O O8 0.612848 0.373276 0.447033
O O9 0.459387 0.551368 0.433038
O O10 0.210258 0.178114 0.775135
O O11 0.502136 0.622243 0.938242
O O12 0.437874 0.074321 0.721356
O O13 0.324746 0.054581 0.655373
O O14 0.063975 0.839050 0.525380
O O15 0.256563 0.123536 0.919461
O O16 0.245899 0.580489 0.577588
O O17 0.500000 0.000000 0.500000
#
# Coordination Sequence:
#
# PCOD9048615 Si02
#       8
#     2   2   2   2   2   2   2   2
#     4  12  26  46  70 101 145 188 231 287 357 426
#     4  10  24  45  70 106 141 191 239 296 354 425
#     4  11  24  49  73 104 142 193 237 293 363 426
#     4  11  24  43  71  97 147 187 236 290 358 426
#     4  11  25  47  72 107 145 184 243 305 350 419
#     4  11  21  41  68  97 139 188 232 291 347 419
#     4  11  25  46  73 105 140 189 238 294 362 429
#     4  11  27  42  67 104 137 181 240 285 350 415
#
# _framework density 24.616738000000002
#
# number of rings (size 3 to 8) (size 9 to 14) (size 15 to 20)
#    0.000    1.000    2.500    3.000    3.500    4.000 
#    4.500    1.875    0.000    0.000    0.000    0.000 
#    0.000    0.000    0.000    0.000    0.000    0.000 
#
# Total GULP energy -89447.490808 kJ/mol
# GULP energy per Si atom -5590.468175 kJ/mol
# Density = 2.456071 g / cm^3
# Si number density = 24.616738 Si / 1000 Ang^3
#
#
#
# Elastic Constant Matrix: (Units=GPa)
#
#
# Indices 1 2 3 4 5 6 
#
# 1 118.0283 30.7040 34.3489 -10.8733 0.7017 2.7312
# 2 30.7040 121.8123 19.9119 -1.5368 -2.5628 -11.9623
# 3 34.3489 19.9119 84.6739 -2.0123 9.6788 2.5100
# 4 -10.8733 -1.5368 -2.0123 38.7270 -2.5030 -16.3229
# 5 0.7017 -2.5628 9.6788 -2.5030 29.3341 -10.1831
# 6 2.7312 -11.9623 2.5100 -16.3229 -10.1831 44.2102
#
#
#
# Elastic Compliance Matrix: (Units=1/GPa)
#
#
# Indices 1 2 3 4 5 6 
#
# 1 0.010324 -0.001871 -0.003835 0.002886 0.001249 0.000427
# 2 -0.001871 0.009483 -0.001905 0.001688 0.003077 0.004121
# 3 -0.003835 -0.001905 0.014574 -0.002215 -0.006239 -0.003361
# 4 0.002886 0.001688 -0.002215 0.033365 0.008775 0.014744
# 5 0.001249 0.003077 -0.006239 0.008775 0.042005 0.014024
# 6 0.000427 0.004121 -0.003361 0.014744 0.014024 0.032573
#
#
# Mechanical properties :
#
#
# Convention : Reuss Voigt Hill
#
# Bulk Modulus (GPa) = 52.19327 54.93822 53.56574
# Shear Modulus (GPa) = 30.50064 38.42424 34.46244
#
# Velocity S-wave (km/s) = 3.52379 3.95511 3.74566
# Velocity P-wave (km/s) = 6.14854 6.57442 6.36504
#
# Compressibility (1/GPa) = 0.01915956
#
# Stress axis : x y z
#
# Youngs Moduli (GPa) = 96.86365 105.45157 68.61635
#
# Poissons Ratio (x) = 0.19727 0.26314
# Poissons Ratio (y) = 0.18120 0.13071
# Poissons Ratio (z) = 0.37147 0.20087
#
# Static dielectric constant tensor:
#      x y z
#    x 1.992420 0.030260 0.013550 
#    y 0.030260 2.002670 -0.073400 
#    z 0.013550 -0.073400 1.938640 
# 
# From -- ./inp_files/127459.got.cif
#   From: 2010.05.17/outbox.cif.g08.bks.cpg/sg2_64_cif.got.tgz:127459.got - 2010.06.03 11:33:40.
