data_PCOD9048149
_publ_section_title
;
Structure prediction by ZEFSAII (Michael W. Deem and Ramdas Pophale) SiO2 
 PCOD9048149
Probable space group: P -1
;
_chemical_formula_sum "Si O2"
_cell_formula_units_Z 16
_cell_length_a 9.274224
_cell_length_b 15.023049
_cell_length_c 8.701527
_cell_angle_alpha 106.029800
_cell_angle_beta 81.588953
_cell_angle_gamma 142.381965
_cell_volume 705.798861
_symmetry_space_group_name_H-M "P -1"
_symmetry_group_IT_number 2
_symmetry_cell_setting 'triclinic'
loop_
_space_group_symop_operation_xyz
x,y,z
-x,-y,-z
loop_
_atom_site_type_symbol
_atom_site_label
_atom_site_fract_x
_atom_site_fract_y
_atom_site_fract_z
Si Si1 0.966976 0.558162 0.668746
Si Si2 0.514911 0.724040 0.206097
Si Si3 0.458310 0.537254 0.681095
Si Si4 0.909736 0.761791 0.212780
Si Si5 0.587620 0.283122 0.140776
Si Si6 0.960755 0.766616 0.717171
Si Si7 0.282059 0.959407 0.018110
Si Si8 0.130631 0.975310 0.531329
O O1 0.711570 0.420953 0.726683
O O2 0.000000 0.500000 0.500000
O O3 0.168734 0.642746 0.807421
O O4 0.995978 0.675058 0.646829
O O5 0.723098 0.749875 0.192411
O O6 0.633698 0.871479 0.346732
O O7 0.436964 0.705558 0.032670
O O8 0.500000 0.500000 0.500000
O O9 0.243082 0.389286 0.743251
O O10 0.425878 0.630208 0.715894
O O11 0.708009 0.650981 0.784042
O O12 0.055826 0.801770 0.063447
O O13 0.131047 0.908578 0.353272
O O14 0.372514 0.104942 0.126989
O O15 0.956891 0.830422 0.600616
O O16 0.181427 0.918991 0.845185
O O17 0.500000 0.000000 0.000000
O O18 0.000000 0.000000 0.500000
#
# Coordination Sequence:
#
# PCOD9048149 Si02
#       8
#     2   2   2   2   2   2   2   2
#     4  12  28  47  76 111 155 204 249 311 383 449
#     4  11  25  48  73 111 149 196 256 311 371 458
#     4  12  26  46  77 112 150 193 256 317 375 451
#     4  11  26  45  76 106 147 200 251 309 380 438
#     4  12  28  46  76 107 154 202 248 313 384 443
#     4  12  24  49  77 104 153 197 251 312 373 449
#     4  12  28  49  72 110 152 198 251 312 378 451
#     4  10  24  44  74 110 146 187 251 312 368 443
#
# _framework density 22.669349
#
# number of rings (size 3 to 8) (size 9 to 14) (size 15 to 20)
#    0.000    0.500    5.000    1.875    7.000    3.000 
#    0.000    1.250    0.000    0.000    0.000    0.000 
#    0.000    0.000    0.000    0.000    0.000    0.000 
#
# Total GULP energy -89366.902473 kJ/mol
# GULP energy per Si atom -5585.431405 kJ/mol
# Density = 2.261775 g / cm^3
# Si number density = 22.669349 Si / 1000 Ang^3
#
#
#
# Elastic Constant Matrix: (Units=GPa)
#
#
# Indices 1 2 3 4 5 6 
#
# 1 104.7619 60.6580 31.2997 0.8728 -1.5030 -5.5713
# 2 60.6580 156.8972 52.0395 -3.6889 4.4020 -12.4175
# 3 31.2997 52.0395 82.8585 0.5799 14.2024 0.1143
# 4 0.8728 -3.6889 0.5799 41.0203 5.7318 -0.3427
# 5 -1.5030 4.4020 14.2024 5.7318 22.0255 5.3088
# 6 -5.5713 -12.4175 0.1143 -0.3427 5.3088 42.2371
#
#
#
# Elastic Compliance Matrix: (Units=1/GPa)
#
#
# Indices 1 2 3 4 5 6 
#
# 1 0.012886 -0.004150 -0.002920 -0.001150 0.003894 -0.000011
# 2 -0.004150 0.009685 -0.004498 0.001065 -0.000160 0.002341
# 3 -0.002920 -0.004498 0.017873 0.000936 -0.010980 -0.000368
# 4 -0.001150 0.001065 0.000936 0.025598 -0.007884 0.001357
# 5 0.003894 -0.000160 -0.010980 -0.007884 0.056437 -0.006661
# 6 -0.000011 0.002341 -0.000368 0.001357 -0.006661 0.025212
#
#
# Mechanical properties :
#
#
# Convention : Reuss Voigt Hill
#
# Bulk Modulus (GPa) = 57.78345 70.27911 64.03128
# Shear Modulus (GPa) = 28.31308 34.42462 31.36885
#
# Velocity S-wave (km/s) = 3.53790 3.90109 3.72392
# Velocity P-wave (km/s) = 6.49877 7.16662 6.84085
#
# Compressibility (1/GPa) = 0.01730599
#
# Stress axis : x y z
#
# Youngs Moduli (GPa) = 77.60400 103.25367 55.95039
#
# Poissons Ratio (x) = 0.42854 0.16340
# Poissons Ratio (y) = 0.32209 0.25167
# Poissons Ratio (z) = 0.22663 0.46445
#
# Static dielectric constant tensor:
#      x y z
#    x 1.807330 -0.006620 0.054550 
#    y -0.006620 1.827300 0.017140 
#    z 0.054550 0.017140 1.954280 
# 
# From -- ./inp_files/207817.got.cif
#   From: 2010.05.17/outbox.cif.g08.bks.cpg/sg2_104_cif.got.tgz:207817.got - 2010.06.03 11:33:40.
