data_PCOD9048441
_publ_section_title
;
Structure prediction by ZEFSAII (Michael W. Deem and Ramdas Pophale) SiO2 
 PCOD9048441
Probable space group: P -1
;
_chemical_formula_sum "Si O2"
_cell_formula_units_Z 14
_cell_length_a 10.823701
_cell_length_b 11.663690
_cell_length_c 8.617354
_cell_angle_alpha 67.454684
_cell_angle_beta 122.648711
_cell_angle_gamma 143.418974
_cell_volume 543.202238
_symmetry_space_group_name_H-M "P -1"
_symmetry_group_IT_number 2
_symmetry_cell_setting 'triclinic'
loop_
_space_group_symop_operation_xyz
x,y,z
-x,-y,-z
loop_
_atom_site_type_symbol
_atom_site_label
_atom_site_fract_x
_atom_site_fract_y
_atom_site_fract_z
Si Si1 0.392430 0.369576 0.652592
Si Si2 0.529478 0.145288 0.541983
Si Si3 0.483580 0.241485 0.149309
Si Si4 0.000157 0.374603 0.714729
Si Si5 0.814402 0.020550 0.166214
Si Si6 0.807899 0.732298 0.943880
Si Si7 0.072383 0.782112 0.571600
O O1 0.500000 0.500000 0.500000
O O2 0.300384 0.168139 0.716733
O O3 0.594451 0.521473 0.833958
O O4 0.164347 0.299397 0.567627
O O5 0.503675 0.233163 0.350825
O O6 0.790188 0.307214 0.691880
O O7 0.500000 0.000000 0.500000
O O8 0.308822 0.002179 0.571337
O O9 0.745230 0.417538 0.184747
O O10 0.307452 0.242520 0.034127
O O11 0.368293 0.068092 0.046394
O O12 0.951417 0.339603 0.513505
O O13 0.022669 0.246054 0.854076
O O14 0.890945 0.189076 0.232507
O O15 0.042190 0.123569 0.175153
#
# Coordination Sequence:
#
# PCOD9048441 Si02
#       7
#     2   2   2   2   2   2   2
#     4  12  24  41  66 105 144 173 226 287 346 403
#     4  10  24  45  68  97 137 187 231 273 339 416
#     4  12  23  43  71 103 137 179 233 282 338 405
#     4  11  23  46  70 101 138 182 231 280 338 410
#     4  12  25  40  67 104 139 179 222 283 350 397
#     4  12  24  44  72 104 140 176 230 287 336 409
#     4  11  23  41  66  96 136 180 221 279 340 402
#
# _framework density 25.773088999999999
#
# number of rings (size 3 to 8) (size 9 to 14) (size 15 to 20)
#    0.000    0.571    4.286    5.143    2.000    0.000 
#    0.000    7.143    0.000    0.000    0.000    0.000 
#    0.000    0.000    0.000    0.000    0.000    0.000 
#
# Total GULP energy -78122.709815 kJ/mol
# GULP energy per Si atom -5580.193558 kJ/mol
# Density = 2.571443 g / cm^3
# Si number density = 25.773089 Si / 1000 Ang^3
#
#
#
# Elastic Constant Matrix: (Units=GPa)
#
#
# Indices 1 2 3 4 5 6 
#
# 1 71.2629 59.6973 48.3313 19.7759 -9.1853 15.5075
# 2 59.6973 147.7641 31.9850 32.2785 -0.7664 39.2178
# 3 48.3313 31.9850 103.0484 26.0879 4.9689 11.3105
# 4 19.7759 32.2785 26.0879 52.3259 -6.1937 -2.6707
# 5 -9.1853 -0.7664 4.9689 -6.1937 39.5286 15.4295
# 6 15.5075 39.2178 11.3105 -2.6707 15.4295 51.8695
#
#
#
# Elastic Compliance Matrix: (Units=1/GPa)
#
#
# Indices 1 2 3 4 5 6 
#
# 1 0.032410 -0.009968 -0.012662 0.001282 0.010032 -0.002310
# 2 -0.009968 0.013853 0.003016 -0.006735 -0.000187 -0.008443
# 3 -0.012662 0.003016 0.016592 -0.006052 -0.005624 -0.000752
# 4 0.001282 -0.006735 -0.006052 0.026430 0.002472 0.006654
# 5 0.010032 -0.000187 -0.005624 0.002472 0.033157 -0.011368
# 6 -0.002310 -0.008443 -0.000752 0.006654 -0.011368 0.030241
#
#
# Mechanical properties :
#
#
# Convention : Reuss Voigt Hill
#
# Bulk Modulus (GPa) = 42.32267 66.90030 54.61148
# Shear Modulus (GPa) = 25.02662 40.88225 32.95443
#
# Velocity S-wave (km/s) = 3.11953 3.98708 3.57968
# Velocity P-wave (km/s) = 5.42514 6.87092 6.19038
#
# Compressibility (1/GPa) = 0.02362800
#
# Stress axis : x y z
#
# Youngs Moduli (GPa) = 30.85463 72.18755 60.26899
#
# Poissons Ratio (x) = 0.71956 0.76311
# Poissons Ratio (y) = 0.30756 -0.18178
# Poissons Ratio (z) = 0.39067 -0.21772
#
# Static dielectric constant tensor:
#      x y z
#    x 2.048370 -0.061910 0.030890 
#    y -0.061910 2.133230 -0.119600 
#    z 0.030890 -0.119600 2.193050 
# 
# From -- ./inp_files/272241.got.cif
#   From: 2010.05.17/outbox.cif.g08.bks.cpg/sg2_137_cif.got.tgz:272241.got - 2010.06.03 11:33:40.
