data_PCOD9048672
_publ_section_title
;
Structure prediction by ZEFSAII (Michael W. Deem and Ramdas Pophale) SiO2 
 PCOD9048672
Probable space group: P -1
;
_chemical_formula_sum "Si O2"
_cell_formula_units_Z 10
_cell_length_a 9.692264
_cell_length_b 5.036201
_cell_length_c 14.816461
_cell_angle_alpha 118.105907
_cell_angle_beta 35.389846
_cell_angle_gamma 105.608319
_cell_volume 359.971606
_symmetry_space_group_name_H-M "P -1"
_symmetry_group_IT_number 2
_symmetry_cell_setting 'triclinic'
loop_
_space_group_symop_operation_xyz
x,y,z
-x,-y,-z
loop_
_atom_site_type_symbol
_atom_site_label
_atom_site_fract_x
_atom_site_fract_y
_atom_site_fract_z
Si Si1 0.014428 0.063604 0.398870
Si Si2 0.513995 0.101667 0.112071
Si Si3 0.217420 0.691176 0.847720
Si Si4 0.923561 0.550481 0.842922
Si Si5 0.347972 0.731271 0.524506
O O1 0.105952 0.741247 0.244690
O O2 0.231164 0.240128 0.303162
O O3 0.000000 0.000000 0.500000
O O4 0.768226 0.202292 0.501362
O O5 0.670209 0.315037 0.113492
O O6 0.500000 0.000000 0.000000
O O7 0.659263 0.780135 0.029555
O O8 0.068170 0.458604 0.845204
O O9 0.462331 0.605063 0.639737
O O10 0.000000 0.000000 0.000000
O O11 0.113134 0.707942 0.708252
O O12 0.500000 0.000000 0.500000
#
# Coordination Sequence:
#
# PCOD9048672 Si02
#       5
#     2   2   2   2   2
#     4  12  27  44  74 108 143 190 238 301 360 421
#     4  11  24  46  70 105 146 187 236 298 359 421
#     4  10  24  45  71 101 144 190 233 292 354 430
#     4  11  24  48  71 102 148 188 241 295 356 433
#     4  12  25  45  76 106 143 190 245 295 355 429
#
# _framework density 27.779971
#
# number of rings (size 3 to 8) (size 9 to 14) (size 15 to 20)
#    0.000    0.800    4.000    2.400    5.600    1.600 
#    0.000    5.000    0.000    0.000    0.000    0.000 
#    0.000    0.000    0.000    0.000    0.000    0.000 
#
# Total GULP energy -55796.215505 kJ/mol
# GULP energy per Si atom -5579.621551 kJ/mol
# Density = 2.771674 g / cm^3
# Si number density = 27.779971 Si / 1000 Ang^3
#
#
#
# Elastic Constant Matrix: (Units=GPa)
#
#
# Indices 1 2 3 4 5 6 
#
# 1 312.7739 35.9182 21.7728 -20.2488 -8.6908 29.0378
# 2 35.9182 90.5273 31.5580 -17.5457 -5.4066 24.6173
# 3 21.7728 31.5580 133.5102 6.5134 -26.5579 16.4621
# 4 -20.2488 -17.5457 6.5134 45.2623 -4.9284 -11.6023
# 5 -8.6908 -5.4066 -26.5579 -4.9284 56.9717 13.6012
# 6 29.0378 24.6173 16.4621 -11.6023 13.6012 35.8461
#
#
#
# Elastic Compliance Matrix: (Units=1/GPa)
#
#
# Indices 1 2 3 4 5 6 
#
# 1 0.003599 -0.000436 0.000093 0.000831 0.001312 -0.002888
# 2 -0.000436 0.015360 -0.002054 0.004054 0.002947 -0.009058
# 3 0.000093 -0.002054 0.010080 -0.003252 0.005800 -0.006547
# 4 0.000831 0.004054 -0.003252 0.026169 -0.000324 0.006629
# 5 0.001312 0.002947 0.005800 -0.000324 0.024308 -0.015078
# 6 -0.002888 -0.009058 -0.006547 0.006629 -0.015078 0.047331
#
#
# Mechanical properties :
#
#
# Convention : Reuss Voigt Hill
#
# Bulk Modulus (GPa) = 41.24597 79.47879 60.36238
# Shear Modulus (GPa) = 35.78509 57.45351 46.61930
#
# Velocity S-wave (km/s) = 3.59299 4.55264 4.10098
# Velocity P-wave (km/s) = 5.66501 7.50384 6.64831
#
# Compressibility (1/GPa) = 0.02424479
#
# Stress axis : x y z
#
# Youngs Moduli (GPa) = 277.84548 65.10252 99.20530
#
# Poissons Ratio (x) = 0.02836 -0.00919
# Poissons Ratio (y) = 0.12104 0.20381
# Poissons Ratio (z) = -0.02573 0.13375
#
# Static dielectric constant tensor:
#      x y z
#    x 2.130210 0.009070 0.068090 
#    y 0.009070 2.380430 -0.033690 
#    z 0.068090 -0.033690 2.219530 
# 
# From -- ./inp_files/15456.got.cif
#   From: 2010.05.17/outbox.cif.g08.bks.cpg/sg2_8_cif.got.tgz:15456.got - 2010.06.03 11:33:40.
