data_PCOD9048667
_publ_section_title
;
Structure prediction by ZEFSAII (Michael W. Deem and Ramdas Pophale) SiO2 
 PCOD9048667
Probable space group: P -1
;
_chemical_formula_sum "Si O2"
_cell_formula_units_Z 16
_cell_length_a 21.130883
_cell_length_b 6.386376
_cell_length_c 12.527296
_cell_angle_alpha 135.105583
_cell_angle_beta 33.847037
_cell_angle_gamma 123.143397
_cell_volume 660.850355
_symmetry_space_group_name_H-M "P -1"
_symmetry_group_IT_number 2
_symmetry_cell_setting 'triclinic'
loop_
_space_group_symop_operation_xyz
x,y,z
-x,-y,-z
loop_
_atom_site_type_symbol
_atom_site_label
_atom_site_fract_x
_atom_site_fract_y
_atom_site_fract_z
Si Si1 0.118842 0.293425 0.264184
Si Si2 0.890484 0.569120 0.436413
Si Si3 0.323496 0.119780 0.271748
Si Si4 0.401329 0.726979 0.414283
Si Si5 0.225273 0.007095 0.590521
Si Si6 0.300772 0.576263 0.968861
Si Si7 0.519685 0.239102 0.462175
Si Si8 0.862689 0.359716 0.978999
O O1 0.140737 0.262478 0.348475
O O2 0.209231 0.466958 0.138756
O O3 0.000000 0.500000 0.500000
O O4 0.119435 0.956431 0.099854
O O5 0.800995 0.715250 0.527964
O O6 0.018892 0.603992 0.235126
O O7 0.867858 0.228903 0.368089
O O8 0.406359 0.381803 0.248873
O O9 0.305972 0.988352 0.366446
O O10 0.350713 0.859964 0.053811
O O11 0.388585 0.721192 0.559888
O O12 0.299554 0.905595 0.554497
O O13 0.508250 0.918123 0.310505
O O14 0.168580 0.344199 0.801735
O O15 0.238672 0.643465 0.967200
O O16 0.400241 0.312654 0.719227
O O17 0.500000 0.500000 0.500000
#
# Coordination Sequence:
#
# PCOD9048667 Si02
#       8
#     2   2   2   2   2   2   2   2
#     4  12  24  42  69 100 143 185 231 284 332 408
#     4  11  23  42  63 100 144 183 230 281 338 401
#     4  11  24  44  68  99 142 180 223 289 344 406
#     4  10  24  45  71 101 136 174 223 288 351 405
#     4  11  24  43  67  99 143 180 231 286 340 404
#     4  12  25  44  72 102 134 186 234 274 348 414
#     4  11  25  48  74 103 136 174 228 296 346 409
#     4  12  25  40  69 102 135 188 240 274 337 407
#
# _framework density 24.211231999999999
#
# number of rings (size 3 to 8) (size 9 to 14) (size 15 to 20)
#    0.000    0.750    5.000    2.250    1.750    2.000 
#    0.000    1.250    0.000    0.000    0.000    0.000 
#    0.000    0.000    0.000    0.000    0.000    0.000 
#
# Total GULP energy -89503.739907 kJ/mol
# GULP energy per Si atom -5593.983744 kJ/mol
# Density = 2.415613 g / cm^3
# Si number density = 24.211232 Si / 1000 Ang^3
#
#
#
# Elastic Constant Matrix: (Units=GPa)
#
#
# Indices 1 2 3 4 5 6 
#
# 1 77.8548 14.1567 0.0008 5.7637 -1.7496 -9.7440
# 2 14.1567 103.9766 -17.2512 22.2621 6.6886 11.7890
# 3 0.0008 -17.2512 37.0353 4.1095 -1.6844 5.4196
# 4 5.7637 22.2621 4.1095 38.6127 2.2513 11.6069
# 5 -1.7496 6.6886 -1.6844 2.2513 32.5024 6.2131
# 6 -9.7440 11.7890 5.4196 11.6069 6.2131 40.9825
#
#
#
# Elastic Compliance Matrix: (Units=1/GPa)
#
#
# Indices 1 2 3 4 5 6 
#
# 1 0.014008 -0.002275 -0.001503 -0.002057 0.000387 0.004708
# 2 -0.002275 0.013054 0.007240 -0.006953 -0.001364 -0.003078
# 3 -0.001503 0.007240 0.031855 -0.005858 0.001483 -0.005218
# 4 -0.002057 -0.006953 -0.005858 0.032955 0.000083 -0.007060
# 5 0.000387 -0.001364 0.001483 0.000083 0.032017 -0.004589
# 6 0.004708 -0.003078 -0.005218 -0.007060 -0.004589 0.029791
#
#
# Mechanical properties :
#
#
# Convention : Reuss Voigt Hill
#
# Bulk Modulus (GPa) = 15.18781 23.63103 19.40942
# Shear Modulus (GPa) = 29.63809 37.21686 33.42748
#
# Velocity S-wave (km/s) = 3.50258 3.92493 3.71975
# Velocity P-wave (km/s) = 4.75858 5.50651 5.14615
#
# Compressibility (1/GPa) = 0.06584227
#
# Stress axis : x y z
#
# Youngs Moduli (GPa) = 71.38635 76.60605 31.39220
#
# Poissons Ratio (x) = 0.17427 0.04718
# Poissons Ratio (y) = 0.16239 -0.22729
# Poissons Ratio (z) = 0.10729 -0.55466
#
# Static dielectric constant tensor:
#      x y z
#    x 1.995790 0.006430 0.013190 
#    y 0.006430 1.975280 0.000600 
#    z 0.013190 0.000600 1.897400 
# 
# From -- ./inp_files/135102.got.cif
#   From: 2010.05.17/outbox.cif.g08.bks.cpg/sg2_68_cif.got.tgz:135102.got - 2010.06.03 11:33:40.
