data_PCOD9048614
_publ_section_title
;
Structure prediction by ZEFSAII (Michael W. Deem and Ramdas Pophale) SiO2 
 PCOD9048614
Probable space group: P -1
;
_chemical_formula_sum "Si O2"
_cell_formula_units_Z 16
_cell_length_a 19.423543
_cell_length_b 8.590142
_cell_length_c 7.560161
_cell_angle_alpha 106.611873
_cell_angle_beta 35.747403
_cell_angle_gamma 120.910001
_cell_volume 610.290506
_symmetry_space_group_name_H-M "P -1"
_symmetry_group_IT_number 2
_symmetry_cell_setting 'triclinic'
loop_
_space_group_symop_operation_xyz
x,y,z
-x,-y,-z
loop_
_atom_site_type_symbol
_atom_site_label
_atom_site_fract_x
_atom_site_fract_y
_atom_site_fract_z
Si Si1 0.036554 0.893674 0.247327
Si Si2 0.449953 0.118954 0.757722
Si Si3 0.377899 0.587831 0.949010
Si Si4 0.320312 0.212279 0.766323
Si Si5 0.867441 0.360680 0.120282
Si Si6 0.277955 0.857799 0.306187
Si Si7 0.669126 0.499774 0.565708
Si Si8 0.146548 0.100234 0.637427
O O1 0.898085 0.804118 0.393604
O O2 0.078203 0.739563 0.156541
O O3 0.000000 0.000000 0.500000
O O4 0.177847 0.063268 0.926325
O O5 0.326047 0.107686 0.900366
O O6 0.549833 0.341276 0.644901
O O7 0.500000 0.000000 0.500000
O O8 0.416399 0.031931 0.996242
O O9 0.324661 0.401452 0.882026
O O10 0.535705 0.726224 0.608809
O O11 0.285309 0.684517 0.147015
O O12 0.372009 0.547327 0.158029
O O13 0.757453 0.204778 0.436253
O O14 0.795282 0.470901 0.239566
O O15 0.000000 0.500000 0.000000
O O16 0.174834 0.929814 0.488779
O O17 0.719116 0.717853 0.508362
O O18 0.000000 0.000000 0.000000
#
# Coordination Sequence:
#
# PCOD9048614 Si02
#       8
#     2   2   2   2   2   2   2   2
#     4  12  25  44  74 102 145 192 234 300 359 424
#     4  12  25  46  70 111 144 183 234 306 365 422
#     4  10  24  45  70 106 140 195 234 295 363 440
#     4  11  25  46  71 103 151 184 243 290 369 433
#     4  11  23  45  71 102 140 190 245 290 349 443
#     4  11  24  43  74  98 148 181 242 296 356 427
#     4  11  25  43  76 101 145 187 242 296 364 426
#     4  12  25  48  70 110 139 191 243 295 352 432
#
# _framework density 26.217023999999999
#
# number of rings (size 3 to 8) (size 9 to 14) (size 15 to 20)
#    0.000    0.750    3.750    3.000    3.500    5.000 
#    0.000    0.625    0.000    0.000    0.000    0.000 
#    0.000    0.000    0.000    0.000    0.000    0.000 
#
# Total GULP energy -89408.862523 kJ/mol
# GULP energy per Si atom -5588.053908 kJ/mol
# Density = 2.615735 g / cm^3
# Si number density = 26.217024 Si / 1000 Ang^3
#
#
#
# Elastic Constant Matrix: (Units=GPa)
#
#
# Indices 1 2 3 4 5 6 
#
# 1 49.0351 31.4762 8.6919 -0.4552 -22.0846 -1.0844
# 2 31.4762 148.2075 61.5076 32.9518 -17.0484 -0.3971
# 3 8.6919 61.5076 131.6138 29.3019 -12.7481 -7.1508
# 4 -0.4552 32.9518 29.3019 70.0462 -15.9066 -15.5690
# 5 -22.0846 -17.0484 -12.7481 -15.9066 44.6552 -4.4444
# 6 -1.0844 -0.3971 -7.1508 -15.5690 -4.4444 46.5693
#
#
#
# Elastic Compliance Matrix: (Units=1/GPa)
#
#
# Indices 1 2 3 4 5 6 
#
# 1 0.032866 -0.007390 0.001420 0.008203 0.017289 0.005313
# 2 -0.007390 0.010625 -0.003842 -0.004564 -0.002564 -0.002442
# 3 0.001420 -0.003842 0.009894 -0.001727 0.001553 0.001090
# 4 0.008203 -0.004564 -0.001727 0.021288 0.010198 0.007977
# 5 0.017289 -0.002564 0.001553 0.010198 0.034773 0.007347
# 6 0.005313 -0.002442 0.001090 0.007977 0.007347 0.025112
#
#
# Mechanical properties :
#
#
# Convention : Reuss Voigt Hill
#
# Bulk Modulus (GPa) = 29.62073 59.13420 44.37747
# Shear Modulus (GPa) = 30.22337 47.39954 38.81145
#
# Velocity S-wave (km/s) = 3.39900 4.25663 3.85176
# Velocity P-wave (km/s) = 5.16982 6.83836 6.06177
#
# Compressibility (1/GPa) = 0.03376014
#
# Stress axis : x y z
#
# Youngs Moduli (GPa) = 30.42657 94.12129 101.07176
#
# Poissons Ratio (x) = 0.69559 -0.14354
# Poissons Ratio (y) = 0.22486 0.38833
# Poissons Ratio (z) = -0.04321 0.36163
#
# Static dielectric constant tensor:
#      x y z
#    x 2.100830 -0.050410 0.123150 
#    y -0.050410 2.042960 0.048570 
#    z 0.123150 0.048570 2.157900 
# 
# From -- ./inp_files/352329.got.cif
#   From: 2010.05.17/outbox.cif.g08.bks.cpg/sg2_177_cif.got.tgz:352329.got - 2010.06.03 11:33:40.
