data_PCOD9048909
_publ_section_title
;
Structure prediction by ZEFSAII (Michael W. Deem and Ramdas Pophale) SiO2 
 PCOD9048909
Probable space group: P -1
;
_chemical_formula_sum "Si O2"
_cell_formula_units_Z 13
_cell_length_a 7.955043
_cell_length_b 10.363157
_cell_length_c 9.889629
_cell_angle_alpha 121.746468
_cell_angle_beta 100.067985
_cell_angle_gamma 52.450568
_cell_volume 536.662718
_symmetry_space_group_name_H-M "P -1"
_symmetry_group_IT_number 2
_symmetry_cell_setting 'triclinic'
loop_
_space_group_symop_operation_xyz
x,y,z
-x,-y,-z
loop_
_atom_site_type_symbol
_atom_site_label
_atom_site_fract_x
_atom_site_fract_y
_atom_site_fract_z
Si Si1 0.474263 0.477691 0.829790
Si Si2 0.707261 0.430796 0.586451
Si Si3 0.000000 0.000000 0.500000
Si Si4 0.229609 0.110722 0.793102
Si Si5 0.732677 0.738818 0.643881
Si Si6 0.633041 0.778697 0.357855
Si Si7 0.980922 0.827351 0.912254
O O1 0.613428 0.501081 0.763156
O O2 0.535761 0.267914 0.699197
O O3 0.224344 0.630528 0.840329
O O4 0.500000 0.500000 0.000000
O O5 0.500000 0.500000 0.500000
O O6 0.782524 0.553196 0.619035
O O7 0.881196 0.200689 0.496381
O O8 0.915772 0.916307 0.336704
O O9 0.252746 0.254206 0.787589
O O10 0.475251 0.911856 0.725240
O O11 0.132730 0.162294 0.958016
O O12 0.769122 0.687423 0.462278
O O13 0.855020 0.816097 0.765605
O O14 0.500000 0.000000 0.500000
O O15 0.000000 0.000000 0.000000
#
# Coordination Sequence:
#
# PCOD9048909 Si02
#       7
#     2   2   1   2   2   2   2
#     4  12  28  48  72 111 156 198 252 328 389 467
#     4  12  24  50  77 113 152 199 259 319 391 460
#     4  12  26  44  84 110 148 202 256 318 392 468
#     4  11  25  46  75 107 153 200 254 316 387 461
#     4  11  25  48  76 107 152 203 260 321 380 467
#     4  10  24  45  75 105 144 200 251 310 386 453
#     4  12  30  45  72 110 150 206 260 318 394 460
#
# _framework density 24.223780999999999
#
# number of rings (size 3 to 8) (size 9 to 14) (size 15 to 20)
#    0.000    0.615    3.077    3.231   10.769    1.231 
#    0.000    0.000    0.000    0.000    0.000    0.000 
#    0.000    0.000    0.000    0.000    0.000    0.000 
#
# Total GULP energy -72548.834528 kJ/mol
# GULP energy per Si atom -5580.679579 kJ/mol
# Density = 2.416865 g / cm^3
# Si number density = 24.223781 Si / 1000 Ang^3
#
#
#
# Elastic Constant Matrix: (Units=GPa)
#
#
# Indices 1 2 3 4 5 6 
#
# 1 78.9845 50.3443 25.3419 -15.4656 3.9077 15.6126
# 2 50.3443 141.4662 40.5358 -10.2535 -0.8724 22.8115
# 3 25.3419 40.5358 88.8402 -28.3408 13.5262 19.3061
# 4 -15.4656 -10.2535 -28.3408 37.9433 6.1601 -8.8929
# 5 3.9077 -0.8724 13.5262 6.1601 65.8007 -8.9933
# 6 15.6126 22.8115 19.3061 -8.8929 -8.9933 55.5324
#
#
#
# Elastic Compliance Matrix: (Units=1/GPa)
#
#
# Indices 1 2 3 4 5 6 
#
# 1 0.017850 -0.005620 0.000016 0.005585 -0.001953 -0.002137
# 2 -0.005620 0.010221 -0.003894 -0.003013 0.001343 -0.001530
# 3 0.000016 -0.003894 0.018899 0.013103 -0.005683 -0.003797
# 4 0.005585 -0.003013 0.013103 0.038741 -0.006659 0.000238
# 5 -0.001953 0.001343 -0.005683 -0.006659 0.017637 0.003763
# 6 -0.002137 -0.001530 -0.003797 0.000238 0.003763 0.021205
#
#
# Mechanical properties :
#
#
# Convention : Reuss Voigt Hill
#
# Bulk Modulus (GPa) = 35.74684 60.19278 47.96981
# Shear Modulus (GPa) = 32.70692 44.72653 38.71672
#
# Velocity S-wave (km/s) = 3.67849 4.30162 4.00220
# Velocity P-wave (km/s) = 5.72981 7.04092 6.41893
#
# Compressibility (1/GPa) = 0.02797450
#
# Stress axis : x y z
#
# Youngs Moduli (GPa) = 56.02174 97.83759 52.91364
#
# Poissons Ratio (x) = 0.54980 -0.00083
# Poissons Ratio (y) = 0.31482 0.20604
# Poissons Ratio (z) = -0.00088 0.38097
#
# Static dielectric constant tensor:
#      x y z
#    x 1.970630 -0.034460 -0.062520 
#    y -0.034460 2.066530 0.027570 
#    z -0.062520 0.027570 1.916650 
# 
# From -- ./inp_files/159813.got.cif
#   From: 2010.05.17/outbox.cif.g08.bks.cpg/sg2_80_cif.got.tgz:159813.got - 2010.06.03 11:33:40.
