data_PCOD9048533
_publ_section_title
;
Structure prediction by ZEFSAII (Michael W. Deem and Ramdas Pophale) SiO2 
 PCOD9048533
Probable space group: P -1
;
_chemical_formula_sum "Si O2"
_cell_formula_units_Z 16
_cell_length_a 5.205651
_cell_length_b 7.536020
_cell_length_c 19.015398
_cell_angle_alpha 109.980767
_cell_angle_beta 99.569158
_cell_angle_gamma 69.012486
_cell_volume 653.742020
_symmetry_space_group_name_H-M "P -1"
_symmetry_group_IT_number 2
_symmetry_cell_setting 'triclinic'
loop_
_space_group_symop_operation_xyz
x,y,z
-x,-y,-z
loop_
_atom_site_type_symbol
_atom_site_label
_atom_site_fract_x
_atom_site_fract_y
_atom_site_fract_z
Si Si1 0.247302 0.073425 0.554012
Si Si2 0.330361 0.760241 0.080461
Si Si3 0.556930 0.569725 0.843821
Si Si4 0.997518 0.135763 0.189932
Si Si5 0.739903 0.785249 0.990748
Si Si6 0.811923 0.094096 0.318565
Si Si7 0.976272 0.483752 0.414357
Si Si8 0.712008 0.594703 0.707984
O O1 0.229000 0.305125 0.589813
O O2 0.500000 0.000000 0.500000
O O3 0.236981 0.010613 0.626826
O O4 0.000000 0.000000 0.500000
O O5 0.434454 0.611350 0.130216
O O6 0.580719 0.696524 0.028824
O O7 0.037628 0.771436 0.032609
O O8 0.241554 0.987892 0.136065
O O9 0.285036 0.767284 0.852923
O O10 0.629969 0.492330 0.756920
O O11 0.774977 0.657785 0.903735
O O12 0.981613 0.010542 0.243682
O O13 0.031568 0.342574 0.246839
O O14 0.500000 0.000000 0.000000
O O15 0.914567 0.279136 0.371601
O O16 0.516893 0.193882 0.284154
O O17 0.000000 0.500000 0.500000
O O18 0.237753 0.487089 0.379486
#
# Coordination Sequence:
#
# PCOD9048533 Si02
#       8
#     2   2   2   2   2   2   2   2
#     4  12  27  44  73 107 139 183 237 298 357 439
#     4  12  27  44  74 105 138 191 239 296 359 428
#     4  11  25  44  70 102 142 181 245 291 363 432
#     4  10  24  46  68  99 145 188 234 304 359 429
#     4  12  25  46  73 103 143 190 233 300 358 424
#     4  10  24  46  67 103 142 188 238 299 365 430
#     4  11  23  44  73 100 142 187 237 293 364 423
#     4  10  24  45  69  97 139 188 229 298 357 427
#
# _framework density 24.474485999999999
#
# number of rings (size 3 to 8) (size 9 to 14) (size 15 to 20)
#    0.000    1.000    2.500    2.625   10.500    1.000 
#    6.750    0.000    0.000    0.000    0.000    0.000 
#    0.000    0.000    0.000    0.000    0.000    0.000 
#
# Total GULP energy -89140.908989 kJ/mol
# GULP energy per Si atom -5571.306812 kJ/mol
# Density = 2.441878 g / cm^3
# Si number density = 24.474486 Si / 1000 Ang^3
#
#
#
# Elastic Constant Matrix: (Units=GPa)
#
#
# Indices 1 2 3 4 5 6 
#
# 1 76.4367 -10.9724 34.8989 -13.7618 -14.0596 6.3310
# 2 -10.9724 98.5132 26.7883 -38.6727 -22.2357 20.1406
# 3 34.8989 26.7883 104.4271 -29.3835 -16.6184 6.0043
# 4 -13.7618 -38.6727 -29.3835 46.9950 -0.6544 -13.6034
# 5 -14.0596 -22.2357 -16.6184 -0.6544 48.2246 -4.7585
# 6 6.3310 20.1406 6.0043 -13.6034 -4.7585 24.5624
#
#
#
# Elastic Compliance Matrix: (Units=1/GPa)
#
#
# Indices 1 2 3 4 5 6 
#
# 1 0.021067 0.011103 -0.005143 0.010578 0.009074 -0.005661
# 2 0.011103 0.024524 -0.001757 0.019938 0.013330 -0.008917
# 3 -0.005143 -0.001757 0.013939 0.006889 0.002957 0.003747
# 4 0.010578 0.019938 0.006889 0.047893 0.016179 0.008899
# 5 0.009074 0.013330 0.002957 0.016179 0.030860 0.000947
# 6 -0.005661 -0.008917 0.003747 0.008899 0.000947 0.053679
#
#
# Mechanical properties :
#
#
# Convention : Reuss Voigt Hill
#
# Bulk Modulus (GPa) = 14.71971 42.31184 28.51578
# Shear Modulus (GPa) = 24.24808 39.20056 31.72432
#
# Velocity S-wave (km/s) = 3.15103 4.00645 3.60421
# Velocity P-wave (km/s) = 4.38931 6.22318 5.38488
#
# Compressibility (1/GPa) = 0.06793610
#
# Stress axis : x y z
#
# Youngs Moduli (GPa) = 47.46767 40.77602 71.74066
#
# Poissons Ratio (x) = -0.45273 0.36893
# Poissons Ratio (y) = -0.52703 0.12608
# Poissons Ratio (z) = 0.24411 0.07166
#
# Static dielectric constant tensor:
#      x y z
#    x 2.103180 0.043470 -0.042930 
#    y 0.043470 2.010490 0.031100 
#    z -0.042930 0.031100 2.110110 
# 
# From -- ./inp_files/547399.got.cif
#   From: 2010.05.17/outbox.cif.g08.bks.cpg/sg2_274_cif.got.tgz:547399.got - 2010.06.03 11:33:40.
