data_PCOD9048397
_publ_section_title
;
Structure prediction by ZEFSAII (Michael W. Deem and Ramdas Pophale) SiO2 
 PCOD9048397
Probable space group: P -1
;
_chemical_formula_sum "Si O2"
_cell_formula_units_Z 14
_cell_length_a 24.316441
_cell_length_b 30.826052
_cell_length_c 15.235034
_cell_angle_alpha 18.271979
_cell_angle_beta 160.630858
_cell_angle_gamma 171.026350
_cell_volume 555.006975
_symmetry_space_group_name_H-M "P -1"
_symmetry_group_IT_number 2
_symmetry_cell_setting 'triclinic'
loop_
_space_group_symop_operation_xyz
x,y,z
-x,-y,-z
loop_
_atom_site_type_symbol
_atom_site_label
_atom_site_fract_x
_atom_site_fract_y
_atom_site_fract_z
Si Si1 0.675218 0.180023 0.216166
Si Si2 0.352336 0.731198 0.822249
Si Si3 0.481703 0.732454 0.324313
Si Si4 0.179172 0.871342 0.773069
Si Si5 0.219662 0.628496 0.497085
Si Si6 0.298398 0.263606 0.727749
Si Si7 0.597139 0.647423 0.085996
O O1 0.571715 0.091138 0.334491
O O2 0.098363 0.493743 0.244127
O O3 0.557663 0.975802 0.360659
O O4 0.496213 0.184717 0.897365
O O5 0.027896 0.521234 0.670320
O O6 0.675393 0.879233 0.985393
O O7 0.155301 0.472859 0.083010
O O8 0.477941 0.565519 0.643368
O O9 0.771992 0.023185 0.261052
O O10 0.081542 0.938516 0.442717
O O11 0.500000 0.000000 0.000000
O O12 0.000000 0.500000 0.500000
O O13 0.343908 0.563413 0.813359
O O14 0.500000 0.500000 0.500000
O O15 0.476340 0.397617 0.833735
O O16 0.000000 0.000000 0.000000
#
# Coordination Sequence:
#
# PCOD9048397 Si02
#       7
#     2   2   2   2   2   2   2
#     4  11  24  43  76 104 141 194 248 294 362 435
#     4  11  23  46  70 102 145 190 240 300 358 432
#     4  11  23  42  70 111 139 188 248 300 360 432
#     4  11  22  40  74 107 136 188 251 299 347 430
#     4  12  26  48  70 104 148 193 239 301 372 433
#     4  10  24  45  68 102 145 189 235 296 359 424
#     4  12  26  45  70 104 151 185 238 309 364 424
#
# _framework density 25.224909
#
# number of rings (size 3 to 8) (size 9 to 14) (size 15 to 20)
#    0.000    0.857    5.714    1.714    4.000    1.714 
#    2.571    4.286    0.000    0.000    0.000    0.000 
#    0.000    0.000    0.000    0.000    0.000    0.000 
#
# Total GULP energy -78141.152443 kJ/mol
# GULP energy per Si atom -5581.510889 kJ/mol
# Density = 2.516750 g / cm^3
# Si number density = 25.224909 Si / 1000 Ang^3
#
#
#
# Elastic Constant Matrix: (Units=GPa)
#
#
# Indices 1 2 3 4 5 6 
#
# 1 119.6385 23.3503 49.4524 7.3722 -2.3828 -35.1300
# 2 23.3503 68.0126 26.9175 -0.0011 5.9704 -16.8041
# 3 49.4524 26.9175 176.0530 35.5354 33.9853 -23.5082
# 4 7.3722 -0.0011 35.5354 50.9997 -2.2171 2.2240
# 5 -2.3828 5.9704 33.9853 -2.2171 42.8019 5.5015
# 6 -35.1300 -16.8041 -23.5082 2.2240 5.5015 48.8616
#
#
#
# Elastic Compliance Matrix: (Units=1/GPa)
#
#
# Indices 1 2 3 4 5 6 
#
# 1 0.011643 -0.001595 -0.002563 -0.000084 0.002084 0.006359
# 2 -0.001595 0.017010 -0.001448 0.000980 -0.001797 0.004165
# 3 -0.002563 -0.001448 0.010433 -0.007472 -0.009132 0.004047
# 4 -0.000084 0.000980 -0.007472 0.025399 0.007795 -0.005352
# 5 0.002084 -0.001797 -0.009132 0.007795 0.032350 -0.007510
# 6 0.006359 0.004165 0.004047 -0.005352 -0.007510 0.029506
#
#
# Mechanical properties :
#
#
# Convention : Reuss Voigt Hill
#
# Bulk Modulus (GPa) = 35.87411 62.57160 49.22285
# Shear Modulus (GPa) = 34.04977 46.13157 40.09067
#
# Velocity S-wave (km/s) = 3.67801 4.28110 3.99096
# Velocity P-wave (km/s) = 5.68239 7.02114 6.38694
#
# Compressibility (1/GPa) = 0.02787526
#
# Stress axis : x y z
#
# Youngs Moduli (GPa) = 85.88911 58.78778 95.85125
#
# Poissons Ratio (x) = 0.09376 0.24565
# Poissons Ratio (y) = 0.13698 0.13876
# Poissons Ratio (z) = 0.22012 0.08510
#
# Static dielectric constant tensor:
#      x y z
#    x 2.108220 0.009660 0.027110 
#    y 0.009660 2.142750 -0.179200 
#    z 0.027110 -0.179200 2.255690 
# 
# From -- ./inp_files/263239.got.cif
#   From: 2010.05.17/outbox.cif.g08.bks.cpg/sg2_132_cif.got.tgz:263239.got - 2010.06.03 11:33:40.
