data_PCOD9048083
_publ_section_title
;
Structure prediction by ZEFSAII (Michael W. Deem and Ramdas Pophale) SiO2 
 PCOD9048083
Probable space group: P -1
;
_chemical_formula_sum "Si O2"
_cell_formula_units_Z 14
_cell_length_a 9.172983
_cell_length_b 9.063111
_cell_length_c 19.076782
_cell_angle_alpha 152.397587
_cell_angle_beta 53.074298
_cell_angle_gamma 114.511687
_cell_volume 557.080877
_symmetry_space_group_name_H-M "P -1"
_symmetry_group_IT_number 2
_symmetry_cell_setting 'triclinic'
loop_
_space_group_symop_operation_xyz
x,y,z
-x,-y,-z
loop_
_atom_site_type_symbol
_atom_site_label
_atom_site_fract_x
_atom_site_fract_y
_atom_site_fract_z
Si Si1 0.520648 0.355208 0.163288
Si Si2 0.070601 0.359353 0.533166
Si Si3 0.868035 0.327067 0.216598
Si Si4 0.137298 0.408269 0.815725
Si Si5 0.346222 0.676150 0.213744
Si Si6 0.301496 0.185957 0.905033
Si Si7 0.739285 0.362793 0.522330
O O1 0.734678 0.374566 0.099675
O O2 0.378973 0.614068 0.259838
O O3 0.456116 0.465361 0.307216
O O4 0.500000 0.000000 0.000000
O O5 0.025979 0.569802 0.705740
O O6 0.227110 0.466000 0.486675
O O7 0.895364 0.408355 0.552274
O O8 0.162776 0.977004 0.369500
O O9 0.823399 0.603462 0.284896
O O10 0.707787 0.187149 0.238226
O O11 0.000000 0.000000 0.000000
O O12 0.909465 0.587338 0.966495
O O13 0.213369 0.035415 0.667585
O O14 0.336721 0.346928 0.036740
O O15 0.530984 0.771849 0.173857
#
# Coordination Sequence:
#
# PCOD9048083 Si02
#       7
#     2   2   2   2   2   2   2
#     4  12  29  44  74 108 149 189 243 303 366 425
#     4  11  26  47  76 104 147 192 243 303 357 434
#     4  10  24  44  73 105 137 188 241 297 358 429
#     4  11  24  48  71 105 147 189 241 301 361 434
#     4  11  25  46  74 106 143 200 233 304 358 437
#     4  10  24  44  74 106 143 184 255 287 367 428
#     4  11  27  47  71 108 146 192 244 298 367 427
#
# _framework density 25.131001999999999
#
# number of rings (size 3 to 8) (size 9 to 14) (size 15 to 20)
#    0.000    1.143    1.429    2.143   16.000    2.286 
#    0.000    0.000    0.000    0.000    0.000    0.000 
#    0.000    0.000    0.000    0.000    0.000    0.000 
#
# Total GULP energy -78464.568726 kJ/mol
# GULP energy per Si atom -5604.612052 kJ/mol
# Density = 2.507380 g / cm^3
# Si number density = 25.131002 Si / 1000 Ang^3
#
#
#
# Elastic Constant Matrix: (Units=GPa)
#
#
# Indices 1 2 3 4 5 6 
#
# 1 104.6579 19.6683 8.7066 2.0501 10.8435 8.0072
# 2 19.6683 91.8546 20.1056 5.8568 7.4593 -1.7182
# 3 8.7066 20.1056 52.3734 0.6398 10.2597 -8.5486
# 4 2.0501 5.8568 0.6398 39.6942 0.8906 -0.7572
# 5 10.8435 7.4593 10.2597 0.8906 36.0431 -0.7000
# 6 8.0072 -1.7182 -8.5486 -0.7572 -0.7000 54.5667
#
#
#
# Elastic Compliance Matrix: (Units=1/GPa)
#
#
# Indices 1 2 3 4 5 6 
#
# 1 0.010371 -0.001859 -0.000795 -0.000225 -0.002537 -0.001741
# 2 -0.001859 0.012388 -0.004287 -0.001647 -0.000744 -0.000041
# 3 -0.000795 -0.004287 0.022447 0.000494 -0.005209 0.003438
# 4 -0.000225 -0.001647 0.000494 0.025455 -0.000353 0.000407
# 5 -0.002537 -0.000744 -0.005209 -0.000353 0.030152 -0.000085
# 6 -0.001741 -0.000041 0.003438 0.000407 -0.000085 0.019124
#
#
# Mechanical properties :
#
#
# Convention : Reuss Voigt Hill
#
# Bulk Modulus (GPa) = 31.92451 38.42745 35.17598
# Shear Modulus (GPa) = 34.65980 39.42117 37.04048
#
# Velocity S-wave (km/s) = 3.71774 3.96489 3.84330
# Velocity P-wave (km/s) = 5.58208 6.02366 5.80707
#
# Compressibility (1/GPa) = 0.03132389
#
# Stress axis : x y z
#
# Youngs Moduli (GPa) = 96.42412 80.72390 44.54904
#
# Poissons Ratio (x) = 0.15005 0.03541
# Poissons Ratio (y) = 0.17924 0.19100
# Poissons Ratio (z) = 0.07663 0.34610
#
# Static dielectric constant tensor:
#      x y z
#    x 1.988940 0.028790 -0.026700 
#    y 0.028790 2.006290 -0.009820 
#    z -0.026700 -0.009820 1.941960 
# 
# From -- ./inp_files/557709.got.cif
#   From: 2010.05.17/outbox.cif.g08.bks.cpg/sg2_279_cif.got.tgz:557709.got - 2010.06.03 11:33:40.
