data_PCOD9048427
_publ_section_title
;
Structure prediction by ZEFSAII (Michael W. Deem and Ramdas Pophale) SiO2 
 PCOD9048427
Probable space group: P -1
;
_chemical_formula_sum "Si O2"
_cell_formula_units_Z 14
_cell_length_a 6.330901
_cell_length_b 21.936801
_cell_length_c 16.632254
_cell_angle_alpha 21.457482
_cell_angle_beta 66.885545
_cell_angle_gamma 55.296877
_cell_volume 618.053519
_symmetry_space_group_name_H-M "P -1"
_symmetry_group_IT_number 2
_symmetry_cell_setting 'triclinic'
loop_
_space_group_symop_operation_xyz
x,y,z
-x,-y,-z
loop_
_atom_site_type_symbol
_atom_site_label
_atom_site_fract_x
_atom_site_fract_y
_atom_site_fract_z
Si Si1 0.182033 0.216617 0.035919
Si Si2 0.662032 0.666668 0.366189
Si Si3 0.247875 0.574004 0.584914
Si Si4 0.492361 0.007954 0.393436
Si Si5 0.380988 0.073820 0.798083
Si Si6 0.588761 0.323259 0.983856
Si Si7 0.667710 0.584212 0.915805
O O1 0.201500 0.174414 0.181564
O O2 0.417327 0.004264 0.214326
O O3 0.232049 0.385979 0.797198
O O4 0.868157 0.305286 0.946710
O O5 0.504374 0.558799 0.522036
O O6 0.613863 0.771807 0.331858
O O7 0.000000 0.500000 0.500000
O O8 0.502304 0.864272 0.087444
O O9 0.329146 0.519950 0.732424
O O10 0.949860 0.796492 0.338649
O O11 0.500000 0.000000 0.500000
O O12 0.587016 0.782405 0.632964
O O13 0.663386 0.096700 0.230178
O O14 0.495092 0.355109 0.049902
O O15 0.500000 0.500000 0.000000
O O16 0.000000 0.500000 0.000000
#
# Coordination Sequence:
#
# PCOD9048427 Si02
#       7
#     2   2   2   2   2   2   2
#     4  11  25  44  70 100 140 191 234 309 358 450
#     4  11  25  46  70  99 142 183 235 296 369 443
#     4  11  24  44  67 101 138 180 240 293 372 434
#     4   9  23  43  67  96 136 190 237 293 370 429
#     4  11  25  42  69 102 136 185 236 292 368 437
#     4  10  24  45  68  94 145 188 241 300 373 436
#     4  11  27  43  72 109 145 192 254 315 373 445
#
# _framework density 22.651758000000001
#
# number of rings (size 3 to 8) (size 9 to 14) (size 15 to 20)
#    0.000    1.429    0.000    3.000   10.000    9.143 
#    0.000    0.000    0.000    0.000    0.000    0.000 
#    0.000    0.000    0.000    0.000    0.000    0.000 
#
# Total GULP energy -77969.875925 kJ/mol
# GULP energy per Si atom -5569.276852 kJ/mol
# Density = 2.260020 g / cm^3
# Si number density = 22.651758 Si / 1000 Ang^3
#
#
#
# Elastic Constant Matrix: (Units=GPa)
#
#
# Indices 1 2 3 4 5 6 
#
# 1 150.0734 48.3393 83.1338 -2.3492 -5.1578 -21.6850
# 2 48.3393 85.2868 34.4854 -6.2565 5.3216 -11.7477
# 3 83.1338 34.4854 164.2860 10.3026 3.7915 -9.5901
# 4 -2.3492 -6.2565 10.3026 28.3961 -2.4425 8.3379
# 5 -5.1578 5.3216 3.7915 -2.4425 43.1435 5.4280
# 6 -21.6850 -11.7477 -9.5901 8.3379 5.4280 38.5676
#
#
#
# Elastic Compliance Matrix: (Units=1/GPa)
#
#
# Indices 1 2 3 4 5 6 
#
# 1 0.011115 -0.003983 -0.004688 0.000899 0.001853 0.003415
# 2 -0.003983 0.015036 -0.001150 0.002673 -0.002305 0.001801
# 3 -0.004688 -0.001150 0.009016 -0.004147 -0.001491 0.000362
# 4 0.000899 0.002673 -0.004147 0.040310 0.003547 -0.008925
# 5 0.001853 -0.002305 -0.001491 0.003547 0.024551 -0.004253
# 6 0.003415 0.001801 0.000362 -0.008925 -0.004253 0.031015
#
#
# Mechanical properties :
#
#
# Convention : Reuss Voigt Hill
#
# Bulk Modulus (GPa) = 64.41530 81.28481 72.85005
# Shear Modulus (GPa) = 32.08003 37.60062 34.84033
#
# Velocity S-wave (km/s) = 3.76736 4.07866 3.92610
# Velocity P-wave (km/s) = 6.88643 7.62516 7.26519
#
# Compressibility (1/GPa) = 0.01552426
#
# Stress axis : x y z
#
# Youngs Moduli (GPa) = 89.97146 66.50828 110.91103
#
# Poissons Ratio (x) = 0.26492 0.51996
# Poissons Ratio (y) = 0.35838 0.12753
# Poissons Ratio (z) = 0.42179 0.07647
#
# Static dielectric constant tensor:
#      x y z
#    x 1.954940 0.066750 -0.005920 
#    y 0.066750 1.856880 -0.009520 
#    z -0.005920 -0.009520 1.846600 
# 
# From -- ./inp_files/546472.got.cif
#   From: 2010.05.17/outbox.cif.g08.bks.cpg/sg2_274_cif.got.tgz:546472.got - 2010.06.03 11:33:40.
