data_PCOD9048666
_publ_section_title
;
Structure prediction by ZEFSAII (Michael W. Deem and Ramdas Pophale) SiO2 
 PCOD9048666
Probable space group: P -1
;
_chemical_formula_sum "Si O2"
_cell_formula_units_Z 16
_cell_length_a 7.619177
_cell_length_b 5.715938
_cell_length_c 21.723875
_cell_angle_alpha 86.056036
_cell_angle_beta 51.671534
_cell_angle_gamma 114.413622
_cell_volume 601.764838
_symmetry_space_group_name_H-M "P -1"
_symmetry_group_IT_number 2
_symmetry_cell_setting 'triclinic'
loop_
_space_group_symop_operation_xyz
x,y,z
-x,-y,-z
loop_
_atom_site_type_symbol
_atom_site_label
_atom_site_fract_x
_atom_site_fract_y
_atom_site_fract_z
Si Si1 0.126067 0.166184 0.334738
Si Si2 0.775969 0.556709 0.407384
Si Si3 0.255200 0.482417 0.965645
Si Si4 0.705875 0.100613 0.895368
Si Si5 0.742036 0.196834 0.324236
Si Si6 0.475836 0.249942 0.832894
Si Si7 0.855066 0.228026 0.494544
Si Si8 0.901488 0.309061 0.152112
O O1 0.889468 0.097257 0.337899
O O2 0.060392 0.169684 0.420791
O O3 0.375978 0.477236 0.250869
O O4 0.071014 0.856553 0.349731
O O5 0.500000 0.500000 0.500000
O O6 0.793537 0.491779 0.333672
O O7 0.771897 0.311952 0.449081
O O8 0.268021 0.282442 0.917588
O O9 0.559366 0.785953 0.899682
O O10 0.000000 0.500000 0.000000
O O11 0.159374 0.356876 0.057787
O O12 0.667414 0.268832 0.846116
O O13 0.996476 0.359108 0.859665
O O14 0.500000 0.000000 0.000000
O O15 0.823206 0.177111 0.238793
O O16 0.418090 0.001570 0.407438
O O17 0.345036 0.946632 0.831808
O O18 0.000000 0.500000 0.500000
#
# Coordination Sequence:
#
# PCOD9048666 Si02
#       8
#     2   2   2   2   2   2   2   2
#     4  11  23  43  67 100 135 183 230 280 352 414
#     4  11  21  43  71  93 135 187 230 278 351 417
#     4  11  25  48  71 102 142 185 234 291 354 417
#     4  10  24  45  71 101 135 181 240 288 358 411
#     4  11  22  43  67 100 138 181 229 287 339 417
#     4  12  25  46  73  99 146 185 234 297 352 420
#     4  11  23  41  68  97 142 178 227 291 345 410
#     4  11  24  45  69 100 138 182 234 285 352 413
#
# _framework density 26.588456000000001
#
# number of rings (size 3 to 8) (size 9 to 14) (size 15 to 20)
#    0.000    1.000    5.000    1.875    1.750    2.500 
#    6.750    0.000    0.000    0.000    0.000    0.000 
#    0.000    0.000    0.000    0.000    0.000    0.000 
#
# Total GULP energy -89135.210546 kJ/mol
# GULP energy per Si atom -5570.950659 kJ/mol
# Density = 2.652794 g / cm^3
# Si number density = 26.588456 Si / 1000 Ang^3
#
#
#
# Elastic Constant Matrix: (Units=GPa)
#
#
# Indices 1 2 3 4 5 6 
#
# 1 77.6843 31.6672 41.9896 15.6360 0.8387 15.0149
# 2 31.6672 146.3504 36.7292 -14.1429 -10.7036 55.8867
# 3 41.9896 36.7292 154.2082 -6.2477 1.9004 21.0899
# 4 15.6360 -14.1429 -6.2477 54.5222 11.1889 4.3875
# 5 0.8387 -10.7036 1.9004 11.1889 30.0802 6.6661
# 6 15.0149 55.8867 21.0899 4.3875 6.6661 31.0214
#
#
#
# Elastic Compliance Matrix: (Units=1/GPa)
#
#
# Indices 1 2 3 4 5 6 
#
# 1 0.018181 -0.006242 -0.004717 -0.007708 -0.001110 0.006981
# 2 -0.006242 0.044570 0.003353 0.014691 0.029870 -0.088050
# 3 -0.004717 0.003353 0.008527 0.003685 0.001730 -0.010448
# 4 -0.007708 0.014691 0.003685 0.026790 0.001762 -0.029410
# 5 -0.001110 0.029870 0.001730 0.001762 0.058024 -0.067169
# 6 0.006981 -0.088050 -0.010448 -0.029410 -0.067169 0.213179
#
#
# Mechanical properties :
#
#
# Convention : Reuss Voigt Hill
#
# Bulk Modulus (GPa) = 17.83610 66.55721 42.19666
# Shear Modulus (GPa) = 12.40165 40.98190 26.69177
#
# Velocity S-wave (km/s) = 2.16204 3.93025 3.17185
# Velocity P-wave (km/s) = 3.59935 6.75889 5.41470
#
# Compressibility (1/GPa) = 0.05606605
#
# Stress axis : x y z
#
# Youngs Moduli (GPa) = 55.00313 22.43670 117.26898
#
# Poissons Ratio (x) = 0.14005 0.55317
# Poissons Ratio (y) = 0.34332 -0.39320
# Poissons Ratio (z) = 0.25945 -0.07523
#
# Static dielectric constant tensor:
#      x y z
#    x 3.754220 -0.197000 -1.798610 
#    y -0.197000 2.299090 0.200990 
#    z -1.798610 0.200990 4.081730 
# 
# From -- ./inp_files/605862.got.cif
#   From: 2010.05.17/outbox.cif.g08.bks.cpg/sg2_303_cif.got.tgz:605862.got - 2010.06.03 11:33:40.
