data_PCOD9048182
_publ_section_title
;
Structure prediction by ZEFSAII (Michael W. Deem and Ramdas Pophale) SiO2 
 PCOD9048182
Probable space group: P -1
;
_chemical_formula_sum "Si O2"
_cell_formula_units_Z 14
_cell_length_a 8.879899
_cell_length_b 13.177873
_cell_length_c 13.886805
_cell_angle_alpha 36.118649
_cell_angle_beta 46.760892
_cell_angle_gamma 71.913517
_cell_volume 575.423640
_symmetry_space_group_name_H-M "P -1"
_symmetry_group_IT_number 2
_symmetry_cell_setting 'triclinic'
loop_
_space_group_symop_operation_xyz
x,y,z
-x,-y,-z
loop_
_atom_site_type_symbol
_atom_site_label
_atom_site_fract_x
_atom_site_fract_y
_atom_site_fract_z
Si Si1 0.665241 0.811914 0.861178
Si Si2 0.834206 0.206106 0.120749
Si Si3 0.829501 0.887327 0.512777
Si Si4 0.383048 0.441746 0.768970
Si Si5 0.810005 0.492546 0.783369
Si Si6 0.598695 0.212693 0.737866
Si Si7 0.281542 0.089264 0.777866
O O1 0.745116 0.876337 0.667539
O O2 0.707008 0.643915 0.018149
O O3 0.364587 0.679897 0.089219
O O4 0.867395 0.003797 0.692183
O O5 0.771734 0.033553 0.364136
O O6 0.742276 0.065873 0.173352
O O7 0.760127 0.368629 0.002129
O O8 0.133831 0.365860 0.876893
O O9 0.734404 0.657721 0.695063
O O10 0.498568 0.331948 0.748205
O O11 0.588801 0.683698 0.498397
O O12 0.102446 0.624271 0.527819
O O13 0.459860 0.135242 0.754884
O O14 0.500000 0.000000 0.000000
O O15 0.000000 0.000000 0.000000
#
# Coordination Sequence:
#
# PCOD9048182 Si02
#       7
#     2   2   2   2   2   2   2
#     4  10  24  44  75  94 133 180 223 273 343 389
#     4  11  24  43  70  98 137 174 223 274 334 396
#     4  10  24  50  67 100 136 173 225 284 327 399
#     4  11  23  46  65  97 137 180 214 275 334 399
#     4  12  25  42  70 102 133 176 225 277 332 401
#     4  12  26  42  65 101 140 171 224 279 326 404
#     4  12  24  41  65  95 132 185 217 265 338 397
#
# _framework density 24.329899999999999
#
# number of rings (size 3 to 8) (size 9 to 14) (size 15 to 20)
#    0.000    0.857    2.857    4.286    6.000    1.143 
#    0.000    6.429    0.000    0.000    0.000    0.000 
#    0.000    0.000    0.000    0.000    0.000    0.000 
#
# Total GULP energy -78141.003536 kJ/mol
# GULP energy per Si atom -5581.500253 kJ/mol
# Density = 2.427452 g / cm^3
# Si number density = 24.329900 Si / 1000 Ang^3
#
#
#
# Elastic Constant Matrix: (Units=GPa)
#
#
# Indices 1 2 3 4 5 6 
#
# 1 147.8457 22.2739 49.4168 -1.1363 -10.6551 10.2449
# 2 22.2739 32.4233 18.0506 -4.4795 -2.6390 9.3321
# 3 49.4168 18.0506 143.6716 -9.9854 6.3457 2.8614
# 4 -1.1363 -4.4795 -9.9854 35.0776 6.5007 2.5271
# 5 -10.6551 -2.6390 6.3457 6.5007 57.7357 -3.9906
# 6 10.2449 9.3321 2.8614 2.5271 -3.9906 33.1445
#
#
#
# Elastic Compliance Matrix: (Units=1/GPa)
#
#
# Indices 1 2 3 4 5 6 
#
# 1 0.008405 -0.004141 -0.002513 -0.001223 0.001713 -0.000916
# 2 -0.004141 0.038774 -0.002936 0.004657 0.000134 -0.009723
# 3 -0.002513 -0.002936 0.008415 0.002226 -0.001739 0.000498
# 4 -0.001223 0.004657 0.002226 0.030721 -0.003989 -0.003948
# 5 0.001713 0.000134 -0.001739 -0.003989 0.018428 0.002106
# 6 -0.000916 -0.009723 0.000498 -0.003948 0.002106 0.033703
#
#
# Mechanical properties :
#
#
# Convention : Reuss Voigt Hill
#
# Bulk Modulus (GPa) = 27.46173 55.93590 41.69881
# Shear Modulus (GPa) = 29.45258 40.80484 35.12871
#
# Velocity S-wave (km/s) = 3.48307 4.09974 3.80392
# Velocity P-wave (km/s) = 5.24285 6.74174 6.03898
#
# Compressibility (1/GPa) = 0.03641432
#
# Stress axis : x y z
#
# Youngs Moduli (GPa) = 118.97435 25.79051 118.83317
#
# Poissons Ratio (x) = 0.10680 0.29865
# Poissons Ratio (y) = 0.49268 0.34886
# Poissons Ratio (z) = 0.29900 0.07571
#
# Static dielectric constant tensor:
#      x y z
#    x 2.005910 -0.019370 0.019630 
#    y -0.019370 1.943030 0.014460 
#    z 0.019630 0.014460 2.005610 
# 
# From -- ./inp_files/202748.got.cif
#   From: 2010.05.17/outbox.cif.g08.bks.cpg/sg2_102_cif.got.tgz:202748.got - 2010.06.03 11:33:40.
