data_PCOD9048232
_publ_section_title
;
Structure prediction by ZEFSAII (Michael W. Deem and Ramdas Pophale) SiO2 
 PCOD9048232
Probable space group: P -1
;
_chemical_formula_sum "Si O2"
_cell_formula_units_Z 16
_cell_length_a 16.038467
_cell_length_b 10.444160
_cell_length_c 9.129937
_cell_angle_alpha 78.076087
_cell_angle_beta 142.687792
_cell_angle_gamma 121.299092
_cell_volume 726.382491
_symmetry_space_group_name_H-M "P -1"
_symmetry_group_IT_number 2
_symmetry_cell_setting 'triclinic'
loop_
_space_group_symop_operation_xyz
x,y,z
-x,-y,-z
loop_
_atom_site_type_symbol
_atom_site_label
_atom_site_fract_x
_atom_site_fract_y
_atom_site_fract_z
Si Si1 0.674392 0.743326 0.238855
Si Si2 0.016920 0.239159 0.414124
Si Si3 0.096204 0.575163 0.324961
Si Si4 0.490107 0.444229 0.257852
Si Si5 0.369597 0.940733 0.116334
Si Si6 0.395671 0.778743 0.925246
Si Si7 0.812201 0.563194 0.102950
Si Si8 0.351480 0.731379 0.400316
O O1 0.872507 0.820743 0.473168
O O2 0.619696 0.625666 0.331529
O O3 0.591538 0.650135 0.989928
O O4 0.576497 0.822083 0.114749
O O5 0.068510 0.404908 0.363474
O O6 0.064073 0.300654 0.633612
O O7 0.816911 0.101459 0.146891
O O8 0.255335 0.714725 0.616587
O O9 0.170324 0.637628 0.252102
O O10 0.930646 0.564137 0.145633
O O11 0.586844 0.382478 0.486985
O O12 0.334823 0.414898 0.143130
O O13 0.350212 0.805229 0.228954
O O14 0.506126 0.112533 0.340605
O O15 0.422015 0.912044 0.041135
O O16 0.295369 0.609944 0.921171
#
# Coordination Sequence:
#
# PCOD9048232 Si02
#       8
#     2   2   2   2   2   2   2   2
#     4   9  16  30  60  87 104 134 178 239 272 307
#     4  10  17  34  58  85 111 137 179 230 276 313
#     4  11  17  34  61  85 103 139 190 228 262 320
#     4   9  16  34  54  82 114 140 174 221 282 323
#     4  11  24  39  52  76 120 151 174 223 272 326
#     4  10  17  34  58  85 111 137 179 230 276 313
#     4   9  17  30  60  89 109 129 174 245 282 296
#     4  11  24  39  53  76 115 157 179 208 278 335
#
# _framework density 22.026962000000001
#
# number of rings (size 3 to 8) (size 9 to 14) (size 15 to 20)
#    0.000    2.000    5.000    2.250    0.000    1.000 
#    0.000    7.500    0.000    3.000    0.000    0.000 
#    0.000    0.000    0.000    0.000    0.000    0.000 
#
# Total GULP energy -89422.396135 kJ/mol
# GULP energy per Si atom -5588.899758 kJ/mol
# Density = 2.197683 g / cm^3
# Si number density = 22.026962 Si / 1000 Ang^3
#
#
#
# Elastic Constant Matrix: (Units=GPa)
#
#
# Indices 1 2 3 4 5 6 
#
# 1 163.5796 45.9326 65.9589 -14.3490 41.5944 3.4063
# 2 45.9326 57.9328 29.2138 -8.6222 13.5195 0.2409
# 3 65.9589 29.2138 105.8211 7.3147 32.2687 -6.6220
# 4 -14.3490 -8.6222 7.3147 35.1745 -12.5964 0.3418
# 5 41.5944 13.5195 32.2687 -12.5964 40.6985 -3.0235
# 6 3.4063 0.2409 -6.6220 0.3418 -3.0235 30.6748
#
#
#
# Elastic Compliance Matrix: (Units=1/GPa)
#
#
# Indices 1 2 3 4 5 6 
#
# 1 0.010774 -0.004931 -0.003834 0.001880 -0.005944 -0.002592
# 2 -0.004931 0.023798 -0.004722 0.005748 0.002623 -0.000464
# 3 -0.003834 -0.004722 0.017564 -0.010506 -0.011450 0.003243
# 4 0.001880 0.005748 -0.010506 0.038664 0.016366 -0.001340
# 5 -0.005944 0.002623 -0.011450 0.016366 0.044091 0.002331
# 6 -0.002592 -0.000464 0.003243 -0.001340 0.002331 0.033836
#
#
# Mechanical properties :
#
#
# Convention : Reuss Voigt Hill
#
# Bulk Modulus (GPa) = 39.74459 67.72713 53.73586
# Shear Modulus (GPa) = 24.49904 33.72476 29.11190
#
# Velocity S-wave (km/s) = 3.33863 3.91713 3.63939
# Velocity P-wave (km/s) = 5.73975 7.16049 6.48912
#
# Compressibility (1/GPa) = 0.02516065
#
# Stress axis : x y z
#
# Youngs Moduli (GPa) = 92.81454 42.02063 56.93534
#
# Poissons Ratio (x) = 0.20722 0.21828
# Poissons Ratio (y) = 0.45770 0.26887
# Poissons Ratio (z) = 0.35583 0.19844
#
# Static dielectric constant tensor:
#      x y z
#    x 1.800530 0.000650 -0.009580 
#    y 0.000650 1.850600 0.007880 
#    z -0.009580 0.007880 1.799610 
# 
# From -- ./inp_files/306685.got.cif
#   From: 2010.05.17/outbox.cif.g08.bks.cpg/sg2_154_cif.got.tgz:306685.got - 2010.06.03 11:33:40.
