data_PCOD9048737
_publ_section_title
;
Structure prediction by ZEFSAII (Michael W. Deem and Ramdas Pophale) SiO2 
 PCOD9048737
Probable space group: P -1
;
_chemical_formula_sum "Si O2"
_cell_formula_units_Z 16
_cell_length_a 10.047704
_cell_length_b 18.140646
_cell_length_c 5.383442
_cell_angle_alpha 86.607806
_cell_angle_beta 73.771968
_cell_angle_gamma 130.592927
_cell_volume 675.208544
_symmetry_space_group_name_H-M "P -1"
_symmetry_group_IT_number 2
_symmetry_cell_setting 'triclinic'
loop_
_space_group_symop_operation_xyz
x,y,z
-x,-y,-z
loop_
_atom_site_type_symbol
_atom_site_label
_atom_site_fract_x
_atom_site_fract_y
_atom_site_fract_z
Si Si1 0.753699 0.150375 0.734396
Si Si2 0.057597 0.585616 0.134649
Si Si3 0.504082 0.187108 0.666445
Si Si4 0.127410 0.088061 0.121029
Si Si5 0.431401 0.432159 0.799141
Si Si6 0.695163 0.392414 0.617513
Si Si7 0.026119 0.736442 0.912288
Si Si8 0.240668 0.001592 0.459343
O O1 0.605993 0.164731 0.798087
O O2 0.682248 0.042926 0.706547
O O3 0.854783 0.178932 0.944589
O O4 0.896515 0.224350 0.415299
O O5 0.880048 0.512654 0.437483
O O6 0.056658 0.663218 0.991930
O O7 0.250614 0.633907 0.162631
O O8 0.000000 0.500000 0.000000
O O9 0.646228 0.305408 0.476751
O O10 0.398770 0.094162 0.543610
O O11 0.334395 0.175478 0.871900
O O12 0.975916 0.093742 0.292083
O O13 0.184650 0.048786 0.303436
O O14 0.000000 0.000000 0.000000
O O15 0.500000 0.500000 0.500000
O O16 0.529310 0.389073 0.746403
O O17 0.201917 0.336310 0.939768
O O18 0.500000 0.500000 0.000000
#
# Coordination Sequence:
#
# PCOD9048737 Si02
#       8
#     2   2   2   2   2   2   2   2
#     4  12  28  46  75 107 145 195 245 302 369 427
#     4  11  23  44  71  97 147 185 235 300 366 430
#     4  11  24  44  70 108 141 187 251 293 366 443
#     4   9  22  43  68  99 140 182 244 295 365 426
#     4  12  26  48  72 107 143 194 243 300 366 439
#     4  11  25  42  71 106 139 193 235 302 362 438
#     4  12  27  47  72 108 149 186 248 302 362 441
#     4  10  24  45  72 100 147 192 238 309 363 433
#
# _framework density 23.696383999999998
#
# number of rings (size 3 to 8) (size 9 to 14) (size 15 to 20)
#    0.000    1.000    2.500    2.625    8.750    3.500 
#    0.000    0.000    0.000    0.000    0.000    0.000 
#    0.000    0.000    0.000    0.000    0.000    0.000 
#
# Total GULP energy -89351.329085 kJ/mol
# GULP energy per Si atom -5584.458068 kJ/mol
# Density = 2.364245 g / cm^3
# Si number density = 23.696384 Si / 1000 Ang^3
#
#
#
# Elastic Constant Matrix: (Units=GPa)
#
#
# Indices 1 2 3 4 5 6 
#
# 1 150.4176 42.9657 12.5084 15.5038 -13.4233 6.7866
# 2 42.9657 108.1064 11.3850 16.2669 -7.1799 -8.9220
# 3 12.5084 11.3850 64.3228 2.7127 1.0525 12.5551
# 4 15.5038 16.2669 2.7127 35.4333 -3.2935 0.4085
# 5 -13.4233 -7.1799 1.0525 -3.2935 25.3990 11.0228
# 6 6.7866 -8.9220 12.5551 0.4085 11.0228 48.0932
#
#
#
# Elastic Compliance Matrix: (Units=1/GPa)
#
#
# Indices 1 2 3 4 5 6 
#
# 1 0.008203 -0.002842 -0.000595 -0.001799 0.004420 -0.002527
# 2 -0.002842 0.011415 -0.001899 -0.003889 -0.000026 0.003054
# 3 -0.000595 -0.001899 0.016931 -0.000059 0.000526 -0.004808
# 4 -0.001799 -0.003889 -0.000059 0.031051 0.002542 -0.001299
# 5 0.004420 -0.000026 0.000526 0.002542 0.047028 -0.011566
# 6 -0.002527 0.003054 -0.004808 -0.001299 -0.011566 0.025633
#
#
# Mechanical properties :
#
#
# Convention : Reuss Voigt Hill
#
# Bulk Modulus (GPa) = 38.64570 50.72946 44.68758
# Shear Modulus (GPa) = 31.33620 38.85095 35.09358
#
# Velocity S-wave (km/s) = 3.64043 4.05350 3.85251
# Velocity P-wave (km/s) = 5.83219 6.58502 6.22000
#
# Compressibility (1/GPa) = 0.02587610
#
# Stress axis : x y z
#
# Youngs Moduli (GPa) = 121.90114 87.60266 59.06330
#
# Poissons Ratio (x) = 0.24896 0.03517
# Poissons Ratio (y) = 0.34643 0.11218
# Poissons Ratio (z) = 0.07258 0.16639
#
# Static dielectric constant tensor:
#      x y z
#    x 4.366630 0.079430 -0.098920 
#    y 0.079430 2.006310 -0.079650 
#    z -0.098920 -0.079650 2.063200 
# 
# From -- ./inp_files/47817.got.cif
#   From: 2010.05.17/outbox.cif.g08.bks.cpg/sg2_24_cif.got.tgz:47817.got - 2010.06.03 11:33:40.
