data_PCOD9048067
_publ_section_title
;
Structure prediction by ZEFSAII (Michael W. Deem and Ramdas Pophale) SiO2 
 PCOD9048067
Probable space group: P -1
;
_chemical_formula_sum "Si O2"
_cell_formula_units_Z 16
_cell_length_a 7.115964
_cell_length_b 13.003357
_cell_length_c 13.399607
_cell_angle_alpha 66.782298
_cell_angle_beta 99.188163
_cell_angle_gamma 140.843623
_cell_volume 696.357078
_symmetry_space_group_name_H-M "P -1"
_symmetry_group_IT_number 2
_symmetry_cell_setting 'triclinic'
loop_
_space_group_symop_operation_xyz
x,y,z
-x,-y,-z
loop_
_atom_site_type_symbol
_atom_site_label
_atom_site_fract_x
_atom_site_fract_y
_atom_site_fract_z
Si Si1 0.472458 0.509403 0.109949
Si Si2 0.659140 0.950824 0.536634
Si Si3 0.370165 0.043228 0.247657
Si Si4 0.158468 0.537072 0.600653
Si Si5 0.891372 0.109641 0.288707
Si Si6 0.218546 0.335079 0.729383
Si Si7 0.484947 0.774374 0.229414
Si Si8 0.368770 0.166885 0.991879
O O1 0.756182 0.627322 0.165200
O O2 0.438746 0.628228 0.069741
O O3 0.219714 0.305797 0.206343
O O4 0.500000 0.500000 0.000000
O O5 0.759482 0.974312 0.650277
O O6 0.396986 0.740359 0.573685
O O7 0.500000 0.000000 0.500000
O O8 0.887914 0.059309 0.419945
O O9 0.690031 0.130947 0.262765
O O10 0.396640 0.134094 0.118895
O O11 0.126817 0.839296 0.269158
O O12 0.332173 0.498462 0.621478
O O13 0.000000 0.500000 0.500000
O O14 0.869051 0.393474 0.705112
O O15 0.707688 0.943646 0.260169
O O16 0.389448 0.296699 0.737465
O O17 0.511723 0.838693 0.095820
O O18 0.000000 0.000000 0.000000
#
# Coordination Sequence:
#
# PCOD9048067 Si02
#       8
#     2   2   2   2   2   2   2   2
#     4  11  26  44  70 104 149 183 243 303 352 431
#     4  10  24  44  73 101 150 184 234 302 356 429
#     4  11  23  46  74 103 146 192 239 295 368 425
#     4  12  24  49  71 108 144 192 243 295 358 436
#     4  11  24  47  70 109 143 191 241 298 363 423
#     4  11  26  46  72 108 139 195 240 292 367 426
#     4  11  24  44  75 100 149 185 243 294 362 423
#     4  11  23  44  70 103 143 190 241 299 355 428
#
# _framework density 22.976717000000001
#
# number of rings (size 3 to 8) (size 9 to 14) (size 15 to 20)
#    0.000    1.000    5.000    1.500    8.750    2.500 
#    2.250    1.250    0.000    0.000    0.000    0.000 
#    0.000    0.000    0.000    0.000    0.000    0.000 
#
# Total GULP energy -89316.469656 kJ/mol
# GULP energy per Si atom -5582.279354 kJ/mol
# Density = 2.292442 g / cm^3
# Si number density = 22.976717 Si / 1000 Ang^3
#
#
#
# Elastic Constant Matrix: (Units=GPa)
#
#
# Indices 1 2 3 4 5 6 
#
# 1 48.1660 1.5483 28.1162 -3.7452 9.6668 -10.8417
# 2 1.5483 133.7703 73.3079 -6.7121 -6.1158 -15.1665
# 3 28.1162 73.3079 227.6375 18.9358 -5.7791 -6.9780
# 4 -3.7452 -6.7121 18.9358 54.9225 1.0744 5.4057
# 5 9.6668 -6.1158 -5.7791 1.0744 43.5994 -6.9871
# 6 -10.8417 -15.1665 -6.9780 5.4057 -6.9871 33.7863
#
#
#
# Elastic Compliance Matrix: (Units=1/GPa)
#
#
# Indices 1 2 3 4 5 6 
#
# 1 0.025984 0.002775 -0.004251 0.002960 -0.004850 0.007229
# 2 0.002775 0.010092 -0.003612 0.002203 0.000993 0.004528
# 3 -0.004251 -0.003612 0.006317 -0.002836 0.001186 -0.000982
# 4 0.002960 0.002203 -0.002836 0.019899 -0.001559 -0.002153
# 5 -0.004850 0.000993 0.001186 -0.001559 0.025079 0.004570
# 6 0.007229 0.004528 -0.000982 -0.002153 0.004570 0.035037
#
#
# Mechanical properties :
#
#
# Convention : Reuss Voigt Hill
#
# Bulk Modulus (GPa) = 31.03829 68.39096 49.71463
# Shear Modulus (GPa) = 34.88631 46.90173 40.89402
#
# Velocity S-wave (km/s) = 3.90081 4.52295 4.22335
# Velocity P-wave (km/s) = 5.81604 7.55685 6.74286
#
# Compressibility (1/GPa) = 0.03221827
#
# Stress axis : x y z
#
# Youngs Moduli (GPa) = 38.48453 99.08739 158.30025
#
# Poissons Ratio (x) = -0.27499 0.67292
# Poissons Ratio (y) = -0.10680 0.57179
# Poissons Ratio (z) = 0.16359 0.35791
#
# Static dielectric constant tensor:
#      x y z
#    x 2.130380 -0.057370 -0.076240 
#    y -0.057370 1.843980 0.002630 
#    z -0.076240 0.002630 1.963420 
# 
# From -- ./inp_files/398955.got.cif
#   From: 2010.05.17/outbox.cif.g08.bks.cpg/sg2_200_cif.got.tgz:398955.got - 2010.06.03 11:33:40.
