data_PCOD9048320
_publ_section_title
;
Structure prediction by ZEFSAII (Michael W. Deem and Ramdas Pophale) SiO2 
 PCOD9048320
Probable space group: P -1
;
_chemical_formula_sum "Si O2"
_cell_formula_units_Z 14
_cell_length_a 12.625668
_cell_length_b 5.470010
_cell_length_c 10.375304
_cell_angle_alpha 124.673857
_cell_angle_beta 73.350209
_cell_angle_gamma 92.251767
_cell_volume 557.579917
_symmetry_space_group_name_H-M "P -1"
_symmetry_group_IT_number 2
_symmetry_cell_setting 'triclinic'
loop_
_space_group_symop_operation_xyz
x,y,z
-x,-y,-z
loop_
_atom_site_type_symbol
_atom_site_label
_atom_site_fract_x
_atom_site_fract_y
_atom_site_fract_z
Si Si1 0.571033 0.247383 0.998110
Si Si2 0.291369 0.742918 0.648499
Si Si3 0.535184 0.824659 0.306720
Si Si4 0.900045 0.268023 0.079905
Si Si5 0.059879 0.736594 0.225176
Si Si6 0.136159 0.864828 0.486295
Si Si7 0.684750 0.890577 0.643245
O O1 0.589878 0.476860 0.174623
O O2 0.500000 0.500000 0.000000
O O3 0.500000 0.000000 0.000000
O O4 0.674629 0.022682 0.830613
O O5 0.205652 0.740363 0.795247
O O6 0.215392 0.811156 0.566375
O O7 0.354850 0.416562 0.482163
O O8 0.373338 0.982563 0.722487
O O9 0.500000 0.000000 0.500000
O O10 0.409308 0.856213 0.305990
O O11 0.957762 0.556001 0.179645
O O12 0.878521 0.268777 0.934051
O O13 0.000000 0.000000 0.000000
O O14 0.129857 0.631247 0.299004
O O15 0.988268 0.054712 0.389027
O O16 0.194761 0.109646 0.459946
#
# Coordination Sequence:
#
# PCOD9048320 Si02
#       7
#     2   2   2   2   2   2   2
#     4  10  24  46  70 103 146 197 248 307 375 449
#     4  12  24  42  76 109 144 195 254 302 383 448
#     4  11  23  45  76 103 147 192 247 313 373 447
#     4  11  23  43  70 103 141 186 246 310 369 451
#     4  10  24  45  67 100 145 188 242 314 376 440
#     4  11  23  44  71  99 142 193 245 301 379 452
#     4  11  24  45  69 104 147 196 244 310 371 461
#
# _framework density 25.108506999999999
#
# number of rings (size 3 to 8) (size 9 to 14) (size 15 to 20)
#    0.000    1.143    4.286    1.286    2.000    4.000 
#    7.714    0.000    0.000    0.000    0.000    0.000 
#    0.000    0.000    0.000    0.000    0.000    0.000 
#
# Total GULP energy -77948.479033 kJ/mol
# GULP energy per Si atom -5567.748502 kJ/mol
# Density = 2.505136 g / cm^3
# Si number density = 25.108507 Si / 1000 Ang^3
#
#
#
# Elastic Constant Matrix: (Units=GPa)
#
#
# Indices 1 2 3 4 5 6 
#
# 1 89.3740 22.7150 17.9355 -20.8021 1.9575 13.3298
# 2 22.7150 97.3465 63.8322 -16.7243 -5.5413 25.0295
# 3 17.9355 63.8322 195.4936 -2.1816 -0.6528 30.2561
# 4 -20.8021 -16.7243 -2.1816 33.6264 1.5393 -12.9924
# 5 1.9575 -5.5413 -0.6528 1.5393 32.2152 1.7485
# 6 13.3298 25.0295 30.2561 -12.9924 1.7485 37.3690
#
#
#
# Elastic Compliance Matrix: (Units=1/GPa)
#
#
# Indices 1 2 3 4 5 6 
#
# 1 0.013528 -0.001371 -0.000594 0.007408 -0.001381 -0.000786
# 2 -0.001371 0.015527 -0.004084 0.004485 0.002738 -0.005173
# 3 -0.000594 -0.004084 0.007081 -0.003473 -0.000141 -0.003987
# 4 0.007408 0.004485 -0.003473 0.040870 -0.002325 0.011484
# 5 -0.001381 0.002738 -0.000141 -0.002325 0.031896 -0.003528
# 6 -0.000786 -0.005173 -0.003987 0.011484 -0.003528 0.037891
#
#
# Mechanical properties :
#
#
# Convention : Reuss Voigt Hill
#
# Bulk Modulus (GPa) = 41.60048 65.68663 53.64356
# Shear Modulus (GPa) = 29.95719 39.15755 34.55737
#
# Velocity S-wave (km/s) = 3.45789 3.95338 3.71391
# Velocity P-wave (km/s) = 5.70499 6.85980 6.30887
#
# Compressibility (1/GPa) = 0.02403818
#
# Stress axis : x y z
#
# Youngs Moduli (GPa) = 73.91906 64.40330 141.22008
#
# Poissons Ratio (x) = 0.08831 0.08384
# Poissons Ratio (y) = 0.10136 0.57679
# Poissons Ratio (z) = 0.04388 0.26305
#
# Static dielectric constant tensor:
#      x y z
#    x 1.817850 -0.682050 -0.790610 
#    y -0.682050 1.056090 -1.721410 
#    z -0.790610 -1.721410 -0.661730 
# 
# From -- ./inp_files/441497.got.cif
#   From: 2010.05.17/outbox.cif.g08.bks.cpg/sg2_221_cif.got.tgz:441497.got - 2010.06.03 11:33:40.
