data_PCOD9048840
_publ_section_title
;
Structure prediction by ZEFSAII (Michael W. Deem and Ramdas Pophale) SiO2 
 PCOD9048840
Probable space group: P -1
;
_chemical_formula_sum "Si O2"
_cell_formula_units_Z 12
_cell_length_a 22.238050
_cell_length_b 12.049648
_cell_length_c 8.950141
_cell_angle_alpha 130.216453
_cell_angle_beta 145.075504
_cell_angle_gamma 24.334534
_cell_volume 510.852392
_symmetry_space_group_name_H-M "P -1"
_symmetry_group_IT_number 2
_symmetry_cell_setting 'triclinic'
loop_
_space_group_symop_operation_xyz
x,y,z
-x,-y,-z
loop_
_atom_site_type_symbol
_atom_site_label
_atom_site_fract_x
_atom_site_fract_y
_atom_site_fract_z
Si Si1 0.195511 0.632056 0.812913
Si Si2 0.094044 0.541987 0.766671
Si Si3 0.471672 0.525748 0.140669
Si Si4 0.267142 0.254411 0.179464
Si Si5 0.911107 0.833423 0.165017
Si Si6 0.254269 0.789504 0.315589
O O1 0.217303 0.458519 0.801556
O O2 0.016141 0.817321 0.483592
O O3 0.401445 0.450637 0.989400
O O4 0.853230 0.196097 0.002139
O O5 0.000000 0.500000 0.500000
O O6 0.890421 0.892152 0.695722
O O7 0.243539 0.345161 0.044389
O O8 0.678618 0.330449 0.482115
O O9 0.500000 0.500000 0.000000
O O10 0.262063 0.879571 0.044408
O O11 0.097907 0.541205 0.190341
O O12 0.500000 0.000000 0.500000
O O13 0.202770 0.162012 0.976212
O O14 0.500000 0.500000 0.500000
#
# Coordination Sequence:
#
# PCOD9048840 Si02
#       6
#     2   2   2   2   2   2
#     4  11  24  45  72 108 145 195 247 307 368 436
#     4  12  25  48  74 106 154 193 247 309 371 452
#     4  11  25  44  78 107 148 189 253 308 374 437
#     4  11  27  47  75 106 155 197 245 305 386 441
#     4  11  25  48  72 113 146 194 255 308 365 458
#     4  10  24  45  73 110 146 196 249 306 375 438
#
# _framework density 23.49015
#
# number of rings (size 3 to 8) (size 9 to 14) (size 15 to 20)
#    0.000    1.000    1.667    4.000    4.667    1.333 
#    3.000    4.167    0.000    0.000    0.000    0.000 
#    0.000    0.000    0.000    0.000    0.000    0.000 
#
# Total GULP energy -67133.630500 kJ/mol
# GULP energy per Si atom -5594.469208 kJ/mol
# Density = 2.343669 g / cm^3
# Si number density = 23.490150 Si / 1000 Ang^3
#
#
#
# Elastic Constant Matrix: (Units=GPa)
#
#
# Indices 1 2 3 4 5 6 
#
# 1 153.1973 19.4259 43.7952 -4.4381 -5.9440 9.7746
# 2 19.4259 79.6396 53.0698 0.9555 6.5329 11.1370
# 3 43.7952 53.0698 199.3021 -3.9546 -21.9855 13.9938
# 4 -4.4381 0.9555 -3.9546 48.5331 3.7006 -5.4157
# 5 -5.9440 6.5329 -21.9855 3.7006 48.1644 -4.3555
# 6 9.7746 11.1370 13.9938 -5.4157 -4.3555 32.2631
#
#
#
# Elastic Compliance Matrix: (Units=1/GPa)
#
#
# Indices 1 2 3 4 5 6 
#
# 1 0.007076 -0.000762 -0.001227 0.000402 0.000273 -0.001244
# 2 -0.000762 0.016781 -0.004537 -0.000896 -0.004769 -0.004388
# 3 -0.001227 -0.004537 0.006931 0.000209 0.003562 -0.000553
# 4 0.000402 -0.000896 0.000209 0.021147 -0.001041 0.003506
# 5 0.000273 -0.004769 0.003562 -0.001041 0.023420 0.003006
# 6 -0.001244 -0.004388 -0.000553 0.003506 0.003006 0.034121
#
#
# Mechanical properties :
#
#
# Convention : Reuss Voigt Hill
#
# Bulk Modulus (GPa) = 56.37627 73.85787 65.11707
# Shear Modulus (GPa) = 38.92871 46.84867 42.88869
#
# Velocity S-wave (km/s) = 4.07533 4.47071 4.27759
# Velocity P-wave (km/s) = 6.79680 7.62627 7.22345
#
# Compressibility (1/GPa) = 0.01773796
#
# Stress axis : x y z
#
# Youngs Moduli (GPa) = 141.31352 59.59031 144.28059
#
# Poissons Ratio (x) = 0.04541 0.17697
# Poissons Ratio (y) = 0.10768 0.65457
# Poissons Ratio (z) = 0.17333 0.27035
#
# Static dielectric constant tensor:
#      x y z
#    x 1.975300 -0.056760 0.039750 
#    y -0.056760 1.938400 -0.008060 
#    z 0.039750 -0.008060 1.904100 
# 
# From -- ./inp_files/346292.got.cif
#   From: 2010.05.17/outbox.cif.g08.bks.cpg/sg2_174_cif.got.tgz:346292.got - 2010.06.03 11:33:40.
