data_PCOD9048693
_publ_section_title
;
Structure prediction by ZEFSAII (Michael W. Deem and Ramdas Pophale) SiO2 
 PCOD9048693
Probable space group: P -1
;
_chemical_formula_sum "Si O2"
_cell_formula_units_Z 16
_cell_length_a 9.136169
_cell_length_b 14.880399
_cell_length_c 9.425786
_cell_angle_alpha 95.392724
_cell_angle_beta 35.512225
_cell_angle_gamma 104.348348
_cell_volume 707.797412
_symmetry_space_group_name_H-M "P -1"
_symmetry_group_IT_number 2
_symmetry_cell_setting 'triclinic'
loop_
_space_group_symop_operation_xyz
x,y,z
-x,-y,-z
loop_
_atom_site_type_symbol
_atom_site_label
_atom_site_fract_x
_atom_site_fract_y
_atom_site_fract_z
Si Si1 0.057915 0.970258 0.291057
Si Si2 0.371595 0.490997 0.754415
Si Si3 0.153141 0.541583 0.524780
Si Si4 0.760225 0.242444 0.504996
Si Si5 0.299780 0.180528 0.093132
Si Si6 0.482513 0.097531 0.459915
Si Si7 0.917510 0.384202 0.924122
Si Si8 0.311262 0.823240 0.987322
O O1 0.809150 0.922395 0.379557
O O2 0.223085 0.896646 0.164740
O O3 0.000000 0.000000 0.500000
O O4 0.211756 0.068938 0.110858
O O5 0.500000 0.500000 0.500000
O O6 0.541505 0.454579 0.725966
O O7 0.091818 0.415048 0.932122
O O8 0.354584 0.594280 0.821907
O O9 0.146651 0.645781 0.581259
O O10 0.000000 0.500000 0.500000
O O11 0.032093 0.462247 0.725881
O O12 0.588676 0.179484 0.504506
O O13 0.031343 0.212181 0.305053
O O14 0.550481 0.228383 0.799962
O O15 0.424204 0.190177 0.154612
O O16 0.500000 0.000000 0.500000
O O17 0.656190 0.131046 0.186982
O O18 0.891239 0.280446 0.879231
#
# Coordination Sequence:
#
# PCOD9048693 Si02
#       8
#     2   2   2   2   2   2   2   2
#     4  12  26  50  77 109 154 201 261 319 395 462
#     4   9  22  43  68  96 148 186 249 305 373 443
#     4  11  26  45  72 105 154 198 253 314 384 448
#     4  12  30  48  79 115 159 205 254 328 389 455
#     4  12  27  52  76 110 157 203 263 308 390 474
#     4  12  28  47  73 114 153 197 255 327 391 456
#     4  10  24  45  71 105 143 197 256 308 372 459
#     4  12  28  44  82 105 148 210 260 315 387 471
#
# _framework density 22.605336999999999
#
# number of rings (size 3 to 8) (size 9 to 14) (size 15 to 20)
#    0.000    0.750    2.500    2.625   12.250    2.500 
#    0.000    0.000    0.000    0.000    0.000    0.000 
#    0.000    0.000    0.000    0.000    0.000    0.000 
#
# Total GULP energy -89356.763566 kJ/mol
# GULP energy per Si atom -5584.797723 kJ/mol
# Density = 2.255389 g / cm^3
# Si number density = 22.605337 Si / 1000 Ang^3
#
#
#
# Elastic Constant Matrix: (Units=GPa)
#
#
# Indices 1 2 3 4 5 6 
#
# 1 166.2093 49.1107 33.6760 -1.5308 -13.6449 3.6937
# 2 49.1107 173.5501 41.4293 -16.3382 -4.3342 -5.7372
# 3 33.6760 41.4293 91.3194 -9.1378 7.6662 -19.3718
# 4 -1.5308 -16.3382 -9.1378 30.2582 -8.0357 -3.8719
# 5 -13.6449 -4.3342 7.6662 -8.0357 41.8333 4.6643
# 6 3.6937 -5.7372 -19.3718 -3.8719 4.6643 26.5954
#
#
#
# Elastic Compliance Matrix: (Units=1/GPa)
#
#
# Indices 1 2 3 4 5 6 
#
# 1 0.007514 -0.001484 -0.003472 -0.001208 0.003218 -0.004633
# 2 -0.001484 0.007118 -0.002393 0.003431 0.001321 0.000266
# 3 -0.003472 -0.002393 0.017133 0.004088 -0.005292 0.013969
# 4 -0.001208 0.003431 0.004088 0.038676 0.005692 0.008518
# 5 0.003218 0.001321 -0.005292 0.005692 0.028058 -0.008109
# 6 -0.004633 0.000266 0.013969 0.008518 -0.008109 0.051138
#
#
# Mechanical properties :
#
#
# Convention : Reuss Voigt Hill
#
# Bulk Modulus (GPa) = 58.58933 75.50120 67.04527
# Shear Modulus (GPa) = 29.40736 40.19489 34.80113
#
# Velocity S-wave (km/s) = 3.61072 4.22134 3.92791
# Velocity P-wave (km/s) = 6.58465 7.56518 7.09188
#
# Compressibility (1/GPa) = 0.01706795
#
# Stress axis : x y z
#
# Youngs Moduli (GPa) = 133.07743 140.48795 58.36663
#
# Poissons Ratio (x) = 0.20851 0.20262
# Poissons Ratio (y) = 0.19751 0.13968
# Poissons Ratio (z) = 0.46198 0.33620
#
# Static dielectric constant tensor:
#      x y z
#    x 1.896360 -0.020090 -0.059180 
#    y -0.020090 1.787840 0.024310 
#    z -0.059180 0.024310 1.973750 
# 
# From -- ./inp_files/207490.got.cif
#   From: 2010.05.17/outbox.cif.g08.bks.cpg/sg2_104_cif.got.tgz:207490.got - 2010.06.03 11:33:40.
