data_PCOD9048927
_publ_section_title
;
Structure prediction by ZEFSAII (Michael W. Deem and Ramdas Pophale) SiO2 
 PCOD9048927
Probable space group: P -1
;
_chemical_formula_sum "Si O2"
_cell_formula_units_Z 14
_cell_length_a 19.992121
_cell_length_b 5.267453
_cell_length_c 11.349563
_cell_angle_alpha 80.314407
_cell_angle_beta 150.723326
_cell_angle_gamma 96.443540
_cell_volume 574.671824
_symmetry_space_group_name_H-M "P -1"
_symmetry_group_IT_number 2
_symmetry_cell_setting 'triclinic'
loop_
_space_group_symop_operation_xyz
x,y,z
-x,-y,-z
loop_
_atom_site_type_symbol
_atom_site_label
_atom_site_fract_x
_atom_site_fract_y
_atom_site_fract_z
Si Si1 0.492045 0.790607 0.837969
Si Si2 0.916025 0.269896 0.837502
Si Si3 0.262524 0.514688 0.855293
Si Si4 0.278321 0.941910 0.684982
Si Si5 0.922871 0.624809 0.617991
Si Si6 0.678986 0.061349 0.644827
Si Si7 0.244393 0.522746 0.103877
O O1 0.359531 0.783321 0.718048
O O2 0.448465 0.945539 0.640012
O O3 0.581104 0.539767 0.947421
O O4 0.601589 0.911492 0.079680
O O5 0.898898 0.356047 0.668374
O O6 0.783502 0.223586 0.715301
O O7 0.000000 0.500000 0.000000
O O8 0.000000 0.000000 0.000000
O O9 0.219545 0.793988 0.716759
O O10 0.151050 0.359340 0.624365
O O11 0.264656 0.484583 0.998939
O O12 0.163245 0.161400 0.452887
O O13 0.085480 0.635717 0.863283
O O14 0.663242 0.256836 0.717109
O O15 0.730961 0.765846 0.778853
#
# Coordination Sequence:
#
# PCOD9048927 Si02
#       7
#     2   2   2   2   2   2   2
#     4  10  25  46  73 105 140 188 250 296 363 412
#     4  12  24  44  71 106 146 182 232 294 362 424
#     4  11  26  47  72 100 146 195 244 296 348 431
#     4  10  24  45  76 105 141 186 246 305 354 420
#     4  11  25  44  73 110 138 188 235 303 362 424
#     4  12  27  46  73 107 148 192 236 299 357 433
#     4  12  29  46  73 108 148 194 238 289 367 433
#
# _framework density 24.361733000000001
#
# number of rings (size 3 to 8) (size 9 to 14) (size 15 to 20)
#    0.000    0.857    2.857    1.714   14.000    2.857 
#    0.000    0.000    0.000    0.000    0.000    0.000 
#    0.000    0.000    0.000    0.000    0.000    0.000 
#
# Total GULP energy -78140.558392 kJ/mol
# GULP energy per Si atom -5581.468457 kJ/mol
# Density = 2.430628 g / cm^3
# Si number density = 24.361733 Si / 1000 Ang^3
#
#
#
# Elastic Constant Matrix: (Units=GPa)
#
#
# Indices 1 2 3 4 5 6 
#
# 1 98.4709 15.4625 51.2353 -7.1746 -24.5230 -10.1481
# 2 15.4625 84.4816 47.2474 -21.8639 6.5237 -6.8108
# 3 51.2353 47.2474 93.4790 -59.7069 -12.1110 -20.2613
# 4 -7.1746 -21.8639 -59.7069 0.0489 15.1364 -10.2416
# 5 -24.5230 6.5237 -12.1110 15.1364 27.7697 0.9030
# 6 -10.1481 -6.8108 -20.2613 -10.2416 0.9030 23.9921
#
#
#
# Elastic Compliance Matrix: (Units=1/GPa)
#
#
# Indices 1 2 3 4 5 6 
#
# 1 0.013913 -0.000675 -0.000549 0.006240 0.008558 0.007572
# 2 -0.000675 0.018221 -0.008909 0.002347 -0.010000 -0.001258
# 3 -0.000549 -0.008909 0.007134 -0.014526 0.012748 -0.003417
# 4 0.006240 0.002347 -0.014526 -0.011827 0.005533 -0.014218
# 5 0.008558 -0.010000 0.012748 0.005533 0.048067 0.012100
# 6 0.007572 -0.001258 -0.003417 -0.014218 0.012100 0.035116
#
#
# Mechanical properties :
#
#
# Convention : Reuss Voigt Hill
#
# Bulk Modulus (GPa) = 52.62216 56.03576 54.32896
# Shear Modulus (GPa) = 36.43700 21.19457 28.81579
#
# Velocity S-wave (km/s) = 3.87158 2.95277 3.44296
# Velocity P-wave (km/s) = 6.45234 5.88868 6.17695
#
# Compressibility (1/GPa) = 0.01900340
#
# Stress axis : x y z
#
# Youngs Moduli (GPa) = 71.87497 54.88185 140.16996
#
# Poissons Ratio (x) = 0.03705 0.07692
# Poissons Ratio (y) = 0.04852 1.24872
# Poissons Ratio (z) = 0.03944 0.48892
#
# Static dielectric constant tensor:
#      x y z
#    x 2.064980 -0.059650 -0.013480 
#    y -0.059650 2.007660 0.082620 
#    z -0.013480 0.082620 2.055200 
# 
# From -- ./inp_files/467868.got.cif
#   From: 2010.05.17/outbox.cif.g08.bks.cpg/sg2_234_cif.got.tgz:467868.got - 2010.06.03 11:33:40.
