data_PCOD9048135
_publ_section_title
;
Structure prediction by ZEFSAII (Michael W. Deem and Ramdas Pophale) SiO2 
 PCOD9048135
Probable space group: P -1
;
_chemical_formula_sum "Si O2"
_cell_formula_units_Z 16
_cell_length_a 13.991489
_cell_length_b 10.033389
_cell_length_c 9.938561
_cell_angle_alpha 53.607257
_cell_angle_beta 141.084028
_cell_angle_gamma 131.647406
_cell_volume 646.214392
_symmetry_space_group_name_H-M "P -1"
_symmetry_group_IT_number 2
_symmetry_cell_setting 'triclinic'
loop_
_space_group_symop_operation_xyz
x,y,z
-x,-y,-z
loop_
_atom_site_type_symbol
_atom_site_label
_atom_site_fract_x
_atom_site_fract_y
_atom_site_fract_z
Si Si1 0.330638 0.471908 0.538436
Si Si2 0.916406 0.111734 0.927872
Si Si3 0.244365 0.244497 0.336460
Si Si4 0.407907 0.222968 0.249988
Si Si5 0.654803 0.060347 0.231551
Si Si6 0.934189 0.642565 0.290235
Si Si7 0.995892 0.819296 0.529625
Si Si8 0.561671 0.361024 0.053157
O O1 0.408521 0.683304 0.535441
O O2 0.147326 0.356625 0.460827
O O3 0.322212 0.425419 0.400470
O O4 0.442131 0.378901 0.793364
O O5 0.959316 0.277504 0.774014
O O6 0.044180 0.182182 0.149913
O O7 0.310877 0.264409 0.245595
O O8 0.722400 0.980505 0.807861
O O9 0.301833 0.096012 0.557105
O O10 0.000000 0.000000 0.000000
O O11 0.460424 0.324532 0.103399
O O12 0.261067 0.472743 0.868779
O O13 0.820514 0.174088 0.261524
O O14 0.500000 0.000000 0.000000
O O15 0.960266 0.793750 0.344018
O O16 0.613266 0.189885 0.209130
O O17 0.000000 0.500000 0.500000
O O18 0.000000 0.000000 0.500000
#
# Coordination Sequence:
#
# PCOD9048135 Si02
#       8
#     2   2   2   2   2   2   2   2
#     4  12  25  43  74 108 144 199 255 306 358 463
#     4  10  24  44  74 105 150 197 248 301 380 442
#     4  11  24  45  72 103 150 198 246 300 380 444
#     4  11  25  43  72 110 146 188 249 312 375 437
#     4  12  25  46  70 109 147 198 241 316 374 447
#     4  12  26  48  78 110 151 200 252 312 375 446
#     4  12  24  43  76 106 147 194 261 296 365 449
#     4  12  25  43  75 109 150 188 255 314 373 435
#
# _framework density 24.759587
#
# number of rings (size 3 to 8) (size 9 to 14) (size 15 to 20)
#    0.000    0.500    5.000    3.750    5.250    1.500 
#    0.000    0.000    0.000    1.500    0.000    0.000 
#    0.000    0.000    0.000    0.000    0.000    0.000 
#
# Total GULP energy -89263.142619 kJ/mol
# GULP energy per Si atom -5578.946414 kJ/mol
# Density = 2.470323 g / cm^3
# Si number density = 24.759587 Si / 1000 Ang^3
#
#
#
# Elastic Constant Matrix: (Units=GPa)
#
#
# Indices 1 2 3 4 5 6 
#
# 1 113.8246 44.7709 58.4621 16.1173 6.2971 34.4785
# 2 44.7709 113.2137 79.3788 19.3080 1.2547 35.0488
# 3 58.4621 79.3788 142.0316 28.1021 0.3971 18.0376
# 4 16.1173 19.3080 28.1021 50.1417 3.1071 11.1343
# 5 6.2971 1.2547 0.3971 3.1071 46.0912 11.3598
# 6 34.4785 35.0488 18.0376 11.1343 11.3598 57.6298
#
#
#
# Elastic Compliance Matrix: (Units=1/GPa)
#
#
# Indices 1 2 3 4 5 6 
#
# 1 0.013070 0.000013 -0.004534 -0.000250 -0.000171 -0.006327
# 2 0.000013 0.017481 -0.008711 -0.000132 0.001629 -0.008209
# 3 -0.004534 -0.008711 0.014009 -0.004016 -0.000082 0.004418
# 4 -0.000250 -0.000132 -0.004016 0.022996 -0.000787 -0.002801
# 5 -0.000171 0.001629 -0.000082 -0.000787 0.023023 -0.005249
# 6 -0.006327 -0.008209 0.004418 -0.002801 -0.005249 0.026323
#
#
# Mechanical properties :
#
#
# Convention : Reuss Voigt Hill
#
# Bulk Modulus (GPa) = 55.25920 81.58818 68.42369
# Shear Modulus (GPa) = 33.46771 43.20309 38.33540
#
# Velocity S-wave (km/s) = 3.68055 4.18174 3.93912
# Velocity P-wave (km/s) = 6.35835 7.50597 6.95587
#
# Compressibility (1/GPa) = 0.01809653
#
# Stress axis : x y z
#
# Youngs Moduli (GPa) = 76.51051 57.20453 71.38125
#
# Poissons Ratio (x) = -0.00077 0.32364
# Poissons Ratio (y) = -0.00103 0.62183
# Poissons Ratio (z) = 0.34689 0.49833
#
# Static dielectric constant tensor:
#      x y z
#    x 2.013610 -0.026920 -0.011300 
#    y -0.026920 2.176280 -0.002280 
#    z -0.011300 -0.002280 2.063290 
# 
# From -- ./inp_files/463688.got.cif
#   From: 2010.05.17/outbox.cif.g08.bks.cpg/sg2_232_cif.got.tgz:463688.got - 2010.06.03 11:33:40.
