data_PCOD9048862
_publ_section_title
;
Structure prediction by ZEFSAII (Michael W. Deem and Ramdas Pophale) SiO2 
 PCOD9048862
Probable space group: P -1
;
_chemical_formula_sum "Si O2"
_cell_formula_units_Z 15
_cell_length_a 9.130748
_cell_length_b 13.180277
_cell_length_c 8.130517
_cell_angle_alpha 131.718258
_cell_angle_beta 87.012428
_cell_angle_gamma 67.301702
_cell_volume 602.191254
_symmetry_space_group_name_H-M "P -1"
_symmetry_group_IT_number 2
_symmetry_cell_setting 'triclinic'
loop_
_space_group_symop_operation_xyz
x,y,z
-x,-y,-z
loop_
_atom_site_type_symbol
_atom_site_label
_atom_site_fract_x
_atom_site_fract_y
_atom_site_fract_z
Si Si1 0.676311 0.169145 0.308927
Si Si2 0.500000 0.000000 0.000000
Si Si3 0.950116 0.887525 0.214657
Si Si4 0.419320 0.507435 0.187378
Si Si5 0.706095 0.151322 0.920448
Si Si6 0.873795 0.683861 0.782282
Si Si7 0.185638 0.423110 0.990457
Si Si8 0.326405 0.104690 0.513640
O O1 0.583572 0.359227 0.557966
O O2 0.813293 0.064450 0.331994
O O3 0.762764 0.139354 0.092038
O O4 0.552740 0.103322 0.222270
O O5 0.705743 0.822147 0.837040
O O6 0.845557 0.867843 0.348886
O O7 0.133185 0.870439 0.219160
O O8 0.981787 0.756819 0.928595
O O9 0.228856 0.550846 0.185550
O O10 0.500000 0.500000 0.000000
O O11 0.534202 0.328424 0.072303
O O12 0.654685 0.016402 0.764415
O O13 0.796279 0.663894 0.933410
O O14 0.000000 0.500000 0.500000
O O15 0.305980 0.278100 0.696649
O O16 0.000000 0.500000 0.000000
O O17 0.500000 0.000000 0.500000
#
# Coordination Sequence:
#
# PCOD9048862 Si02
#       8
#     2   1   2   2   2   2   2   2
#     4  11  26  43  72 104 140 180 244 292 369 428
#     4  10  24  46  74 104 146 190 242 304 364 444
#     4  10  25  44  68 106 136 182 237 291 362 433
#     4  12  28  44  70 103 142 188 236 295 363 431
#     4  12  25  44  73 100 142 186 229 301 363 426
#     4  10  24  45  74 104 143 188 242 299 368 434
#     4  11  27  46  70 106 142 187 247 293 362 440
#     4  11  24  47  72  97 141 187 242 289 352 443
#
# _framework density 24.909030999999999
#
# number of rings (size 3 to 8) (size 9 to 14) (size 15 to 20)
#    0.000    1.067    1.333    2.800   13.067    2.133 
#    0.000    0.000    0.000    0.000    0.000    0.000 
#    0.000    0.000    0.000    0.000    0.000    0.000 
#
# Total GULP energy -83609.417872 kJ/mol
# GULP energy per Si atom -5573.961191 kJ/mol
# Density = 2.485234 g / cm^3
# Si number density = 24.909031 Si / 1000 Ang^3
#
#
#
# Elastic Constant Matrix: (Units=GPa)
#
#
# Indices 1 2 3 4 5 6 
#
# 1 117.0668 6.0695 23.5425 16.0871 34.4201 -23.6889
# 2 6.0695 90.4826 27.1778 15.3264 10.9777 -12.4832
# 3 23.5425 27.1778 153.4406 20.5564 29.0658 -14.0729
# 4 16.0871 15.3264 20.5564 38.5319 5.7406 -3.6354
# 5 34.4201 10.9777 29.0658 5.7406 37.4057 -1.2443
# 6 -23.6889 -12.4832 -14.0729 -3.6354 -1.2443 41.2563
#
#
#
# Elastic Compliance Matrix: (Units=1/GPa)
#
#
# Indices 1 2 3 4 5 6 
#
# 1 0.014855 0.002371 0.001527 -0.004961 -0.014494 0.008894
# 2 0.002371 0.013094 -0.000781 -0.004678 -0.004549 0.004507
# 3 0.001527 -0.000781 0.008527 -0.003524 -0.007160 0.003022
# 4 -0.004961 -0.004678 -0.003524 0.030945 0.003840 -0.002624
# 5 -0.014494 -0.004549 -0.007160 0.003840 0.046035 -0.010415
# 6 0.008894 0.004507 0.003022 -0.002624 -0.010415 0.031195
#
#
# Mechanical properties :
#
#
# Convention : Reuss Voigt Hill
#
# Bulk Modulus (GPa) = 23.41439 52.72994 38.07217
# Shear Modulus (GPa) = 32.75401 43.71879 38.23640
#
# Velocity S-wave (km/s) = 3.63015 4.19398 3.92221
# Velocity P-wave (km/s) = 5.19529 6.68338 5.98576
#
# Compressibility (1/GPa) = 0.04270877
#
# Stress axis : x y z
#
# Youngs Moduli (GPa) = 67.31642 76.37316 117.27614
#
# Poissons Ratio (x) = -0.18106 -0.17906
# Poissons Ratio (y) = -0.15959 0.09159
# Poissons Ratio (z) = -0.10278 0.05965
#
# Static dielectric constant tensor:
#      x y z
#    x 2.032500 0.090670 0.013250 
#    y 0.090670 1.970680 0.059880 
#    z 0.013250 0.059880 2.070710 
# 
# From -- ./inp_files/209425.got.cif
#   From: 2010.05.17/outbox.cif.g08.bks.cpg/sg2_105_cif.got.tgz:209425.got - 2010.06.03 11:33:40.
