data_PCOD9048596
_publ_section_title
;
Structure prediction by ZEFSAII (Michael W. Deem and Ramdas Pophale) SiO2 
 PCOD9048596
Probable space group: P -1
;
_chemical_formula_sum "Si O2"
_cell_formula_units_Z 16
_cell_length_a 12.037643
_cell_length_b 14.610235
_cell_length_c 5.473351
_cell_angle_alpha 109.499132
_cell_angle_beta 97.109500
_cell_angle_gamma 128.045983
_cell_volume 640.355596
_symmetry_space_group_name_H-M "P -1"
_symmetry_group_IT_number 2
_symmetry_cell_setting 'triclinic'
loop_
_space_group_symop_operation_xyz
x,y,z
-x,-y,-z
loop_
_atom_site_type_symbol
_atom_site_label
_atom_site_fract_x
_atom_site_fract_y
_atom_site_fract_z
Si Si1 0.701007 0.180584 0.912709
Si Si2 0.853084 0.346192 0.606349
Si Si3 0.360541 0.439388 0.092824
Si Si4 0.381052 0.642507 0.549395
Si Si5 0.412441 0.097749 0.495385
Si Si6 0.133427 0.224077 0.194252
Si Si7 0.869501 0.949888 0.611478
Si Si8 0.171473 0.443399 0.679823
O O1 0.810623 0.272819 0.790176
O O2 0.539785 0.138205 0.761096
O O3 0.663513 0.044339 0.766800
O O4 0.764094 0.246267 0.256124
O O5 0.784755 0.413600 0.649255
O O6 0.034620 0.436610 0.681917
O O7 0.218716 0.406412 0.885293
O O8 0.500000 0.500000 0.000000
O O9 0.422784 0.560918 0.397313
O O10 0.270831 0.302607 0.098621
O O11 0.505442 0.791755 0.602264
O O12 0.330553 0.594957 0.772802
O O13 0.279347 0.084224 0.562359
O O14 0.180705 0.178630 0.379523
O O15 0.123529 0.330397 0.370349
O O16 0.965061 0.081518 0.932832
O O17 0.000000 0.000000 0.500000
#
# Coordination Sequence:
#
# PCOD9048596 Si02
#       8
#     2   2   2   2   2   2   2   2
#     4  10  25  48  74 110 142 194 228 311 367 438
#     4  11  25  47  78 107 147 181 251 297 372 431
#     4  11  27  46  70 103 145 193 242 294 364 429
#     4  10  26  44  67 107 135 194 233 297 353 437
#     4  10  24  45  70 102 148 180 247 288 372 430
#     4  10  25  45  67 107 137 185 246 292 369 421
#     4  11  24  44  71 103 136 189 234 307 353 432
#     4  11  25  44  74  96 146 190 235 302 359 432
#
# _framework density 24.986118999999999
#
# number of rings (size 3 to 8) (size 9 to 14) (size 15 to 20)
#    0.000    1.500    0.000    1.875   15.750    6.000 
#    9.000    0.000    0.000    0.000    0.000    0.000 
#    0.000    0.000    0.000    0.000    0.000    0.000 
#
# Total GULP energy -89576.392114 kJ/mol
# GULP energy per Si atom -5598.524507 kJ/mol
# Density = 2.492925 g / cm^3
# Si number density = 24.986119 Si / 1000 Ang^3
#
#
#
# Elastic Constant Matrix: (Units=GPa)
#
#
# Indices 1 2 3 4 5 6 
#
# 1 154.1290 58.0436 19.2562 -7.1868 -13.7750 24.8426
# 2 58.0436 160.1175 18.7516 -14.3837 -15.6415 -4.3167
# 3 19.2562 18.7516 79.8915 1.0556 -5.8411 4.5137
# 4 -7.1868 -14.3837 1.0556 30.1851 -7.3528 -11.2539
# 5 -13.7750 -15.6415 -5.8411 -7.3528 30.3118 -1.0982
# 6 24.8426 -4.3167 4.5137 -11.2539 -1.0982 39.7718
#
#
#
# Elastic Compliance Matrix: (Units=1/GPa)
#
#
# Indices 1 2 3 4 5 6 
#
# 1 0.008895 -0.003234 -0.000900 -0.001265 0.001671 -0.006117
# 2 -0.003234 0.008726 -0.001309 0.006421 0.004522 0.005058
# 3 -0.000900 -0.001309 0.013222 -0.001615 0.001017 -0.001509
# 4 -0.001265 0.006421 -0.001615 0.044804 0.013829 0.014730
# 5 0.001671 0.004522 0.001017 0.013829 0.039791 0.004343
# 6 -0.006117 0.005058 -0.001509 0.014730 0.004343 0.033972
#
#
# Mechanical properties :
#
#
# Convention : Reuss Voigt Hill
#
# Bulk Modulus (GPa) = 50.10879 65.13786 57.62333
# Shear Modulus (GPa) = 29.94930 39.92618 34.93774
#
# Velocity S-wave (km/s) = 3.46589 4.00175 3.74342
# Velocity P-wave (km/s) = 6.00955 6.89045 6.46502
#
# Compressibility (1/GPa) = 0.01995658
#
# Stress axis : x y z
#
# Youngs Moduli (GPa) = 112.42506 114.60075 75.63112
#
# Poissons Ratio (x) = 0.37065 0.06809
# Poissons Ratio (y) = 0.36362 0.09897
# Poissons Ratio (z) = 0.10122 0.14996
#
# Static dielectric constant tensor:
#      x y z
#    x 1.957580 0.009330 -0.018380 
#    y 0.009330 1.970560 -0.007370 
#    z -0.018380 -0.007370 2.076640 
# 
# From -- ./inp_files/78406.got.cif
#   From: 2010.05.17/outbox.cif.g08.bks.cpg/sg2_40_cif.got.tgz:78406.got - 2010.06.03 11:33:40.
