data_PCOD9048760
_publ_section_title
;
Structure prediction by ZEFSAII (Michael W. Deem and Ramdas Pophale) SiO2 
 PCOD9048760
Probable space group: P -1
;
_chemical_formula_sum "Si O2"
_cell_formula_units_Z 16
_cell_length_a 11.665806
_cell_length_b 8.763271
_cell_length_c 9.015427
_cell_angle_alpha 50.420668
_cell_angle_beta 112.556688
_cell_angle_gamma 119.409484
_cell_volume 615.372512
_symmetry_space_group_name_H-M "P -1"
_symmetry_group_IT_number 2
_symmetry_cell_setting 'triclinic'
loop_
_space_group_symop_operation_xyz
x,y,z
-x,-y,-z
loop_
_atom_site_type_symbol
_atom_site_label
_atom_site_fract_x
_atom_site_fract_y
_atom_site_fract_z
Si Si1 0.027633 0.001617 0.337098
Si Si2 0.444430 0.114434 0.529184
Si Si3 0.283689 0.697937 0.325706
Si Si4 0.363881 0.398916 0.083160
Si Si5 0.232191 0.097002 0.933446
Si Si6 0.126299 0.470452 0.995937
Si Si7 0.874426 0.364608 0.431638
Si Si8 0.643454 0.681870 0.425999
O O1 0.899809 0.917764 0.215725
O O2 0.117479 0.863228 0.439110
O O3 0.000000 0.000000 0.500000
O O4 0.102288 0.234611 0.176891
O O5 0.563159 0.163123 0.676184
O O6 0.411159 0.287157 0.308303
O O7 0.328974 0.101530 0.601100
O O8 0.500000 0.000000 0.500000
O O9 0.246592 0.657213 0.507320
O O10 0.262455 0.459789 0.408293
O O11 0.220540 0.853653 0.116366
O O12 0.500000 0.500000 0.000000
O O13 0.267250 0.231569 0.019698
O O14 0.290058 0.552890 0.019652
O O15 0.342941 0.234015 0.787383
O O16 0.108765 0.526607 0.784166
O O17 0.000000 0.500000 0.000000
O O18 0.000000 0.500000 0.500000
O O19 0.500000 0.500000 0.500000
#
# Coordination Sequence:
#
# PCOD9048760 Si02
#       8
#     2   2   2   2   2   2   2   2
#     4  12  28  49  76 115 160 214 274 347 406 486
#     4  11  24  45  70 106 154 200 256 325 402 471
#     4  11  24  47  75 109 152 206 262 334 409 485
#     4  12  26  49  80 118 165 213 274 337 415 498
#     4  12  26  49  79 113 158 214 281 331 416 495
#     4  12  27  51  80 119 162 217 278 343 416 495
#     4  12  25  46  79 108 153 201 268 336 413 481
#     4  10  24  45  72 106 153 201 260 332 398 483
#
# _framework density 26.000512000000001
#
# number of rings (size 3 to 8) (size 9 to 14) (size 15 to 20)
#    0.000    0.500    2.500    6.000    1.750    5.500 
#    4.500    0.000    0.000    0.000    0.000    0.000 
#    0.000    0.000    0.000    0.000    0.000    0.000 
#
# Total GULP energy -89129.515443 kJ/mol
# GULP energy per Si atom -5570.594715 kJ/mol
# Density = 2.594133 g / cm^3
# Si number density = 26.000512 Si / 1000 Ang^3
#
#
#
# Elastic Constant Matrix: (Units=GPa)
#
#
# Indices 1 2 3 4 5 6 
#
# 1 136.9432 35.9501 33.6997 -0.2352 -3.5584 -30.3312
# 2 35.9501 100.3633 25.8790 1.1951 17.0004 -20.8361
# 3 33.6997 25.8790 166.1187 5.5175 -10.0473 -17.5056
# 4 -0.2352 1.1951 5.5175 42.3726 2.2165 12.8315
# 5 -3.5584 17.0004 -10.0473 2.2165 50.4499 -2.6487
# 6 -30.3312 -20.8361 -17.5056 12.8315 -2.6487 66.8201
#
#
#
# Elastic Compliance Matrix: (Units=1/GPa)
#
#
# Indices 1 2 3 4 5 6 
#
# 1 0.008960 -0.002532 -0.000964 -0.000813 0.001499 0.003240
# 2 -0.002532 0.012498 -0.001442 -0.000643 -0.004527 0.002314
# 3 -0.000964 -0.001442 0.006723 -0.001301 0.001877 0.001198
# 4 -0.000813 -0.000643 -0.001301 0.025649 -0.001536 -0.005897
# 5 0.001499 -0.004527 0.001877 -0.001536 0.021943 0.000925
# 6 0.003240 0.002314 0.001198 -0.005897 0.000925 0.018641
#
#
# Mechanical properties :
#
#
# Convention : Reuss Voigt Hill
#
# Bulk Modulus (GPa) = 54.63336 66.05364 60.34350
# Shear Modulus (GPa) = 45.29373 52.45496 48.87434
#
# Velocity S-wave (km/s) = 4.17829 4.49649 4.34031
# Velocity P-wave (km/s) = 6.65849 7.24001 6.95533
#
# Compressibility (1/GPa) = 0.01830383
#
# Stress axis : x y z
#
# Youngs Moduli (GPa) = 111.61299 80.01560 148.74329
#
# Poissons Ratio (x) = 0.20262 0.14338
# Poissons Ratio (y) = 0.28264 0.21447
# Poissons Ratio (z) = 0.10759 0.11537
#
# Static dielectric constant tensor:
#      x y z
#    x 1.998310 0.206520 0.241110 
#    y 0.206520 2.034140 -0.153680 
#    z 0.241110 -0.153680 1.830960 
# 
# From -- ./inp_files/236905.got.cif
#   From: 2010.05.17/outbox.cif.g08.bks.cpg/sg2_119_cif.got.tgz:236905.got - 2010.06.03 11:33:40.
