data_PCOD9048875
_publ_section_title
;
Structure prediction by ZEFSAII (Michael W. Deem and Ramdas Pophale) SiO2 
 PCOD9048875
Probable space group: P -1
;
_chemical_formula_sum "Si O2"
_cell_formula_units_Z 16
_cell_length_a 5.396014
_cell_length_b 17.156760
_cell_length_c 17.291532
_cell_angle_alpha 147.320854
_cell_angle_beta 126.190926
_cell_angle_gamma 47.421664
_cell_volume 635.569414
_symmetry_space_group_name_H-M "P -1"
_symmetry_group_IT_number 2
_symmetry_cell_setting 'triclinic'
loop_
_space_group_symop_operation_xyz
x,y,z
-x,-y,-z
loop_
_atom_site_type_symbol
_atom_site_label
_atom_site_fract_x
_atom_site_fract_y
_atom_site_fract_z
Si Si1 0.754425 0.134248 0.861971
Si Si2 0.837206 0.547866 0.927128
Si Si3 0.127227 0.318345 0.102941
Si Si4 0.727707 0.349562 0.308092
Si Si5 0.583300 0.631505 0.319225
Si Si6 0.486459 0.293527 0.381963
Si Si7 0.673713 0.118105 0.650665
Si Si8 0.585744 0.088307 0.364414
O O1 0.672015 0.144066 0.763734
O O2 0.657378 0.999189 0.765742
O O3 0.497076 0.298094 0.988015
O O4 0.097454 0.151776 0.961101
O O5 0.019891 0.607055 0.945816
O O6 0.733900 0.412415 0.761505
O O7 0.000000 0.500000 0.000000
O O8 0.505708 0.300785 0.167172
O O9 0.909212 0.465091 0.241495
O O10 0.659760 0.289978 0.329386
O O11 0.576533 0.540319 0.449298
O O12 0.115084 0.293559 0.308935
O O13 0.508186 0.723732 0.300728
O O14 0.596637 0.756144 0.487550
O O15 0.691009 0.149545 0.356467
O O16 0.500000 0.000000 0.500000
O O17 0.072380 0.032049 0.632363
#
# Coordination Sequence:
#
# PCOD9048875 Si02
#       8
#     2   2   2   2   2   2   2   2
#     4  11  25  43  66  97 146 185 229 286 361 423
#     4  11  23  41  67  96 140 182 237 285 348 419
#     4  11  25  44  72 102 142 187 237 293 356 426
#     4  10  24  45  74 107 141 183 245 304 364 424
#     4  11  25  39  68 103 133 186 234 285 352 424
#     4  10  25  44  75 107 141 184 241 310 364 421
#     4  12  26  42  67 102 144 185 234 288 355 434
#     4  12  26  43  69 102 144 182 235 297 363 424
#
# _framework density 25.174275000000002
#
# number of rings (size 3 to 8) (size 9 to 14) (size 15 to 20)
#    0.000    1.000    1.250    4.125   15.750    2.000 
#    0.000    1.250    0.000    0.000    0.000    0.000 
#    0.000    0.000    0.000    0.000    0.000    0.000 
#
# Total GULP energy -89642.947885 kJ/mol
# GULP energy per Si atom -5602.684243 kJ/mol
# Density = 2.511698 g / cm^3
# Si number density = 25.174275 Si / 1000 Ang^3
#
#
#
# Elastic Constant Matrix: (Units=GPa)
#
#
# Indices 1 2 3 4 5 6 
#
# 1 89.0030 20.1702 40.3817 1.7463 24.4767 4.7578
# 2 20.1702 76.4467 22.0307 -5.2576 13.9335 12.1843
# 3 40.3817 22.0307 140.4027 -0.6244 36.4046 -12.4070
# 4 1.7463 -5.2576 -0.6244 27.7421 1.6440 3.9222
# 5 24.4767 13.9335 36.4046 1.6440 54.0906 -1.9974
# 6 4.7578 12.1843 -12.4070 3.9222 -1.9974 41.3594
#
#
#
# Elastic Compliance Matrix: (Units=1/GPa)
#
#
# Indices 1 2 3 4 5 6 
#
# 1 0.014233 -0.001897 -0.002939 -0.000789 -0.004027 -0.002080
# 2 -0.001897 0.015645 -0.001774 0.003945 -0.002297 -0.005408
# 3 -0.002939 -0.001774 0.009767 -0.000162 -0.004650 0.003582
# 4 -0.000789 0.003945 -0.000162 0.037626 -0.001870 -0.004779
# 5 -0.004027 -0.002297 -0.004650 -0.001870 0.024128 0.001088
# 6 -0.002080 -0.005408 0.003582 -0.004779 0.001088 0.027591
#
#
# Mechanical properties :
#
#
# Convention : Reuss Voigt Hill
#
# Bulk Modulus (GPa) = 37.84330 52.33530 45.08930
# Shear Modulus (GPa) = 33.10845 39.52306 36.31575
#
# Velocity S-wave (km/s) = 3.63046 3.96659 3.80224
# Velocity P-wave (km/s) = 5.71304 6.46628 6.10130
#
# Compressibility (1/GPa) = 0.02642476
#
# Stress axis : x y z
#
# Youngs Moduli (GPa) = 70.25884 63.91929 102.38133
#
# Poissons Ratio (x) = 0.12127 0.30092
# Poissons Ratio (y) = 0.13330 0.18161
# Poissons Ratio (z) = 0.20650 0.11338
#
# Static dielectric constant tensor:
#      x y z
#    x 2.145680 0.018170 -0.009630 
#    y 0.018170 1.982390 -0.012160 
#    z -0.009630 -0.012160 1.942120 
# 
# From -- ./inp_files/142670.got.cif
#   From: 2010.05.17/outbox.cif.g08.bks.cpg/sg2_72_cif.got.tgz:142670.got - 2010.06.03 11:33:40.
