data_PCOD9048892
_publ_section_title
;
Structure prediction by ZEFSAII (Michael W. Deem and Ramdas Pophale) SiO2 
 PCOD9048892
Probable space group: P -1
;
_chemical_formula_sum "Si O2"
_cell_formula_units_Z 16
_cell_length_a 8.364712
_cell_length_b 5.552328
_cell_length_c 16.808999
_cell_angle_alpha 122.511071
_cell_angle_beta 81.687295
_cell_angle_gamma 99.025750
_cell_volume 648.474474
_symmetry_space_group_name_H-M "P -1"
_symmetry_group_IT_number 2
_symmetry_cell_setting 'triclinic'
loop_
_space_group_symop_operation_xyz
x,y,z
-x,-y,-z
loop_
_atom_site_type_symbol
_atom_site_label
_atom_site_fract_x
_atom_site_fract_y
_atom_site_fract_z
Si Si1 0.307123 0.445095 0.907412
Si Si2 0.981622 0.585789 0.738167
Si Si3 0.364389 0.177152 0.688420
Si Si4 0.392913 0.243069 0.421617
Si Si5 0.395891 0.856838 0.093820
Si Si6 0.348399 0.412732 0.295273
Si Si7 0.845309 0.855166 0.440524
Si Si8 0.033174 0.723539 0.147669
O O1 0.325230 0.356821 0.799265
O O2 0.436616 0.263150 0.911541
O O3 0.114262 0.370652 0.919598
O O4 0.363790 0.770078 0.988241
O O5 0.799856 0.443700 0.707344
O O6 0.109134 0.458280 0.647058
O O7 0.007410 0.471222 0.805197
O O8 0.979279 0.928367 0.786865
O O9 0.486961 0.389488 0.665156
O O10 0.219888 0.035478 0.619410
O O11 0.481878 0.944611 0.664193
O O12 0.500000 0.500000 0.500000
O O13 0.280753 0.314547 0.369172
O O14 0.293728 0.113969 0.480135
O O15 0.224936 0.697532 0.112870
O O16 0.390361 0.171862 0.186129
O O17 0.000000 0.000000 0.500000
#
# Coordination Sequence:
#
# PCOD9048892 Si02
#       8
#     2   2   2   2   2   2   2   2
#     4  11  23  44  81 105 153 192 254 304 385 457
#     4  11  27  46  74 105 148 199 246 317 375 449
#     4  12  25  47  71 103 145 195 250 313 381 453
#     4  12  27  45  71 100 141 196 249 312 378 454
#     4  10  24  45  74 118 142 199 245 313 375 460
#     4  11  25  46  74 100 150 190 248 314 380 447
#     4  12  28  44  70 107 145 195 261 312 383 458
#     4  11  25  50  74 108 156 196 249 311 385 445
#
# _framework density 24.673292
#
# number of rings (size 3 to 8) (size 9 to 14) (size 15 to 20)
#    0.000    0.750    3.750    2.250   10.500    1.000 
#    0.000    8.125    0.000    0.000    0.000    0.000 
#    0.000    0.000    0.000    0.000    0.000    0.000 
#
# Total GULP energy -89247.726436 kJ/mol
# GULP energy per Si atom -5577.982902 kJ/mol
# Density = 2.461713 g / cm^3
# Si number density = 24.673292 Si / 1000 Ang^3
#
#
#
# Elastic Constant Matrix: (Units=GPa)
#
#
# Indices 1 2 3 4 5 6 
#
# 1 153.4498 12.1103 36.0535 -4.1787 16.8170 -16.9809
# 2 12.1103 54.9971 16.4468 -0.7887 5.3122 -7.8852
# 3 36.0535 16.4468 102.5737 -6.8550 4.7125 0.7137
# 4 -4.1787 -0.7887 -6.8550 25.5316 -3.4823 8.3763
# 5 16.8170 5.3122 4.7125 -3.4823 50.5121 -0.4861
# 6 -16.9809 -7.8852 0.7137 8.3763 -0.4861 31.4690
#
#
#
# Elastic Compliance Matrix: (Units=1/GPa)
#
#
# Indices 1 2 3 4 5 6 
#
# 1 0.007916 -0.000030 -0.002786 -0.001304 -0.002418 0.004637
# 2 -0.000030 0.020157 -0.003335 -0.002416 -0.001910 0.005724
# 3 -0.002786 -0.003335 0.011521 0.003773 0.000429 -0.003598
# 4 -0.001304 -0.002416 0.003773 0.044684 0.003289 -0.013238
# 5 -0.002418 -0.001910 0.000429 0.003289 0.020967 -0.002345
# 6 0.004637 0.005724 -0.003598 -0.013238 -0.002345 0.039283
#
#
# Mechanical properties :
#
#
# Convention : Reuss Voigt Hill
#
# Bulk Modulus (GPa) = 36.64125 48.91575 42.77850
# Shear Modulus (GPa) = 30.13365 37.92988 34.03177
#
# Velocity S-wave (km/s) = 3.49851 3.92508 3.71792
# Velocity P-wave (km/s) = 5.58590 6.35689 5.98382
#
# Compressibility (1/GPa) = 0.02729164
#
# Stress axis : x y z
#
# Youngs Moduli (GPa) = 126.32055 49.61003 86.80147
#
# Poissons Ratio (x) = 0.00150 0.24183
# Poissons Ratio (y) = 0.00383 0.28947
# Poissons Ratio (z) = 0.35193 0.16544
#
# Static dielectric constant tensor:
#      x y z
#    x 1.988600 0.038630 -0.019070 
#    y 0.038630 2.049080 0.009860 
#    z -0.019070 0.009860 1.989250 
# 
# From -- ./inp_files/553950.got.cif
#   From: 2010.05.17/outbox.cif.g08.bks.cpg/sg2_277_cif.got.tgz:553950.got - 2010.06.03 11:33:40.
