data_PCOD9048010
_publ_section_title
;
Structure prediction by ZEFSAII (Michael W. Deem and Ramdas Pophale) SiO2 
 PCOD9048010
Probable space group: P -1
;
_chemical_formula_sum "Si O2"
_cell_formula_units_Z 10
_cell_length_a 14.561149
_cell_length_b 5.311957
_cell_length_c 8.415378
_cell_angle_alpha 112.773323
_cell_angle_beta 42.385264
_cell_angle_gamma 97.197012
_cell_volume 390.838978
_symmetry_space_group_name_H-M "P -1"
_symmetry_group_IT_number 2
_symmetry_cell_setting 'triclinic'
loop_
_space_group_symop_operation_xyz
x,y,z
-x,-y,-z
loop_
_atom_site_type_symbol
_atom_site_label
_atom_site_fract_x
_atom_site_fract_y
_atom_site_fract_z
Si Si1 0.531918 0.847432 0.677258
Si Si2 0.625892 0.646676 0.843364
Si Si3 0.956628 0.205694 0.954696
Si Si4 0.107452 0.692651 0.434424
Si Si5 0.302475 0.535631 0.841308
O O1 0.612237 0.810844 0.733920
O O2 0.444460 0.614050 0.729734
O O3 0.642043 0.782246 0.377156
O O4 0.406557 0.128521 0.916966
O O5 0.777871 0.437360 0.609118
O O6 0.500000 0.500000 0.000000
O O7 0.790424 0.294349 0.144092
O O8 0.035133 0.011940 0.658778
O O9 0.000000 0.500000 0.000000
O O10 0.000000 0.000000 0.000000
O O11 0.000000 0.500000 0.500000
O O12 0.200056 0.632425 0.142836
#
# Coordination Sequence:
#
# PCOD9048010 Si02
#       5
#     2   2   2   2   2
#     4  10  24  44  72 107 140 190 248 305 373 444
#     4  11  23  45  74 103 147 188 244 304 371 444
#     4  12  28  48  76 108 153 201 253 314 381 457
#     4  12  26  48  76 111 151 198 250 313 382 450
#     4  11  24  46  72 105 147 191 251 309 373 450
#
# _framework density 25.585984
#
# number of rings (size 3 to 8) (size 9 to 14) (size 15 to 20)
#    0.000    0.800    2.000    4.200    2.800    2.400 
#    3.600    0.000    0.000    0.000    0.000    0.000 
#    0.000    0.000    0.000    0.000    0.000    0.000 
#
# Total GULP energy -55904.528140 kJ/mol
# GULP energy per Si atom -5590.452814 kJ/mol
# Density = 2.552775 g / cm^3
# Si number density = 25.585984 Si / 1000 Ang^3
#
#
#
# Elastic Constant Matrix: (Units=GPa)
#
#
# Indices 1 2 3 4 5 6 
#
# 1 93.6347 9.0182 21.6103 5.2902 -4.9515 -13.1458
# 2 9.0182 77.0013 27.1680 16.6496 19.4126 7.2971
# 3 21.6103 27.1680 185.1678 36.3924 31.7177 9.0001
# 4 5.2902 16.6496 36.3924 47.5788 -3.9298 1.2708
# 5 -4.9515 19.4126 31.7177 -3.9298 56.6396 9.3798
# 6 -13.1458 7.2971 9.0001 1.2708 9.3798 36.0938
#
#
#
# Elastic Compliance Matrix: (Units=1/GPa)
#
#
# Indices 1 2 3 4 5 6 
#
# 1 0.012003 -0.001869 -0.001849 0.000775 0.002007 0.004662
# 2 -0.001869 0.016123 0.000124 -0.005948 -0.005798 -0.002255
# 3 -0.001849 0.000124 0.007651 -0.006048 -0.004715 -0.001168
# 4 0.000775 -0.005948 -0.006048 0.028252 0.007443 0.000064
# 5 0.002007 -0.005798 -0.004715 0.007443 0.023521 -0.003295
# 6 0.004662 -0.002255 -0.001168 0.000064 -0.003295 0.031005
#
#
# Mechanical properties :
#
#
# Convention : Reuss Voigt Hill
#
# Bulk Modulus (GPa) = 34.97676 52.37743 43.67710
# Shear Modulus (GPa) = 36.96187 47.92959 42.44573
#
# Velocity S-wave (km/s) = 3.80493 4.33283 4.07743
# Velocity P-wave (km/s) = 5.74485 6.74884 6.26698
#
# Compressibility (1/GPa) = 0.02859041
#
# Stress axis : x y z
#
# Youngs Moduli (GPa) = 83.30913 62.02145 130.69644
#
# Poissons Ratio (x) = 0.11590 0.24172
# Poissons Ratio (y) = 0.15568 -0.01625
# Poissons Ratio (z) = 0.15408 -0.00771
#
# Static dielectric constant tensor:
#      x y z
#    x 1.973590 -0.051450 0.105690 
#    y -0.051450 2.310290 0.149380 
#    z 0.105690 0.149380 2.184440 
# 
# From -- ./inp_files/17899.got.cif
#   From: 2010.05.17/outbox.cif.g08.bks.cpg/sg2_9_cif.got.tgz:17899.got - 2010.06.03 11:33:40.
