data_PCOD9048956
_publ_section_title
;
Structure prediction by ZEFSAII (Michael W. Deem and Ramdas Pophale) SiO2 
 PCOD9048956
Probable space group: P -1
;
_chemical_formula_sum "Si O2"
_cell_formula_units_Z 12
_cell_length_a 9.206161
_cell_length_b 10.802413
_cell_length_c 9.026232
_cell_angle_alpha 128.520348
_cell_angle_beta 93.676351
_cell_angle_gamma 121.815226
_cell_volume 481.722291
_symmetry_space_group_name_H-M "P -1"
_symmetry_group_IT_number 2
_symmetry_cell_setting 'triclinic'
loop_
_space_group_symop_operation_xyz
x,y,z
-x,-y,-z
loop_
_atom_site_type_symbol
_atom_site_label
_atom_site_fract_x
_atom_site_fract_y
_atom_site_fract_z
Si Si1 0.905906 0.807334 0.470533
Si Si2 0.478784 0.996014 0.725067
Si Si3 0.375017 0.221242 0.354462
Si Si4 0.807707 0.472234 0.975557
Si Si5 0.197737 0.950548 0.869331
Si Si6 0.181280 0.486055 0.312701
O O1 0.716951 0.743659 0.497746
O O2 0.082226 0.913588 0.685595
O O3 0.833097 0.597524 0.216739
O O4 0.000000 0.000000 0.500000
O O5 0.638136 0.975464 0.744887
O O6 0.261220 0.730254 0.476975
O O7 0.416230 0.042173 0.902304
O O8 0.585922 0.201961 0.773267
O O9 0.250896 0.128601 0.123453
O O10 0.628262 0.439294 0.523268
O O11 0.817960 0.578836 0.902834
O O12 0.000000 0.500000 0.000000
O O13 0.035600 0.705062 0.758677
#
# Coordination Sequence:
#
# PCOD9048956 Si02
#       6
#     2   2   2   2   2   2
#     4  12  28  47  72 106 149 189 242 302 365 425
#     4  10  24  45  77 108 141 189 244 292 354 432
#     4  10  26  46  73 106 149 183 245 291 363 421
#     4  12  25  46  77 107 146 195 240 294 363 429
#     4  12  24  47  76 107 145 192 240 300 359 426
#     4  10  25  44  77 104 148 184 247 292 358 422
#
# _framework density 24.910620000000002
#
# number of rings (size 3 to 8) (size 9 to 14) (size 15 to 20)
#    1.000    0.000    0.000    6.000    4.667    1.333 
#    3.000    0.000    0.000    0.000    0.000    0.000 
#    0.000    0.000    0.000    0.000    0.000    0.000 
#
# Total GULP energy -67152.900195 kJ/mol
# GULP energy per Si atom -5596.075016 kJ/mol
# Density = 2.485392 g / cm^3
# Si number density = 24.910620 Si / 1000 Ang^3
#
#
#
# Elastic Constant Matrix: (Units=GPa)
#
#
# Indices 1 2 3 4 5 6 
#
# 1 93.4895 33.5563 28.2478 -4.9712 -12.1244 26.4414
# 2 33.5563 167.4599 52.6015 1.0705 -3.6078 11.0355
# 3 28.2478 52.6015 107.2507 -12.2627 -16.3726 1.5765
# 4 -4.9712 1.0705 -12.2627 52.5681 2.1525 4.1477
# 5 -12.1244 -3.6078 -16.3726 2.1525 38.7710 -14.8014
# 6 26.4414 11.0355 1.5765 4.1477 -14.8014 44.8516
#
#
#
# Elastic Compliance Matrix: (Units=1/GPa)
#
#
# Indices 1 2 3 4 5 6 
#
# 1 0.014468 -0.001488 -0.002802 0.001392 -0.000003 -0.008194
# 2 -0.001488 0.007465 -0.003628 -0.000963 -0.001754 -0.001322
# 3 -0.002802 -0.003628 0.012891 0.002298 0.005514 0.003698
# 4 0.001392 -0.000963 0.002298 0.019966 -0.000859 -0.002794
# 5 -0.000003 -0.001754 0.005514 -0.000859 0.032181 0.010939
# 6 -0.008194 -0.001322 0.003698 -0.002794 0.010939 0.031190
#
#
# Mechanical properties :
#
#
# Convention : Reuss Voigt Hill
#
# Bulk Modulus (GPa) = 52.66032 66.33459 59.49746
# Shear Modulus (GPa) = 35.63145 44.15776 39.89460
#
# Velocity S-wave (km/s) = 3.78613 4.21485 4.00623
# Velocity P-wave (km/s) = 6.34812 7.09743 6.73320
#
# Compressibility (1/GPa) = 0.01898963
#
# Stress axis : x y z
#
# Youngs Moduli (GPa) = 69.11658 133.96400 77.57212
#
# Poissons Ratio (x) = 0.19935 0.21733
# Poissons Ratio (y) = 0.10285 0.28139
# Poissons Ratio (z) = 0.19364 0.48596
#
# Static dielectric constant tensor:
#      x y z
#    x 2.018110 -0.038530 -0.021290 
#    y -0.038530 1.979540 -0.018830 
#    z -0.021290 -0.018830 2.028470 
# 
# From -- ./inp_files/388604.got.cif
#   From: 2010.05.17/outbox.cif.g08.bks.cpg/sg2_195_cif.got.tgz:388604.got - 2010.06.03 11:33:40.
