data_PCOD9048603
_publ_section_title
;
Structure prediction by ZEFSAII (Michael W. Deem and Ramdas Pophale) SiO2 
 PCOD9048603
Probable space group: P -1
;
_chemical_formula_sum "Si O2"
_cell_formula_units_Z 16
_cell_length_a 14.288484
_cell_length_b 16.870515
_cell_length_c 5.565744
_cell_angle_alpha 69.494985
_cell_angle_beta 67.790210
_cell_angle_gamma 30.584013
_cell_volume 631.101809
_symmetry_space_group_name_H-M "P -1"
_symmetry_group_IT_number 2
_symmetry_cell_setting 'triclinic'
loop_
_space_group_symop_operation_xyz
x,y,z
-x,-y,-z
loop_
_atom_site_type_symbol
_atom_site_label
_atom_site_fract_x
_atom_site_fract_y
_atom_site_fract_z
Si Si1 0.568152 0.233757 0.736157
Si Si2 0.820245 0.507609 0.910252
Si Si3 0.225891 0.229238 0.968120
Si Si4 0.728383 0.903778 0.443729
Si Si5 0.331671 0.650124 0.349018
Si Si6 0.394962 0.259194 0.506729
Si Si7 0.970826 0.923680 0.684278
Si Si8 0.107664 0.719458 0.159398
O O1 0.641702 0.268191 0.750306
O O2 0.485426 0.282798 0.494753
O O3 0.386302 0.339290 0.947960
O O4 0.757264 0.046011 0.734839
O O5 0.791890 0.586622 0.620853
O O6 0.845976 0.391256 0.941677
O O7 0.002038 0.400590 0.002254
O O8 0.264208 0.149825 0.764930
O O9 0.332411 0.241490 0.802536
O O10 0.288322 0.142461 0.250333
O O11 0.929709 0.806361 0.378908
O O12 0.559427 0.089742 0.401550
O O13 0.500000 0.500000 0.500000
O O14 0.132089 0.767603 0.537237
O O15 0.304370 0.614210 0.178397
O O16 0.025833 0.861640 0.965399
O O17 0.000000 0.000000 0.500000
#
# Coordination Sequence:
#
# PCOD9048603 Si02
#       8
#     2   2   2   2   2   2   2   2
#     4  11  26  41  70 104 147 190 250 303 380 442
#     4  11  27  43  72 107 150 199 254 304 391 437
#     4  11  28  49  78 112 150 202 254 314 379 455
#     4  11  27  48  82 110 150 202 257 307 387 445
#     4  11  24  42  72 102 145 192 250 308 374 451
#     4  12  26  46  73 109 153 194 251 319 375 452
#     4  10  24  45  70 103 143 189 250 305 380 440
#     4  11  25  45  74 102 149 197 248 316 368 454
#
# _framework density 25.352487
#
# number of rings (size 3 to 8) (size 9 to 14) (size 15 to 20)
#    0.000    1.000    0.000    4.125   15.750    6.500 
#    0.000    0.000    0.000    0.000    0.000    0.000 
#    0.000    0.000    0.000    0.000    0.000    0.000 
#
# Total GULP energy -89310.505012 kJ/mol
# GULP energy per Si atom -5581.906563 kJ/mol
# Density = 2.529478 g / cm^3
# Si number density = 25.352487 Si / 1000 Ang^3
#
#
#
# Elastic Constant Matrix: (Units=GPa)
#
#
# Indices 1 2 3 4 5 6 
#
# 1 141.1727 40.3733 18.3288 11.2656 4.6723 -6.5485
# 2 40.3733 105.7893 26.6183 -8.9044 -9.7330 -25.2975
# 3 18.3288 26.6183 84.1662 -6.6793 -14.3457 14.0383
# 4 11.2656 -8.9044 -6.6793 41.3605 -11.1185 -6.6677
# 5 4.6723 -9.7330 -14.3457 -11.1185 26.6561 -5.9569
# 6 -6.5485 -25.2975 14.0383 -6.6677 -5.9569 39.8164
#
#
#
# Elastic Compliance Matrix: (Units=1/GPa)
#
#
# Indices 1 2 3 4 5 6 
#
# 1 0.009492 -0.005393 -0.001692 -0.006809 -0.008196 -0.003635
# 2 -0.005393 0.018730 -0.004246 0.011190 0.013844 0.016455
# 3 -0.001692 -0.004246 0.016227 0.002925 0.007103 -0.007145
# 4 -0.006809 0.011190 0.002925 0.038463 0.026324 0.015338
# 5 -0.008196 0.013844 0.007103 0.026324 0.063005 0.018778
# 6 -0.003635 0.016455 -0.007145 0.015338 0.018778 0.042869
#
#
# Mechanical properties :
#
#
# Convention : Reuss Voigt Hill
#
# Bulk Modulus (GPa) = 45.90202 55.75213 50.82707
# Shear Modulus (GPa) = 22.86135 37.95378 30.40756
#
# Velocity S-wave (km/s) = 3.00616 3.87336 3.46698
# Velocity P-wave (km/s) = 5.49492 6.48401 6.00985
#
# Compressibility (1/GPa) = 0.02178554
#
# Stress axis : x y z
#
# Youngs Moduli (GPa) = 105.35690 53.39119 61.62530
#
# Poissons Ratio (x) = 0.28794 0.10429
# Poissons Ratio (y) = 0.56819 0.26166
# Poissons Ratio (z) = 0.17831 0.22670
#
# Static dielectric constant tensor:
#      x y z
#    x 2.091880 0.099560 0.180970 
#    y 0.099560 2.144990 0.127180 
#    z 0.180970 0.127180 2.328170 
# 
# From -- ./inp_files/99585.got.cif
#   From: 2010.05.17/outbox.cif.g08.bks.cpg/sg2_50_cif.got.tgz:99585.got - 2010.06.03 11:33:40.
