data_PCOD9048322
_publ_section_title
;
Structure prediction by ZEFSAII (Michael W. Deem and Ramdas Pophale) SiO2 
 PCOD9048322
Probable space group: P -1
;
_chemical_formula_sum "Si O2"
_cell_formula_units_Z 14
_cell_length_a 17.738467
_cell_length_b 11.445818
_cell_length_c 6.789616
_cell_angle_alpha 124.135434
_cell_angle_beta 46.585880
_cell_angle_gamma 141.003820
_cell_volume 629.018421
_symmetry_space_group_name_H-M "P -1"
_symmetry_group_IT_number 2
_symmetry_cell_setting 'triclinic'
loop_
_space_group_symop_operation_xyz
x,y,z
-x,-y,-z
loop_
_atom_site_type_symbol
_atom_site_label
_atom_site_fract_x
_atom_site_fract_y
_atom_site_fract_z
Si Si1 0.302884 0.773961 0.227525
Si Si2 0.528772 0.790224 0.625839
Si Si3 0.078674 0.503974 0.055311
Si Si4 0.763283 0.789634 0.335835
Si Si5 0.377881 0.475216 0.292772
Si Si6 0.005264 0.223312 0.233569
Si Si7 0.182250 0.479578 0.481646
O O1 0.243365 0.667014 0.438954
O O2 0.373463 0.986123 0.339672
O O3 0.410450 0.746404 0.942174
O O4 0.186463 0.676029 0.171996
O O5 0.623112 0.737283 0.455998
O O6 0.449690 0.671253 0.459915
O O7 0.169249 0.479735 0.737579
O O8 0.987470 0.326581 0.195898
O O9 0.000000 0.500000 0.000000
O O10 0.711776 0.696889 0.556796
O O11 0.856897 0.741290 0.042836
O O12 0.875998 0.011899 0.307452
O O13 0.283929 0.439501 0.246501
O O14 0.500000 0.500000 0.000000
O O15 0.044040 0.328326 0.470196
#
# Coordination Sequence:
#
# PCOD9048322 Si02
#       7
#     2   2   2   2   2   2   2
#     4  10  24  45  67 101 135 174 221 288 335 399
#     4  11  23  44  67  95 141 177 221 277 339 393
#     4  11  24  44  71  98 132 175 226 280 344 401
#     4  11  23  44  67  95 141 177 221 277 339 393
#     4  12  23  42  69 104 131 184 228 272 334 406
#     4  10  24  45  67 101 135 174 221 288 335 399
#     4  11  22  43  69  96 134 169 227 281 338 396
#
# _framework density 22.256900000000002
#
# number of rings (size 3 to 8) (size 9 to 14) (size 15 to 20)
#    0.000    1.143    2.857    3.000    4.000    2.286 
#    5.143    0.000    0.000    0.000    0.000    0.000 
#    0.000    0.000    0.000    0.000    0.000    0.000 
#
# Total GULP energy -77968.615695 kJ/mol
# GULP energy per Si atom -5569.186835 kJ/mol
# Density = 2.220624 g / cm^3
# Si number density = 22.256900 Si / 1000 Ang^3
#
#
#
# Elastic Constant Matrix: (Units=GPa)
#
#
# Indices 1 2 3 4 5 6 
#
# 1 155.5086 34.0423 25.3011 -23.4773 1.6938 8.8297
# 2 34.0423 93.4062 31.1992 -20.4048 27.4733 11.1052
# 3 25.3011 31.1992 109.0750 -11.2614 6.1025 5.6884
# 4 -23.4773 -20.4048 -11.2614 17.0174 4.6834 -5.8769
# 5 1.6938 27.4733 6.1025 4.6834 48.8607 -2.7949
# 6 8.8297 11.1052 5.6884 -5.8769 -2.7949 9.8277
#
#
#
# Elastic Compliance Matrix: (Units=1/GPa)
#
#
# Indices 1 2 3 4 5 6 
#
# 1 0.008268 0.000230 -0.000685 0.011306 -0.001468 -0.000949
# 2 0.000230 0.023901 -0.002431 0.026949 -0.016550 -0.014399
# 3 -0.000685 -0.002431 0.010369 0.002685 -0.000225 -0.001098
# 4 0.011306 0.026949 0.002685 0.124210 -0.026378 0.024611
# 5 -0.001468 -0.016550 -0.000225 -0.026378 0.033169 0.013810
# 6 -0.000949 -0.014399 -0.001098 0.024611 0.013810 0.138156
#
#
# Mechanical properties :
#
#
# Convention : Reuss Voigt Hill
#
# Bulk Modulus (GPa) = 27.19818 59.89723 43.54771
# Shear Modulus (GPa) = 14.04095 32.97097 23.50596
#
# Velocity S-wave (km/s) = 2.51441 3.85305 3.25333
# Velocity P-wave (km/s) = 4.54712 6.83848 5.80694
#
# Compressibility (1/GPa) = 0.03676717
#
# Stress axis : x y z
#
# Youngs Moduli (GPa) = 120.94340 41.83946 96.43970
#
# Poissons Ratio (x) = -0.00961 0.06604
# Poissons Ratio (y) = -0.02778 0.23440
# Poissons Ratio (z) = 0.08282 0.10169
#
# Static dielectric constant tensor:
#      x y z
#    x 2.019200 -0.196770 -0.237480 
#    y -0.196770 2.075270 0.100770 
#    z -0.237480 0.100770 2.036840 
# 
# From -- ./inp_files/81170.got.cif
#   From: 2010.05.17/outbox.cif.g08.bks.cpg/sg2_41_cif.got.tgz:81170.got - 2010.06.03 11:33:40.
