data_PCOD9048719
_publ_section_title
;
Structure prediction by ZEFSAII (Michael W. Deem and Ramdas Pophale) SiO2 
 PCOD9048719
Probable space group: P -1
;
_chemical_formula_sum "Si O2"
_cell_formula_units_Z 12
_cell_length_a 16.033771
_cell_length_b 9.313477
_cell_length_c 8.794753
_cell_angle_alpha 120.188557
_cell_angle_beta 114.278685
_cell_angle_gamma 28.740133
_cell_volume 544.450554
_symmetry_space_group_name_H-M "P -1"
_symmetry_group_IT_number 2
_symmetry_cell_setting 'triclinic'
loop_
_space_group_symop_operation_xyz
x,y,z
-x,-y,-z
loop_
_atom_site_type_symbol
_atom_site_label
_atom_site_fract_x
_atom_site_fract_y
_atom_site_fract_z
Si Si1 0.460693 0.088995 0.692245
Si Si2 0.932186 0.743556 0.465270
Si Si3 0.992630 0.740086 0.164774
Si Si4 0.304164 0.060060 0.013622
Si Si5 0.066009 0.829358 0.796652
Si Si6 0.555858 0.232455 0.342440
O O1 0.257519 0.451273 0.753433
O O2 0.500000 0.000000 0.500000
O O3 0.512384 0.834853 0.676651
O O4 0.583559 0.047693 0.820638
O O5 0.016243 0.662931 0.321587
O O6 0.000000 0.500000 0.500000
O O7 0.934845 0.902124 0.657379
O O8 0.755656 0.934477 0.379674
O O9 0.841466 0.858657 0.040194
O O10 0.931990 0.018560 0.236029
O O11 0.178582 0.406997 0.052873
O O12 0.442789 0.787965 0.848051
O O13 0.000000 0.000000 0.000000
O O14 0.500000 0.500000 0.500000
#
# Coordination Sequence:
#
# PCOD9048719 Si02
#       6
#     2   2   2   2   2   2
#     4  12  27  44  69 104 141 176 228 287 340 407
#     4  11  24  46  69  95 138 178 228 282 338 411
#     4  10  24  45  73  98 134 185 228 281 349 402
#     4  10  24  45  71  95 137 178 231 281 339 407
#     4  12  27  43  71 104 138 181 231 280 345 410
#     4  11  26  44  68  99 135 181 225 279 346 402
#
# _framework density 22.040568
#
# number of rings (size 3 to 8) (size 9 to 14) (size 15 to 20)
#    0.000    1.000    1.667    3.000   14.000    0.667 
#    0.000    0.000    0.000    0.000    0.000    0.000 
#    0.000    0.000    0.000    0.000    0.000    0.000 
#
# Total GULP energy -66946.947130 kJ/mol
# GULP energy per Si atom -5578.912261 kJ/mol
# Density = 2.199040 g / cm^3
# Si number density = 22.040568 Si / 1000 Ang^3
#
#
#
# Elastic Constant Matrix: (Units=GPa)
#
#
# Indices 1 2 3 4 5 6 
#
# 1 80.7950 13.0138 43.8030 -4.8752 16.1060 19.3305
# 2 13.0138 33.8972 29.3668 3.2132 -7.9485 16.4535
# 3 43.8030 29.3668 190.7379 -16.5108 7.5528 -1.4576
# 4 -4.8752 3.2132 -16.5108 40.0304 -8.7667 12.8262
# 5 16.1060 -7.9485 7.5528 -8.7667 37.1167 1.0488
# 6 19.3305 16.4535 -1.4576 12.8262 1.0488 37.8364
#
#
#
# Elastic Compliance Matrix: (Units=1/GPa)
#
#
# Indices 1 2 3 4 5 6 
#
# 1 0.018292 -0.000861 -0.003670 0.002490 -0.006511 -0.009776
# 2 -0.000861 0.051623 -0.008234 0.003162 0.014523 -0.023800
# 3 -0.003670 -0.008234 0.007566 0.001277 -0.001560 0.005357
# 4 0.002490 0.003162 0.001277 0.031430 0.007141 -0.013450
# 5 -0.006511 0.014523 -0.001560 0.007141 0.035064 -0.006442
# 6 -0.009776 -0.023800 0.005357 -0.013450 -0.006442 0.046718
#
#
# Mechanical properties :
#
#
# Convention : Reuss Voigt Hill
#
# Bulk Modulus (GPa) = 19.24816 53.08859 36.16838
# Shear Modulus (GPa) = 21.40954 37.61315 29.51135
#
# Velocity S-wave (km/s) = 3.12006 4.13551 3.66314
# Velocity P-wave (km/s) = 4.66173 6.85145 5.85978
#
# Compressibility (1/GPa) = 0.05195301
#
# Stress axis : x y z
#
# Youngs Moduli (GPa) = 54.66803 19.37113 132.16282
#
# Poissons Ratio (x) = 0.01668 0.48498
# Poissons Ratio (y) = 0.04708 1.08818
# Poissons Ratio (z) = 0.20061 0.15949
#
# Static dielectric constant tensor:
#      x y z
#    x 1.999580 0.035600 -0.259390 
#    y 0.035600 1.805110 -0.000580 
#    z -0.259390 -0.000580 2.136370 
# 
# From -- ./inp_files/149047.got.cif
#   From: 2010.05.17/outbox.cif.g08.bks.cpg/sg2_75_cif.got.tgz:149047.got - 2010.06.03 11:33:40.
