data_PCOD9048313
_publ_section_title
;
Structure prediction by ZEFSAII (Michael W. Deem and Ramdas Pophale) SiO2 
 PCOD9048313
Probable space group: P -1
;
_chemical_formula_sum "Si O2"
_cell_formula_units_Z 12
_cell_length_a 13.257008
_cell_length_b 6.490826
_cell_length_c 16.799626
_cell_angle_alpha 68.991625
_cell_angle_beta 27.974384
_cell_angle_gamma 83.933398
_cell_volume 554.739601
_symmetry_space_group_name_H-M "P -1"
_symmetry_group_IT_number 2
_symmetry_cell_setting 'triclinic'
loop_
_space_group_symop_operation_xyz
x,y,z
-x,-y,-z
loop_
_atom_site_type_symbol
_atom_site_label
_atom_site_fract_x
_atom_site_fract_y
_atom_site_fract_z
Si Si1 0.627927 0.607986 0.157109
Si Si2 0.974972 0.536300 0.818293
Si Si3 0.526787 0.714878 0.390324
Si Si4 0.565772 0.283485 0.005208
Si Si5 0.804084 0.265070 0.118549
Si Si6 0.271476 0.730062 0.281362
O O1 0.625498 0.704809 0.234418
O O2 0.580323 0.323151 0.246713
O O3 0.440538 0.647926 0.226940
O O4 0.876447 0.695295 0.918442
O O5 0.253184 0.680778 0.577100
O O6 0.780077 0.400788 0.904004
O O7 0.940628 0.310189 0.932928
O O8 0.500000 0.500000 0.500000
O O9 0.704629 0.993016 0.260854
O O10 0.667163 0.238601 0.858873
O O11 0.500000 0.500000 0.000000
O O12 0.341728 0.011201 0.224202
O O13 0.000000 0.500000 0.000000
O O14 0.000000 0.500000 0.500000
#
# Coordination Sequence:
#
# PCOD9048313 Si02
#       6
#     2   2   2   2   2   2
#     4  10  24  46  64 102 138 175 224 283 332 401
#     4  10  24  45  66  99 140 176 220 285 335 397
#     4  12  26  44  73 100 131 185 228 275 347 402
#     4  11  22  43  67 100 133 174 221 276 336 393
#     4  10  24  46  67 100 136 176 226 280 338 400
#     4  11  24  41  70  99 131 179 224 269 338 404
#
# _framework density 21.631771000000001
#
# number of rings (size 3 to 8) (size 9 to 14) (size 15 to 20)
#    1.000    0.333    1.667    3.000    0.000    8.667 
#    6.000    0.000    0.000    0.000    0.000    0.000 
#    0.000    0.000    0.000    0.000    0.000    0.000 
#
# Total GULP energy -66812.508348 kJ/mol
# GULP energy per Si atom -5567.709029 kJ/mol
# Density = 2.158254 g / cm^3
# Si number density = 21.631771 Si / 1000 Ang^3
#
#
#
# Elastic Constant Matrix: (Units=GPa)
#
#
# Indices 1 2 3 4 5 6 
#
# 1 138.6545 40.3594 42.8576 -13.5075 -4.9427 16.1437
# 2 40.3594 96.6363 79.6964 -10.5909 -10.4606 2.9457
# 3 42.8576 79.6964 130.3183 -23.6104 -16.1016 4.1106
# 4 -13.5075 -10.5909 -23.6104 41.8909 0.5056 8.1076
# 5 -4.9427 -10.4606 -16.1016 0.5056 27.3149 3.2857
# 6 16.1437 2.9457 4.1106 8.1076 3.2857 36.1871
#
#
#
# Elastic Compliance Matrix: (Units=1/GPa)
#
#
# Indices 1 2 3 4 5 6 
#
# 1 0.008998 -0.002830 -0.000502 0.002748 0.000728 -0.004408
# 2 -0.002830 0.021945 -0.013093 -0.003063 0.000033 0.001646
# 3 -0.000502 -0.013093 0.017926 0.007116 0.005674 -0.002856
# 4 0.002748 -0.003063 0.007116 0.029647 0.004028 -0.008793
# 5 0.000728 0.000033 0.005674 0.004028 0.040694 -0.005569
# 6 -0.004408 0.001646 -0.002856 -0.008793 -0.005569 0.032267
#
#
# Mechanical properties :
#
#
# Convention : Reuss Voigt Hill
#
# Bulk Modulus (GPa) = 62.42097 76.82620 69.62359
# Shear Modulus (GPa) = 26.36218 34.59164 30.47691
#
# Velocity S-wave (km/s) = 3.49475 4.00323 3.75760
# Velocity P-wave (km/s) = 6.72333 7.54721 7.14715
#
# Compressibility (1/GPa) = 0.01602026
#
# Stress axis : x y z
#
# Youngs Moduli (GPa) = 111.13773 45.56779 55.78565
#
# Poissons Ratio (x) = 0.12895 0.02799
# Poissons Ratio (y) = 0.31449 0.73039
# Poissons Ratio (z) = 0.05577 0.59661
#
# Static dielectric constant tensor:
#      x y z
#    x 1.818460 -0.021650 -0.006450 
#    y -0.021650 1.888820 -0.009840 
#    z -0.006450 -0.009840 1.859520 
# 
# From -- ./inp_files/571257.got.cif
#   From: 2010.05.17/outbox.cif.g08.bks.cpg/sg2_286_cif.got.tgz:571257.got - 2010.06.03 11:33:40.
