data_PCOD9048904
_publ_section_title
;
Structure prediction by ZEFSAII (Michael W. Deem and Ramdas Pophale) SiO2 
 PCOD9048904
Probable space group: P -1
;
_chemical_formula_sum "Si O2"
_cell_formula_units_Z 14
_cell_length_a 20.555242
_cell_length_b 8.898925
_cell_length_c 7.920157
_cell_angle_alpha 107.473884
_cell_angle_beta 43.261846
_cell_angle_gamma 136.832001
_cell_volume 591.217508
_symmetry_space_group_name_H-M "P -1"
_symmetry_group_IT_number 2
_symmetry_cell_setting 'triclinic'
loop_
_space_group_symop_operation_xyz
x,y,z
-x,-y,-z
loop_
_atom_site_type_symbol
_atom_site_label
_atom_site_fract_x
_atom_site_fract_y
_atom_site_fract_z
Si Si1 0.058146 0.292401 0.659481
Si Si2 0.363273 0.971396 0.891254
Si Si3 0.214516 0.239020 0.132194
Si Si4 0.030330 0.499290 0.247349
Si Si5 0.229670 0.061138 0.390246
Si Si6 0.402845 0.669162 0.712350
Si Si7 0.172617 0.279841 0.753329
O O1 0.135510 0.301138 0.358861
O O2 0.162272 0.389380 0.655364
O O3 0.035543 0.446049 0.722856
O O4 0.891459 0.993942 0.877145
O O5 0.420556 0.872841 0.806897
O O6 0.476195 0.196088 0.619265
O O7 0.211561 0.742603 0.989297
O O8 0.330380 0.042384 0.136463
O O9 0.208733 0.123467 0.271338
O O10 0.379528 0.505786 0.843019
O O11 0.000000 0.500000 0.500000
O O12 0.925748 0.211042 0.328195
O O13 0.273471 0.259558 0.498473
O O14 0.242049 0.444612 0.843113
O O15 0.000000 0.000000 0.000000
#
# Coordination Sequence:
#
# PCOD9048904 Si02
#       7
#     2   2   2   2   2   2   2
#     4  10  19  32  59  89 113 146 192 235 299 333
#     4  10  22  38  59  84 113 165 191 233 282 351
#     4  10  18  33  59  91 108 151 193 237 284 344
#     4  10  17  34  59  86 107 141 197 240 268 338
#     4  10  21  37  64  89 113 148 200 241 289 333
#     4  11  23  39  59  82 125 152 196 233 290 346
#     4  11  22  37  58  90 121 149 184 249 294 338
#
# _framework density 23.679946999999999
#
# number of rings (size 3 to 8) (size 9 to 14) (size 15 to 20)
#    0.000    1.714    4.286    2.571    2.000    1.143 
#    0.000    4.286    0.000   30.857    0.000    0.000 
#    0.000    0.000    0.000    0.000    0.000    0.000 
#
# Total GULP energy -78126.882088 kJ/mol
# GULP energy per Si atom -5580.491578 kJ/mol
# Density = 2.362605 g / cm^3
# Si number density = 23.679947 Si / 1000 Ang^3
#
#
#
# Elastic Constant Matrix: (Units=GPa)
#
#
# Indices 1 2 3 4 5 6 
#
# 1 32.4852 20.0379 -3.5168 -3.4487 15.4576 -12.8867
# 2 20.0379 98.6442 35.3427 0.8473 10.5108 -26.6506
# 3 -3.5168 35.3427 95.6008 -25.2664 2.1090 -15.9847
# 4 -3.4487 0.8473 -25.2664 53.2485 -6.9918 7.8475
# 5 15.4576 10.5108 2.1090 -6.9918 19.4513 -3.4991
# 6 -12.8867 -26.6506 -15.9847 7.8475 -3.4991 23.7932
#
#
#
# Elastic Compliance Matrix: (Units=1/GPa)
#
#
# Indices 1 2 3 4 5 6 
#
# 1 0.072081 -0.003266 0.010317 -0.002333 -0.051075 0.035571
# 2 -0.003266 0.017627 -0.005558 -0.006160 -0.005766 0.015424
# 3 0.010317 -0.005558 0.016012 0.006852 -0.003137 0.007397
# 4 -0.002333 -0.006160 0.006852 0.024990 0.011606 -0.010095
# 5 -0.051075 -0.005766 -0.003137 0.011606 0.094932 -0.026096
# 6 0.035571 0.015424 0.007397 -0.010095 -0.026096 0.083032
#
#
# Mechanical properties :
#
#
# Convention : Reuss Voigt Hill
#
# Bulk Modulus (GPa) = 9.19929 36.71754 22.95841
# Shear Modulus (GPa) = 14.62314 30.95636 22.78975
#
# Velocity S-wave (km/s) = 2.48772 3.61956 3.10563
# Velocity P-wave (km/s) = 3.48496 5.74523 4.75145
#
# Compressibility (1/GPa) = 0.10870403
#
# Stress axis : x y z
#
# Youngs Moduli (GPa) = 13.87324 56.73172 62.45503
#
# Poissons Ratio (x) = 0.18529 -0.64433
# Poissons Ratio (y) = 0.04531 0.34715
# Poissons Ratio (z) = -0.14313 0.31534
#
# Static dielectric constant tensor:
#      x y z
#    x 1.713770 -0.036600 -0.200080 
#    y -0.036600 1.964370 -0.019070 
#    z -0.200080 -0.019070 1.808310 
# 
# From -- ./inp_files/172327.got.cif
#   From: 2010.05.17/outbox.cif.g08.bks.cpg/sg2_87_cif.got.tgz:172327.got - 2010.06.03 11:33:40.
