data_PCOD9048165
_publ_section_title
;
Structure prediction by ZEFSAII (Michael W. Deem and Ramdas Pophale) SiO2 
 PCOD9048165
Probable space group: P -1
;
_chemical_formula_sum "Si O2"
_cell_formula_units_Z 12
_cell_length_a 8.521997
_cell_length_b 8.222315
_cell_length_c 10.763155
_cell_angle_alpha 43.860254
_cell_angle_beta 58.498421
_cell_angle_gamma 68.886577
_cell_volume 445.384368
_symmetry_space_group_name_H-M "P -1"
_symmetry_group_IT_number 2
_symmetry_cell_setting 'triclinic'
loop_
_space_group_symop_operation_xyz
x,y,z
-x,-y,-z
loop_
_atom_site_type_symbol
_atom_site_label
_atom_site_fract_x
_atom_site_fract_y
_atom_site_fract_z
Si Si1 0.014887 0.200225 0.983424
Si Si2 0.265133 0.611089 0.415669
Si Si3 0.867654 0.836722 0.430485
Si Si4 0.367188 0.990994 0.333494
Si Si5 0.629006 0.695119 0.085102
Si Si6 0.343408 0.660920 0.917658
O O1 0.858213 0.384786 0.914605
O O2 0.926433 0.082111 0.207175
O O3 0.223475 0.264489 0.890100
O O4 0.000000 0.000000 0.000000
O O5 0.235725 0.346047 0.521557
O O6 0.417695 0.719223 0.197260
O O7 0.061871 0.714363 0.441384
O O8 0.344205 0.717840 0.454919
O O9 0.757013 0.908720 0.559554
O O10 0.573088 0.080285 0.235388
O O11 0.324384 0.133000 0.144887
O O12 0.656177 0.431873 0.170665
O O13 0.500000 0.500000 0.000000
#
# Coordination Sequence:
#
# PCOD9048165 Si02
#       6
#     2   2   2   2   2   2
#     4  12  27  46  70 110 149 191 248 309 358 439
#     4  11  23  43  73 111 145 197 235 296 366 442
#     4  11  26  43  71 112 149 191 246 299 369 430
#     4  11  22  45  75 107 146 195 238 302 363 440
#     4  11  23  45  76 106 143 196 247 291 365 437
#     4  10  24  44  75 102 141 191 246 298 365 433
#
# _framework density 26.943020000000001
#
# number of rings (size 3 to 8) (size 9 to 14) (size 15 to 20)
#    0.000    1.000    3.333    2.500    4.667    2.000 
#    3.000    1.667    0.000    0.000    0.000    0.000 
#    0.000    0.000    0.000    0.000    0.000    0.000 
#
# Total GULP energy -67124.495257 kJ/mol
# GULP energy per Si atom -5593.707938 kJ/mol
# Density = 2.688170 g / cm^3
# Si number density = 26.943020 Si / 1000 Ang^3
#
#
#
# Elastic Constant Matrix: (Units=GPa)
#
#
# Indices 1 2 3 4 5 6 
#
# 1 93.9985 45.5470 37.5139 -3.9880 -33.8639 14.4094
# 2 45.5470 189.5468 42.5927 6.1663 -5.1278 21.0522
# 3 37.5139 42.5927 131.9612 8.2323 -8.7366 -0.9446
# 4 -3.9880 6.1663 8.2323 49.6430 6.9524 -20.4577
# 5 -33.8639 -5.1278 -8.7366 6.9524 36.5288 -12.5888
# 6 14.4094 21.0522 -0.9446 -20.4577 -12.5888 59.1177
#
#
#
# Elastic Compliance Matrix: (Units=1/GPa)
#
#
# Indices 1 2 3 4 5 6 
#
# 1 0.019875 -0.003573 -0.003379 0.000248 0.017103 0.000102
# 2 -0.003573 0.006695 -0.001287 -0.001589 -0.003341 -0.002795
# 3 -0.003379 -0.001287 0.008990 -0.001145 -0.000637 0.000894
# 4 0.000248 -0.001589 -0.001145 0.024324 -0.001973 0.008484
# 5 0.017103 -0.003341 -0.000637 -0.001973 0.045024 0.005916
# 6 0.000102 -0.002795 0.000894 0.008484 0.005916 0.022096
#
#
# Mechanical properties :
#
#
# Convention : Reuss Voigt Hill
#
# Bulk Modulus (GPa) = 52.40890 74.09041 63.24965
# Shear Modulus (GPa) = 33.36822 48.38144 40.87483
#
# Velocity S-wave (km/s) = 3.52301 4.24216 3.89920
# Velocity P-wave (km/s) = 6.00357 7.18006 6.61801
#
# Compressibility (1/GPa) = 0.01908073
#
# Stress axis : x y z
#
# Youngs Moduli (GPa) = 50.31469 149.35572 111.23801
#
# Poissons Ratio (x) = 0.53368 0.37589
# Poissons Ratio (y) = 0.17978 0.14320
# Poissons Ratio (z) = 0.17002 0.19228
#
# Static dielectric constant tensor:
#      x y z
#    x 2.329340 -0.060700 0.050480 
#    y -0.060700 2.136340 -0.069300 
#    z 0.050480 -0.069300 2.193820 
# 
# From -- ./inp_files/213962.got.cif
#   From: 2010.05.17/outbox.cif.g08.bks.cpg/sg2_107_cif.got.tgz:213962.got - 2010.06.03 11:33:40.
