data_PCOD9048345
_publ_section_title
;
Structure prediction by ZEFSAII (Michael W. Deem and Ramdas Pophale) SiO2 
 PCOD9048345
Probable space group: P -1
;
_chemical_formula_sum "Si O2"
_cell_formula_units_Z 16
_cell_length_a 11.940632
_cell_length_b 27.940489
_cell_length_c 8.506715
_cell_angle_alpha 42.194890
_cell_angle_beta 145.173304
_cell_angle_gamma 147.895888
_cell_volume 851.657814
_symmetry_space_group_name_H-M "P -1"
_symmetry_group_IT_number 2
_symmetry_cell_setting 'triclinic'
loop_
_space_group_symop_operation_xyz
x,y,z
-x,-y,-z
loop_
_atom_site_type_symbol
_atom_site_label
_atom_site_fract_x
_atom_site_fract_y
_atom_site_fract_z
Si Si1 0.633261 0.410300 0.673189
Si Si2 0.287729 0.057062 0.142001
Si Si3 0.415131 0.976572 0.211051
Si Si4 0.804827 0.427426 0.180793
Si Si5 0.605746 0.777600 0.322332
Si Si6 0.175316 0.701309 0.264658
Si Si7 0.657633 0.530363 0.947005
Si Si8 0.138795 0.858408 0.885292
O O1 0.489605 0.315004 0.649240
O O2 0.476861 0.447418 0.383793
O O3 0.905430 0.484402 0.727304
O O4 0.676649 0.401423 0.926356
O O5 0.458069 0.062927 0.462690
O O6 0.307276 0.004181 0.152242
O O7 0.384313 0.154271 0.952256
O O8 0.000000 0.000000 0.000000
O O9 0.636776 0.067458 0.152851
O O10 0.207671 0.907157 0.014424
O O11 0.794876 0.347723 0.440398
O O12 0.680144 0.456239 0.084839
O O13 0.414447 0.751977 0.303940
O O14 0.879653 0.827233 0.590341
O O15 0.132282 0.771760 0.099812
O O16 0.934332 0.621108 0.083490
O O17 0.500000 0.500000 0.000000
#
# Coordination Sequence:
#
# PCOD9048345 Si02
#       8
#     2   2   2   2   2   2   2   2
#     4  11  24  43  65  95 134 167 217 267 325 381
#     4  11  23  43  69  96 133 171 208 267 335 387
#     4  10  24  45  67  96 129 168 215 269 327 389
#     4  11  25  42  64  97 130 175 212 266 327 383
#     4  12  24  42  65  98 129 176 217 266 323 386
#     4  12  24  41  64  97 132 169 222 266 315 385
#     4  12  22  42  68  92 129 175 216 264 321 384
#     4  11  24  43  66  98 129 165 221 270 319 387
#
# _framework density 18.786888000000001
#
# number of rings (size 3 to 8) (size 9 to 14) (size 15 to 20)
#    0.000    0.750    6.250    1.500    1.750    1.500 
#    0.000    0.000    0.000    0.000    0.000    0.000 
#    0.000    0.000    0.000    0.000    0.000    0.000 
#
# Total GULP energy -89484.042194 kJ/mol
# GULP energy per Si atom -5592.752637 kJ/mol
# Density = 1.874413 g / cm^3
# Si number density = 18.786888 Si / 1000 Ang^3
#
#
#
# Elastic Constant Matrix: (Units=GPa)
#
#
# Indices 1 2 3 4 5 6 
#
# 1 60.1809 6.0922 17.7457 0.4521 -3.4995 10.1631
# 2 6.0922 63.9939 34.4593 -5.8312 -10.7183 2.9094
# 3 17.7457 34.4593 131.1052 -15.4313 -13.4503 1.7888
# 4 0.4521 -5.8312 -15.4313 40.0575 0.9767 -2.5427
# 5 -3.4995 -10.7183 -13.4503 0.9767 31.8404 -1.7281
# 6 10.1631 2.9094 1.7888 -2.5427 -1.7281 26.1314
#
#
#
# Elastic Compliance Matrix: (Units=1/GPa)
#
#
# Indices 1 2 3 4 5 6 
#
# 1 0.018635 -0.000142 -0.002523 -0.001673 0.000596 -0.007182
# 2 -0.000142 0.018869 -0.004369 0.000871 0.004390 -0.001372
# 3 -0.002523 -0.004369 0.009710 0.003157 0.002326 0.001264
# 4 -0.001673 0.000871 0.003157 0.026495 0.000791 0.002968
# 5 0.000596 0.004390 0.002326 0.000791 0.033986 0.001445
# 6 -0.007182 -0.001372 0.001264 0.002968 0.001445 0.041512
#
#
# Mechanical properties :
#
#
# Convention : Reuss Voigt Hill
#
# Bulk Modulus (GPa) = 30.16772 41.31938 35.74355
# Shear Modulus (GPa) = 28.68223 32.73806 30.71014
#
# Velocity S-wave (km/s) = 3.91156 4.17898 4.04748
# Velocity P-wave (km/s) = 6.04095 6.73250 6.39608
#
# Compressibility (1/GPa) = 0.03314801
#
# Stress axis : x y z
#
# Youngs Moduli (GPa) = 53.66240 52.99565 102.98535
#
# Poissons Ratio (x) = 0.00750 0.25982
# Poissons Ratio (y) = 0.00760 0.44992
# Poissons Ratio (z) = 0.13538 0.23153
#
# Static dielectric constant tensor:
#      x y z
#    x 1.631860 0.008680 -0.003100 
#    y 0.008680 1.621660 -0.004950 
#    z -0.003100 -0.004950 1.636890 
# 
# From -- ./inp_files/45829.got.cif
#   From: 2010.05.17/outbox.cif.g08.bks.cpg/sg2_23_cif.got.tgz:45829.got - 2010.06.03 11:33:40.
