data_PCOD9048644
_publ_section_title
;
Structure prediction by ZEFSAII (Michael W. Deem and Ramdas Pophale) SiO2 
 PCOD9048644
Probable space group: P -1
;
_chemical_formula_sum "Si O2"
_cell_formula_units_Z 16
_cell_length_a 10.248548
_cell_length_b 11.580361
_cell_length_c 9.182798
_cell_angle_alpha 50.216238
_cell_angle_beta 53.089664
_cell_angle_gamma 81.023898
_cell_volume 621.715697
_symmetry_space_group_name_H-M "P -1"
_symmetry_group_IT_number 2
_symmetry_cell_setting 'triclinic'
loop_
_space_group_symop_operation_xyz
x,y,z
-x,-y,-z
loop_
_atom_site_type_symbol
_atom_site_label
_atom_site_fract_x
_atom_site_fract_y
_atom_site_fract_z
Si Si1 0.585684 0.399829 0.337299
Si Si2 0.847774 0.047893 0.704933
Si Si3 0.207429 0.364018 0.224418
Si Si4 0.111880 0.886499 0.702599
Si Si5 0.338135 0.858865 0.000721
Si Si6 0.676644 0.424522 0.572366
Si Si7 0.412376 0.167085 0.386299
Si Si8 0.077631 0.631926 0.159907
O O1 0.661631 0.365739 0.463748
O O2 0.424066 0.454457 0.437984
O O3 0.512810 0.248855 0.398724
O O4 0.728758 0.557283 0.039013
O O5 0.700646 0.031738 0.937296
O O6 0.019518 0.216190 0.469824
O O7 0.926051 0.908114 0.789066
O O8 0.797837 0.059176 0.560354
O O9 0.354094 0.305496 0.240241
O O10 0.189077 0.517628 0.191999
O O11 0.226655 0.019086 0.635538
O O12 0.096811 0.717816 0.919409
O O13 0.396991 0.732280 0.152684
O O14 0.147985 0.765030 0.129779
O O15 0.466066 0.895889 0.746296
O O16 0.877385 0.520462 0.399163
#
# Coordination Sequence:
#
# PCOD9048644 Si02
#       8
#     2   2   2   2   2   2   2   2
#     4  11  23  42  66 103 138 179 216 278 343 393
#     4  10  24  45  70  98 134 180 227 277 337 394
#     4  11  21  41  76  98 133 176 225 280 331 396
#     4  10  26  48  65  97 139 184 222 270 341 410
#     4  12  24  42  70 103 132 174 229 280 337 390
#     4  11  25  41  67 109 136 166 228 290 330 390
#     4  11  24  46  70  95 143 181 222 269 340 413
#     4  12  25  42  72 104 133 172 229 282 335 397
#
# _framework density 25.735233000000001
#
# number of rings (size 3 to 8) (size 9 to 14) (size 15 to 20)
#    0.000    1.000    3.750    2.250    5.250    2.500 
#    0.000    0.000    0.000    0.000    0.000    0.000 
#    0.000    0.000    0.000    0.000    0.000    0.000 
#
# Total GULP energy -89627.310412 kJ/mol
# GULP energy per Si atom -5601.706901 kJ/mol
# Density = 2.567666 g / cm^3
# Si number density = 25.735233 Si / 1000 Ang^3
#
#
#
# Elastic Constant Matrix: (Units=GPa)
#
#
# Indices 1 2 3 4 5 6 
#
# 1 81.1630 37.9478 24.9513 5.9663 14.3739 6.3140
# 2 37.9478 122.5557 38.0521 10.8897 6.7588 -7.4202
# 3 24.9513 38.0521 87.5351 7.8233 23.0228 3.6534
# 4 5.9663 10.8897 7.8233 38.9173 -3.3109 5.3904
# 5 14.3739 6.7588 23.0228 -3.3109 39.7758 1.3454
# 6 6.3140 -7.4202 3.6534 5.3904 1.3454 45.7643
#
#
#
# Elastic Compliance Matrix: (Units=1/GPa)
#
#
# Indices 1 2 3 4 5 6 
#
# 1 0.015748 -0.004302 -0.001328 -0.000949 -0.004185 -0.002529
# 2 -0.004302 0.010959 -0.003944 -0.001863 0.001723 0.002854
# 3 -0.001328 -0.003944 0.015953 -0.002435 -0.008246 -0.001201
# 4 -0.000949 -0.001863 -0.002435 0.027701 0.004489 -0.003371
# 5 -0.004185 0.001723 -0.008246 0.004489 0.031505 0.000060
# 6 -0.002529 0.002854 -0.001201 -0.003371 0.000060 0.023154
#
#
# Mechanical properties :
#
#
# Convention : Reuss Voigt Hill
#
# Bulk Modulus (GPa) = 42.52777 54.79514 48.66146
# Shear Modulus (GPa) = 32.89349 37.57831 35.23590
#
# Velocity S-wave (km/s) = 3.57900 3.82539 3.70424
# Velocity P-wave (km/s) = 5.80000 6.39137 6.10285
#
# Compressibility (1/GPa) = 0.02351405
#
# Stress axis : x y z
#
# Youngs Moduli (GPa) = 63.49952 91.24586 62.68236
#
# Poissons Ratio (x) = 0.39254 0.08322
# Poissons Ratio (y) = 0.27317 0.24721
# Poissons Ratio (z) = 0.08431 0.35986
#
# Static dielectric constant tensor:
#      x y z
#    x 1.986920 -0.008420 -0.003140 
#    y -0.008420 2.020010 0.033690 
#    z -0.003140 0.033690 2.030290 
# 
# From -- ./inp_files/261505.got.cif
#   From: 2010.05.17/outbox.cif.g08.bks.cpg/sg2_131_cif.got.tgz:261505.got - 2010.06.03 11:33:40.
