data_PCOD9048337
_publ_section_title
;
Structure prediction by ZEFSAII (Michael W. Deem and Ramdas Pophale) SiO2 
 PCOD9048337
Probable space group: P -1
;
_chemical_formula_sum "Si O2"
_cell_formula_units_Z 16
_cell_length_a 15.817856
_cell_length_b 9.254896
_cell_length_c 11.873692
_cell_angle_alpha 36.621148
_cell_angle_beta 51.135650
_cell_angle_gamma 48.044425
_cell_volume 754.732347
_symmetry_space_group_name_H-M "P -1"
_symmetry_group_IT_number 2
_symmetry_cell_setting 'triclinic'
loop_
_space_group_symop_operation_xyz
x,y,z
-x,-y,-z
loop_
_atom_site_type_symbol
_atom_site_label
_atom_site_fract_x
_atom_site_fract_y
_atom_site_fract_z
Si Si1 0.185094 0.326029 0.217364
Si Si2 0.969054 0.256404 0.077632
Si Si3 0.100978 0.222998 0.584494
Si Si4 0.632044 0.973311 0.932603
Si Si5 0.664510 0.362989 0.013628
Si Si6 0.725319 0.779467 0.360010
Si Si7 0.184504 0.390280 0.834637
Si Si8 0.431847 0.474609 0.251498
O O1 0.150553 0.192850 0.435562
O O2 0.284236 0.125099 0.183574
O O3 0.078124 0.499615 0.121105
O O4 0.236784 0.536049 0.091051
O O5 0.889721 0.356584 0.191967
O O6 0.948252 0.004860 0.206469
O O7 0.101676 0.217437 0.016993
O O8 0.197269 0.227749 0.591051
O O9 0.000000 0.500000 0.500000
O O10 0.625695 0.250526 0.811373
O O11 0.695088 0.757688 0.109213
O O12 0.500000 0.000000 0.000000
O O13 0.568005 0.417985 0.158197
O O14 0.701970 0.059196 0.150476
O O15 0.612522 0.507658 0.851165
O O16 0.791323 0.574519 0.337564
O O17 0.608503 0.733479 0.520870
#
# Coordination Sequence:
#
# PCOD9048337 Si02
#       8
#     2   2   2   2   2   2   2   2
#     4  11  23  44  66  98 131 175 218 268 328 387
#     4  10  24  47  65  91 135 173 218 271 323 388
#     4  12  27  40  68 101 129 169 223 272 328 386
#     4  11  23  44  69  95 131 175 217 265 331 391
#     4  11  22  43  65  93 141 171 212 267 327 393
#     4  12  24  41  67 100 129 169 220 267 326 389
#     4  10  24  45  67  93 130 177 216 268 329 383
#     4  11  24  41  66  98 133 174 216 267 324 392
#
# _framework density 21.199566999999998
#
# number of rings (size 3 to 8) (size 9 to 14) (size 15 to 20)
#    0.000    1.000    5.000    1.125    5.250    1.000 
#    2.250    3.125    0.000    0.000    0.000    0.000 
#    0.000    0.000    0.000    0.000    0.000    0.000 
#
# Total GULP energy -89433.157391 kJ/mol
# GULP energy per Si atom -5589.572337 kJ/mol
# Density = 2.115132 g / cm^3
# Si number density = 21.199567 Si / 1000 Ang^3
#
#
#
# Elastic Constant Matrix: (Units=GPa)
#
#
# Indices 1 2 3 4 5 6 
#
# 1 77.8711 12.0659 22.0350 8.6420 -3.7473 -5.8268
# 2 12.0659 77.9447 15.4326 13.8514 4.5450 1.5311
# 3 22.0350 15.4326 51.1953 11.3179 -4.9375 0.8767
# 4 8.6420 13.8514 11.3179 23.9913 10.4072 3.7358
# 5 -3.7473 4.5450 -4.9375 10.4072 28.6564 4.0753
# 6 -5.8268 1.5311 0.8767 3.7358 4.0753 32.0876
#
#
#
# Elastic Compliance Matrix: (Units=1/GPa)
#
#
# Indices 1 2 3 4 5 6 
#
# 1 0.015242 -0.000796 -0.005279 -0.003988 0.002213 0.003133
# 2 -0.000796 0.014704 -0.002634 -0.006781 -0.000437 0.000071
# 3 -0.005279 -0.002634 0.026307 -0.012726 0.009055 -0.001220
# 4 -0.003988 -0.006781 -0.012726 0.064295 -0.024357 -0.004445
# 5 0.002213 -0.000437 0.009055 -0.024357 0.046065 -0.002840
# 6 0.003133 0.000071 -0.001220 -0.004445 -0.002840 0.032642
#
#
# Mechanical properties :
#
#
# Convention : Reuss Voigt Hill
#
# Bulk Modulus (GPa) = 25.75032 34.00867 29.87950
# Shear Modulus (GPa) = 21.77539 27.44557 24.61048
#
# Velocity S-wave (km/s) = 3.20841 3.60200 3.41089
# Velocity P-wave (km/s) = 5.08903 5.77721 5.44401
#
# Compressibility (1/GPa) = 0.03883447
#
# Stress axis : x y z
#
# Youngs Moduli (GPa) = 65.60626 68.01090 38.01295
#
# Poissons Ratio (x) = 0.05415 0.20067
# Poissons Ratio (y) = 0.05223 0.10012
# Poissons Ratio (z) = 0.34634 0.17914
#
# Static dielectric constant tensor:
#      x y z
#    x 1.773040 0.010360 0.029860 
#    y 0.010360 1.786100 0.022000 
#    z 0.029860 0.022000 1.752150 
# 
# From -- ./inp_files/69620.got.cif
#   From: 2010.05.17/outbox.cif.g08.bks.cpg/sg2_35_cif.got.tgz:69620.got - 2010.06.03 11:33:40.
