data_PCOD9048421
_publ_section_title
;
Structure prediction by ZEFSAII (Michael W. Deem and Ramdas Pophale) SiO2 
 PCOD9048421
Probable space group: P -1
;
_chemical_formula_sum "Si O2"
_cell_formula_units_Z 16
_cell_length_a 12.164283
_cell_length_b 27.237642
_cell_length_c 9.762318
_cell_angle_alpha 152.005514
_cell_angle_beta 35.525406
_cell_angle_gamma 149.480809
_cell_volume 751.557220
_symmetry_space_group_name_H-M "P -1"
_symmetry_group_IT_number 2
_symmetry_cell_setting 'triclinic'
loop_
_space_group_symop_operation_xyz
x,y,z
-x,-y,-z
loop_
_atom_site_type_symbol
_atom_site_label
_atom_site_fract_x
_atom_site_fract_y
_atom_site_fract_z
Si Si1 0.373158 0.069852 0.342746
Si Si2 0.678706 0.741101 0.613458
Si Si3 0.211060 0.544375 0.581359
Si Si4 0.185000 0.467414 0.717060
Si Si5 0.756062 0.523413 0.918905
Si Si6 0.917833 0.955512 0.683803
Si Si7 0.493037 0.320653 0.883908
Si Si8 0.888170 0.785238 0.796953
O O1 0.249944 0.084169 0.370931
O O2 0.544675 0.211172 0.565398
O O3 0.167032 0.996895 0.479572
O O4 0.500000 0.000000 0.000000
O O5 0.417756 0.683535 0.712929
O O6 0.828802 0.851187 0.630766
O O7 0.739982 0.777742 0.799703
O O8 0.717616 0.629898 0.267272
O O9 0.239393 0.485002 0.543938
O O10 0.223223 0.479222 0.271422
O O11 0.978832 0.538272 0.794953
O O12 0.082136 0.329249 0.532167
O O13 0.387308 0.569856 0.855400
O O14 0.000000 0.500000 0.000000
O O15 0.560936 0.391508 0.846956
O O16 0.923628 0.074289 0.034201
O O17 0.240318 0.246904 0.007130
#
# Coordination Sequence:
#
# PCOD9048421 Si02
#       8
#     2   2   2   2   2   2   2   2
#     4  10  24  45  68  93 128 169 217 267 315 381
#     4  12  22  42  62  91 131 171 213 257 323 378
#     4  11  24  38  63  96 130 165 211 266 327 376
#     4  12  22  39  66  98 125 168 214 267 322 382
#     4  11  24  40  61  97 131 165 210 273 318 378
#     4  10  25  42  64  96 126 172 219 256 318 386
#     4  11  21  41  66  94 124 168 216 259 325 377
#     4  11  23  41  66  90 133 168 211 269 318 379
#
# _framework density 21.289128999999999
#
# number of rings (size 3 to 8) (size 9 to 14) (size 15 to 20)
#    0.000    1.000    3.750    2.625    1.750    6.000 
#    0.000    0.000    0.000    4.500    0.000    0.000 
#    0.000    0.000    0.000    0.000    0.000    0.000 
#
# Total GULP energy -89353.656019 kJ/mol
# GULP energy per Si atom -5584.603501 kJ/mol
# Density = 2.124067 g / cm^3
# Si number density = 21.289129 Si / 1000 Ang^3
#
#
#
# Elastic Constant Matrix: (Units=GPa)
#
#
# Indices 1 2 3 4 5 6 
#
# 1 74.0722 31.4989 27.3589 5.3053 5.8771 -8.8318
# 2 31.4989 112.4547 31.9652 11.9821 -14.5704 -28.8666
# 3 27.3589 31.9652 101.5733 15.5435 -5.2827 -13.5211
# 4 5.3053 11.9821 15.5435 35.1620 -2.0368 -0.4099
# 5 5.8771 -14.5704 -5.2827 -2.0368 37.0053 4.2558
# 6 -8.8318 -28.8666 -13.5211 -0.4099 4.2558 33.7286
#
#
#
# Elastic Compliance Matrix: (Units=1/GPa)
#
#
# Indices 1 2 3 4 5 6 
#
# 1 0.017058 -0.004486 -0.003492 0.000210 -0.004945 -0.000146
# 2 -0.004486 0.013898 -0.001154 -0.003162 0.004739 0.009620
# 3 -0.003492 -0.001154 0.012260 -0.004392 0.001287 0.002797
# 4 0.000210 -0.003162 -0.004392 0.031397 0.000290 -0.004067
# 5 -0.004945 0.004739 0.001287 0.000290 0.029931 -0.000496
# 6 -0.000146 0.009620 0.002797 -0.004067 -0.000496 0.038978
#
#
# Mechanical properties :
#
#
# Convention : Reuss Voigt Hill
#
# Bulk Modulus (GPa) = 40.07743 52.19402 46.13573
# Shear Modulus (GPa) = 29.39401 34.33101 31.86251
#
# Velocity S-wave (km/s) = 3.71982 4.02008 3.87286
# Velocity P-wave (km/s) = 6.10864 6.79103 6.45886
#
# Compressibility (1/GPa) = 0.02495170
#
# Stress axis : x y z
#
# Youngs Moduli (GPa) = 58.62505 71.95466 81.56470
#
# Poissons Ratio (x) = 0.32279 0.28479
# Poissons Ratio (y) = 0.26300 0.09415
# Poissons Ratio (z) = 0.20469 0.08305
#
# Static dielectric constant tensor:
#      x y z
#    x 1.783780 0.030040 0.031060 
#    y 0.030040 1.822120 -0.001940 
#    z 0.031060 -0.001940 1.840470 
# 
# From -- ./inp_files/285875.got.cif
#   From: 2010.05.17/outbox.cif.g08.bks.cpg/sg2_143_cif.got.tgz:285875.got - 2010.06.03 11:33:40.
