data_PCOD9048332
_publ_section_title
;
Structure prediction by ZEFSAII (Michael W. Deem and Ramdas Pophale) SiO2 
 PCOD9048332
Probable space group: P -1
;
_chemical_formula_sum "Si O2"
_cell_formula_units_Z 12
_cell_length_a 11.561310
_cell_length_b 6.884535
_cell_length_c 11.974876
_cell_angle_alpha 83.859719
_cell_angle_beta 53.568465
_cell_angle_gamma 124.098083
_cell_volume 476.928147
_symmetry_space_group_name_H-M "P -1"
_symmetry_group_IT_number 2
_symmetry_cell_setting 'triclinic'
loop_
_space_group_symop_operation_xyz
x,y,z
-x,-y,-z
loop_
_atom_site_type_symbol
_atom_site_label
_atom_site_fract_x
_atom_site_fract_y
_atom_site_fract_z
Si Si1 0.473242 0.914393 0.867418
Si Si2 0.057654 0.753492 0.327744
Si Si3 0.315223 0.361960 0.429066
Si Si4 0.402927 0.012461 0.660088
Si Si5 0.594758 0.712880 0.039613
Si Si6 0.974369 0.294070 0.259627
O O1 0.717476 0.073308 0.743389
O O2 0.430251 0.917659 0.762643
O O3 0.246168 0.562221 0.064194
O O4 0.473368 0.130172 0.912662
O O5 0.876705 0.687984 0.504357
O O6 0.545117 0.362059 0.578090
O O7 0.955484 0.455377 0.346291
O O8 0.138670 0.976531 0.163566
O O9 0.174800 0.034808 0.579436
O O10 0.497215 0.507785 0.218477
O O11 0.500000 0.000000 0.500000
O O12 0.144036 0.785410 0.786191
O O13 0.500000 0.500000 0.000000
#
# Coordination Sequence:
#
# PCOD9048332 Si02
#       6
#     2   2   2   2   2   2
#     4  10  25  47  72 108 150 190 239 307 362 429
#     4  11  25  48  72 111 149 185 243 299 371 427
#     4  11  26  47  77 108 146 190 245 302 360 434
#     4  11  23  48  72 105 145 196 247 293 359 437
#     4  10  24  45  67 106 150 185 236 294 359 433
#     4  11  23  48  78 102 147 199 240 298 363 431
#
# _framework density 25.161021999999999
#
# number of rings (size 3 to 8) (size 9 to 14) (size 15 to 20)
#    0.000    1.333    1.667    3.000    4.667    4.667 
#    9.000    1.667    0.000    0.000    0.000    0.000 
#    0.000    0.000    0.000    0.000    0.000    0.000 
#
# Total GULP energy -67190.477154 kJ/mol
# GULP energy per Si atom -5599.206430 kJ/mol
# Density = 2.510375 g / cm^3
# Si number density = 25.161022 Si / 1000 Ang^3
#
#
#
# Elastic Constant Matrix: (Units=GPa)
#
#
# Indices 1 2 3 4 5 6 
#
# 1 107.1172 38.1157 34.4165 -11.8892 3.9293 29.8815
# 2 38.1157 186.6686 69.3400 -10.4053 21.6626 11.6407
# 3 34.4165 69.3400 169.8531 -12.4838 20.7764 4.7024
# 4 -11.8892 -10.4053 -12.4838 54.8776 -2.9154 3.0023
# 5 3.9293 21.6626 20.7764 -2.9154 43.5366 -7.4414
# 6 29.8815 11.6407 4.7024 3.0023 -7.4414 38.7687
#
#
#
# Elastic Compliance Matrix: (Units=1/GPa)
#
#
# Indices 1 2 3 4 5 6 
#
# 1 0.013533 -0.001204 -0.001577 0.002835 -0.001454 -0.010377
# 2 -0.001204 0.006801 -0.002160 0.000482 -0.002444 -0.001359
# 3 -0.001577 -0.002160 0.007400 0.000790 -0.002178 0.000488
# 4 0.002835 0.000482 0.000790 0.019311 -0.000258 -0.003971
# 5 -0.001454 -0.002444 -0.002178 -0.000258 0.026576 0.007239
# 6 -0.010377 -0.001359 0.000488 -0.003971 0.007239 0.035838
#
#
# Mechanical properties :
#
#
# Convention : Reuss Voigt Hill
#
# Bulk Modulus (GPa) = 56.01843 83.04260 69.53052
# Shear Modulus (GPa) = 39.90671 48.88770 44.39720
#
# Velocity S-wave (km/s) = 3.98685 4.41272 4.20518
# Velocity P-wave (km/s) = 6.59588 7.68368 7.16047
#
# Compressibility (1/GPa) = 0.01785127
#
# Stress axis : x y z
#
# Youngs Moduli (GPa) = 73.89088 147.04678 135.13671
#
# Poissons Ratio (x) = 0.17699 0.21316
# Poissons Ratio (y) = 0.08894 0.29194
# Poissons Ratio (z) = 0.11655 0.31767
#
# Static dielectric constant tensor:
#      x y z
#    x 2.107650 -0.053320 0.028750 
#    y -0.053320 1.977160 -0.039130 
#    z 0.028750 -0.039130 2.044400 
# 
# From -- ./inp_files/325416.got.cif
#   From: 2010.05.17/outbox.cif.g08.bks.cpg/sg2_163_cif.got.tgz:325416.got - 2010.06.03 11:33:40.
