data_PCOD9048530
_publ_section_title
;
Structure prediction by ZEFSAII (Michael W. Deem and Ramdas Pophale) SiO2 
 PCOD9048530
Probable space group: P -1
;
_chemical_formula_sum "Si O2"
_cell_formula_units_Z 16
_cell_length_a 10.362491
_cell_length_b 23.332729
_cell_length_c 6.391748
_cell_angle_alpha 58.107500
_cell_angle_beta 60.167162
_cell_angle_gamma 32.785237
_cell_volume 705.717608
_symmetry_space_group_name_H-M "P -1"
_symmetry_group_IT_number 2
_symmetry_cell_setting 'triclinic'
loop_
_space_group_symop_operation_xyz
x,y,z
-x,-y,-z
loop_
_atom_site_type_symbol
_atom_site_label
_atom_site_fract_x
_atom_site_fract_y
_atom_site_fract_z
Si Si1 0.724186 0.956869 0.116425
Si Si2 0.942109 0.455563 0.992878
Si Si3 0.123945 0.625451 0.433038
Si Si4 0.533146 0.713532 0.158057
Si Si5 0.757156 0.272909 0.949866
Si Si6 0.554724 0.585992 0.702689
Si Si7 0.577311 0.860780 0.342604
Si Si8 0.749686 0.063257 0.173944
O O1 0.635314 0.912553 0.302119
O O2 0.988782 0.855992 0.992797
O O3 0.750245 0.985420 0.257821
O O4 0.546543 0.066793 0.908996
O O5 0.757227 0.532684 0.810694
O O6 0.200930 0.354434 0.885723
O O7 0.871401 0.420636 0.271663
O O8 0.000000 0.500000 0.000000
O O9 0.203025 0.673973 0.323137
O O10 0.317617 0.519585 0.327693
O O11 0.842630 0.729968 0.377349
O O12 0.436653 0.708779 0.034309
O O13 0.494746 0.669663 0.442300
O O14 0.404265 0.829851 0.040680
O O15 0.677529 0.335564 0.111984
O O16 0.378162 0.890955 0.581643
O O17 0.000000 0.000000 0.000000
#
# Coordination Sequence:
#
# PCOD9048530 Si02
#       8
#     2   2   2   2   2   2   2   2
#     4  10  24  45  69  97 133 177 223 271 328 396
#     4  12  24  45  66  95 134 175 222 275 326 392
#     4  11  25  44  71  97 135 179 222 271 331 396
#     4  12  26  44  66  97 137 175 220 277 331 394
#     4  11  25  46  66  99 138 174 221 280 329 388
#     4  12  26  42  70  99 133 177 227 268 333 394
#     4  10  24  45  69  98 134 174 223 273 326 396
#     4  12  25  42  69 101 130 173 220 274 339 389
#
# _framework density 22.671958
#
# number of rings (size 3 to 8) (size 9 to 14) (size 15 to 20)
#    0.000    0.750    5.000    1.125    3.500    4.500 
#    0.000    0.000    0.000    0.000    0.000    0.000 
#    0.000    0.000    0.000    0.000    0.000    0.000 
#
# Total GULP energy -89093.632925 kJ/mol
# GULP energy per Si atom -5568.352058 kJ/mol
# Density = 2.262036 g / cm^3
# Si number density = 22.671958 Si / 1000 Ang^3
#
#
#
# Elastic Constant Matrix: (Units=GPa)
#
#
# Indices 1 2 3 4 5 6 
#
# 1 53.5283 24.8519 -10.8519 2.9502 1.6056 19.1048
# 2 24.8519 236.2125 -7.0962 1.7015 39.1703 10.8721
# 3 -10.8519 -7.0962 78.5616 -1.9931 -22.7447 5.0482
# 4 2.9502 1.7015 -1.9931 34.9475 -2.9388 -6.5948
# 5 1.6056 39.1703 -22.7447 -2.9388 28.6886 -3.4002
# 6 19.1048 10.8721 5.0482 -6.5948 -3.4002 30.6471
#
#
#
# Elastic Compliance Matrix: (Units=1/GPa)
#
#
# Indices 1 2 3 4 5 6 
#
# 1 0.027521 -0.002487 0.005682 -0.004933 0.003739 -0.017857
# 2 -0.002487 0.006371 -0.002956 -0.001559 -0.011277 -0.001809
# 3 0.005682 -0.002956 0.018835 0.001689 0.018446 -0.003186
# 4 -0.004933 -0.001559 0.001689 0.032012 0.008345 0.011164
# 5 0.003739 -0.011277 0.018446 0.008345 0.066449 0.007800
# 6 -0.017857 -0.001809 -0.003186 0.011164 0.007800 0.048195
#
#
# Mechanical properties :
#
#
# Convention : Reuss Voigt Hill
#
# Bulk Modulus (GPa) = 18.79611 42.45665 30.62638
# Shear Modulus (GPa) = 23.07965 42.94990 33.01477
#
# Velocity S-wave (km/s) = 3.19404 4.35720 3.82015
# Velocity P-wave (km/s) = 4.68092 6.63933 5.74420
#
# Compressibility (1/GPa) = 0.05320250
#
# Stress axis : x y z
#
# Youngs Moduli (GPa) = 36.33549 156.96306 53.09367
#
# Poissons Ratio (x) = 0.39043 -0.30165
# Poissons Ratio (y) = 0.09038 0.15696
# Poissons Ratio (z) = -0.20644 0.46404
#
# Static dielectric constant tensor:
#      x y z
#    x 1.876380 0.017770 0.003270 
#    y 0.017770 1.938790 0.219850 
#    z 0.003270 0.219850 2.030600 
# 
# From -- ./inp_files/84943.got.cif
#   From: 2010.05.17/outbox.cif.g08.bks.cpg/sg2_43_cif.got.tgz:84943.got - 2010.06.03 11:33:40.
