data_PCOD9048371
_publ_section_title
;
Structure prediction by ZEFSAII (Michael W. Deem and Ramdas Pophale) SiO2 
 PCOD9048371
Probable space group: P -1
;
_chemical_formula_sum "Si O2"
_cell_formula_units_Z 10
_cell_length_a 4.865215
_cell_length_b 17.712948
_cell_length_c 5.494111
_cell_angle_alpha 124.554163
_cell_angle_beta 92.066750
_cell_angle_gamma 103.061756
_cell_volume 371.808809
_symmetry_space_group_name_H-M "P -1"
_symmetry_group_IT_number 2
_symmetry_cell_setting 'triclinic'
loop_
_space_group_symop_operation_xyz
x,y,z
-x,-y,-z
loop_
_atom_site_type_symbol
_atom_site_label
_atom_site_fract_x
_atom_site_fract_y
_atom_site_fract_z
Si Si1 0.724720 0.906371 0.121448
Si Si2 0.220135 0.889239 0.428456
Si Si3 0.703070 0.410954 0.095897
Si Si4 0.796646 0.616051 0.628012
Si Si5 0.260919 0.743557 0.532443
O O1 0.532557 0.898441 0.346035
O O2 0.017422 0.890608 0.194634
O O3 0.775898 0.016466 0.243874
O O4 0.533922 0.827060 0.791908
O O5 0.127697 0.793507 0.407077
O O6 0.700923 0.520535 0.282980
O O7 0.473709 0.364008 0.214869
O O8 0.018227 0.412789 0.202714
O O9 0.643890 0.344246 0.737452
O O10 0.017642 0.700211 0.643708
#
# Coordination Sequence:
#
# PCOD9048371 Si02
#       5
#     2   2   2   2   2
#     4  10  24  45  67  99 142 181 225 285 347 409
#     4  10  24  45  67  99 142 181 225 285 347 409
#     4  10  24  45  67  99 142 181 225 285 347 409
#     4  10  24  45  67  99 142 181 225 285 347 409
#     4  12  24  42  76 106 132 186 240 282 340 414
#
# _framework density 26.895544999999998
#
# number of rings (size 3 to 8) (size 9 to 14) (size 15 to 20)
#    0.000    1.600    0.000    2.400    0.000   12.800 
#    0.000   12.000    0.000    7.200    0.000    0.000 
#    0.000    0.000    0.000    0.000    0.000    0.000 
#
# Total GULP energy -56168.040720 kJ/mol
# GULP energy per Si atom -5616.804072 kJ/mol
# Density = 2.683433 g / cm^3
# Si number density = 26.895545 Si / 1000 Ang^3
#
#
#
# Elastic Constant Matrix: (Units=GPa)
#
#
# Indices 1 2 3 4 5 6 
#
# 1 103.6478 15.8633 27.7534 6.8812 -0.8563 7.3993
# 2 15.8633 73.3586 8.6442 13.8938 -10.2678 -2.2052
# 3 27.7534 8.6442 184.9814 41.0221 6.8690 1.7181
# 4 6.8812 13.8938 41.0221 35.9374 0.2616 3.1351
# 5 -0.8563 -10.2678 6.8690 0.2616 37.7791 -4.9155
# 6 7.3993 -2.2052 1.7181 3.1351 -4.9155 25.0088
#
#
#
# Elastic Compliance Matrix: (Units=1/GPa)
#
#
# Indices 1 2 3 4 5 6 
#
# 1 0.010653 -0.002517 -0.001685 0.001168 -0.000603 -0.003523
# 2 -0.002517 0.016228 0.001038 -0.007357 0.004730 0.003956
# 3 -0.001685 0.001038 0.007593 -0.008826 -0.000947 0.000989
# 4 0.001168 -0.007357 -0.008826 0.041039 -0.001408 -0.005809
# 5 -0.000603 0.004730 -0.000947 -0.001408 0.028768 0.006491
# 6 -0.003523 0.003956 0.000989 -0.005809 0.006491 0.043313
#
#
# Mechanical properties :
#
#
# Convention : Reuss Voigt Hill
#
# Bulk Modulus (GPa) = 35.52553 51.83441 43.67997
# Shear Modulus (GPa) = 30.61785 40.39353 35.50569
#
# Velocity S-wave (km/s) = 3.37768 3.87960 3.63730
# Velocity P-wave (km/s) = 5.33376 6.27556 5.82373
#
# Compressibility (1/GPa) = 0.02814877
#
# Stress axis : x y z
#
# Youngs Moduli (GPa) = 93.86759 61.62233 131.69251
#
# Poissons Ratio (x) = 0.15508 0.22185
# Poissons Ratio (y) = 0.23623 -0.13674
# Poissons Ratio (z) = 0.15813 -0.06398
#
# Static dielectric constant tensor:
#      x y z
#    x 2.007230 -0.020180 0.021370 
#    y -0.020180 2.063750 0.019690 
#    z 0.021370 0.019690 2.103870 
# 
# From -- ./inp_files/5568.got.cif
#   From: 2010.05.17/outbox.cif.g08.bks.cpg/sg2_3_cif.got.tgz:5568.got - 2010.06.03 11:33:40.
