data_PCOD9048470
_publ_section_title
;
Structure prediction by ZEFSAII (Michael W. Deem and Ramdas Pophale) SiO2 
 PCOD9048470
Probable space group: P -1
;
_chemical_formula_sum "Si O2"
_cell_formula_units_Z 9
_cell_length_a 13.728546
_cell_length_b 12.562796
_cell_length_c 6.026905
_cell_angle_alpha 91.395510
_cell_angle_beta 66.395221
_cell_angle_gamma 34.068922
_cell_volume 384.348728
_symmetry_space_group_name_H-M "P -1"
_symmetry_group_IT_number 2
_symmetry_cell_setting 'triclinic'
loop_
_space_group_symop_operation_xyz
x,y,z
-x,-y,-z
loop_
_atom_site_type_symbol
_atom_site_label
_atom_site_fract_x
_atom_site_fract_y
_atom_site_fract_z
Si Si1 0.441397 0.937060 0.149978
Si Si2 0.782279 0.283744 0.798210
Si Si3 0.046905 0.574620 0.057055
Si Si4 0.000000 0.000000 0.000000
Si Si5 0.076254 0.145245 0.184285
O O1 0.333578 0.958910 0.056576
O O2 0.201817 0.168178 0.551857
O O3 0.500000 0.000000 0.000000
O O4 0.691874 0.666343 0.044059
O O5 0.818991 0.247795 0.024851
O O6 0.870401 0.304121 0.576705
O O7 0.500000 0.500000 0.000000
O O8 0.000000 0.000000 0.500000
O O9 0.000000 0.500000 0.000000
O O10 0.048100 0.654433 0.855363
O O11 0.862285 0.020799 0.010067
#
# Coordination Sequence:
#
# PCOD9048470 Si02
#       5
#     2   2   2   1   2
#     4  12  27  48  76 113 155 198 255 313 378 452
#     4  10  24  45  69 101 142 191 248 303 360 438
#     4  12  27  48  77 114 154 201 253 311 385 457
#     4  10  24  48  70 106 146 198 250 300 376 442
#     4  11  26  45  78 108 156 198 254 311 380 448
#
# _framework density 23.416232999999998
#
# number of rings (size 3 to 8) (size 9 to 14) (size 15 to 20)
#    0.000    0.889    2.222    2.667    0.000   16.000 
#    0.000    0.000    0.000    0.000    0.000    0.000 
#    0.000    0.000    0.000    0.000    0.000    0.000 
#
# Total GULP energy -50120.065801 kJ/mol
# GULP energy per Si atom -5568.896200 kJ/mol
# Density = 2.336294 g / cm^3
# Si number density = 23.416233 Si / 1000 Ang^3
#
#
#
# Elastic Constant Matrix: (Units=GPa)
#
#
# Indices 1 2 3 4 5 6 
#
# 1 222.3852 80.7717 30.5380 -1.7836 -21.8013 -14.2645
# 2 80.7717 263.7425 83.7473 -10.8586 -46.6141 -9.9658
# 3 30.5380 83.7473 98.6767 15.4713 -30.9370 3.2168
# 4 -1.7836 -10.8586 15.4713 46.7484 10.2616 -18.4561
# 5 -21.8013 -46.6141 -30.9370 10.2616 41.4732 4.5012
# 6 -14.2645 -9.9658 3.2168 -18.4561 4.5012 55.6397
#
#
#
# Elastic Compliance Matrix: (Units=1/GPa)
#
#
# Indices 1 2 3 4 5 6 
#
# 1 0.005162 -0.001271 -0.000335 0.000277 0.000843 0.001139
# 2 -0.001271 0.006307 -0.005167 0.003689 0.001413 0.002212
# 3 -0.000335 -0.005167 0.022034 -0.015206 0.015144 -0.008554
# 4 0.000277 0.003689 -0.015206 0.037333 -0.017965 0.015448
# 5 0.000843 0.001413 0.015144 -0.017965 0.042953 -0.009840
# 6 0.001139 0.002212 -0.008554 0.015448 -0.009840 0.025076
#
#
# Mechanical properties :
#
#
# Convention : Reuss Voigt Hill
#
# Bulk Modulus (GPa) = 50.10817 108.32426 79.21622
# Shear Modulus (GPa) = 31.43411 54.75541 43.09476
#
# Velocity S-wave (km/s) = 3.66786 4.84090 4.29462
# Velocity P-wave (km/s) = 6.27559 8.80945 7.64818
#
# Compressibility (1/GPa) = 0.01995683
#
# Stress axis : x y z
#
# Youngs Moduli (GPa) = 193.71157 158.56183 45.38526
#
# Poissons Ratio (x) = 0.20155 0.01521
# Poissons Ratio (y) = 0.24623 0.23448
# Poissons Ratio (z) = 0.06493 0.81922
#
# Static dielectric constant tensor:
#      x y z
#    x 1.915120 0.009780 0.041390 
#    y 0.009780 1.908650 -0.115240 
#    z 0.041390 -0.115240 1.985150 
# 
# From -- ./inp_files/66686.got.cif
#   From: 2010.05.17/outbox.cif.g08.bks.cpg/sg2_34_cif.got.tgz:66686.got - 2010.06.03 11:33:40.
