data_PCOD9048058
_publ_section_title
;
Structure prediction by ZEFSAII (Michael W. Deem and Ramdas Pophale) SiO2 
 PCOD9048058
Probable space group: P -1
;
_chemical_formula_sum "Si O2"
_cell_formula_units_Z 16
_cell_length_a 15.035255
_cell_length_b 9.430692
_cell_length_c 8.139789
_cell_angle_alpha 66.641145
_cell_angle_beta 62.591448
_cell_angle_gamma 38.169070
_cell_volume 631.930648
_symmetry_space_group_name_H-M "P -1"
_symmetry_group_IT_number 2
_symmetry_cell_setting 'triclinic'
loop_
_space_group_symop_operation_xyz
x,y,z
-x,-y,-z
loop_
_atom_site_type_symbol
_atom_site_label
_atom_site_fract_x
_atom_site_fract_y
_atom_site_fract_z
Si Si1 0.364532 0.562813 0.736633
Si Si2 0.923455 0.119705 0.335334
Si Si3 0.170039 0.297595 0.287038
Si Si4 0.470769 0.350149 0.265586
Si Si5 0.915578 0.492561 0.210429
Si Si6 0.642299 0.958314 0.090022
Si Si7 0.182266 0.648642 0.162130
Si Si8 0.551421 0.084924 0.624522
O O1 0.466765 0.579237 0.716314
O O2 0.469848 0.307995 0.698927
O O3 0.260479 0.618004 0.944687
O O4 0.245313 0.745924 0.613000
O O5 0.033613 0.912291 0.208575
O O6 0.000000 0.000000 0.500000
O O7 0.914431 0.316128 0.239082
O O8 0.153397 0.499446 0.233184
O O9 0.010669 0.403724 0.335882
O O10 0.270180 0.111277 0.430547
O O11 0.271600 0.146675 0.106688
O O12 0.304153 0.541880 0.250938
O O13 0.490249 0.184983 0.449380
O O14 0.585834 0.189079 0.090911
O O15 0.752736 0.751275 0.222159
O O16 0.000000 0.500000 0.000000
O O17 0.495534 0.020774 0.199022
#
# Coordination Sequence:
#
# PCOD9048058 Si02
#       8
#     2   2   2   2   2   2   2   2
#     4  12  26  46  69  98 138 186 227 277 342 416
#     4  12  28  47  73 104 145 178 225 293 353 404
#     4  11  24  42  73 101 131 181 232 284 334 414
#     4  12  28  40  69 104 138 180 226 288 341 407
#     4  10  24  44  72  99 133 183 229 279 337 413
#     4  11  22  45  68  96 138 178 233 278 340 406
#     4  12  26  46  70 102 139 180 232 278 346 413
#     4  12  23  45  67  96 140 177 228 284 344 394
#
# _framework density 25.319234999999999
#
# number of rings (size 3 to 8) (size 9 to 14) (size 15 to 20)
#    0.000    0.500    3.750    4.125    8.750    0.000 
#    0.000    1.250    0.000    0.000    0.000    0.000 
#    0.000    0.000    0.000    0.000    0.000    0.000 
#
# Total GULP energy -89700.767160 kJ/mol
# GULP energy per Si atom -5606.297947 kJ/mol
# Density = 2.526161 g / cm^3
# Si number density = 25.319235 Si / 1000 Ang^3
#
#
#
# Elastic Constant Matrix: (Units=GPa)
#
#
# Indices 1 2 3 4 5 6 
#
# 1 131.1476 45.7643 -0.5339 2.4326 20.2331 -5.2914
# 2 45.7643 135.0630 -5.5831 15.5189 4.9319 -13.7079
# 3 -0.5339 -5.5831 70.0111 6.6723 8.0888 0.6335
# 4 2.4326 15.5189 6.6723 36.3795 -7.7080 16.5192
# 5 20.2331 4.9319 8.0888 -7.7080 35.1407 -14.7144
# 6 -5.2914 -13.7079 0.6335 16.5192 -14.7144 50.7110
#
#
#
# Elastic Compliance Matrix: (Units=1/GPa)
#
#
# Indices 1 2 3 4 5 6 
#
# 1 0.009570 -0.003185 0.000494 0.000120 -0.005819 -0.001596
# 2 -0.003185 0.009639 0.001186 -0.005964 0.000751 0.004419
# 3 0.000494 0.001186 0.015372 -0.004496 -0.004880 0.000229
# 4 0.000120 -0.005964 -0.004496 0.037483 0.004855 -0.012345
# 5 -0.005819 0.000751 -0.004880 0.004855 0.037660 0.009003
# 6 -0.001596 0.004419 0.000229 -0.012345 0.009003 0.027378
#
#
# Mechanical properties :
#
#
# Convention : Reuss Voigt Hill
#
# Bulk Modulus (GPa) = 31.67591 46.16847 38.92219
# Shear Modulus (GPa) = 33.19290 44.21788 38.70539
#
# Velocity S-wave (km/s) = 3.62467 4.18355 3.91409
# Velocity P-wave (km/s) = 5.48228 6.45060 5.98605
#
# Compressibility (1/GPa) = 0.03156973
#
# Stress axis : x y z
#
# Youngs Moduli (GPa) = 104.49715 103.74927 65.05324
#
# Poissons Ratio (x) = 0.33049 -0.03215
# Poissons Ratio (y) = 0.33287 -0.07715
# Poissons Ratio (z) = -0.05164 -0.12305
#
# Static dielectric constant tensor:
#      x y z
#    x 2.086730 -0.058970 0.022310 
#    y -0.058970 1.979280 0.016470 
#    z 0.022310 0.016470 2.074310 
# 
# From -- ./inp_files/180207.got.cif
#   From: 2010.05.17/outbox.cif.g08.bks.cpg/sg2_91_cif.got.tgz:180207.got - 2010.06.03 11:33:40.
