data_PCOD9048761
_publ_section_title
;
Structure prediction by ZEFSAII (Michael W. Deem and Ramdas Pophale) SiO2 
 PCOD9048761
Probable space group: P -1
;
_chemical_formula_sum "Si O2"
_cell_formula_units_Z 14
_cell_length_a 7.823798
_cell_length_b 5.656196
_cell_length_c 16.791712
_cell_angle_alpha 70.192255
_cell_angle_beta 126.405557
_cell_angle_gamma 114.948973
_cell_volume 538.246592
_symmetry_space_group_name_H-M "P -1"
_symmetry_group_IT_number 2
_symmetry_cell_setting 'triclinic'
loop_
_space_group_symop_operation_xyz
x,y,z
-x,-y,-z
loop_
_atom_site_type_symbol
_atom_site_label
_atom_site_fract_x
_atom_site_fract_y
_atom_site_fract_z
Si Si1 0.507558 0.881307 0.928103
Si Si2 0.769373 0.575272 0.855274
Si Si3 0.891717 0.695756 0.492935
Si Si4 0.852285 0.002527 0.716036
Si Si5 0.697922 0.500437 0.616048
Si Si6 0.676421 0.749331 0.269832
Si Si7 0.848569 0.606201 0.054675
O O1 0.317645 0.599027 0.908869
O O2 0.445253 0.043477 0.820719
O O3 0.753600 0.852692 0.995341
O O4 0.500000 0.000000 0.000000
O O5 0.887014 0.869927 0.823989
O O6 0.506359 0.517008 0.777032
O O7 0.903058 0.406203 0.861908
O O8 0.794045 0.505306 0.960948
O O9 0.893579 0.603474 0.594542
O O10 0.696653 0.705934 0.375019
O O11 0.000000 0.500000 0.500000
O O12 0.000000 0.000000 0.500000
O O13 0.732072 0.740092 0.660525
O O14 0.710617 0.205899 0.667702
O O15 0.083714 0.151397 0.718507
O O16 0.500000 0.500000 0.500000
#
# Coordination Sequence:
#
# PCOD9048761 Si02
#       7
#     2   2   2   2   2   2   2
#     4  11  23  46  74 105 151 202 247 315 391 454
#     4  11  25  47  73 117 146 202 263 311 389 464
#     4  12  25  48  75 107 149 195 256 313 374 452
#     4  12  27  48  76 112 154 195 257 315 382 462
#     4  12  26  50  76 106 150 198 250 325 382 445
#     4  12  25  45  77 109 151 205 254 312 395 451
#     4  10  24  45  72 106 156 194 253 323 377 462
#
# _framework density 26.010382
#
# number of rings (size 3 to 8) (size 9 to 14) (size 15 to 20)
#    0.000    0.571    5.714    1.286    0.000    7.429 
#    0.000    0.000    0.000    0.000    0.000    0.000 
#    0.000    0.000    0.000    0.000    0.000    0.000 
#
# Total GULP energy -78104.405528 kJ/mol
# GULP energy per Si atom -5578.886109 kJ/mol
# Density = 2.595118 g / cm^3
# Si number density = 26.010382 Si / 1000 Ang^3
#
#
#
# Elastic Constant Matrix: (Units=GPa)
#
#
# Indices 1 2 3 4 5 6 
#
# 1 87.9128 45.8203 15.9834 -10.3805 18.6240 -6.6584
# 2 45.8203 124.0083 58.1787 -22.2157 21.2955 -26.6485
# 3 15.9834 58.1787 139.5411 -21.1032 7.0255 -5.8031
# 4 -10.3805 -22.2157 -21.1032 63.7740 5.8365 5.2396
# 5 18.6240 21.2955 7.0255 5.8365 52.9087 -10.3773
# 6 -6.6584 -26.6485 -5.8031 5.2396 -10.3773 45.7323
#
#
#
# Elastic Compliance Matrix: (Units=1/GPa)
#
#
# Indices 1 2 3 4 5 6 
#
# 1 0.014834 -0.005429 0.000867 0.001300 -0.003663 -0.001874
# 2 -0.005429 0.014399 -0.004661 0.002289 -0.002297 0.006225
# 3 0.000867 -0.004661 0.009209 0.001716 -0.000166 -0.001655
# 4 0.001300 0.002289 0.001716 0.017697 -0.003783 -0.001146
# 5 -0.003663 -0.002297 -0.000166 -0.003783 0.022258 0.003591
# 6 -0.001874 0.006225 -0.001655 -0.001146 0.003591 0.025957
#
#
# Mechanical properties :
#
#
# Convention : Reuss Voigt Hill
#
# Bulk Modulus (GPa) = 50.00615 65.71411 57.86013
# Shear Modulus (GPa) = 38.62045 47.91498 43.26771
#
# Velocity S-wave (km/s) = 3.85750 4.29668 4.08300
# Velocity P-wave (km/s) = 6.25361 7.06645 6.67242
#
# Compressibility (1/GPa) = 0.01999754
#
# Stress axis : x y z
#
# Youngs Moduli (GPa) = 67.41172 69.45088 108.58624
#
# Poissons Ratio (x) = 0.37704 -0.09418
# Poissons Ratio (y) = 0.36597 0.50609
# Poissons Ratio (z) = -0.05847 0.32369
#
# Static dielectric constant tensor:
#      x y z
#    x 2.112420 -0.024830 0.110280 
#    y -0.024830 2.067180 0.036530 
#    z 0.110280 0.036530 2.050690 
# 
# From -- ./inp_files/552493.got.cif
#   From: 2010.05.17/outbox.cif.g08.bks.cpg/sg2_277_cif.got.tgz:552493.got - 2010.06.03 11:33:40.
