data_PCOD9048401
_publ_section_title
;
Structure prediction by ZEFSAII (Michael W. Deem and Ramdas Pophale) SiO2 
 PCOD9048401
Probable space group: P -1
;
_chemical_formula_sum "Si O2"
_cell_formula_units_Z 16
_cell_length_a 7.146977
_cell_length_b 18.678584
_cell_length_c 11.186244
_cell_angle_alpha 143.299404
_cell_angle_beta 80.113670
_cell_angle_gamma 75.050995
_cell_volume 651.130571
_symmetry_space_group_name_H-M "P -1"
_symmetry_group_IT_number 2
_symmetry_cell_setting 'triclinic'
loop_
_space_group_symop_operation_xyz
x,y,z
-x,-y,-z
loop_
_atom_site_type_symbol
_atom_site_label
_atom_site_fract_x
_atom_site_fract_y
_atom_site_fract_z
Si Si1 0.761448 0.428068 0.945485
Si Si2 0.304775 0.366787 0.388195
Si Si3 0.438334 0.194215 0.773139
Si Si4 0.860879 0.445525 0.706066
Si Si5 0.385464 0.701114 0.526185
Si Si6 0.101138 0.274619 0.105616
Si Si7 0.196203 0.963776 0.707789
Si Si8 0.906055 0.943443 0.531410
O O1 0.914278 0.423460 0.813162
O O2 0.923939 0.246404 0.728133
O O3 0.500000 0.500000 0.000000
O O4 0.653195 0.550959 0.230377
O O5 0.555435 0.288110 0.330749
O O6 0.295834 0.281122 0.163152
O O7 0.100737 0.390477 0.531758
O O8 0.173596 0.547518 0.607091
O O9 0.569604 0.137177 0.551874
O O10 0.626320 0.043753 0.642242
O O11 0.377575 0.361102 0.025985
O O12 0.170501 0.251055 0.924865
O O13 0.787522 0.343541 0.534071
O O14 0.277627 0.858682 0.675468
O O15 0.125829 0.130870 0.956220
O O16 0.960238 0.990738 0.711198
O O17 0.000000 0.000000 0.500000
#
# Coordination Sequence:
#
# PCOD9048401 Si02
#       8
#     2   2   2   2   2   2   2   2
#     4  10  17  34  58  90 131 149 193 255 295 368
#     4  10  25  44  62  86 120 169 211 247 298 360
#     4  10  21  38  62  91 123 158 197 255 316 353
#     4  10  20  41  62  93 126 154 202 254 300 372
#     4  11  21  38  65  92 121 162 196 249 316 359
#     4  10  24  45  57  84 127 156 210 260 287 366
#     4  11  20  37  61  94 122 151 199 255 312 361
#     4  10  19  31  57  94 121 155 190 241 315 362
#
# _framework density 24.572645000000001
#
# number of rings (size 3 to 8) (size 9 to 14) (size 15 to 20)
#    0.000    1.750    3.750    2.625    5.250    2.000 
#    2.250    2.500    0.000    0.000    0.000    0.000 
#    0.000    0.000    0.000    0.000    0.000    0.000 
#
# Total GULP energy -89423.531008 kJ/mol
# GULP energy per Si atom -5588.970688 kJ/mol
# Density = 2.451672 g / cm^3
# Si number density = 24.572645 Si / 1000 Ang^3
#
#
#
# Elastic Constant Matrix: (Units=GPa)
#
#
# Indices 1 2 3 4 5 6 
#
# 1 71.7012 29.7105 33.3782 12.5567 23.6911 -7.6047
# 2 29.7105 112.1656 57.9523 31.6208 16.3560 -8.1872
# 3 33.3782 57.9523 102.5880 18.0479 28.5051 4.7350
# 4 12.5567 31.6208 18.0479 60.5147 12.4736 2.4722
# 5 23.6911 16.3560 28.5051 12.4736 32.6089 -3.7348
# 6 -7.6047 -8.1872 4.7350 2.4722 -3.7348 48.3953
#
#
#
# Elastic Compliance Matrix: (Units=1/GPa)
#
#
# Indices 1 2 3 4 5 6 
#
# 1 0.019807 -0.002381 -0.002102 -0.000033 -0.011110 0.002060
# 2 -0.002381 0.014978 -0.007849 -0.005906 0.003741 0.003518
# 3 -0.002102 -0.007849 0.017922 0.001712 -0.011359 -0.004376
# 4 -0.000033 -0.005906 0.001712 0.020601 -0.006705 -0.002742
# 5 -0.011110 0.003741 -0.011359 -0.006705 0.049836 0.004187
# 6 0.002060 0.003518 -0.004376 -0.002742 0.004187 0.022473
#
#
# Mechanical properties :
#
#
# Convention : Reuss Voigt Hill
#
# Bulk Modulus (GPa) = 35.65813 58.72633 47.19223
# Shear Modulus (GPa) = 27.83519 39.33136 33.58328
#
# Velocity S-wave (km/s) = 3.36932 4.00511 3.70089
# Velocity P-wave (km/s) = 5.44786 6.73341 6.12446
#
# Compressibility (1/GPa) = 0.02804409
#
# Stress axis : x y z
#
# Youngs Moduli (GPa) = 50.48760 66.76581 55.79592
#
# Poissons Ratio (x) = 0.15896 0.11726
# Poissons Ratio (y) = 0.12021 0.43794
# Poissons Ratio (z) = 0.10610 0.52405
#
# Static dielectric constant tensor:
#      x y z
#    x 2.164140 -0.038310 -0.054480 
#    y -0.038310 1.977750 -0.034210 
#    z -0.054480 -0.034210 1.974450 
# 
# From -- ./inp_files/392791.got.cif
#   From: 2010.05.17/outbox.cif.g08.bks.cpg/sg2_197_cif.got.tgz:392791.got - 2010.06.03 11:33:40.
