data_PCOD9048893
_publ_section_title
;
Structure prediction by ZEFSAII (Michael W. Deem and Ramdas Pophale) SiO2 
 PCOD9048893
Probable space group: P -1
;
_chemical_formula_sum "Si O2"
_cell_formula_units_Z 10
_cell_length_a 10.728125
_cell_length_b 9.682125
_cell_length_c 4.925450
_cell_angle_alpha 58.816269
_cell_angle_beta 103.383264
_cell_angle_gamma 104.225706
_cell_volume 420.903883
_symmetry_space_group_name_H-M "P -1"
_symmetry_group_IT_number 2
_symmetry_cell_setting 'triclinic'
loop_
_space_group_symop_operation_xyz
x,y,z
-x,-y,-z
loop_
_atom_site_type_symbol
_atom_site_label
_atom_site_fract_x
_atom_site_fract_y
_atom_site_fract_z
Si Si1 0.007867 0.811550 0.167926
Si Si2 0.518652 0.122627 0.134295
Si Si3 0.231753 0.667289 0.702450
Si Si4 0.134874 0.347157 0.241789
Si Si5 0.367568 0.393496 0.945185
O O1 0.901244 0.709301 0.416972
O O2 0.145355 0.772689 0.381012
O O3 0.969465 0.756542 0.901858
O O4 0.000000 0.000000 0.000000
O O5 0.658220 0.230420 0.160483
O O6 0.500000 0.000000 0.500000
O O7 0.413169 0.247756 0.948008
O O8 0.500000 0.000000 0.000000
O O9 0.294159 0.542905 0.658778
O O10 0.142324 0.537911 0.980497
O O11 0.275624 0.318812 0.224050
O O12 0.500000 0.500000 0.000000
#
# Coordination Sequence:
#
# PCOD9048893 Si02
#       5
#     2   2   2   2   2
#     4  12  25  44  69 111 143 183 237 301 355 406
#     4  11  25  45  70 107 143 180 233 304 357 408
#     4   9  23  47  73 103 142 192 239 279 355 433
#     4  10  24  45  74  95 147 188 240 283 353 428
#     4   8  20  47  70 104 136 189 238 287 351 436
#
# _framework density 23.758393999999999
#
# number of rings (size 3 to 8) (size 9 to 14) (size 15 to 20)
#    1.200    0.800    0.000    1.800    2.800    4.800 
#    0.000    4.000    0.000    0.000    0.000    0.000 
#    0.000    0.000    0.000    0.000    0.000    0.000 
#
# Total GULP energy -55854.338345 kJ/mol
# GULP energy per Si atom -5585.433834 kJ/mol
# Density = 2.370432 g / cm^3
# Si number density = 23.758394 Si / 1000 Ang^3
#
#
#
# Elastic Constant Matrix: (Units=GPa)
#
#
# Indices 1 2 3 4 5 6 
#
# 1 115.4005 57.9531 18.7701 -6.7938 41.9367 -16.7554
# 2 57.9531 195.6894 49.1124 -11.2153 26.5176 -19.4597
# 3 18.7701 49.1124 88.9827 -9.8509 24.2367 -10.4588
# 4 -6.7938 -11.2153 -9.8509 43.7690 -11.8771 3.8262
# 5 41.9367 26.5176 24.2367 -11.8771 33.4203 -6.7559
# 6 -16.7554 -19.4597 -10.4588 3.8262 -6.7559 45.4806
#
#
#
# Elastic Compliance Matrix: (Units=1/GPa)
#
#
# Indices 1 2 3 4 5 6 
#
# 1 0.019021 -0.003263 0.004649 -0.004020 -0.025424 0.003242
# 2 -0.003263 0.006851 -0.003296 0.000835 0.001575 0.001135
# 3 0.004649 -0.003296 0.016278 -0.000662 -0.014876 0.001892
# 4 -0.004020 0.000835 -0.000662 0.026178 0.013878 -0.001416
# 5 -0.025424 0.001575 -0.014876 0.013878 0.075890 -0.002008
# 6 0.003242 0.001135 0.001892 -0.001416 -0.002008 0.023923
#
#
# Mechanical properties :
#
#
# Convention : Reuss Voigt Hill
#
# Bulk Modulus (GPa) = 26.08853 72.41597 49.25225
# Shear Modulus (GPa) = 27.06556 42.81644 34.94100
#
# Velocity S-wave (km/s) = 3.37887 4.24979 3.83911
# Velocity P-wave (km/s) = 5.12122 7.39103 6.35823
#
# Compressibility (1/GPa) = 0.03833103
#
# Stress axis : x y z
#
# Youngs Moduli (GPa) = 52.57339 145.96549 61.43396
#
# Poissons Ratio (x) = 0.47624 -0.28564
# Poissons Ratio (y) = 0.17153 0.20249
# Poissons Ratio (z) = -0.24444 0.48111
#
# Static dielectric constant tensor:
#      x y z
#    x 2.036270 -0.008030 0.036120 
#    y -0.008030 1.846380 0.010440 
#    z 0.036120 0.010440 1.879370 
# 
# From -- ./inp_files/33840.got.cif
#   From: 2010.05.17/outbox.cif.g08.bks.cpg/sg2_17_cif.got.tgz:33840.got - 2010.06.03 11:33:40.
