data_PCOD9048121
_publ_section_title
;
Structure prediction by ZEFSAII (Michael W. Deem and Ramdas Pophale) SiO2 
 PCOD9048121
Probable space group: P -1
;
_chemical_formula_sum "Si O2"
_cell_formula_units_Z 13
_cell_length_a 8.636398
_cell_length_b 12.436364
_cell_length_c 8.393877
_cell_angle_alpha 49.891515
_cell_angle_beta 54.166798
_cell_angle_gamma 47.482964
_cell_volume 489.900953
_symmetry_space_group_name_H-M "P -1"
_symmetry_group_IT_number 2
_symmetry_cell_setting 'triclinic'
loop_
_space_group_symop_operation_xyz
x,y,z
-x,-y,-z
loop_
_atom_site_type_symbol
_atom_site_label
_atom_site_fract_x
_atom_site_fract_y
_atom_site_fract_z
Si Si1 0.192987 0.629933 0.244639
Si Si2 0.885417 0.086505 0.149582
Si Si3 0.732040 0.692351 0.524286
Si Si4 0.591023 0.317723 0.667291
Si Si5 0.203251 0.333382 0.103653
Si Si6 0.500000 0.000000 0.500000
Si Si7 0.709436 0.992124 0.790374
O O1 0.337127 0.439611 0.351252
O O2 0.198194 0.711073 0.330221
O O3 0.954095 0.651589 0.338657
O O4 0.244795 0.722394 0.990084
O O5 0.073712 0.058142 0.185564
O O6 0.710981 0.029854 0.342029
O O7 0.000000 0.000000 0.000000
O O8 0.766567 0.675648 0.713527
O O9 0.588935 0.880107 0.406112
O O10 0.500000 0.500000 0.500000
O O11 0.641815 0.182184 0.634982
O O12 0.416711 0.317223 0.899967
O O13 0.207295 0.165102 0.222745
O O14 0.000000 0.500000 0.000000
O O15 0.500000 0.000000 0.000000
#
# Coordination Sequence:
#
# PCOD9048121 Si02
#       7
#     2   2   2   2   2   1   2
#     4  11  24  46  71  99 141 189 237 298 367 418
#     4  12  23  46  77 103 146 184 242 300 356 422
#     4  11  25  42  69 103 138 184 240 297 354 427
#     4  11  23  42  67  97 139 186 233 291 362 424
#     4  11  24  43  66  97 140 177 239 292 350 430
#     4  12  26  42  72 110 138 184 248 288 356 428
#     4  10  24  44  74 101 140 195 231 295 367 425
#
# _framework density 26.535976000000002
#
# number of rings (size 3 to 8) (size 9 to 14) (size 15 to 20)
#    0.000    0.923    3.077    2.769    2.154    8.615 
#    0.000    5.385    0.000    0.000    0.000    0.000 
#    0.000    0.000    0.000    0.000    0.000    0.000 
#
# Total GULP energy -72435.446293 kJ/mol
# GULP energy per Si atom -5571.957407 kJ/mol
# Density = 2.647558 g / cm^3
# Si number density = 26.535976 Si / 1000 Ang^3
#
#
#
# Elastic Constant Matrix: (Units=GPa)
#
#
# Indices 1 2 3 4 5 6 
#
# 1 97.6066 52.6901 59.3455 -14.1824 -31.3561 31.2884
# 2 52.6901 157.3053 37.2159 -46.4727 -7.2987 36.3861
# 3 59.3455 37.2159 121.5188 -19.8308 -26.0414 3.9746
# 4 -14.1824 -46.4727 -19.8308 54.1390 -2.8832 -12.6812
# 5 -31.3561 -7.2987 -26.0414 -2.8832 46.3342 2.7657
# 6 31.2884 36.3861 3.9746 -12.6812 2.7657 59.3964
#
#
#
# Elastic Compliance Matrix: (Units=1/GPa)
#
#
# Indices 1 2 3 4 5 6 
#
# 1 0.024111 -0.003596 -0.008066 -0.001641 0.011763 -0.010857
# 2 -0.003596 0.010403 -0.000222 0.007209 -0.000297 -0.002911
# 3 -0.008066 -0.000222 0.013072 0.003562 0.001825 0.004186
# 4 -0.001641 0.007209 0.003562 0.026102 0.003555 0.001617
# 5 0.011763 -0.000297 0.001825 0.003555 0.031151 -0.006828
# 6 -0.010857 -0.002911 0.004186 0.001617 -0.006828 0.024721
#
#
# Mechanical properties :
#
#
# Convention : Reuss Voigt Hill
#
# Bulk Modulus (GPa) = 41.98292 74.99263 58.48778
# Shear Modulus (GPa) = 31.00455 47.11918 39.06187
#
# Velocity S-wave (km/s) = 3.42189 4.21844 3.84087
# Velocity P-wave (km/s) = 5.60963 7.21451 6.46208
#
# Compressibility (1/GPa) = 0.02381921
#
# Stress axis : x y z
#
# Youngs Moduli (GPa) = 41.47546 96.12216 76.50112
#
# Poissons Ratio (x) = 0.34563 0.61702
# Poissons Ratio (y) = 0.14913 0.01699
# Poissons Ratio (z) = 0.33452 0.02134
#
# Static dielectric constant tensor:
#      x y z
#    x 2.181870 -0.148090 0.163940 
#    y -0.148090 2.223930 -0.134910 
#    z 0.163940 -0.134910 1.979300 
# 
# From -- ./inp_files/158051.got.cif
#   From: 2010.05.17/outbox.cif.g08.bks.cpg/sg2_80_cif.got.tgz:158051.got - 2010.06.03 11:33:40.
