data_PCOD9048132
_publ_section_title
;
Structure prediction by ZEFSAII (Michael W. Deem and Ramdas Pophale) SiO2 
 PCOD9048132
Probable space group: P -1
;
_chemical_formula_sum "Si O2"
_cell_formula_units_Z 14
_cell_length_a 14.165849
_cell_length_b 5.993970
_cell_length_c 12.344689
_cell_angle_alpha 64.647437
_cell_angle_beta 30.417411
_cell_angle_gamma 69.336840
_cell_volume 479.272809
_symmetry_space_group_name_H-M "P -1"
_symmetry_group_IT_number 2
_symmetry_cell_setting 'triclinic'
loop_
_space_group_symop_operation_xyz
x,y,z
-x,-y,-z
loop_
_atom_site_type_symbol
_atom_site_label
_atom_site_fract_x
_atom_site_fract_y
_atom_site_fract_z
Si Si1 0.858625 0.262810 0.668879
Si Si2 0.380484 0.272407 0.711836
Si Si3 0.648473 0.864904 0.562288
Si Si4 0.500000 0.000000 0.000000
Si Si5 0.897884 0.149390 0.401956
Si Si6 0.000000 0.500000 0.000000
Si Si7 0.023724 0.672541 0.133308
Si Si8 0.359648 0.439498 0.943029
O O1 0.880700 0.240556 0.521190
O O2 0.000000 0.500000 0.500000
O O3 0.636281 0.197650 0.902995
O O4 0.947839 0.050814 0.698290
O O5 0.500000 0.500000 0.500000
O O6 0.174957 0.296188 0.864029
O O7 0.368849 0.310452 0.844120
O O8 0.491897 0.026960 0.628456
O O9 0.849495 0.810604 0.321995
O O10 0.547015 0.602963 0.736256
O O11 0.707698 0.018146 0.579174
O O12 0.353541 0.219354 0.079677
O O13 0.939508 0.390318 0.234329
O O14 0.874407 0.294170 0.088520
O O15 0.179987 0.608041 0.079566
#
# Coordination Sequence:
#
# PCOD9048132 Si02
#       8
#     2   2   2   1   2   1   2   2
#     4  11  24  44  74 107 146 210 267 320 394 460
#     4  11  25  48  74 108 152 200 256 336 397 477
#     4  12  25  46  78 109 153 204 260 319 406 480
#     4  12  22  48  74 110 162 204 266 330 382 478
#     4  11  23  46  67 102 151 194 253 323 379 459
#     4  10  24  44  74 104 148 196 252 318 394 468
#     4  11  24  47  71 109 152 202 253 325 393 465
#     4  11  26  46  73 112 153 204 269 317 397 478
#
# _framework density 29.210923000000001
#
# number of rings (size 3 to 8) (size 9 to 14) (size 15 to 20)
#    0.000    0.857    1.429    6.000    0.000    5.714 
#    7.714    9.286    0.000    0.000    0.000    0.000 
#    0.000    0.000    0.000    0.000    0.000    0.000 
#
# Total GULP energy -78003.917167 kJ/mol
# GULP energy per Si atom -5571.708369 kJ/mol
# Density = 2.914444 g / cm^3
# Si number density = 29.210923 Si / 1000 Ang^3
#
#
#
# Elastic Constant Matrix: (Units=GPa)
#
#
# Indices 1 2 3 4 5 6 
#
# 1 155.0447 69.8224 55.3223 16.2584 -36.6635 3.8842
# 2 69.8224 156.2167 64.1289 14.8251 -17.2978 -31.5994
# 3 55.3223 64.1289 134.8926 14.6453 -28.7506 -16.7922
# 4 16.2584 14.8251 14.6453 78.2704 -3.6004 -20.6155
# 5 -36.6635 -17.2978 -28.7506 -3.6004 63.9977 6.5802
# 6 3.8842 -31.5994 -16.7922 -20.6155 6.5802 67.1941
#
#
#
# Elastic Compliance Matrix: (Units=1/GPa)
#
#
# Indices 1 2 3 4 5 6 
#
# 1 0.010133 -0.003992 -0.001622 -0.001865 0.004289 -0.003861
# 2 -0.003992 0.010117 -0.002950 0.000607 -0.001313 0.004566
# 3 -0.001622 -0.002950 0.010240 -0.000687 0.002755 0.000785
# 4 -0.001865 0.000607 -0.000687 0.014379 -0.000889 0.004720
# 5 0.004289 -0.001313 0.002755 -0.000889 0.019155 -0.002326
# 6 -0.003861 0.004566 0.000785 0.004720 -0.002326 0.019125
#
#
# Mechanical properties :
#
#
# Convention : Reuss Voigt Hill
#
# Bulk Modulus (GPa) = 74.83456 91.63349 83.23402
# Shear Modulus (GPa) = 47.74120 59.01779 53.37950
#
# Velocity S-wave (km/s) = 4.04711 4.49976 4.27943
# Velocity P-wave (km/s) = 6.89297 7.64427 7.27832
#
# Compressibility (1/GPa) = 0.01336281
#
# Stress axis : x y z
#
# Youngs Moduli (GPa) = 98.68941 98.84009 97.65421
#
# Poissons Ratio (x) = 0.39459 0.15836
# Poissons Ratio (y) = 0.39399 0.28807
# Poissons Ratio (z) = 0.16004 0.29157
#
# Static dielectric constant tensor:
#      x y z
#    x 4.465170 0.388160 1.551650 
#    y 0.388160 2.513580 0.206280 
#    z 1.551650 0.206280 3.311170 
# 
# From -- ./inp_files/525581.got.cif
#   From: 2010.05.17/outbox.cif.g08.bks.cpg/sg2_263_cif.got.tgz:525581.got - 2010.06.03 11:33:40.
