data_PCOD9048489
_publ_section_title
;
Structure prediction by ZEFSAII (Michael W. Deem and Ramdas Pophale) SiO2 
 PCOD9048489
Probable space group: P -1
;
_chemical_formula_sum "Si O2"
_cell_formula_units_Z 15
_cell_length_a 11.637921
_cell_length_b 12.971770
_cell_length_c 5.234071
_cell_angle_alpha 120.061633
_cell_angle_beta 115.231159
_cell_angle_gamma 78.223709
_cell_volume 618.582468
_symmetry_space_group_name_H-M "P -1"
_symmetry_group_IT_number 2
_symmetry_cell_setting 'triclinic'
loop_
_space_group_symop_operation_xyz
x,y,z
-x,-y,-z
loop_
_atom_site_type_symbol
_atom_site_label
_atom_site_fract_x
_atom_site_fract_y
_atom_site_fract_z
Si Si1 0.981378 0.579809 0.336957
Si Si2 0.749429 0.146206 0.506705
Si Si3 0.495050 0.368129 0.960956
Si Si4 0.736863 0.618668 0.895981
Si Si5 0.690452 0.813232 0.732096
Si Si6 0.241002 0.650050 0.579489
Si Si7 0.146141 0.978258 0.051786
Si Si8 0.500000 0.000000 0.000000
O O1 0.000000 0.500000 0.500000
O O2 0.098674 0.672315 0.571955
O O3 0.837964 0.624084 0.229607
O O4 0.000000 0.500000 0.000000
O O5 0.753932 0.285352 0.609476
O O6 0.797332 0.102747 0.770372
O O7 0.604894 0.104459 0.285481
O O8 0.829640 0.083212 0.276387
O O9 0.407927 0.376512 0.141737
O O10 0.634157 0.318846 0.099632
O O11 0.500000 0.500000 0.000000
O O12 0.413575 0.272070 0.605364
O O13 0.771826 0.726173 0.875892
O O14 0.748153 0.491682 0.614617
O O15 0.773383 0.897316 0.728908
O O16 0.616028 0.905395 0.953142
O O17 0.000000 0.000000 0.000000
#
# Coordination Sequence:
#
# PCOD9048489 Si02
#       8
#     2   2   2   2   2   2   2   1
#     4  10  24  45  69 103 154 202 247 300 378 461
#     4  11  27  46  77 107 144 202 248 327 378 456
#     4  12  25  42  76 115 154 197 252 317 395 470
#     4  11  25  46  73 111 155 200 253 316 392 466
#     4  11  27  47  79 109 151 206 254 330 384 467
#     4  11  25  45  71 113 153 197 251 317 388 464
#     4  11  28  51  76 107 149 202 271 317 381 450
#     4  10  26  50  70 104 152 192 262 304 388 440
#
# _framework density 24.248989000000002
#
# number of rings (size 3 to 8) (size 9 to 14) (size 15 to 20)
#    0.000    1.067    1.333    2.400   13.067    4.267 
#    0.000    0.000    0.000    0.000    0.000    0.000 
#    0.000    0.000    0.000    0.000    0.000    0.000 
#
# Total GULP energy -83689.925382 kJ/mol
# GULP energy per Si atom -5579.328359 kJ/mol
# Density = 2.419380 g / cm^3
# Si number density = 24.248989 Si / 1000 Ang^3
#
#
#
# Elastic Constant Matrix: (Units=GPa)
#
#
# Indices 1 2 3 4 5 6 
#
# 1 103.7851 39.1392 36.8203 -12.1535 32.9686 -3.5624
# 2 39.1392 182.2797 53.6072 -7.7665 15.8624 24.6014
# 3 36.8203 53.6072 74.9643 -5.6879 13.3820 12.3778
# 4 -12.1535 -7.7665 -5.6879 43.0112 -7.3076 -2.9091
# 5 32.9686 15.8624 13.3820 -7.3076 53.0851 2.3228
# 6 -3.5624 24.6014 12.3778 -2.9091 2.3228 30.7826
#
#
#
# Elastic Compliance Matrix: (Units=1/GPa)
#
#
# Indices 1 2 3 4 5 6 
#
# 1 0.015148 -0.001639 -0.005786 0.002379 -0.007402 0.006172
# 2 -0.001639 0.007614 -0.003843 0.000072 -0.000072 -0.004717
# 3 -0.005786 -0.003843 0.019851 -0.000087 -0.000030 -0.005586
# 4 0.002379 0.000072 -0.000087 0.024389 0.001774 0.002423
# 5 -0.007402 -0.000072 -0.000030 0.001774 0.023814 -0.002416
# 6 0.006172 -0.004717 -0.005586 0.002423 -0.002416 0.039628
#
#
# Mechanical properties :
#
#
# Convention : Reuss Voigt Hill
#
# Bulk Modulus (GPa) = 49.80466 68.90695 59.35580
# Shear Modulus (GPa) = 31.31471 40.80661 36.06066
#
# Velocity S-wave (km/s) = 3.59748 4.10667 3.86048
# Velocity P-wave (km/s) = 6.15136 7.13893 6.66347
#
# Compressibility (1/GPa) = 0.02007844
#
# Stress axis : x y z
#
# Youngs Moduli (GPa) = 66.01716 131.33556 50.37636
#
# Poissons Ratio (x) = 0.21520 0.29146
# Poissons Ratio (y) = 0.10817 0.19358
# Poissons Ratio (z) = 0.38195 0.50469
#
# Static dielectric constant tensor:
#      x y z
#    x 1.944250 -0.011690 -0.031030 
#    y -0.011690 1.919170 0.013440 
#    z -0.031030 0.013440 1.991670 
# 
# From -- ./inp_files/72486.got.cif
#   From: 2010.05.17/outbox.cif.g08.bks.cpg/sg2_37_cif.got.tgz:72486.got - 2010.06.03 11:33:40.
