data_PCOD9048610
_publ_section_title
;
Structure prediction by ZEFSAII (Michael W. Deem and Ramdas Pophale) SiO2 
 PCOD9048610
Probable space group: P -1
;
_chemical_formula_sum "Si O2"
_cell_formula_units_Z 13
_cell_length_a 8.215741
_cell_length_b 7.412296
_cell_length_c 13.968458
_cell_angle_alpha 132.774398
_cell_angle_beta 87.079094
_cell_angle_gamma 108.917736
_cell_volume 572.866541
_symmetry_space_group_name_H-M "P -1"
_symmetry_group_IT_number 2
_symmetry_cell_setting 'triclinic'
loop_
_space_group_symop_operation_xyz
x,y,z
-x,-y,-z
loop_
_atom_site_type_symbol
_atom_site_label
_atom_site_fract_x
_atom_site_fract_y
_atom_site_fract_z
Si Si1 0.192417 0.721901 0.554796
Si Si2 0.716081 0.770106 0.637067
Si Si3 0.897323 0.951129 0.177588
Si Si4 0.202681 0.892480 0.957897
Si Si5 0.000000 0.500000 0.000000
Si Si6 0.507011 0.307345 0.205437
Si Si7 0.338233 0.089956 0.524036
O O1 0.307982 0.541029 0.480110
O O2 0.225749 0.943674 0.716021
O O3 0.000000 0.500000 0.500000
O O4 0.185812 0.864368 0.506917
O O5 0.571854 0.792041 0.722129
O O6 0.709654 0.883326 0.573717
O O7 0.909362 0.936939 0.736407
O O8 0.908267 0.076348 0.117647
O O9 0.851820 0.637302 0.062307
O O10 0.088959 0.694651 0.972912
O O11 0.345531 0.788826 0.871596
O O12 0.330338 0.181978 0.101051
O O13 0.600070 0.624829 0.324402
O O14 0.500000 0.000000 0.500000
#
# Coordination Sequence:
#
# PCOD9048610 Si02
#       7
#     2   2   2   2   1   2   2
#     4  10  24  45  70 106 136 185 230 291 341 414
#     4  11  24  45  72 103 144 182 233 287 347 418
#     4  11  25  44  74 100 139 182 238 288 342 409
#     4  11  26  47  72 100 142 184 236 293 340 410
#     4  12  24  44  70 102 134 190 234 286 340 416
#     4  11  24  48  69 104 144 184 228 288 351 422
#     4  12  25  41  73 103 141 185 223 287 357 411
#
# _framework density 22.692895
#
# number of rings (size 3 to 8) (size 9 to 14) (size 15 to 20)
#    0.000    0.923    3.077    2.769    2.154    6.154 
#    0.000    2.308    0.000    0.000    0.000    0.000 
#    0.000    0.000    0.000    0.000    0.000    0.000 
#
# Total GULP energy -72397.652989 kJ/mol
# GULP energy per Si atom -5569.050230 kJ/mol
# Density = 2.264124 g / cm^3
# Si number density = 22.692895 Si / 1000 Ang^3
#
#
#
# Elastic Constant Matrix: (Units=GPa)
#
#
# Indices 1 2 3 4 5 6 
#
# 1 78.1119 41.4064 34.0096 -18.3713 3.1664 -4.8334
# 2 41.4064 196.0814 51.9086 -40.4254 12.3039 -10.1654
# 3 34.0096 51.9086 89.0833 -32.0657 -4.1269 -14.1525
# 4 -18.3713 -40.4254 -32.0657 25.3656 -3.3394 -0.0370
# 5 3.1664 12.3039 -4.1269 -3.3394 46.4331 -5.5927
# 6 -4.8334 -10.1654 -14.1525 -0.0370 -5.5927 37.3803
#
#
#
# Elastic Compliance Matrix: (Units=1/GPa)
#
#
# Indices 1 2 3 4 5 6 
#
# 1 0.016331 -0.001427 -0.003650 0.004850 -0.000682 0.000244
# 2 -0.001427 0.007930 0.000667 0.012345 -0.000802 0.002117
# 3 -0.003650 0.000667 0.025387 0.031291 0.005810 0.010221
# 4 0.004850 0.012345 0.031291 0.103335 0.008687 0.017233
# 5 -0.000682 -0.000802 0.005810 0.008687 0.023591 0.005432
# 6 0.000244 0.002117 0.010221 0.017233 0.005432 0.032059
#
#
# Mechanical properties :
#
#
# Convention : Reuss Voigt Hill
#
# Bulk Modulus (GPa) = 24.49373 68.65843 46.57608
# Shear Modulus (GPa) = 21.63914 37.56594 29.60254
#
# Velocity S-wave (km/s) = 3.09133 4.07308 3.61568
# Velocity P-wave (km/s) = 4.85374 7.24163 6.16441
#
# Compressibility (1/GPa) = 0.04082678
#
# Stress axis : x y z
#
# Youngs Moduli (GPa) = 61.23188 126.10551 39.39040
#
# Poissons Ratio (x) = 0.17995 0.14379
# Poissons Ratio (y) = 0.08738 -0.02626
# Poissons Ratio (z) = 0.22352 -0.08407
#
# Static dielectric constant tensor:
#      x y z
#    x 1.913660 0.022290 -0.052960 
#    y 0.022290 1.826310 0.026770 
#    z -0.052960 0.026770 1.955380 
# 
# From -- ./inp_files/131361.got.cif
#   From: 2010.05.17/outbox.cif.g08.bks.cpg/sg2_66_cif.got.tgz:131361.got - 2010.06.03 11:33:40.
