data_PCOD9048975
_publ_section_title
;
Structure prediction by ZEFSAII (Michael W. Deem and Ramdas Pophale) SiO2 
 PCOD9048975
Probable space group: P -1
;
_chemical_formula_sum "Si O2"
_cell_formula_units_Z 12
_cell_length_a 13.057339
_cell_length_b 18.925789
_cell_length_c 8.246276
_cell_angle_alpha 48.799741
_cell_angle_beta 52.724486
_cell_angle_gamma 18.660002
_cell_volume 489.138227
_symmetry_space_group_name_H-M "P -1"
_symmetry_group_IT_number 2
_symmetry_cell_setting 'triclinic'
loop_
_space_group_symop_operation_xyz
x,y,z
-x,-y,-z
loop_
_atom_site_type_symbol
_atom_site_label
_atom_site_fract_x
_atom_site_fract_y
_atom_site_fract_z
Si Si1 0.590069 0.513459 0.034726
Si Si2 0.838335 0.255922 0.634372
Si Si3 0.016708 0.390935 0.745542
Si Si4 0.854693 0.995756 0.603413
Si Si5 0.675063 0.722841 0.083144
Si Si6 0.742241 0.902445 0.319034
O O1 0.288889 0.720997 0.130244
O O2 0.913537 0.245224 0.196822
O O3 0.500000 0.500000 0.000000
O O4 0.689343 0.553142 0.841773
O O5 0.500000 0.500000 0.500000
O O6 0.099457 0.047335 0.569457
O O7 0.976484 0.255497 0.592472
O O8 0.210063 0.274096 0.903630
O O9 0.179248 0.212439 0.735707
O O10 0.000000 0.500000 0.500000
O O11 0.517020 0.213937 0.695681
O O12 0.000000 0.000000 0.500000
O O13 0.000000 0.500000 0.000000
O O14 0.421767 0.900387 0.910331
O O15 0.500000 0.000000 0.500000
#
# Coordination Sequence:
#
# PCOD9048975 Si02
#       6
#     2   2   2   2   2   2
#     4  11  23  48  76 108 153 197 254 322 397 471
#     4  10  24  45  80 111 152 203 251 323 406 469
#     4  12  27  46  76 112 153 202 264 321 394 468
#     4  11  26  46  75 111 152 198 260 318 389 470
#     4  12  28  48  73 111 157 209 265 324 386 463
#     4  12  25  48  77 111 156 203 260 326 396 470
#
# _framework density 24.53294
#
# number of rings (size 3 to 8) (size 9 to 14) (size 15 to 20)
#    0.000    0.667    3.333    2.500    9.333    1.333 
#    0.000    1.667    0.000    0.000    0.000    0.000 
#    0.000    0.000    0.000    0.000    0.000    0.000 
#
# Total GULP energy -66891.107705 kJ/mol
# GULP energy per Si atom -5574.258975 kJ/mol
# Density = 2.447710 g / cm^3
# Si number density = 24.532940 Si / 1000 Ang^3
#
#
#
# Elastic Constant Matrix: (Units=GPa)
#
#
# Indices 1 2 3 4 5 6 
#
# 1 171.7773 54.0821 50.6764 26.9047 18.6873 -14.8161
# 2 54.0821 131.9971 63.8020 41.5934 6.8274 2.7342
# 3 50.6764 63.8020 127.0454 52.7809 -6.6585 -5.3271
# 4 26.9047 41.5934 52.7809 74.8485 -3.4623 7.5218
# 5 18.6873 6.8274 -6.6585 -3.4623 46.1924 11.2269
# 6 -14.8161 2.7342 -5.3271 7.5218 11.2269 44.7125
#
#
#
# Elastic Compliance Matrix: (Units=1/GPa)
#
#
# Indices 1 2 3 4 5 6 
#
# 1 0.007895 -0.001877 -0.001819 -0.001081 -0.004169 0.003743
# 2 -0.001877 0.011163 -0.003798 -0.002824 -0.001425 -0.000924
# 3 -0.001819 -0.003798 0.013556 -0.006872 0.002293 0.001825
# 4 -0.001081 -0.002824 -0.006872 0.020809 0.002683 -0.005179
# 5 -0.004169 -0.001425 0.002293 0.002683 0.026024 -0.008007
# 6 0.003743 -0.000924 0.001825 -0.005179 -0.008007 0.026761
#
#
# Mechanical properties :
#
#
# Convention : Reuss Voigt Hill
#
# Bulk Modulus (GPa) = 56.73226 85.32675 71.02951
# Shear Modulus (GPa) = 39.34854 50.63462 44.99158
#
# Velocity S-wave (km/s) = 4.00922 4.54799 4.28708
# Velocity P-wave (km/s) = 6.67885 7.90158 7.31580
#
# Compressibility (1/GPa) = 0.01762666
#
# Stress axis : x y z
#
# Youngs Moduli (GPa) = 126.66731 89.58001 73.76913
#
# Poissons Ratio (x) = 0.16810 0.13419
# Poissons Ratio (y) = 0.23769 0.28017
# Poissons Ratio (z) = 0.23041 0.34022
#
# Static dielectric constant tensor:
#      x y z
#    x 1.883000 -0.057960 0.051800 
#    y -0.057960 2.304320 -0.288920 
#    z 0.051800 -0.288920 2.206910 
# 
# From -- ./inp_files/159693.got.cif
#   From: 2010.05.17/outbox.cif.g08.bks.cpg/sg2_80_cif.got.tgz:159693.got - 2010.06.03 11:33:40.
