data_PCOD9048863
_publ_section_title
;
Structure prediction by ZEFSAII (Michael W. Deem and Ramdas Pophale) SiO2 
 PCOD9048863
Probable space group: P -1
;
_chemical_formula_sum "Si O2"
_cell_formula_units_Z 14
_cell_length_a 12.469015
_cell_length_b 11.527450
_cell_length_c 8.449150
_cell_angle_alpha 146.983337
_cell_angle_beta 121.267156
_cell_angle_gamma 54.098015
_cell_volume 534.988133
_symmetry_space_group_name_H-M "P -1"
_symmetry_group_IT_number 2
_symmetry_cell_setting 'triclinic'
loop_
_space_group_symop_operation_xyz
x,y,z
-x,-y,-z
loop_
_atom_site_type_symbol
_atom_site_label
_atom_site_fract_x
_atom_site_fract_y
_atom_site_fract_z
Si Si1 0.286090 0.590800 0.697856
Si Si2 0.500000 0.500000 0.500000
Si Si3 0.603986 0.812824 0.258487
Si Si4 0.906708 0.132892 0.717669
Si Si5 0.668986 0.045122 0.272774
Si Si6 0.841499 0.911858 0.701657
Si Si7 0.108164 0.309218 0.182323
Si Si8 0.500000 0.500000 0.000000
O O1 0.359420 0.562372 0.556366
O O2 0.157638 0.519649 0.485911
O O3 0.249232 0.840788 0.025810
O O4 0.382967 0.447924 0.746674
O O5 0.553997 0.242916 0.330911
O O6 0.549878 0.604372 0.995457
O O7 0.500000 0.000000 0.500000
O O8 0.610388 0.905549 0.193088
O O9 0.747534 0.791145 0.409578
O O10 0.757419 0.162510 0.582971
O O11 0.930197 0.971837 0.704384
O O12 0.000000 0.000000 0.500000
O O13 0.965434 0.334593 0.025878
O O14 0.774180 0.874258 0.038264
O O15 0.900639 0.782921 0.755700
#
# Coordination Sequence:
#
# PCOD9048863 Si02
#       8
#     2   1   2   2   2   2   2   1
#     4  12  27  39  70 109 142 196 235 296 361 436
#     4  12  26  44  68 108 152 188 248 290 360 436
#     4  11  22  41  67 100 142 191 234 294 357 435
#     4   9  22  46  77  99 138 194 241 302 367 426
#     4  10  24  45  74 104 147 196 240 303 364 429
#     4  11  22  43  69 104 143 184 242 295 366 429
#     4  11  23  46  69 106 143 189 247 296 362 425
#     4  12  24  42  64 102 146 186 240 280 372 426
#
# _framework density 26.168804999999999
#
# number of rings (size 3 to 8) (size 9 to 14) (size 15 to 20)
#    0.000    1.143    4.286    1.286    4.000    1.143 
#    0.000    0.714    0.000    0.000    0.000    0.000 
#    0.000    0.000    0.000    0.000    0.000    0.000 
#
# Total GULP energy -77936.181158 kJ/mol
# GULP energy per Si atom -5566.870083 kJ/mol
# Density = 2.610924 g / cm^3
# Si number density = 26.168805 Si / 1000 Ang^3
#
#
#
# Elastic Constant Matrix: (Units=GPa)
#
#
# Indices 1 2 3 4 5 6 
#
# 1 200.7708 66.0075 59.5225 11.7721 1.8249 49.3363
# 2 66.0075 92.5677 50.4043 9.3415 -3.0348 8.8984
# 3 59.5225 50.4043 116.2029 -10.8520 33.2564 -11.4074
# 4 11.7721 9.3415 -10.8520 33.1957 -15.9884 3.5666
# 5 1.8249 -3.0348 33.2564 -15.9884 63.4356 5.3662
# 6 49.3363 8.8984 -11.4074 3.5666 5.3662 30.1147
#
#
#
# Elastic Compliance Matrix: (Units=1/GPa)
#
#
# Indices 1 2 3 4 5 6 
#
# 1 0.022143 0.000211 -0.019915 -0.003314 0.012851 -0.045780
# 2 0.000211 0.018789 -0.011716 -0.004754 0.006765 -0.010978
# 3 -0.019915 -0.011716 0.035859 0.005921 -0.021765 0.052849
# 4 -0.003314 -0.004754 0.005921 0.036957 0.005768 0.003672
# 5 0.012851 0.006765 -0.021765 0.005768 0.031766 -0.037641
# 6 -0.045780 -0.010978 0.052849 0.003672 -0.037641 0.137741
#
#
# Mechanical properties :
#
#
# Convention : Reuss Voigt Hill
#
# Bulk Modulus (GPa) = 71.68322 84.60113 78.14218
# Shear Modulus (GPa) = 14.25543 40.92301 27.58922
#
# Velocity S-wave (km/s) = 2.33652 3.95879 3.25049
# Velocity P-wave (km/s) = 5.89332 7.30036 6.63425
#
# Compressibility (1/GPa) = 0.01395027
#
# Stress axis : x y z
#
# Youngs Moduli (GPa) = 45.16139 53.22389 27.88734
#
# Poissons Ratio (x) = -0.01124 0.55538
# Poissons Ratio (y) = -0.00954 0.32672
# Poissons Ratio (z) = 0.89940 0.62356
#
# Static dielectric constant tensor:
#      x y z
#    x 1.874730 0.058270 0.004560 
#    y 0.058270 -3.928370 0.832610 
#    z 0.004560 0.832610 2.059120 
# 
# From -- ./inp_files/261178.got.cif
#   From: 2010.05.17/outbox.cif.g08.bks.cpg/sg2_131_cif.got.tgz:261178.got - 2010.06.03 11:33:40.
