data_PCOD9048629
_publ_section_title
;
Structure prediction by ZEFSAII (Michael W. Deem and Ramdas Pophale) SiO2 
 PCOD9048629
Probable space group: P -1
;
_chemical_formula_sum "Si O2"
_cell_formula_units_Z 16
_cell_length_a 14.243428
_cell_length_b 15.361620
_cell_length_c 9.502331
_cell_angle_alpha 132.626886
_cell_angle_beta 28.792821
_cell_angle_gamma 134.599299
_cell_volume 701.326581
_symmetry_space_group_name_H-M "P -1"
_symmetry_group_IT_number 2
_symmetry_cell_setting 'triclinic'
loop_
_space_group_symop_operation_xyz
x,y,z
-x,-y,-z
loop_
_atom_site_type_symbol
_atom_site_label
_atom_site_fract_x
_atom_site_fract_y
_atom_site_fract_z
Si Si1 0.241787 0.361844 0.125989
Si Si2 0.574662 0.410204 0.507078
Si Si3 0.555032 0.746404 0.047736
Si Si4 0.094131 0.906219 0.693022
Si Si5 0.919808 0.435353 0.314822
Si Si6 0.073123 0.028981 0.278582
Si Si7 0.260867 0.842106 0.665201
Si Si8 0.380508 0.603972 0.866386
O O1 0.155117 0.477007 0.382762
O O2 0.064645 0.232369 0.240382
O O3 0.373240 0.360674 0.813548
O O4 0.391426 0.365137 0.065653
O O5 0.772534 0.421637 0.355907
O O6 0.552098 0.538407 0.612099
O O7 0.575124 0.335201 0.279660
O O8 0.479984 0.817689 0.351837
O O9 0.392347 0.694179 0.081228
O O10 0.751512 0.839552 0.819983
O O11 0.271768 0.899890 0.557340
O O12 0.106151 0.955321 0.572238
O O13 0.000000 0.000000 0.000000
O O14 0.887068 0.298861 0.271867
O O15 0.154881 0.505508 0.048143
O O16 0.000000 0.000000 0.500000
O O17 0.177529 0.928350 0.970653
#
# Coordination Sequence:
#
# PCOD9048629 Si02
#       8
#     2   2   2   2   2   2   2   2
#     4  11  21  41  67  94 135 182 221 275 326 389
#     4  11  23  42  59  98 137 176 221 274 329 386
#     4  11  22  43  66  95 131 173 226 269 325 403
#     4   9  21  40  65  95 125 169 225 274 324 389
#     4  12  23  42  69  98 139 178 227 266 333 404
#     4  10  24  45  70  93 130 170 216 285 344 387
#     4  11  22  42  68  97 125 176 227 268 327 402
#     4  11  25  39  64  97 137 180 218 272 333 392
#
# _framework density 22.813908999999999
#
# number of rings (size 3 to 8) (size 9 to 14) (size 15 to 20)
#    0.000    1.250    2.500    3.375    0.000    5.500 
#    6.750    0.625    0.000    0.000    0.000    0.000 
#    0.000    0.000    0.000    0.000    0.000    0.000 
#
# Total GULP energy -89323.229977 kJ/mol
# GULP energy per Si atom -5582.701874 kJ/mol
# Density = 2.276198 g / cm^3
# Si number density = 22.813909 Si / 1000 Ang^3
#
#
#
# Elastic Constant Matrix: (Units=GPa)
#
#
# Indices 1 2 3 4 5 6 
#
# 1 126.6115 26.8007 48.0109 3.6674 18.5013 -29.1185
# 2 26.8007 85.0589 28.9178 2.5476 13.1391 -16.2791
# 3 48.0109 28.9178 95.1133 -10.6668 18.9953 -18.0686
# 4 3.6674 2.5476 -10.6668 36.0381 -8.6777 1.8184
# 5 18.5013 13.1391 18.9953 -8.6777 42.5749 -6.4150
# 6 -29.1185 -16.2791 -18.0686 1.8184 -6.4150 31.7029
#
#
#
# Elastic Compliance Matrix: (Units=1/GPa)
#
#
# Indices 1 2 3 4 5 6 
#
# 1 0.011913 -0.000241 -0.004267 -0.003515 -0.002704 0.008041
# 2 -0.000241 0.014340 -0.003048 -0.002813 -0.002780 0.005004
# 3 -0.004267 -0.003048 0.015056 0.004342 -0.002691 0.002303
# 4 -0.003515 -0.002813 0.004342 0.031274 0.006427 -0.002692
# 5 -0.002704 -0.002780 -0.002691 0.006427 0.028010 -0.000145
# 6 0.008041 0.005004 0.002303 -0.002692 -0.000145 0.042935
#
#
# Mechanical properties :
#
#
# Convention : Reuss Voigt Hill
#
# Bulk Modulus (GPa) = 38.17128 57.13806 47.65467
# Shear Modulus (GPa) = 29.87339 35.60013 32.73676
#
# Velocity S-wave (km/s) = 3.62254 3.95455 3.79218
# Velocity P-wave (km/s) = 5.85363 6.77871 6.33308
#
# Compressibility (1/GPa) = 0.02619771
#
# Stress axis : x y z
#
# Youngs Moduli (GPa) = 83.93847 69.73445 66.41795
#
# Poissons Ratio (x) = 0.01682 0.28340
# Poissons Ratio (y) = 0.02025 0.20243
# Poissons Ratio (z) = 0.35816 0.21254
#
# Static dielectric constant tensor:
#      x y z
#    x 1.967260 0.021100 -0.010200 
#    y 0.021100 1.868160 0.044740 
#    z -0.010200 0.044740 1.903390 
# 
# From -- ./inp_files/315797.got.cif
#   From: 2010.05.17/outbox.cif.g08.bks.cpg/sg2_158_cif.got.tgz:315797.got - 2010.06.03 11:33:40.
