data_PCOD9048597
_publ_section_title
;
Structure prediction by ZEFSAII (Michael W. Deem and Ramdas Pophale) SiO2 
 PCOD9048597
Probable space group: P -1
;
_chemical_formula_sum "Si O2"
_cell_formula_units_Z 16
_cell_length_a 11.737430
_cell_length_b 5.666519
_cell_length_c 18.793682
_cell_angle_alpha 121.532666
_cell_angle_beta 141.769675
_cell_angle_gamma 61.632213
_cell_volume 654.380259
_symmetry_space_group_name_H-M "P -1"
_symmetry_group_IT_number 2
_symmetry_cell_setting 'triclinic'
loop_
_space_group_symop_operation_xyz
x,y,z
-x,-y,-z
loop_
_atom_site_type_symbol
_atom_site_label
_atom_site_fract_x
_atom_site_fract_y
_atom_site_fract_z
Si Si1 0.561879 0.305155 0.071375
Si Si2 0.247920 0.817517 0.614595
Si Si3 0.030326 0.865236 0.376783
Si Si4 0.041271 0.707629 0.784808
Si Si5 0.137208 0.085856 0.020442
Si Si6 0.350935 0.555097 0.241392
Si Si7 0.289593 0.949108 0.394563
Si Si8 0.517129 0.228795 0.790081
O O1 0.783682 0.272317 0.176271
O O2 0.493367 0.464628 0.134841
O O3 0.500000 0.500000 0.000000
O O4 0.500000 0.000000 0.000000
O O5 0.114311 0.743885 0.474131
O O6 0.440341 0.612197 0.679477
O O7 0.322044 0.112003 0.677794
O O8 0.126121 0.886063 0.636577
O O9 0.203592 0.945346 0.429765
O O10 0.951255 0.625461 0.252972
O O11 0.842130 0.811220 0.671943
O O12 0.070874 0.933974 0.895147
O O13 0.187307 0.400699 0.102081
O O14 0.344347 0.939298 0.113888
O O15 0.000000 0.000000 0.000000
O O16 0.284637 0.662088 0.302973
O O17 0.386786 0.801467 0.244061
O O18 0.500000 0.000000 0.500000
#
# Coordination Sequence:
#
# PCOD9048597 Si02
#       8
#     2   2   2   2   2   2   2   2
#     4  12  27  45  75 115 159 200 255 322 397 468
#     4  10  24  45  70 103 135 192 247 317 393 453
#     4  11  25  45  72 100 143 186 258 318 390 458
#     4  12  26  43  72 107 145 196 249 317 384 463
#     4  11  24  42  65 101 141 188 240 299 385 457
#     4  11  25  44  70 100 144 190 243 312 385 465
#     4  12  28  47  71 105 144 198 260 314 392 461
#     4  11  23  42  69  99 146 184 244 309 380 462
#
# _framework density 24.450614000000002
#
# number of rings (size 3 to 8) (size 9 to 14) (size 15 to 20)
#    0.000    0.750    2.500    3.750    5.250    8.000 
#    0.000    3.125    0.000    0.000    0.000    0.000 
#    0.000    0.000    0.000    0.000    0.000    0.000 
#
# Total GULP energy -89378.917370 kJ/mol
# GULP energy per Si atom -5586.182336 kJ/mol
# Density = 2.439496 g / cm^3
# Si number density = 24.450614 Si / 1000 Ang^3
#
#
#
# Elastic Constant Matrix: (Units=GPa)
#
#
# Indices 1 2 3 4 5 6 
#
# 1 146.2696 12.4593 23.2631 4.2135 0.1591 -19.9036
# 2 12.4593 57.1532 14.7245 -1.1587 -7.9435 -19.2185
# 3 23.2631 14.7245 95.3662 10.4881 -2.2525 -8.3723
# 4 4.2135 -1.1587 10.4881 35.1992 0.0901 5.6993
# 5 0.1591 -7.9435 -2.2525 0.0901 41.6360 1.4833
# 6 -19.9036 -19.2185 -8.3723 5.6993 1.4833 38.9736
#
#
#
# Elastic Compliance Matrix: (Units=1/GPa)
#
#
# Indices 1 2 3 4 5 6 
#
# 1 0.007604 -0.000112 -0.001399 -0.001095 -0.000255 0.003698
# 2 -0.000112 0.022079 -0.002374 -0.000215 0.003721 0.010210
# 3 -0.001399 -0.002374 0.011691 -0.003580 0.000152 0.001144
# 4 -0.001095 -0.000215 -0.003580 0.030556 -0.000086 -0.005900
# 5 -0.000255 0.003721 0.000152 -0.000086 0.024708 0.000809
# 6 0.003698 0.010210 0.001144 -0.005900 0.000809 0.033659
#
#
# Mechanical properties :
#
#
# Convention : Reuss Voigt Hill
#
# Bulk Modulus (GPa) = 29.75659 44.40920 37.08289
# Shear Modulus (GPa) = 33.49695 39.71789 36.60742
#
# Velocity S-wave (km/s) = 3.70535 4.03477 3.87356
# Velocity P-wave (km/s) = 5.52292 6.31729 5.93341
#
# Compressibility (1/GPa) = 0.03360600
#
# Stress axis : x y z
#
# Youngs Moduli (GPa) = 131.51691 45.29200 85.53334
#
# Poissons Ratio (x) = 0.00506 0.11962
# Poissons Ratio (y) = 0.01468 0.20304
# Poissons Ratio (z) = 0.18393 0.10751
#
# Static dielectric constant tensor:
#      x y z
#    x 1.955150 -0.018420 -0.080960 
#    y -0.018420 2.123010 0.093380 
#    z -0.080960 0.093380 2.002480 
# 
# From -- ./inp_files/410803.got.cif
#   From: 2010.05.17/outbox.cif.g08.bks.cpg/sg2_206_cif.got.tgz:410803.got - 2010.06.03 11:33:40.
