data_PCOD9048299
_publ_section_title
;
Structure prediction by ZEFSAII (Michael W. Deem and Ramdas Pophale) SiO2 
 PCOD9048299
Probable space group: P -1
;
_chemical_formula_sum "Si O2"
_cell_formula_units_Z 16
_cell_length_a 12.722210
_cell_length_b 7.856552
_cell_length_c 12.037303
_cell_angle_alpha 37.483227
_cell_angle_beta 101.479507
_cell_angle_gamma 112.254399
_cell_volume 666.524066
_symmetry_space_group_name_H-M "P -1"
_symmetry_group_IT_number 2
_symmetry_cell_setting 'triclinic'
loop_
_space_group_symop_operation_xyz
x,y,z
-x,-y,-z
loop_
_atom_site_type_symbol
_atom_site_label
_atom_site_fract_x
_atom_site_fract_y
_atom_site_fract_z
Si Si1 0.379373 0.542556 0.752963
Si Si2 0.123141 0.921796 0.447005
Si Si3 0.780402 0.427111 0.501841
Si Si4 0.169263 0.890818 0.852587
Si Si5 0.368645 0.913186 0.147352
Si Si6 0.012894 0.415699 0.201092
Si Si7 0.393809 0.939715 0.759309
Si Si8 0.619227 0.667063 0.637833
O O1 0.313646 0.604582 0.600090
O O2 0.354844 0.686620 0.786126
O O3 0.517166 0.678224 0.689233
O O4 0.343147 0.186913 0.946826
O O5 0.139161 0.745709 0.434306
O O6 0.041261 0.675475 0.642487
O O7 0.070848 0.180013 0.297456
O O8 0.253298 0.102947 0.425621
O O9 0.723070 0.276780 0.681957
O O10 0.838720 0.786791 0.339831
O O11 0.298056 0.913744 0.844040
O O12 0.095259 0.653707 0.867312
O O13 0.108142 0.744011 0.030122
O O14 0.382158 0.667774 0.193532
O O15 0.489656 0.054937 0.164625
O O16 0.410978 0.243139 0.536879
#
# Coordination Sequence:
#
# PCOD9048299 Si02
#       8
#     2   2   2   2   2   2   2   2
#     4  12  26  40  66 102 134 172 217 255 319 399
#     4  11  24  43  69  93 128 171 214 273 325 379
#     4  12  24  45  66 100 132 171 210 270 326 380
#     4  11  24  43  69  93 128 171 214 273 325 379
#     4  12  26  40  66 102 134 172 217 255 319 399
#     4  10  24  45  66  94 122 169 224 268 326 382
#     4  12  22  44  65  94 136 175 208 265 324 381
#     4  12  22  44  65  94 136 175 208 265 324 381
#
# _framework density 24.005136
#
# number of rings (size 3 to 8) (size 9 to 14) (size 15 to 20)
#    0.000    0.500    5.000    3.000    5.250    1.000 
#    0.000    0.000    0.000    0.000    0.000    0.000 
#    0.000    0.000    0.000    0.000    0.000    0.000 
#
# Total GULP energy -89655.350965 kJ/mol
# GULP energy per Si atom -5603.459435 kJ/mol
# Density = 2.395050 g / cm^3
# Si number density = 24.005136 Si / 1000 Ang^3
#
#
#
# Elastic Constant Matrix: (Units=GPa)
#
#
# Indices 1 2 3 4 5 6 
#
# 1 37.1371 12.1949 10.8580 -12.2651 -12.7108 -0.5368
# 2 12.1949 60.5947 6.0580 -10.5911 -4.1426 -7.1223
# 3 10.8580 6.0580 113.3036 -1.2796 -15.2009 3.6943
# 4 -12.2651 -10.5911 -1.2796 27.4167 3.0195 5.9298
# 5 -12.7108 -4.1426 -15.2009 3.0195 35.1718 -3.6819
# 6 -0.5368 -7.1223 3.6943 5.9298 -3.6819 28.5535
#
#
#
# Elastic Compliance Matrix: (Units=1/GPa)
#
#
# Indices 1 2 3 4 5 6 
#
# 1 0.037147 -0.004313 -0.001665 0.014048 0.010815 -0.001685
# 2 -0.004313 0.018672 -0.000606 0.004391 0.000399 0.003794
# 3 -0.001665 -0.000606 0.009493 -0.000734 0.003407 -0.000819
# 4 0.014048 0.004391 -0.000734 0.046112 0.000474 -0.008061
# 5 0.010815 0.000399 0.003407 0.000474 0.034257 0.004181
# 6 -0.001685 0.003794 -0.000819 -0.008061 0.004181 0.038256
#
#
# Mechanical properties :
#
#
# Convention : Reuss Voigt Hill
#
# Bulk Modulus (GPa) = 19.17690 29.91746 24.54718
# Shear Modulus (GPa) = 23.31165 30.35670 26.83417
#
# Velocity S-wave (km/s) = 3.11965 3.55997 3.34706
# Velocity P-wave (km/s) = 4.58064 5.42105 5.01847
#
# Compressibility (1/GPa) = 0.05214609
#
# Stress axis : x y z
#
# Youngs Moduli (GPa) = 26.92023 53.55506 105.33765
#
# Poissons Ratio (x) = 0.23097 0.17536
# Poissons Ratio (y) = 0.11610 0.06380
# Poissons Ratio (z) = 0.04481 0.03243
#
# Static dielectric constant tensor:
#      x y z
#    x 1.903770 0.040690 0.000990 
#    y 0.040690 1.910650 0.001230 
#    z 0.000990 0.001230 1.931190 
# 
# From -- ./inp_files/317998.got.cif
#   From: 2010.05.17/outbox.cif.g08.bks.cpg/sg2_159_cif.got.tgz:317998.got - 2010.06.03 11:33:40.
