data_PCOD9048654
_publ_section_title
;
Structure prediction by ZEFSAII (Michael W. Deem and Ramdas Pophale) SiO2 
 PCOD9048654
Probable space group: P -1
;
_chemical_formula_sum "Si O2"
_cell_formula_units_Z 12
_cell_length_a 9.138729
_cell_length_b 11.258660
_cell_length_c 7.579948
_cell_angle_alpha 42.639852
_cell_angle_beta 68.221456
_cell_angle_gamma 89.269938
_cell_volume 446.652530
_symmetry_space_group_name_H-M "P -1"
_symmetry_group_IT_number 2
_symmetry_cell_setting 'triclinic'
loop_
_space_group_symop_operation_xyz
x,y,z
-x,-y,-z
loop_
_atom_site_type_symbol
_atom_site_label
_atom_site_fract_x
_atom_site_fract_y
_atom_site_fract_z
Si Si1 0.756272 0.882520 0.784393
Si Si2 0.234978 0.695763 0.060512
Si Si3 0.405447 0.632585 0.344720
Si Si4 0.180162 0.004944 0.986542
Si Si5 0.564437 0.732337 0.680897
Si Si6 0.096136 0.441121 0.873873
O O1 0.713505 0.864339 0.612825
O O2 0.559594 0.821561 0.004880
O O3 0.844422 0.021697 0.760241
O O4 0.847902 0.733809 0.926606
O O5 0.280417 0.550903 0.321350
O O6 0.046858 0.614308 0.152497
O O7 0.390004 0.763903 0.771813
O O8 0.228836 0.846506 0.042897
O O9 0.500000 0.500000 0.500000
O O10 0.277100 0.621987 0.566567
O O11 0.342665 0.195718 0.628177
O O12 0.000000 0.000000 0.000000
O O13 0.500000 0.500000 0.000000
O O14 0.000000 0.500000 0.000000
#
# Coordination Sequence:
#
# PCOD9048654 Si02
#       6
#     2   2   2   2   2   2
#     4  10  24  45  70  99 146 196 242 295 367 432
#     4  11  24  45  69 104 145 192 240 302 371 434
#     4   9  22  41  69  99 138 187 244 295 357 435
#     4  12  27  47  73 106 155 196 240 306 369 441
#     4  11  27  46  76 107 144 197 252 303 362 438
#     4  11  22  39  67 109 140 184 245 302 357 436
#
# _framework density 26.866520000000001
#
# number of rings (size 3 to 8) (size 9 to 14) (size 15 to 20)
#    0.000    1.333    1.667    2.000   14.000    6.000 
#    3.000    0.000    0.000    0.000    0.000    0.000 
#    0.000    0.000    0.000    0.000    0.000    0.000 
#
# Total GULP energy -66916.687559 kJ/mol
# GULP energy per Si atom -5576.390630 kJ/mol
# Density = 2.680537 g / cm^3
# Si number density = 26.866520 Si / 1000 Ang^3
#
#
#
# Elastic Constant Matrix: (Units=GPa)
#
#
# Indices 1 2 3 4 5 6 
#
# 1 182.2063 32.5531 23.7288 12.5751 -17.5482 -12.9935
# 2 32.5531 159.2344 34.2542 12.0233 -0.2878 -15.7000
# 3 23.7288 34.2542 89.5003 24.6446 -22.4222 -18.9782
# 4 12.5751 12.0233 24.6446 35.6043 -13.7802 -4.8077
# 5 -17.5482 -0.2878 -22.4222 -13.7802 49.0556 18.4348
# 6 -12.9935 -15.7000 -18.9782 -4.8077 18.4348 59.9376
#
#
#
# Elastic Compliance Matrix: (Units=1/GPa)
#
#
# Indices 1 2 3 4 5 6 
#
# 1 0.005963 -0.001014 -0.000528 -0.000754 0.001553 0.000322
# 2 -0.001014 0.007245 -0.002467 -0.001074 -0.002323 0.001525
# 3 -0.000528 -0.002467 0.016018 -0.008234 0.003882 0.002457
# 4 -0.000754 -0.001074 -0.008234 0.036885 0.007188 -0.002304
# 5 0.001553 -0.002323 0.003882 0.007188 0.027299 -0.006862
# 6 0.000322 0.001525 0.002457 -0.002304 -0.006862 0.019857
#
#
# Mechanical properties :
#
#
# Convention : Reuss Voigt Hill
#
# Bulk Modulus (GPa) = 47.15143 68.00147 57.57645
# Shear Modulus (GPa) = 38.95453 51.61317 45.28385
#
# Velocity S-wave (km/s) = 3.81192 4.38779 4.10995
# Velocity P-wave (km/s) = 6.07970 7.14395 6.63320
#
# Compressibility (1/GPa) = 0.02120827
#
# Stress axis : x y z
#
# Youngs Moduli (GPa) = 167.70829 138.02084 62.43006
#
# Poissons Ratio (x) = 0.13995 0.03296
# Poissons Ratio (y) = 0.17005 0.15401
# Poissons Ratio (z) = 0.08855 0.34048
#
# Static dielectric constant tensor:
#      x y z
#    x 2.344630 0.240980 0.128940 
#    y 0.240980 2.310000 0.017810 
#    z 0.128940 0.017810 2.307730 
# 
# From -- ./inp_files/183968.got.cif
#   From: 2010.05.17/outbox.cif.g08.bks.cpg/sg2_92_cif.got.tgz:183968.got - 2010.06.03 11:33:40.
