data_PCOD9048477
_publ_section_title
;
Structure prediction by ZEFSAII (Michael W. Deem and Ramdas Pophale) SiO2 
 PCOD9048477
Probable space group: P -1
;
_chemical_formula_sum "Si O2"
_cell_formula_units_Z 16
_cell_length_a 14.434696
_cell_length_b 11.369845
_cell_length_c 8.892069
_cell_angle_alpha 78.637922
_cell_angle_beta 86.951004
_cell_angle_gamma 30.048340
_cell_volume 695.662187
_symmetry_space_group_name_H-M "P -1"
_symmetry_group_IT_number 2
_symmetry_cell_setting 'triclinic'
loop_
_space_group_symop_operation_xyz
x,y,z
-x,-y,-z
loop_
_atom_site_type_symbol
_atom_site_label
_atom_site_fract_x
_atom_site_fract_y
_atom_site_fract_z
Si Si1 0.974608 0.889864 0.499617
Si Si2 0.145371 0.291232 0.670430
Si Si3 0.512414 0.130253 0.458030
Si Si4 0.840950 0.307546 0.757814
Si Si5 0.692910 0.716321 0.096029
Si Si6 0.016062 0.272598 0.965377
Si Si7 0.280438 0.828537 0.270569
Si Si8 0.601386 0.620058 0.306779
O O1 0.979810 0.870892 0.325470
O O2 0.183051 0.609928 0.599267
O O3 0.000000 0.000000 0.500000
O O4 0.813324 0.035281 0.593327
O O5 0.229966 0.308380 0.751999
O O6 0.066049 0.295131 0.808574
O O7 0.000000 0.500000 0.500000
O O8 0.312973 0.039710 0.624324
O O9 0.328252 0.407978 0.339586
O O10 0.527053 0.160322 0.620048
O O11 0.500000 0.000000 0.500000
O O12 0.770557 0.250524 0.751840
O O13 0.913464 0.265209 0.923913
O O14 0.618028 0.665445 0.135955
O O15 0.865440 0.518381 0.014291
O O16 0.500000 0.000000 0.000000
O O17 0.190906 0.027157 0.112937
O O18 0.506713 0.596961 0.316406
#
# Coordination Sequence:
#
# PCOD9048477 Si02
#       8
#     2   2   2   2   2   2   2   2
#     4   9  21  43  70  98 139 183 240 291 352 417
#     4  12  28  44  72 106 142 193 249 297 367 440
#     4  11  23  44  70 101 140 180 239 299 356 423
#     4  10  24  45  69 102 142 190 240 298 356 433
#     4  12  26  47  70 103 151 190 240 303 374 439
#     4  12  26  44  71 100 145 190 240 301 369 434
#     4  11  24  46  71 104 144 190 243 293 369 436
#     4  11  24  42  75 104 140 187 236 298 365 427
#
# _framework density 22.999669999999998
#
# number of rings (size 3 to 8) (size 9 to 14) (size 15 to 20)
#    0.000    1.000    2.500    3.000    7.000    4.500 
#    2.250    1.250    0.000    0.000    0.000    0.000 
#    0.000    0.000    0.000    0.000    0.000    0.000 
#
# Total GULP energy -89299.906434 kJ/mol
# GULP energy per Si atom -5581.244152 kJ/mol
# Density = 2.294732 g / cm^3
# Si number density = 22.999670 Si / 1000 Ang^3
#
#
#
# Elastic Constant Matrix: (Units=GPa)
#
#
# Indices 1 2 3 4 5 6 
#
# 1 113.3292 14.3107 17.6148 9.4447 -8.9684 -0.1549
# 2 14.3107 88.8991 17.1866 21.5655 -11.1220 11.2949
# 3 17.6148 17.1866 69.3358 11.8535 -7.8481 5.7213
# 4 9.4447 21.5655 11.8535 31.2184 -3.3497 -6.3534
# 5 -8.9684 -11.1220 -7.8481 -3.3497 41.5644 7.2073
# 6 -0.1549 11.2949 5.7213 -6.3534 7.2073 30.4889
#
#
#
# Elastic Compliance Matrix: (Units=1/GPa)
#
#
# Indices 1 2 3 4 5 6 
#
# 1 0.009426 -0.000589 -0.001806 -0.001621 0.001416 -0.000067
# 2 -0.000589 0.016246 -0.000428 -0.012328 0.004819 -0.009649
# 3 -0.001806 -0.000428 0.016812 -0.006238 0.003039 -0.005024
# 4 -0.001621 -0.012328 -0.006238 0.046305 -0.003922 0.016306
# 5 0.001416 0.004819 0.003039 -0.003922 0.027592 -0.009688
# 6 -0.000067 -0.009649 -0.005024 0.016306 -0.009688 0.043004
#
#
# Mechanical properties :
#
#
# Convention : Reuss Voigt Hill
#
# Bulk Modulus (GPa) = 27.14563 41.08759 34.11661
# Shear Modulus (GPa) = 28.19917 35.48448 31.84183
#
# Velocity S-wave (km/s) = 3.50532 3.93214 3.72485
# Velocity P-wave (km/s) = 5.31143 6.20636 5.77625
#
# Compressibility (1/GPa) = 0.03683835
#
# Stress axis : x y z
#
# Youngs Moduli (GPa) = 106.08978 61.55424 59.48025
#
# Poissons Ratio (x) = 0.03628 0.10740
# Poissons Ratio (y) = 0.06253 0.02545
# Poissons Ratio (z) = 0.19156 0.02634
#
# Static dielectric constant tensor:
#      x y z
#    x 1.934410 -0.004660 -0.059970 
#    y -0.004660 1.821530 -0.024380 
#    z -0.059970 -0.024380 1.999180 
# 
# From -- ./inp_files/277900.got.cif
#   From: 2010.05.17/outbox.cif.g08.bks.cpg/sg2_139_cif.got.tgz:277900.got - 2010.06.03 11:33:40.
