data_PCOD9048110
_publ_section_title
;
Structure prediction by ZEFSAII (Michael W. Deem and Ramdas Pophale) SiO2 
 PCOD9048110
Probable space group: P -1
;
_chemical_formula_sum "Si O2"
_cell_formula_units_Z 16
_cell_length_a 8.034043
_cell_length_b 23.909076
_cell_length_c 9.026311
_cell_angle_alpha 135.392884
_cell_angle_beta 32.843400
_cell_angle_gamma 128.346439
_cell_volume 659.211977
_symmetry_space_group_name_H-M "P -1"
_symmetry_group_IT_number 2
_symmetry_cell_setting 'triclinic'
loop_
_space_group_symop_operation_xyz
x,y,z
-x,-y,-z
loop_
_atom_site_type_symbol
_atom_site_label
_atom_site_fract_x
_atom_site_fract_y
_atom_site_fract_z
Si Si1 0.723195 0.192218 0.126490
Si Si2 0.281697 0.448097 0.168987
Si Si3 0.272771 0.927425 0.375471
Si Si4 0.093016 0.699509 0.390989
Si Si5 0.653887 0.722523 0.249674
Si Si6 0.542049 0.054814 0.219583
Si Si7 0.482114 0.411466 0.275563
Si Si8 0.066910 0.116219 0.166146
O O1 0.480058 0.259399 0.452078
O O2 0.572840 0.139456 0.273939
O O3 0.733001 0.139585 0.873623
O O4 0.076930 0.223859 0.933864
O O5 0.442324 0.432487 0.173696
O O6 0.000000 0.500000 0.500000
O O7 0.500000 0.500000 0.000000
O O8 0.195420 0.361642 0.005875
O O9 0.005383 0.912097 0.664457
O O10 0.285389 0.012247 0.440285
O O11 0.596952 0.910972 0.179617
O O12 0.356456 0.712856 0.346231
O O13 0.977170 0.788797 0.621388
O O14 0.816652 0.640548 0.543829
O O15 0.247270 0.651798 0.050127
O O16 0.825309 0.070393 0.151179
O O17 0.500000 0.000000 0.000000
O O18 0.500000 0.500000 0.500000
#
# Coordination Sequence:
#
# PCOD9048110 Si02
#       8
#     2   2   2   2   2   2   2   2
#     4  11  23  43  67  98 130 179 230 277 326 402
#     4  11  23  42  65  98 127 170 215 270 339 387
#     4  11  26  44  63 104 137 177 218 287 342 390
#     4  11  23  42  72  99 129 189 222 270 334 400
#     4  11  22  42  71  94 134 174 230 275 325 404
#     4  10  24  44  73  98 134 181 233 272 336 402
#     4  11  24  46  69  98 139 173 231 268 328 412
#     4  12  24  45  69  97 145 172 228 275 344 395
#
# _framework density 24.271404
#
# number of rings (size 3 to 8) (size 9 to 14) (size 15 to 20)
#    0.000    1.000    1.250    6.375    1.750    1.000 
#   13.500    5.625    0.000    0.000    0.000    0.000 
#    0.000    0.000    0.000    0.000    0.000    0.000 
#
# Total GULP energy -89340.029886 kJ/mol
# GULP energy per Si atom -5583.751868 kJ/mol
# Density = 2.421616 g / cm^3
# Si number density = 24.271404 Si / 1000 Ang^3
#
#
#
# Elastic Constant Matrix: (Units=GPa)
#
#
# Indices 1 2 3 4 5 6 
#
# 1 54.7846 33.7985 18.0878 0.1765 9.0914 9.3762
# 2 33.7985 154.7880 61.4726 -9.5596 3.2088 15.0781
# 3 18.0878 61.4726 149.9889 -0.3929 5.6725 6.4168
# 4 0.1765 -9.5596 -0.3929 38.0289 9.2896 4.6538
# 5 9.0914 3.2088 5.6725 9.2896 35.7097 1.8751
# 6 9.3762 15.0781 6.4168 4.6538 1.8751 28.8294
#
#
#
# Elastic Compliance Matrix: (Units=1/GPa)
#
#
# Indices 1 2 3 4 5 6 
#
# 1 0.022679 -0.004058 -0.000662 0.000746 -0.005242 -0.004885
# 2 -0.004058 0.009032 -0.003078 0.002594 0.000201 -0.003151
# 3 -0.000662 -0.003078 0.008026 -0.000538 -0.000699 0.000171
# 4 0.000746 0.002594 -0.000538 0.029527 -0.007717 -0.005744
# 5 -0.005242 0.000201 -0.000699 -0.007717 0.031388 0.000959
# 6 -0.004885 -0.003151 0.000171 -0.005744 0.000959 0.038750
#
#
# Mechanical properties :
#
#
# Convention : Reuss Voigt Hill
#
# Bulk Modulus (GPa) = 41.42621 65.14215 53.28418
# Shear Modulus (GPa) = 30.66583 36.92711 33.79647
#
# Velocity S-wave (km/s) = 3.55837 3.90478 3.73559
# Velocity P-wave (km/s) = 5.82989 6.87219 6.37239
#
# Compressibility (1/GPa) = 0.02413931
#
# Stress axis : x y z
#
# Youngs Moduli (GPa) = 44.09300 110.71626 124.58874
#
# Poissons Ratio (x) = 0.44933 0.08254
# Poissons Ratio (y) = 0.17895 0.38353
# Poissons Ratio (z) = 0.02921 0.34083
#
# Static dielectric constant tensor:
#      x y z
#    x 1.776810 0.517510 0.776830 
#    y 0.517510 0.712200 -1.938570 
#    z 0.776830 -1.938570 -1.253130 
# 
# From -- ./inp_files/226411.got.cif
#   From: 2010.05.17/outbox.cif.g08.bks.cpg/sg2_114_cif.got.tgz:226411.got - 2010.06.03 11:33:40.
