data_PCOD9048771
_publ_section_title
;
Structure prediction by ZEFSAII (Michael W. Deem and Ramdas Pophale) SiO2 
 PCOD9048771
Probable space group: P -1
;
_chemical_formula_sum "Si O2"
_cell_formula_units_Z 14
_cell_length_a 9.111339
_cell_length_b 10.450348
_cell_length_c 9.613180
_cell_angle_alpha 50.222753
_cell_angle_beta 84.358866
_cell_angle_gamma 63.308278
_cell_volume 604.201675
_symmetry_space_group_name_H-M "P -1"
_symmetry_group_IT_number 2
_symmetry_cell_setting 'triclinic'
loop_
_space_group_symop_operation_xyz
x,y,z
-x,-y,-z
loop_
_atom_site_type_symbol
_atom_site_label
_atom_site_fract_x
_atom_site_fract_y
_atom_site_fract_z
Si Si1 0.078952 0.951049 0.180660
Si Si2 0.623395 0.821182 0.509519
Si Si3 0.991418 0.377695 0.459791
Si Si4 0.299652 0.430452 0.835404
Si Si5 0.491543 0.311128 0.163652
Si Si6 0.857286 0.153148 0.302679
Si Si7 0.465845 0.854563 0.197159
O O1 0.071725 0.766882 0.375271
O O2 0.269083 0.916212 0.186430
O O3 0.960861 0.129313 0.169547
O O4 0.000000 0.000000 0.000000
O O5 0.607188 0.656277 0.707009
O O6 0.548092 0.841129 0.349265
O O7 0.821560 0.751753 0.531583
O O8 0.500000 0.000000 0.500000
O O9 0.868775 0.537435 0.248013
O O10 0.000000 0.500000 0.500000
O O11 0.228829 0.646425 0.746369
O O12 0.439572 0.345603 0.759409
O O13 0.385344 0.295208 0.055780
O O14 0.689500 0.146075 0.274120
O O15 0.500000 0.500000 0.000000
O O16 0.000000 0.000000 0.500000
O O17 0.500000 0.000000 0.000000
#
# Coordination Sequence:
#
# PCOD9048771 Si02
#       7
#     2   2   2   2   2   2   2
#     4  12  27  47  78 110 153 199 258 320 383 455
#     4  12  26  46  75 106 152 197 252 314 382 454
#     4  12  27  48  73 112 153 202 257 316 384 457
#     4  11  25  48  75 107 158 192 258 310 386 457
#     4  10  24  45  72 109 146 193 249 310 378 448
#     4  11  22  46  76 112 146 194 256 314 379 455
#     4  12  27  50  76 112 155 204 256 318 390 459
#
# _framework density 23.17107
#
# number of rings (size 3 to 8) (size 9 to 14) (size 15 to 20)
#    0.000    0.571    2.857    4.286    4.000    5.714 
#    0.000    0.000    0.000    0.000    0.000    0.000 
#    0.000    0.000    0.000    0.000    0.000    0.000 
#
# Total GULP energy -78186.766992 kJ/mol
# GULP energy per Si atom -5584.769071 kJ/mol
# Density = 2.311833 g / cm^3
# Si number density = 23.171070 Si / 1000 Ang^3
#
#
#
# Elastic Constant Matrix: (Units=GPa)
#
#
# Indices 1 2 3 4 5 6 
#
# 1 144.4404 44.0561 76.7377 5.4183 15.4025 -52.9480
# 2 44.0561 165.0099 41.9183 15.9580 5.7691 -24.2529
# 3 76.7377 41.9183 174.4003 31.5915 35.3844 -17.0251
# 4 5.4183 15.9580 31.5915 42.4621 4.4050 2.5506
# 5 15.4025 5.7691 35.3844 4.4050 71.0856 -2.9631
# 6 -52.9480 -24.2529 -17.0251 2.5506 -2.9631 48.7555
#
#
#
# Elastic Compliance Matrix: (Units=1/GPa)
#
#
# Indices 1 2 3 4 5 6 
#
# 1 0.015108 -0.000746 -0.005353 0.001495 -0.000054 0.014085
# 2 -0.000746 0.007029 -0.000766 -0.002151 0.000212 0.002544
# 3 -0.005353 -0.000766 0.009740 -0.005763 -0.003382 -0.002697
# 4 0.001495 -0.002151 -0.005763 0.028544 0.000830 -0.002902
# 5 -0.000054 0.000212 -0.003382 0.000830 0.015685 -0.000224
# 6 0.014085 0.002544 -0.002697 -0.002902 -0.000224 0.036268
#
#
# Mechanical properties :
#
#
# Convention : Reuss Voigt Hill
#
# Bulk Modulus (GPa) = 55.10931 89.91941 72.51436
# Shear Modulus (GPa) = 37.83526 53.86988 45.85257
#
# Velocity S-wave (km/s) = 4.04526 4.82693 4.45328
# Velocity P-wave (km/s) = 6.75678 8.36401 7.60299
#
# Compressibility (1/GPa) = 0.01814575
#
# Stress axis : x y z
#
# Youngs Moduli (GPa) = 66.19202 142.27604 102.66824
#
# Poissons Ratio (x) = 0.10617 0.54958
# Poissons Ratio (y) = 0.04940 0.07865
# Poissons Ratio (z) = 0.35432 0.10899
#
# Static dielectric constant tensor:
#      x y z
#    x 1.945720 0.102410 -0.062740 
#    y 0.102410 1.992070 -0.108690 
#    z -0.062740 -0.108690 1.993470 
# 
# From -- ./inp_files/185012.got.cif
#   From: 2010.05.17/outbox.cif.g08.bks.cpg/sg2_93_cif.got.tgz:185012.got - 2010.06.03 11:33:40.
