data_PCOD9048873
_publ_section_title
;
Structure prediction by ZEFSAII (Michael W. Deem and Ramdas Pophale) SiO2 
 PCOD9048873
Probable space group: P -1
;
_chemical_formula_sum "Si O2"
_cell_formula_units_Z 10
_cell_length_a 8.423600
_cell_length_b 12.918316
_cell_length_c 7.115907
_cell_angle_alpha 72.535150
_cell_angle_beta 94.897453
_cell_angle_gamma 146.358821
_cell_volume 388.876450
_symmetry_space_group_name_H-M "P -1"
_symmetry_group_IT_number 2
_symmetry_cell_setting 'triclinic'
loop_
_space_group_symop_operation_xyz
x,y,z
-x,-y,-z
loop_
_atom_site_type_symbol
_atom_site_label
_atom_site_fract_x
_atom_site_fract_y
_atom_site_fract_z
Si Si1 0.675009 0.853180 0.484750
Si Si2 0.174969 0.394297 0.567219
Si Si3 0.491355 0.426989 0.845718
Si Si4 0.639616 0.280718 0.080010
Si Si5 0.488541 0.959919 0.299248
O O1 0.457974 0.636420 0.496040
O O2 0.496715 0.782634 0.692860
O O3 0.683459 0.964505 0.294089
O O4 0.000000 0.000000 0.500000
O O5 0.785585 0.618139 0.638860
O O6 0.862004 0.270470 0.642121
O O7 0.219896 0.319635 0.753177
O O8 0.500000 0.500000 0.000000
O O9 0.497009 0.301575 0.948215
O O10 0.570386 0.116249 0.109825
O O11 0.000000 0.500000 0.000000
O O12 0.500000 0.000000 0.500000
#
# Coordination Sequence:
#
# PCOD9048873 Si02
#       5
#     2   2   2   2   2
#     4  11  25  47  80 109 149 199 248 311 375 442
#     4  11  25  47  79 107 151 203 242 305 387 441
#     4  11  24  44  75 108 150 189 255 305 369 435
#     4  11  25  44  72 107 155 195 242 312 366 437
#     4  10  24  45  74 106 153 197 248 300 380 440
#
# _framework density 25.715108000000001
#
# number of rings (size 3 to 8) (size 9 to 14) (size 15 to 20)
#    0.000    1.200    2.000    3.000   14.000    0.800 
#    0.000    2.000    0.000    0.000    0.000    0.000 
#    0.000    0.000    0.000    0.000    0.000    0.000 
#
# Total GULP energy -55993.168109 kJ/mol
# GULP energy per Si atom -5599.316811 kJ/mol
# Density = 2.565658 g / cm^3
# Si number density = 25.715108 Si / 1000 Ang^3
#
#
#
# Elastic Constant Matrix: (Units=GPa)
#
#
# Indices 1 2 3 4 5 6 
#
# 1 169.2985 80.1233 71.9593 -3.2737 42.3640 -0.1753
# 2 80.1233 158.3633 25.8926 -9.2291 22.5708 4.6619
# 3 71.9593 25.8926 150.6242 -0.8798 30.5317 -13.6441
# 4 -3.2737 -9.2291 -0.8798 22.9811 -2.7163 3.7679
# 5 42.3640 22.5708 30.5317 -2.7163 82.6875 -10.3668
# 6 -0.1753 4.6619 -13.6441 3.7679 -10.3668 43.4751
#
#
#
# Elastic Compliance Matrix: (Units=1/GPa)
#
#
# Indices 1 2 3 4 5 6 
#
# 1 0.010116 -0.004095 -0.003665 -0.000469 -0.002893 -0.001319
# 2 -0.004095 0.008584 0.000489 0.003017 -0.000472 -0.001157
# 3 -0.003665 0.000489 0.008768 -0.000533 -0.001205 0.002443
# 4 -0.000469 0.003017 -0.000533 0.045409 0.000567 -0.004293
# 5 -0.002893 -0.000472 -0.001205 0.000567 0.014554 0.003082
# 6 -0.001319 -0.001157 0.002443 -0.004293 0.003082 0.024994
#
#
# Mechanical properties :
#
#
# Convention : Reuss Voigt Hill
#
# Bulk Modulus (GPa) = 77.36116 92.69295 85.02705
# Shear Modulus (GPa) = 38.08789 49.84944 43.96867
#
# Velocity S-wave (km/s) = 3.85274 4.40765 4.13950
# Velocity P-wave (km/s) = 7.06688 7.87575 7.48225
#
# Compressibility (1/GPa) = 0.01292638
#
# Stress axis : x y z
#
# Youngs Moduli (GPa) = 98.85463 116.50115 114.04934
#
# Poissons Ratio (x) = 0.47709 0.41796
# Poissons Ratio (y) = 0.40483 -0.05580
# Poissons Ratio (z) = 0.36227 -0.05700
#
# Static dielectric constant tensor:
#      x y z
#    x 2.039800 -0.050010 0.035210 
#    y -0.050010 1.996540 0.003060 
#    z 0.035210 0.003060 2.104830 
# 
# From -- ./inp_files/199118.got.cif
#   From: 2010.05.17/outbox.cif.g08.bks.cpg/sg2_100_cif.got.tgz:199118.got - 2010.06.03 11:33:40.
