data_PCOD9048574
_publ_section_title
;
Structure prediction by ZEFSAII (Michael W. Deem and Ramdas Pophale) SiO2 
 PCOD9048574
Probable space group: P -1
;
_chemical_formula_sum "Si O2"
_cell_formula_units_Z 14
_cell_length_a 25.275435
_cell_length_b 4.965942
_cell_length_c 23.406334
_cell_angle_alpha 97.406398
_cell_angle_beta 11.311475
_cell_angle_gamma 96.814164
_cell_volume 570.980885
_symmetry_space_group_name_H-M "P -1"
_symmetry_group_IT_number 2
_symmetry_cell_setting 'triclinic'
loop_
_space_group_symop_operation_xyz
x,y,z
-x,-y,-z
loop_
_atom_site_type_symbol
_atom_site_label
_atom_site_fract_x
_atom_site_fract_y
_atom_site_fract_z
Si Si1 0.594959 0.261895 0.065655
Si Si2 0.136139 0.812177 0.745016
Si Si3 0.394829 0.402895 0.168761
Si Si4 0.860235 0.040821 0.512988
Si Si5 0.549355 0.577225 0.385095
Si Si6 0.818976 0.179576 0.010605
Si Si7 0.625856 0.628680 0.148828
O O1 0.627809 0.365665 0.968668
O O2 0.319810 0.097635 0.348960
O O3 0.593056 0.509507 0.117804
O O4 0.833858 0.049055 0.821107
O O5 0.314236 0.776482 0.613233
O O6 0.332415 0.640136 0.489609
O O7 0.841433 0.704618 0.069369
O O8 0.057603 0.082017 0.798273
O O9 0.248994 0.117268 0.319205
O O10 0.200831 0.642187 0.407030
O O11 0.500000 0.500000 0.000000
O O12 0.500000 0.500000 0.500000
O O13 0.582148 0.298047 0.306523
O O14 0.831336 0.421127 0.958792
O O15 0.734813 0.922429 0.055593
#
# Coordination Sequence:
#
# PCOD9048574 Si02
#       7
#     2   2   2   2   2   2   2
#     4  10  27  43  68 102 136 181 231 285 343 405
#     4  11  24  47  66 105 134 182 223 281 341 404
#     4  10  24  45  70 101 140 182 229 284 344 407
#     4  10  25  41  67  99 137 174 233 272 350 396
#     4  11  26  47  74 104 139 179 229 282 342 410
#     4  11  25  46  68 102 134 182 226 280 345 401
#     4  11  27  44  73  96 142 179 233 282 344 410
#
# _framework density 24.519210000000001
#
# number of rings (size 3 to 8) (size 9 to 14) (size 15 to 20)
#    0.857    0.571    2.857    0.857   10.000    3.429 
#    0.000    0.000    0.000    0.000    0.000    0.000 
#    0.000    0.000    0.000    0.000    0.000    0.000 
#
# Total GULP energy -78203.294276 kJ/mol
# GULP energy per Si atom -5585.949591 kJ/mol
# Density = 2.446340 g / cm^3
# Si number density = 24.519210 Si / 1000 Ang^3
#
#
#
# Elastic Constant Matrix: (Units=GPa)
#
#
# Indices 1 2 3 4 5 6 
#
# 1 119.2452 6.5533 28.8485 8.5363 -14.5137 -11.3542
# 2 6.5533 106.4441 10.2132 11.4754 -18.6007 -16.5925
# 3 28.8485 10.2132 92.8523 6.2248 -39.2827 -17.6167
# 4 8.5363 11.4754 6.2248 33.1641 -5.3385 0.8881
# 5 -14.5137 -18.6007 -39.2827 -5.3385 43.8980 10.4166
# 6 -11.3542 -16.5925 -17.6167 0.8881 10.4166 28.6600
#
#
#
# Elastic Compliance Matrix: (Units=1/GPa)
#
#
# Indices 1 2 3 4 5 6 
#
# 1 0.009325 0.000325 -0.002119 -0.002104 0.000483 0.002470
# 2 0.000325 0.011442 0.002207 -0.003835 0.004938 0.006434
# 3 -0.002119 0.002207 0.019141 -0.001472 0.015625 0.006570
# 4 -0.002104 -0.003835 -0.001472 0.032715 0.001665 -0.005577
# 5 0.000483 0.004938 0.015625 0.001665 0.039646 -0.001806
# 6 0.002470 0.006434 0.006570 -0.005577 -0.001806 0.044463
#
#
# Mechanical properties :
#
#
# Convention : Reuss Voigt Hill
#
# Bulk Modulus (GPa) = 24.54880 45.53017 35.03949
# Shear Modulus (GPa) = 29.50128 39.33954 34.42041
#
# Velocity S-wave (km/s) = 3.47247 4.00989 3.75082
# Velocity P-wave (km/s) = 5.10991 6.32838 5.75150
#
# Compressibility (1/GPa) = 0.04073519
#
# Stress axis : x y z
#
# Youngs Moduli (GPa) = 107.23377 87.39738 52.24321
#
# Poissons Ratio (x) = -0.02843 0.11072
# Poissons Ratio (y) = -0.03489 -0.11531
# Poissons Ratio (z) = 0.22726 -0.19290
#
# Static dielectric constant tensor:
#      x y z
#    x 1.978920 -0.008730 -0.006960 
#    y -0.008730 1.971600 -0.056130 
#    z -0.006960 -0.056130 1.944360 
# 
# From -- ./inp_files/621420.got.cif
#   From: 2010.05.17/outbox.cif.g08.bks.cpg/sg2_311_cif.got.tgz:621420.got - 2010.06.03 11:33:40.
