data_PCOD9048056
_publ_section_title
;
Structure prediction by ZEFSAII (Michael W. Deem and Ramdas Pophale) SiO2 
 PCOD9048056
Probable space group: P -1
;
_chemical_formula_sum "Si O2"
_cell_formula_units_Z 16
_cell_length_a 8.501322
_cell_length_b 15.348652
_cell_length_c 12.355832
_cell_angle_alpha 151.699726
_cell_angle_beta 100.346978
_cell_angle_gamma 71.565657
_cell_volume 707.411161
_symmetry_space_group_name_H-M "P -1"
_symmetry_group_IT_number 2
_symmetry_cell_setting 'triclinic'
loop_
_space_group_symop_operation_xyz
x,y,z
-x,-y,-z
loop_
_atom_site_type_symbol
_atom_site_label
_atom_site_fract_x
_atom_site_fract_y
_atom_site_fract_z
Si Si1 0.461388 0.386940 0.271493
Si Si2 0.784123 0.756841 0.454630
Si Si3 0.549302 0.526794 0.208728
Si Si4 0.758463 0.046514 0.945823
Si Si5 0.761333 0.273351 0.762349
Si Si6 0.116970 0.395474 0.155974
Si Si7 0.157758 0.186337 0.715737
Si Si8 0.014194 0.278681 0.226641
O O1 0.500000 0.500000 0.500000
O O2 0.536434 0.435894 0.222563
O O3 0.262603 0.444082 0.291128
O O4 0.559132 0.159194 0.056704
O O5 0.631748 0.695512 0.416544
O O6 0.762091 0.773628 0.341445
O O7 0.959817 0.585673 0.315168
O O8 0.790931 0.949484 0.724978
O O9 0.365644 0.615065 0.225981
O O10 0.674122 0.373804 0.972868
O O11 0.836658 0.872675 0.850478
O O12 0.855111 0.204129 0.144480
O O13 0.952254 0.275324 0.776167
O O14 0.784082 0.045624 0.516188
O O15 0.050942 0.266284 0.089257
O O16 0.197561 0.282256 0.933464
O O17 0.000000 0.500000 0.500000
#
# Coordination Sequence:
#
# PCOD9048056 Si02
#       8
#     2   2   2   2   2   2   2   2
#     4  12  29  47  70 104 146 184 243 303 355 425
#     4  12  25  44  74 102 144 186 241 291 360 436
#     4  11  25  46  71 101 142 193 233 294 362 416
#     4  11  27  46  77 106 138 192 244 294 361 432
#     4  10  24  44  72  98 145 188 236 295 352 433
#     4  12  26  44  72 101 144 188 233 300 361 421
#     4  11  25  43  67 108 138 185 240 294 360 425
#     4  11  24  49  75 102 139 188 246 295 357 423
#
# _framework density 22.617681999999999
#
# number of rings (size 3 to 8) (size 9 to 14) (size 15 to 20)
#    0.000    0.750    2.500    3.375   12.250    2.000 
#    0.000    0.000    0.000    0.000    0.000    0.000 
#    0.000    0.000    0.000    0.000    0.000    0.000 
#
# Total GULP energy -89614.364354 kJ/mol
# GULP energy per Si atom -5600.897772 kJ/mol
# Density = 2.256620 g / cm^3
# Si number density = 22.617682 Si / 1000 Ang^3
#
#
#
# Elastic Constant Matrix: (Units=GPa)
#
#
# Indices 1 2 3 4 5 6 
#
# 1 42.8176 16.0597 22.5027 7.4560 9.0892 -7.3554
# 2 16.0597 111.3935 45.2579 -1.8144 -7.7862 -8.9891
# 3 22.5027 45.2579 114.4553 -4.9624 9.2498 -3.7466
# 4 7.4560 -1.8144 -4.9624 26.1006 0.9228 9.0613
# 5 9.0892 -7.7862 9.2498 0.9228 30.6553 -6.0188
# 6 -7.3554 -8.9891 -3.7466 9.0613 -6.0188 26.5442
#
#
#
# Elastic Compliance Matrix: (Units=1/GPa)
#
#
# Indices 1 2 3 4 5 6 
#
# 1 0.032608 -0.002349 -0.005240 -0.014045 -0.006119 0.010908
# 2 -0.002349 0.011984 -0.004670 -0.001169 0.006073 0.004524
# 3 -0.005240 -0.004670 0.012039 0.004995 -0.004199 -0.003992
# 4 -0.014045 -0.001169 0.004995 0.050857 -0.003436 -0.021723
# 5 -0.006119 0.006073 -0.004199 -0.003436 0.039282 0.009848
# 6 0.010908 0.004524 -0.003992 -0.021723 0.009848 0.051313
#
#
# Mechanical properties :
#
#
# Convention : Reuss Voigt Hill
#
# Bulk Modulus (GPa) = 31.13912 48.47857 39.80885
# Shear Modulus (GPa) = 21.43132 28.98309 25.20720
#
# Velocity S-wave (km/s) = 3.08156 3.58360 3.34202
# Velocity P-wave (km/s) = 5.14382 6.21316 5.70361
#
# Compressibility (1/GPa) = 0.03211394
#
# Stress axis : x y z
#
# Youngs Moduli (GPa) = 30.66743 83.44601 83.06213
#
# Poissons Ratio (x) = 0.19598 0.43521
# Poissons Ratio (y) = 0.07203 0.38792
# Poissons Ratio (z) = 0.16068 0.38971
#
# Static dielectric constant tensor:
#      x y z
#    x 1.847380 0.001930 0.009780 
#    y 0.001930 1.814170 -0.003680 
#    z 0.009780 -0.003680 1.830690 
# 
# From -- ./inp_files/400085.got.cif
#   From: 2010.05.17/outbox.cif.g08.bks.cpg/sg2_201_cif.got.tgz:400085.got - 2010.06.03 11:33:40.
