data_PCOD9048773
_publ_section_title
;
Structure prediction by ZEFSAII (Michael W. Deem and Ramdas Pophale) SiO2 
 PCOD9048773
Probable space group: P -1
;
_chemical_formula_sum "Si O2"
_cell_formula_units_Z 16
_cell_length_a 15.524614
_cell_length_b 14.574284
_cell_length_c 11.521175
_cell_angle_alpha 125.300764
_cell_angle_beta 142.887056
_cell_angle_gamma 27.366724
_cell_volume 638.245879
_symmetry_space_group_name_H-M "P -1"
_symmetry_group_IT_number 2
_symmetry_cell_setting 'triclinic'
loop_
_space_group_symop_operation_xyz
x,y,z
-x,-y,-z
loop_
_atom_site_type_symbol
_atom_site_label
_atom_site_fract_x
_atom_site_fract_y
_atom_site_fract_z
Si Si1 0.956600 0.365146 0.343786
Si Si2 0.637718 0.365013 0.356108
Si Si3 0.057469 0.030681 0.762936
Si Si4 0.599740 0.982998 0.821925
Si Si5 0.162773 0.531847 0.967884
Si Si6 0.718182 0.550121 0.470511
Si Si7 0.887935 0.997316 0.774040
Si Si8 0.205332 0.302582 0.980672
O O1 0.850757 0.482356 0.192755
O O2 0.772020 0.524947 0.373945
O O3 0.281221 0.185415 0.580686
O O4 0.955861 0.229227 0.235024
O O5 0.650487 0.468275 0.371133
O O6 0.818274 0.251027 0.584570
O O7 0.772435 0.172932 0.284549
O O8 0.314502 0.546589 0.164639
O O9 0.922107 0.046803 0.730529
O O10 0.273435 0.978886 0.001047
O O11 0.838267 0.760561 0.833355
O O12 0.611018 0.912238 0.907865
O O13 0.343904 0.314206 0.073299
O O14 0.443116 0.804467 0.407901
O O15 0.001880 0.386997 0.727426
O O16 0.000000 0.000000 0.000000
O O17 0.000000 0.500000 0.000000
#
# Coordination Sequence:
#
# PCOD9048773 Si02
#       8
#     2   2   2   2   2   2   2   2
#     4  12  28  49  73 110 154 190 250 299 363 455
#     4  11  25  45  73 108 147 186 252 303 369 435
#     4  11  25  44  72 109 146 192 243 311 365 435
#     4  11  24  46  74 104 148 189 243 308 368 427
#     4  11  26  46  74 104 145 196 242 302 366 442
#     4  12  26  47  76 106 145 199 239 307 368 429
#     4  12  27  46  76 107 152 195 243 303 374 439
#     4  10  24  45  72 110 141 191 247 296 365 441
#
# _framework density 25.068708000000001
#
# number of rings (size 3 to 8) (size 9 to 14) (size 15 to 20)
#    0.000    0.750    2.500    4.125    8.750    4.000 
#    0.000    0.000    0.000    0.000    0.000    0.000 
#    0.000    0.000    0.000    0.000    0.000    0.000 
#
# Total GULP energy -89789.104791 kJ/mol
# GULP energy per Si atom -5611.819049 kJ/mol
# Density = 2.501165 g / cm^3
# Si number density = 25.068708 Si / 1000 Ang^3
#
#
#
# Elastic Constant Matrix: (Units=GPa)
#
#
# Indices 1 2 3 4 5 6 
#
# 1 164.5278 45.7197 36.7647 4.6887 -9.7756 -21.3393
# 2 45.7197 74.7811 8.4988 5.6120 -0.4257 -6.6105
# 3 36.7647 8.4988 106.1871 10.1585 -0.8086 -10.7265
# 4 4.6887 5.6120 10.1585 36.2338 4.9500 7.3236
# 5 -9.7756 -0.4257 -0.8086 4.9500 46.0302 8.7708
# 6 -21.3393 -6.6105 -10.7265 7.3236 8.7708 33.8415
#
#
#
# Elastic Compliance Matrix: (Units=1/GPa)
#
#
# Indices 1 2 3 4 5 6 
#
# 1 0.008342 -0.004489 -0.002095 -0.000669 0.001082 0.003583
# 2 -0.004489 0.016324 0.000582 -0.002253 -0.000785 0.001234
# 3 -0.002095 0.000582 0.010723 -0.003377 -0.000468 0.003044
# 4 -0.000669 -0.002253 -0.003377 0.030891 -0.002001 -0.008099
# 5 0.001082 -0.000785 -0.000468 -0.002001 0.023142 -0.005184
# 6 0.003583 0.001234 0.003044 -0.008099 -0.005184 0.036111
#
#
# Mechanical properties :
#
#
# Convention : Reuss Voigt Hill
#
# Bulk Modulus (GPa) = 42.76144 58.60695 50.68419
# Shear Modulus (GPa) = 34.40424 40.18861 37.29642
#
# Velocity S-wave (km/s) = 3.70861 4.00826 3.86134
# Velocity P-wave (km/s) = 5.95257 6.69708 6.33577
#
# Compressibility (1/GPa) = 0.02338556
#
# Stress axis : x y z
#
# Youngs Moduli (GPa) = 119.88214 61.25892 93.25847
#
# Poissons Ratio (x) = 0.27497 0.19534
# Poissons Ratio (y) = 0.53811 -0.05425
# Poissons Ratio (z) = 0.25110 -0.03563
#
# Static dielectric constant tensor:
#      x y z
#    x 1.951290 0.002190 0.028470 
#    y 0.002190 2.017370 -0.010980 
#    z 0.028470 -0.010980 1.937180 
# 
# From -- ./inp_files/455837.got.cif
#   From: 2010.05.17/outbox.cif.g08.bks.cpg/sg2_228_cif.got.tgz:455837.got - 2010.06.03 11:33:40.
