data_PCOD9048289
_publ_section_title
;
Structure prediction by ZEFSAII (Michael W. Deem and Ramdas Pophale) SiO2 
 PCOD9048289
Probable space group: P -1
;
_chemical_formula_sum "Si O2"
_cell_formula_units_Z 14
_cell_length_a 11.226419
_cell_length_b 10.050956
_cell_length_c 10.363760
_cell_angle_alpha 94.525942
_cell_angle_beta 65.283724
_cell_angle_gamma 41.281139
_cell_volume 528.994947
_symmetry_space_group_name_H-M "P -1"
_symmetry_group_IT_number 2
_symmetry_cell_setting 'triclinic'
loop_
_space_group_symop_operation_xyz
x,y,z
-x,-y,-z
loop_
_atom_site_type_symbol
_atom_site_label
_atom_site_fract_x
_atom_site_fract_y
_atom_site_fract_z
Si Si1 0.397549 0.068260 0.348989
Si Si2 0.832005 0.282899 0.581562
Si Si3 0.131516 0.471648 0.270962
Si Si4 0.878931 0.953773 0.824371
Si Si5 0.406240 0.338645 0.906314
Si Si6 0.337934 0.705758 0.706531
Si Si7 0.158286 0.139263 0.902674
O O1 0.270677 0.256555 0.297554
O O2 0.178090 0.287800 0.572938
O O3 0.422307 0.889762 0.294966
O O4 0.692126 0.861872 0.212115
O O5 0.854750 0.384168 0.678518
O O6 0.528165 0.504466 0.724681
O O7 0.932003 0.253956 0.395730
O O8 0.000000 0.000000 0.500000
O O9 0.285250 0.333813 0.057992
O O10 0.043928 0.914502 0.830085
O O11 0.611866 0.234360 0.896670
O O12 0.819556 0.896223 0.955283
O O13 0.142053 0.620991 0.981418
O O14 0.500000 0.500000 0.500000
O O15 0.320559 0.879260 0.738951
#
# Coordination Sequence:
#
# PCOD9048289 Si02
#       7
#     2   2   2   2   2   2   2
#     4  11  24  48  71 109 149 187 243 298 357 432
#     4  11  24  46  75 107 143 194 245 291 367 436
#     4  11  24  44  78 104 146 195 237 300 367 418
#     4  11  25  46  73 102 150 187 236 310 355 420
#     4  12  26  45  74 109 141 193 244 291 361 437
#     4  10  24  45  66 103 144 185 236 297 355 423
#     4  12  26  46  72 106 146 188 243 295 370 426
#
# _framework density 26.465281999999998
#
# number of rings (size 3 to 8) (size 9 to 14) (size 15 to 20)
#    0.000    0.857    4.286    1.286    6.000    1.143 
#    2.571    0.000    0.000    0.000    0.000    0.000 
#    0.000    0.000    0.000    0.000    0.000    0.000 
#
# Total GULP energy -78276.229149 kJ/mol
# GULP energy per Si atom -5591.159225 kJ/mol
# Density = 2.640505 g / cm^3
# Si number density = 26.465282 Si / 1000 Ang^3
#
#
#
# Elastic Constant Matrix: (Units=GPa)
#
#
# Indices 1 2 3 4 5 6 
#
# 1 108.7337 38.7844 17.8075 25.6827 -17.4804 -15.9394
# 2 38.7844 122.6974 17.4826 27.0162 5.0946 -31.5883
# 3 17.8075 17.4826 119.2237 11.4916 -9.8824 -20.9493
# 4 25.6827 27.0162 11.4916 57.5590 -6.8677 -4.7343
# 5 -17.4804 5.0946 -9.8824 -6.8677 44.2360 23.9671
# 6 -15.9394 -31.5883 -20.9493 -4.7343 23.9671 37.6941
#
#
#
# Elastic Compliance Matrix: (Units=1/GPa)
#
#
# Indices 1 2 3 4 5 6 
#
# 1 0.012040 -0.004232 -0.000989 -0.002700 0.006483 -0.003466
# 2 -0.004232 0.017749 0.001489 -0.006844 -0.017571 0.024225
# 3 -0.000989 0.001489 0.009628 -0.001888 -0.002936 0.007811
# 4 -0.002700 -0.006844 -0.001888 0.022312 0.008451 -0.010497
# 5 0.006483 -0.017571 -0.002936 0.008451 0.052859 -0.046164
# 6 -0.003466 0.024225 0.007811 -0.010497 -0.046164 0.077739
#
#
# Mechanical properties :
#
#
# Convention : Reuss Voigt Hill
#
# Bulk Modulus (GPa) = 31.29585 55.42265 43.35925
# Shear Modulus (GPa) = 23.75952 46.33652 35.04802
#
# Velocity S-wave (km/s) = 2.99952 4.18885 3.64304
# Velocity P-wave (km/s) = 4.88335 6.66201 5.84078
#
# Compressibility (1/GPa) = 0.03195312
#
# Stress axis : x y z
#
# Youngs Moduli (GPa) = 83.05544 56.34205 103.86418
#
# Poissons Ratio (x) = 0.23844 0.10274
# Poissons Ratio (y) = 0.35148 -0.15468
# Poissons Ratio (z) = 0.08216 -0.08391
#
# Static dielectric constant tensor:
#      x y z
#    x 2.108580 -0.024380 -0.097080 
#    y -0.024380 2.087890 -0.024800 
#    z -0.097080 -0.024800 2.050450 
# 
# From -- ./inp_files/428367.got.cif
#   From: 2010.05.17/outbox.cif.g08.bks.cpg/sg2_215_cif.got.tgz:428367.got - 2010.06.03 11:33:40.
