data_PCOD9048215
_publ_section_title
;
Structure prediction by ZEFSAII (Michael W. Deem and Ramdas Pophale) SiO2 
 PCOD9048215
Probable space group: P -1
;
_chemical_formula_sum "Si O2"
_cell_formula_units_Z 14
_cell_length_a 16.606075
_cell_length_b 12.232294
_cell_length_c 22.397432
_cell_angle_alpha 27.214512
_cell_angle_beta 164.315968
_cell_angle_gamma 146.746187
_cell_volume 555.099140
_symmetry_space_group_name_H-M "P -1"
_symmetry_group_IT_number 2
_symmetry_cell_setting 'triclinic'
loop_
_space_group_symop_operation_xyz
x,y,z
-x,-y,-z
loop_
_atom_site_type_symbol
_atom_site_label
_atom_site_fract_x
_atom_site_fract_y
_atom_site_fract_z
Si Si1 0.186766 0.654304 0.515846
Si Si2 0.693292 0.765814 0.280111
Si Si3 0.849191 0.964246 0.787129
Si Si4 0.127446 0.463450 0.174878
Si Si5 0.727128 0.822691 0.893176
Si Si6 0.262667 0.382037 0.485049
Si Si7 0.250266 0.004943 0.554569
O O1 0.356172 0.462982 0.682666
O O2 0.421557 0.762603 0.672052
O O3 0.000000 0.500000 0.500000
O O4 0.016595 0.862719 0.248877
O O5 0.622358 0.726182 0.316964
O O6 0.046609 0.796887 0.515797
O O7 0.500000 0.000000 0.000000
O O8 0.842697 0.995433 0.839724
O O9 0.500000 0.000000 0.500000
O O10 0.987749 0.687838 0.007037
O O11 0.484233 0.466885 0.429938
O O12 0.081279 0.204496 0.291174
O O13 0.000000 0.500000 0.000000
O O14 0.582010 0.919766 0.805664
O O15 0.954611 0.569476 0.181772
O O16 0.245493 0.160426 0.535989
#
# Coordination Sequence:
#
# PCOD9048215 Si02
#       7
#     2   2   2   2   2   2   2
#     4  11  24  48  76 113 147 201 260 301 368 446
#     4  12  28  48  77 107 152 204 253 315 377 456
#     4  10  24  44  77 111 149 196 251 315 365 447
#     4  12  26  48  76 109 148 196 261 311 374 449
#     4  11  25  50  77 112 157 195 254 313 379 448
#     4  12  29  49  74 113 152 202 247 319 386 451
#     4  12  26  50  74 112 158 195 249 316 383 454
#
# _framework density 25.220718000000002
#
# number of rings (size 3 to 8) (size 9 to 14) (size 15 to 20)
#    0.000    0.571    2.857    4.286   10.000    2.286 
#    0.000    0.000    0.000    0.000    0.000    0.000 
#    0.000    0.000    0.000    0.000    0.000    0.000 
#
# Total GULP energy -78469.334317 kJ/mol
# GULP energy per Si atom -5604.952451 kJ/mol
# Density = 2.516331 g / cm^3
# Si number density = 25.220718 Si / 1000 Ang^3
#
#
#
# Elastic Constant Matrix: (Units=GPa)
#
#
# Indices 1 2 3 4 5 6 
#
# 1 153.6689 15.0097 46.0660 -14.8674 -7.6323 -11.7929
# 2 15.0097 52.7576 1.1553 -18.8554 16.0964 20.9521
# 3 46.0660 1.1553 114.7782 -12.9482 11.2964 -5.1382
# 4 -14.8674 -18.8554 -12.9482 29.0158 -1.4234 15.6488
# 5 -7.6323 16.0964 11.2964 -1.4234 55.8928 -3.4665
# 6 -11.7929 20.9521 -5.1382 15.6488 -3.4665 58.6124
#
#
#
# Elastic Compliance Matrix: (Units=1/GPa)
#
#
# Indices 1 2 3 4 5 6 
#
# 1 0.008786 -0.008755 -0.004345 -0.006401 0.004840 0.006511
# 2 -0.008755 0.076146 0.011686 0.075737 -0.026643 -0.049753
# 3 -0.004345 0.011686 0.012310 0.015059 -0.006583 -0.008382
# 4 -0.006401 0.075737 0.015059 0.118283 -0.026449 -0.060186
# 5 0.004840 -0.026643 -0.006583 -0.026449 0.028038 0.018641
# 6 0.006511 -0.049753 -0.008382 -0.060186 0.018641 0.052593
#
#
# Mechanical properties :
#
#
# Convention : Reuss Voigt Hill
#
# Bulk Modulus (GPa) = 10.59161 49.51852 30.05507
# Shear Modulus (GPa) = 15.13068 45.96910 30.54989
#
# Velocity S-wave (km/s) = 2.45201 4.27391 3.48415
# Velocity P-wave (km/s) = 3.49644 6.63564 5.30362
#
# Compressibility (1/GPa) = 0.09441437
#
# Stress axis : x y z
#
# Youngs Moduli (GPa) = 113.81766 13.13275 81.23384
#
# Poissons Ratio (x) = 0.11497 0.35296
# Poissons Ratio (y) = 0.99644 -0.94930
# Poissons Ratio (z) = 0.49454 -0.15347
#
# Static dielectric constant tensor:
#      x y z
#    x 2.034570 0.026120 -0.020000 
#    y 0.026120 2.061960 0.046150 
#    z -0.020000 0.046150 1.992010 
# 
# From -- ./inp_files/380866.got.cif
#   From: 2010.05.17/outbox.cif.g08.bks.cpg/sg2_191_cif.got.tgz:380866.got - 2010.06.03 11:33:40.
