data_PCOD9048881
_publ_section_title
;
Structure prediction by ZEFSAII (Michael W. Deem and Ramdas Pophale) SiO2 
 PCOD9048881
Probable space group: P -1
;
_chemical_formula_sum "Si O2"
_cell_formula_units_Z 14
_cell_length_a 5.610149
_cell_length_b 17.165469
_cell_length_c 11.465688
_cell_angle_alpha 38.708200
_cell_angle_beta 126.408894
_cell_angle_gamma 109.573341
_cell_volume 537.388852
_symmetry_space_group_name_H-M "P -1"
_symmetry_group_IT_number 2
_symmetry_cell_setting 'triclinic'
loop_
_space_group_symop_operation_xyz
x,y,z
-x,-y,-z
loop_
_atom_site_type_symbol
_atom_site_label
_atom_site_fract_x
_atom_site_fract_y
_atom_site_fract_z
Si Si1 0.325033 0.141956 0.825029
Si Si2 0.628174 0.733803 0.547260
Si Si3 0.827075 0.316447 0.067196
Si Si4 0.172986 0.962126 0.244023
Si Si5 0.138504 0.770709 0.059175
Si Si6 0.704165 0.444653 0.453689
Si Si7 0.754856 0.072592 0.441278
O O1 0.290299 0.241069 0.592077
O O2 0.551751 0.183614 0.931609
O O3 0.025607 0.103102 0.823769
O O4 0.500000 0.000000 0.000000
O O5 0.366892 0.653567 0.552710
O O6 0.504330 0.875296 0.405874
O O7 0.004140 0.250962 0.079330
O O8 0.579115 0.435796 0.800404
O O9 0.658174 0.217016 0.194273
O O10 0.077920 0.337804 0.207745
O O11 0.092160 0.916388 0.402307
O O12 0.077989 0.114994 0.061146
O O13 0.262911 0.642747 0.319042
O O14 0.000000 0.500000 0.500000
O O15 0.500000 0.000000 0.500000
O O16 0.000000 0.000000 0.500000
#
# Coordination Sequence:
#
# PCOD9048881 Si02
#       7
#     2   2   2   2   2   2   2
#     4   9  21  41  65 105 147 195 242 317 397 465
#     4  11  25  48  75 112 150 204 264 334 396 475
#     4  12  25  49  77 108 159 204 267 328 400 486
#     4  11  23  42  77 111 148 192 265 325 399 469
#     4  10  24  45  74 108 156 202 257 326 404 471
#     4  11  28  49  73 110 152 218 269 321 404 485
#     4  12  26  44  75 119 161 205 260 336 410 474
#
# _framework density 26.051901000000001
#
# number of rings (size 3 to 8) (size 9 to 14) (size 15 to 20)
#    0.000    1.143    2.857    1.714    4.000    5.143 
#    0.000    1.429    0.000    0.000    0.000    0.000 
#    0.000    0.000    0.000    0.000    0.000    0.000 
#
# Total GULP energy -78020.969780 kJ/mol
# GULP energy per Si atom -5572.926413 kJ/mol
# Density = 2.599261 g / cm^3
# Si number density = 26.051901 Si / 1000 Ang^3
#
#
#
# Elastic Constant Matrix: (Units=GPa)
#
#
# Indices 1 2 3 4 5 6 
#
# 1 100.4430 55.4078 48.2281 -10.0471 -6.0597 7.6748
# 2 55.4078 158.8298 40.7304 18.1827 -11.1541 20.0682
# 3 48.2281 40.7304 190.2395 4.0156 1.2672 -5.9352
# 4 -10.0471 18.1827 4.0156 50.4916 -0.3345 -6.2213
# 5 -6.0597 -11.1541 1.2672 -0.3345 39.3046 2.8276
# 6 7.6748 20.0682 -5.9352 -6.2213 2.8276 58.4093
#
#
#
# Elastic Compliance Matrix: (Units=1/GPa)
#
#
# Indices 1 2 3 4 5 6 
#
# 1 0.014487 -0.004825 -0.002750 0.004838 0.000998 -0.000058
# 2 -0.004825 0.009261 -0.000777 -0.004616 0.002102 -0.003220
# 3 -0.002750 -0.000777 0.006178 -0.000613 -0.000938 0.001236
# 4 0.004838 -0.004616 -0.000613 0.022889 -0.000591 0.003355
# 5 0.000998 0.002102 -0.000938 -0.000591 0.026383 -0.002289
# 6 -0.000058 -0.003220 0.001236 0.003355 -0.002289 0.018828
#
#
# Mechanical properties :
#
#
# Convention : Reuss Voigt Hill
#
# Bulk Modulus (GPa) = 75.62970 82.02721 78.82846
# Shear Modulus (GPa) = 41.96887 49.98417 45.97652
#
# Velocity S-wave (km/s) = 4.01805 4.38498 4.20552
# Velocity P-wave (km/s) = 7.11475 7.56253 7.34205
#
# Compressibility (1/GPa) = 0.01322232
#
# Stress axis : x y z
#
# Youngs Moduli (GPa) = 69.02956 107.97562 161.87075
#
# Poissons Ratio (x) = 0.52096 0.44516
# Poissons Ratio (y) = 0.33305 0.12573
# Poissons Ratio (z) = 0.18984 0.08387
#
# Static dielectric constant tensor:
#      x y z
#    x 2.372570 0.199690 0.232970 
#    y 0.199690 2.207450 0.094500 
#    z 0.232970 0.094500 2.231190 
# 
# From -- ./inp_files/485543.got.cif
#   From: 2010.05.17/outbox.cif.g08.bks.cpg/sg2_243_cif.got.tgz:485543.got - 2010.06.03 11:33:40.
