data_PCOD9048617
_publ_section_title
;
Structure prediction by ZEFSAII (Michael W. Deem and Ramdas Pophale) SiO2 
 PCOD9048617
Probable space group: P -1
;
_chemical_formula_sum "Si O2"
_cell_formula_units_Z 14
_cell_length_a 8.064394
_cell_length_b 8.678163
_cell_length_c 19.297103
_cell_angle_alpha 140.340293
_cell_angle_beta 56.558776
_cell_angle_gamma 95.200162
_cell_volume 560.627478
_symmetry_space_group_name_H-M "P -1"
_symmetry_group_IT_number 2
_symmetry_cell_setting 'triclinic'
loop_
_space_group_symop_operation_xyz
x,y,z
-x,-y,-z
loop_
_atom_site_type_symbol
_atom_site_label
_atom_site_fract_x
_atom_site_fract_y
_atom_site_fract_z
Si Si1 0.684299 0.085695 0.479681
Si Si2 0.215409 0.733657 0.615966
Si Si3 0.764383 0.275104 0.739285
Si Si4 0.649214 0.364492 0.164476
Si Si5 0.676086 0.830939 0.681439
Si Si6 0.920595 0.801302 0.083551
Si Si7 0.559959 0.925149 0.041602
O O1 0.783349 0.059827 0.371195
O O2 0.492885 0.445466 0.668051
O O3 0.500000 0.000000 0.500000
O O4 0.937493 0.896460 0.403188
O O5 0.500000 0.500000 0.500000
O O6 0.179382 0.506069 0.504503
O O7 0.047495 0.976265 0.800687
O O8 0.572658 0.430265 0.771924
O O9 0.673475 0.576290 0.909108
O O10 0.743378 0.034325 0.699540
O O11 0.884193 0.332559 0.070850
O O12 0.735346 0.026997 0.041003
O O13 0.376215 0.008837 0.797814
O O14 0.668536 0.859107 0.776767
O O15 0.000000 0.500000 0.000000
O O16 0.500000 0.000000 0.000000
#
# Coordination Sequence:
#
# PCOD9048617 Si02
#       7
#     2   2   2   2   2   2   2
#     4  12  27  46  73 104 145 186 242 298 365 423
#     4  10  25  47  70 108 144 191 236 293 356 430
#     4  11  26  45  73 103 143 193 241 290 361 431
#     4  11  24  50  70 108 146 184 238 301 364 423
#     4  11  23  47  73 104 147 189 244 289 362 429
#     4  11  23  43  79 107 141 187 242 293 352 434
#     4  10  24  45  70 106 144 184 240 301 356 420
#
# _framework density 24.972020000000001
#
# number of rings (size 3 to 8) (size 9 to 14) (size 15 to 20)
#    0.000    1.143    2.857    1.714    6.000    5.714 
#    7.714    0.000    0.000    0.000    0.000    0.000 
#    0.000    0.000    0.000    0.000    0.000    0.000 
#
# Total GULP energy -78229.097530 kJ/mol
# GULP energy per Si atom -5587.792681 kJ/mol
# Density = 2.491518 g / cm^3
# Si number density = 24.972020 Si / 1000 Ang^3
#
#
#
# Elastic Constant Matrix: (Units=GPa)
#
#
# Indices 1 2 3 4 5 6 
#
# 1 106.2764 51.7856 41.7498 4.5341 -12.1088 4.8266
# 2 51.7856 130.8978 32.1897 14.2791 -6.0416 14.3850
# 3 41.7498 32.1897 134.5762 -2.0797 -1.4864 5.7495
# 4 4.5341 14.2791 -2.0797 39.3588 10.8622 4.6095
# 5 -12.1088 -6.0416 -1.4864 10.8622 45.7266 1.7826
# 6 4.8266 14.3850 5.7495 4.6095 1.7826 50.8249
#
#
#
# Elastic Compliance Matrix: (Units=1/GPa)
#
#
# Indices 1 2 3 4 5 6 
#
# 1 0.013014 -0.004184 -0.003030 -0.001008 0.003023 0.000277
# 2 -0.004184 0.010208 -0.001093 -0.003330 0.001078 -0.002104
# 3 -0.003030 -0.001093 0.008666 0.001540 -0.001012 -0.000487
# 4 -0.001008 -0.003330 0.001540 0.029060 -0.007501 -0.001508
# 5 0.003023 0.001078 -0.001012 -0.007501 0.024587 -0.000660
# 6 0.000277 -0.002104 -0.000487 -0.001508 -0.000660 0.020460
#
#
# Mechanical properties :
#
#
# Convention : Reuss Voigt Hill
#
# Bulk Modulus (GPa) = 65.48024 69.24449 67.36236
# Shear Modulus (GPa) = 39.15422 43.58374 41.36898
#
# Velocity S-wave (km/s) = 3.96400 4.18221 4.07457
# Velocity P-wave (km/s) = 6.87236 7.14914 7.01212
#
# Compressibility (1/GPa) = 0.01527178
#
# Stress axis : x y z
#
# Youngs Moduli (GPa) = 76.84254 97.96248 115.39592
#
# Poissons Ratio (x) = 0.40988 0.34970
# Poissons Ratio (y) = 0.32151 0.12616
# Poissons Ratio (z) = 0.23287 0.10710
#
# Static dielectric constant tensor:
#      x y z
#    x 2.161780 -0.051910 0.066520 
#    y -0.051910 1.981980 0.020020 
#    z 0.066520 0.020020 1.989960 
# 
# From -- ./inp_files/325806.got.cif
#   From: 2010.05.17/outbox.cif.g08.bks.cpg/sg2_163_cif.got.tgz:325806.got - 2010.06.03 11:33:40.
