data_PCOD9048093
_publ_section_title
;
Structure prediction by ZEFSAII (Michael W. Deem and Ramdas Pophale) SiO2 
 PCOD9048093
Probable space group: P -1
;
_chemical_formula_sum "Si O2"
_cell_formula_units_Z 14
_cell_length_a 8.939352
_cell_length_b 17.984880
_cell_length_c 4.971274
_cell_angle_alpha 69.388811
_cell_angle_beta 61.511711
_cell_angle_gamma 52.383162
_cell_volume 554.301910
_symmetry_space_group_name_H-M "P -1"
_symmetry_group_IT_number 2
_symmetry_cell_setting 'triclinic'
loop_
_space_group_symop_operation_xyz
x,y,z
-x,-y,-z
loop_
_atom_site_type_symbol
_atom_site_label
_atom_site_fract_x
_atom_site_fract_y
_atom_site_fract_z
Si Si1 0.379309 0.565902 0.272968
Si Si2 0.173129 0.218158 0.929948
Si Si3 0.890945 0.862855 0.395643
Si Si4 0.279244 0.840771 0.363893
Si Si5 0.949632 0.603263 0.474633
Si Si6 0.486614 0.718832 0.868511
Si Si7 0.583169 0.045073 0.665837
O O1 0.500000 0.500000 0.500000
O O2 0.148168 0.593369 0.448204
O O3 0.500000 0.500000 0.000000
O O4 0.401904 0.655254 0.126155
O O5 0.053429 0.186664 0.877861
O O6 0.091207 0.326825 0.828938
O O7 0.390010 0.151794 0.681073
O O8 0.169366 0.190383 0.272350
O O9 0.076338 0.858140 0.387851
O O10 0.701729 0.971354 0.418759
O O11 0.377795 0.764840 0.618652
O O12 0.255832 0.936350 0.362031
O O13 0.429554 0.798992 0.035079
O O14 0.728812 0.654762 0.731536
O O15 0.000000 0.500000 0.500000
O O16 0.500000 0.000000 0.000000
#
# Coordination Sequence:
#
# PCOD9048093 Si02
#       7
#     2   2   2   2   2   2   2
#     4  12  27  49  72 107 143 185 250 308 355 430
#     4  11  25  46  71 107 145 186 245 301 356 434
#     4  11  24  46  75 105 145 193 238 296 370 424
#     4  12  25  47  72 107 148 188 241 298 356 442
#     4  12  27  50  78 106 147 199 244 299 374 429
#     4  12  28  48  76 108 149 193 248 300 366 431
#     4  10  24  44  73 107 147 188 239 297 361 438
#
# _framework density 25.256993999999999
#
# number of rings (size 3 to 8) (size 9 to 14) (size 15 to 20)
#    0.000    0.571    2.857    4.286    4.000    5.143 
#    0.000    5.000    0.000    0.000    0.000    0.000 
#    0.000    0.000    0.000    0.000    0.000    0.000 
#
# Total GULP energy -78394.276365 kJ/mol
# GULP energy per Si atom -5599.591169 kJ/mol
# Density = 2.519951 g / cm^3
# Si number density = 25.256994 Si / 1000 Ang^3
#
#
#
# Elastic Constant Matrix: (Units=GPa)
#
#
# Indices 1 2 3 4 5 6 
#
# 1 145.1173 31.6433 51.6100 -14.4550 -26.0755 -20.6244
# 2 31.6433 122.1365 22.7155 6.0330 -8.6359 -9.6576
# 3 51.6100 22.7155 89.3461 8.4962 6.4865 -16.7679
# 4 -14.4550 6.0330 8.4962 42.0320 0.3082 -5.2514
# 5 -26.0755 -8.6359 6.4865 0.3082 60.0862 3.9488
# 6 -20.6244 -9.6576 -16.7679 -5.2514 3.9488 51.2802
#
#
#
# Elastic Compliance Matrix: (Units=1/GPa)
#
#
# Indices 1 2 3 4 5 6 
#
# 1 0.011467 -0.001440 -0.006758 0.005766 0.005317 0.002312
# 2 -0.001440 0.008963 -0.001273 -0.001470 0.000777 0.000482
# 3 -0.006758 -0.001273 0.016724 -0.005189 -0.005050 0.002368
# 4 0.005766 -0.001470 -0.005189 0.027385 0.002516 0.002956
# 5 0.005317 0.000777 -0.005050 0.002516 0.019635 -0.000621
# 6 0.002312 0.000482 0.002368 0.002956 -0.000621 0.021646
#
#
# Mechanical properties :
#
#
# Convention : Reuss Voigt Hill
#
# Bulk Modulus (GPa) = 54.90888 63.17083 59.03985
# Shear Modulus (GPa) = 38.21650 47.38842 42.80246
#
# Velocity S-wave (km/s) = 3.89409 4.33627 4.12111
# Velocity P-wave (km/s) = 6.48119 7.08071 6.78757
#
# Compressibility (1/GPa) = 0.01821199
#
# Stress axis : x y z
#
# Youngs Moduli (GPa) = 87.20845 111.56905 59.79291
#
# Poissons Ratio (x) = 0.16066 0.40408
# Poissons Ratio (y) = 0.12558 0.07612
# Poissons Ratio (z) = 0.58936 0.14204
#
# Static dielectric constant tensor:
#      x y z
#    x 2.175260 -0.024630 -0.040490 
#    y -0.024630 2.012550 0.013570 
#    z -0.040490 0.013570 1.944960 
# 
# From -- ./inp_files/46941.got.cif
#   From: 2010.05.17/outbox.cif.g08.bks.cpg/sg2_24_cif.got.tgz:46941.got - 2010.06.03 11:33:40.
