data_PCOD9048282
_publ_section_title
;
Structure prediction by ZEFSAII (Michael W. Deem and Ramdas Pophale) SiO2 
 PCOD9048282
Probable space group: P -1
;
_chemical_formula_sum "Si O2"
_cell_formula_units_Z 14
_cell_length_a 12.276004
_cell_length_b 9.792231
_cell_length_c 11.874641
_cell_angle_alpha 93.618663
_cell_angle_beta 70.125167
_cell_angle_gamma 36.791841
_cell_volume 645.932832
_symmetry_space_group_name_H-M "P -1"
_symmetry_group_IT_number 2
_symmetry_cell_setting 'triclinic'
loop_
_space_group_symop_operation_xyz
x,y,z
-x,-y,-z
loop_
_atom_site_type_symbol
_atom_site_label
_atom_site_fract_x
_atom_site_fract_y
_atom_site_fract_z
Si Si1 0.620712 0.961717 0.857223
Si Si2 0.731280 0.291591 0.330195
Si Si3 0.364245 0.780724 0.085811
Si Si4 0.129247 0.836893 0.329995
Si Si5 0.178548 0.476823 0.662715
Si Si6 0.474353 0.962345 0.685548
Si Si7 0.633698 0.194249 0.162546
O O1 0.591931 0.915938 0.747982
O O2 0.899459 0.718729 0.763791
O O3 0.482347 0.249537 0.931291
O O4 0.500000 0.000000 0.000000
O O5 0.500000 0.500000 0.500000
O O6 0.778228 0.406535 0.318675
O O7 0.702440 0.254350 0.216053
O O8 0.944661 0.990816 0.304419
O O9 0.220219 0.888091 0.253406
O O10 0.500000 0.500000 0.000000
O O11 0.254166 0.925392 0.007927
O O12 0.347213 0.508045 0.255667
O O13 0.000000 0.000000 0.500000
O O14 0.322951 0.299488 0.486415
O O15 0.304578 0.246424 0.696760
O O16 0.333986 0.976208 0.785693
#
# Coordination Sequence:
#
# PCOD9048282 Si02
#       7
#     2   2   2   2   2   2   2
#     4  12  25  48  71  98 141 190 232 286 354 418
#     4  12  23  41  72 102 138 179 232 295 346 406
#     4  10  24  45  66 102 137 175 236 284 341 414
#     4  11  22  41  72  99 134 178 232 287 343 409
#     4  11  26  46  69 108 138 185 241 287 352 419
#     4  11  25  46  70 102 146 183 235 289 352 423
#     4  11  24  45  66 104 141 180 233 287 350 416
#
# _framework density 21.674078999999999
#
# number of rings (size 3 to 8) (size 9 to 14) (size 15 to 20)
#    0.000    0.857    5.714    0.429    4.000    2.286 
#    0.000    0.000    0.000    0.000    0.000    0.000 
#    0.000    0.000    0.000    0.000    0.000    0.000 
#
# Total GULP energy -78112.708127 kJ/mol
# GULP energy per Si atom -5579.479152 kJ/mol
# Density = 2.162475 g / cm^3
# Si number density = 21.674079 Si / 1000 Ang^3
#
#
#
# Elastic Constant Matrix: (Units=GPa)
#
#
# Indices 1 2 3 4 5 6 
#
# 1 153.2063 49.4282 62.8967 -10.4072 19.2021 20.2273
# 2 49.4282 95.2542 43.1471 -14.8041 1.4407 9.2078
# 3 62.8967 43.1471 145.7741 -35.8591 11.1729 15.3490
# 4 -10.4072 -14.8041 -35.8591 38.3422 2.7384 -6.7083
# 5 19.2021 1.4407 11.1729 2.7384 47.1483 -6.8769
# 6 20.2273 9.2078 15.3490 -6.7083 -6.8769 39.7551
#
#
#
# Elastic Compliance Matrix: (Units=1/GPa)
#
#
# Indices 1 2 3 4 5 6 
#
# 1 0.009724 -0.003588 -0.002907 -0.001895 -0.003627 -0.003942
# 2 -0.003588 0.013607 -0.002032 0.002294 0.001407 0.000089
# 3 -0.002907 -0.002032 0.011174 0.008809 -0.002094 -0.001240
# 4 -0.001895 0.002294 0.008809 0.035342 -0.003079 0.002463
# 5 -0.003627 0.001407 -0.002094 -0.003079 0.024193 0.005993
# 6 -0.003942 0.000089 -0.001240 0.002463 0.005993 0.029070
#
#
# Mechanical properties :
#
#
# Convention : Reuss Voigt Hill
#
# Bulk Modulus (GPa) = 57.30324 78.35318 67.82821
# Shear Modulus (GPa) = 34.25092 40.96663 37.60877
#
# Velocity S-wave (km/s) = 3.97957 4.35227 4.17009
# Velocity P-wave (km/s) = 6.90015 7.84127 7.38571
#
# Compressibility (1/GPa) = 0.01745102
#
# Stress axis : x y z
#
# Youngs Moduli (GPa) = 102.83505 73.48993 89.49546
#
# Poissons Ratio (x) = 0.26368 0.26016
# Poissons Ratio (y) = 0.36897 0.18188
# Poissons Ratio (z) = 0.29893 0.14935
#
# Static dielectric constant tensor:
#      x y z
#    x 1.696720 -0.103240 -0.052650 
#    y -0.103240 1.785960 0.051050 
#    z -0.052650 0.051050 1.836590 
# 
# From -- ./inp_files/389660.got.cif
#   From: 2010.05.17/outbox.cif.g08.bks.cpg/sg2_195_cif.got.tgz:389660.got - 2010.06.03 11:33:40.
