data_PCOD9048430
_publ_section_title
;
Structure prediction by ZEFSAII (Michael W. Deem and Ramdas Pophale) SiO2 
 PCOD9048430
Probable space group: P -1
;
_chemical_formula_sum "Si O2"
_cell_formula_units_Z 12
_cell_length_a 9.090134
_cell_length_b 10.176002
_cell_length_c 11.465969
_cell_angle_alpha 72.474903
_cell_angle_beta 44.317232
_cell_angle_gamma 103.694111
_cell_volume 518.894234
_symmetry_space_group_name_H-M "P -1"
_symmetry_group_IT_number 2
_symmetry_cell_setting 'triclinic'
loop_
_space_group_symop_operation_xyz
x,y,z
-x,-y,-z
loop_
_atom_site_type_symbol
_atom_site_label
_atom_site_fract_x
_atom_site_fract_y
_atom_site_fract_z
Si Si1 0.997536 0.403679 0.142557
Si Si2 0.696744 0.483251 0.467689
Si Si3 0.695807 0.151117 0.946494
Si Si4 0.594006 0.734142 0.787564
Si Si5 0.764049 0.906917 0.059395
Si Si6 0.057888 0.915103 0.665433
O O1 0.858197 0.190518 0.290269
O O2 0.838090 0.431025 0.318016
O O3 0.335940 0.525457 0.944406
O O4 0.000000 0.500000 0.000000
O O5 0.500000 0.500000 0.500000
O O6 0.492999 0.312758 0.716864
O O7 0.969009 0.680836 0.317133
O O8 0.565211 0.234453 0.041130
O O9 0.500000 0.000000 0.000000
O O10 0.670685 0.023741 0.093131
O O11 0.857255 0.791746 0.698324
O O12 0.705903 0.879140 0.579540
O O13 0.898990 0.933344 0.850268
O O14 0.000000 0.000000 0.000000
#
# Coordination Sequence:
#
# PCOD9048430 Si02
#       6
#     2   2   2   2   2   2
#     4  11  25  42  68 100 134 172 227 278 337 402
#     4  11  24  44  67  98 135 177 223 275 338 400
#     4  11  23  46  68 100 133 174 232 276 335 400
#     4  10  24  45  68  95 135 180 222 275 335 406
#     4  12  25  41  71 100 135 178 224 278 340 403
#     4  11  24  45  67  98 135 178 222 276 341 400
#
# _framework density 23.126100999999998
#
# number of rings (size 3 to 8) (size 9 to 14) (size 15 to 20)
#    0.000    1.000    3.333    2.500    4.667    2.667 
#    3.000    0.000    0.000    0.000    0.000    0.000 
#    0.000    0.000    0.000    0.000    0.000    0.000 
#
# Total GULP energy -67052.397531 kJ/mol
# GULP energy per Si atom -5587.699794 kJ/mol
# Density = 2.307346 g / cm^3
# Si number density = 23.126101 Si / 1000 Ang^3
#
#
#
# Elastic Constant Matrix: (Units=GPa)
#
#
# Indices 1 2 3 4 5 6 
#
# 1 72.6581 5.7095 19.0795 -14.3356 2.0407 -3.3767
# 2 5.7095 48.6086 21.3573 -10.8329 -1.2314 -1.9562
# 3 19.0795 21.3573 145.8149 -29.1458 -3.3693 19.0070
# 4 -14.3356 -10.8329 -29.1458 38.7179 -2.1252 5.9263
# 5 2.0407 -1.2314 -3.3693 -2.1252 33.7704 -4.4339
# 6 -3.3767 -1.9562 19.0070 5.9263 -4.4339 36.8621
#
#
#
# Elastic Compliance Matrix: (Units=1/GPa)
#
#
# Indices 1 2 3 4 5 6 
#
# 1 0.015039 -0.000217 -0.001241 0.004351 -0.000605 0.001234
# 2 -0.000217 0.022810 -0.002774 0.003949 0.001095 0.002118
# 3 -0.001241 -0.002774 0.009669 0.007040 0.000553 -0.006312
# 4 0.004351 0.003949 0.007040 0.035234 0.001687 -0.008483
# 5 -0.000605 0.001095 0.000553 0.001687 0.030255 0.003086
# 6 0.001234 0.002118 -0.006312 -0.008483 0.003086 0.032343
#
#
# Mechanical properties :
#
#
# Convention : Reuss Voigt Hill
#
# Bulk Modulus (GPa) = 25.60551 39.93047 32.76799
# Shear Modulus (GPa) = 29.97027 36.59910 33.28468
#
# Velocity S-wave (km/s) = 3.60384 3.98249 3.79789
# Velocity P-wave (km/s) = 5.33039 6.20088 5.78204
#
# Compressibility (1/GPa) = 0.03905409
#
# Stress axis : x y z
#
# Youngs Moduli (GPa) = 66.49427 43.84069 103.42012
#
# Poissons Ratio (x) = 0.00952 0.12835
# Poissons Ratio (y) = 0.01444 0.28687
# Poissons Ratio (z) = 0.08252 0.12161
#
# Static dielectric constant tensor:
#      x y z
#    x 1.895280 0.016330 0.000530 
#    y 0.016330 1.870510 -0.035910 
#    z 0.000530 -0.035910 1.879780 
# 
# From -- ./inp_files/164180.got.cif
#   From: 2010.05.17/outbox.cif.g08.bks.cpg/sg2_83_cif.got.tgz:164180.got - 2010.06.03 11:33:40.
