data_PCOD9048192
_publ_section_title
;
Structure prediction by ZEFSAII (Michael W. Deem and Ramdas Pophale) SiO2 
 PCOD9048192
Probable space group: P -1
;
_chemical_formula_sum "Si O2"
_cell_formula_units_Z 16
_cell_length_a 12.693591
_cell_length_b 9.218364
_cell_length_c 17.255367
_cell_angle_alpha 79.341948
_cell_angle_beta 158.095464
_cell_angle_gamma 92.024477
_cell_volume 687.228477
_symmetry_space_group_name_H-M "P -1"
_symmetry_group_IT_number 2
_symmetry_cell_setting 'triclinic'
loop_
_space_group_symop_operation_xyz
x,y,z
-x,-y,-z
loop_
_atom_site_type_symbol
_atom_site_label
_atom_site_fract_x
_atom_site_fract_y
_atom_site_fract_z
Si Si1 0.321244 0.419533 0.769651
Si Si2 0.091725 0.520096 0.379866
Si Si3 0.780700 0.834114 0.550452
Si Si4 0.784903 0.860884 0.890513
Si Si5 0.188230 0.254427 0.242678
Si Si6 0.118433 0.792478 0.275997
Si Si7 0.614663 0.564015 0.841771
Si Si8 0.701517 0.067061 0.078088
O O1 0.521986 0.517409 0.867457
O O2 0.000000 0.500000 0.500000
O O3 0.219287 0.425053 0.788305
O O4 0.490824 0.235459 0.880121
O O5 0.179622 0.338446 0.435016
O O6 0.064576 0.632766 0.277121
O O7 0.360005 0.541874 0.613193
O O8 0.057535 0.887242 0.710672
O O9 0.469977 0.965441 0.297642
O O10 0.805658 0.826193 0.662218
O O11 0.895463 0.825294 0.881300
O O12 0.628799 0.735501 0.821528
O O13 0.049546 0.832648 0.135415
O O14 0.532920 0.238524 0.466106
O O15 0.945407 0.433036 0.061874
O O16 0.891270 0.932633 0.159968
O O17 0.500000 0.000000 0.000000
#
# Coordination Sequence:
#
# PCOD9048192 Si02
#       8
#     2   2   2   2   2   2   2   2
#     4  10  24  44  76 105 144 193 245 302 370 437
#     4  11  25  49  74 112 147 202 246 309 370 447
#     4  12  28  46  76 110 151 191 256 304 376 441
#     4  12  28  47  72 115 145 203 248 307 368 446
#     4  12  26  51  75 107 155 198 246 312 369 442
#     4  12  28  47  79 109 153 197 251 299 379 440
#     4  11  24  48  78 104 153 197 254 303 376 439
#     4  12  25  51  77 107 151 196 237 316 370 438
#
# _framework density 23.281921000000001
#
# number of rings (size 3 to 8) (size 9 to 14) (size 15 to 20)
#    0.000    0.500    5.000    1.500    7.000    3.000 
#    0.000    1.250    0.000    0.000    0.000    0.000 
#    0.000    0.000    0.000    0.000    0.000    0.000 
#
# Total GULP energy -89651.082566 kJ/mol
# GULP energy per Si atom -5603.192660 kJ/mol
# Density = 2.322893 g / cm^3
# Si number density = 23.281921 Si / 1000 Ang^3
#
#
#
# Elastic Constant Matrix: (Units=GPa)
#
#
# Indices 1 2 3 4 5 6 
#
# 1 99.1725 34.8776 40.0123 10.6134 9.7330 11.0333
# 2 34.8776 138.7522 41.0784 -15.0779 8.7914 16.3389
# 3 40.0123 41.0784 119.8274 -19.5929 4.7432 -5.4395
# 4 10.6134 -15.0779 -19.5929 38.5249 -5.7413 -1.4264
# 5 9.7330 8.7914 4.7432 -5.7413 38.9835 0.4625
# 6 11.0333 16.3389 -5.4395 -1.4264 0.4625 37.4180
#
#
#
# Elastic Compliance Matrix: (Units=1/GPa)
#
#
# Indices 1 2 3 4 5 6 
#
# 1 0.014968 -0.002239 -0.005698 -0.008626 -0.003755 -0.004546
# 2 -0.002239 0.009155 -0.002043 0.002914 -0.000786 -0.003513
# 3 -0.005698 -0.002043 0.012315 0.007417 0.001422 0.004628
# 4 -0.008626 0.002914 0.007417 0.034212 0.005590 0.003584
# 5 -0.003755 -0.000786 0.001422 0.005590 0.027399 0.001532
# 6 -0.004546 -0.003513 0.004628 0.003584 0.001532 0.030390
#
#
# Mechanical properties :
#
#
# Convention : Reuss Voigt Hill
#
# Bulk Modulus (GPa) = 60.69210 65.52096 63.10653
# Shear Modulus (GPa) = 32.49053 39.10420 35.79737
#
# Velocity S-wave (km/s) = 3.73973 4.10273 3.92543
# Velocity P-wave (km/s) = 6.69121 7.11665 6.90721
#
# Compressibility (1/GPa) = 0.01647661
#
# Stress axis : x y z
#
# Youngs Moduli (GPa) = 66.81123 109.23123 81.20293
#
# Poissons Ratio (x) = 0.24461 0.46273
# Poissons Ratio (y) = 0.14962 0.16586
# Poissons Ratio (z) = 0.38072 0.22311
#
# Static dielectric constant tensor:
#      x y z
#    x 1.916250 0.001790 -0.008630 
#    y 0.001790 1.864470 0.029590 
#    z -0.008630 0.029590 1.857100 
# 
# From -- ./inp_files/597179.got.cif
#   From: 2010.05.17/outbox.cif.g08.bks.cpg/sg2_299_cif.got.tgz:597179.got - 2010.06.03 11:33:40.
