data_PCOD9048482
_publ_section_title
;
Structure prediction by ZEFSAII (Michael W. Deem and Ramdas Pophale) SiO2 
 PCOD9048482
Probable space group: P -1
;
_chemical_formula_sum "Si O2"
_cell_formula_units_Z 14
_cell_length_a 22.404028
_cell_length_b 5.033666
_cell_length_c 11.481047
_cell_angle_alpha 108.072732
_cell_angle_beta 29.885980
_cell_angle_gamma 93.859854
_cell_volume 554.971271
_symmetry_space_group_name_H-M "P -1"
_symmetry_group_IT_number 2
_symmetry_cell_setting 'triclinic'
loop_
_space_group_symop_operation_xyz
x,y,z
-x,-y,-z
loop_
_atom_site_type_symbol
_atom_site_label
_atom_site_fract_x
_atom_site_fract_y
_atom_site_fract_z
Si Si1 0.590648 0.547877 0.756713
Si Si2 0.611632 0.618274 0.343589
Si Si3 0.047069 0.148315 0.833967
Si Si4 0.188899 0.767763 0.213202
Si Si5 0.694883 0.106020 0.320832
Si Si6 0.307639 0.012114 0.241412
Si Si7 0.059250 0.077175 0.229800
O O1 0.673682 0.243435 0.502701
O O2 0.680248 0.690041 0.686107
O O3 0.500000 0.500000 0.000000
O O4 0.465962 0.790994 0.924992
O O5 0.500000 0.500000 0.500000
O O6 0.684916 0.394377 0.297866
O O7 0.590936 0.961404 0.455229
O O8 0.690819 0.533467 0.077174
O O9 0.970950 0.133786 0.842397
O O10 0.202408 0.982461 0.508873
O O11 0.000000 0.500000 0.000000
O O12 0.000000 0.000000 0.000000
O O13 0.241222 0.976644 0.228843
O O14 0.121646 0.936783 0.229957
O O15 0.087412 0.687058 0.451087
O O16 0.836781 0.837618 0.005606
#
# Coordination Sequence:
#
# PCOD9048482 Si02
#       7
#     2   2   2   2   2   2   2
#     4  11  26  42  71  99 140 191 240 301 356 420
#     4  11  24  42  68  98 135 180 226 290 341 422
#     4  11  25  44  73 106 144 183 239 292 357 425
#     4   9  20  44  69 102 142 183 238 283 364 420
#     4  11  25  42  68  96 135 178 232 283 351 408
#     4  10  24  45  69 103 141 190 236 299 358 427
#     4   9  21  43  71 102 139 186 227 297 345 426
#
# _framework density 25.226527999999998
#
# number of rings (size 3 to 8) (size 9 to 14) (size 15 to 20)
#    0.000    1.714    0.000    2.143   10.000    2.857 
#    2.571    4.286    0.000    0.000    0.000    0.000 
#    0.000    0.000    0.000    0.000    0.000    0.000 
#
# Total GULP energy -78072.871489 kJ/mol
# GULP energy per Si atom -5576.633678 kJ/mol
# Density = 2.516911 g / cm^3
# Si number density = 25.226528 Si / 1000 Ang^3
#
#
#
# Elastic Constant Matrix: (Units=GPa)
#
#
# Indices 1 2 3 4 5 6 
#
# 1 147.5505 62.8196 53.4266 5.0384 25.5939 38.3905
# 2 62.8196 125.4476 47.9376 -8.0046 10.1244 24.0703
# 3 53.4266 47.9376 138.8254 -10.7939 28.9613 21.8632
# 4 5.0384 -8.0046 -10.7939 27.6843 7.3927 -0.5449
# 5 25.5939 10.1244 28.9613 7.3927 39.1582 2.4103
# 6 38.3905 24.0703 21.8632 -0.5449 2.4103 41.1328
#
#
#
# Elastic Compliance Matrix: (Units=1/GPa)
#
#
# Indices 1 2 3 4 5 6 
#
# 1 0.011782 -0.003687 -0.001179 -0.002515 -0.004911 -0.007958
# 2 -0.003687 0.011101 -0.001999 0.002904 0.000592 -0.001989
# 3 -0.001179 -0.001999 0.010876 0.005869 -0.007681 -0.002983
# 4 -0.002515 0.002904 0.005869 0.042738 -0.011440 -0.001235
# 5 -0.004911 0.000592 -0.007681 -0.011440 0.036062 0.006055
# 6 -0.007958 -0.001989 -0.002983 -0.001235 0.006055 0.034117
#
#
# Mechanical properties :
#
#
# Convention : Reuss Voigt Hill
#
# Bulk Modulus (GPa) = 49.92697 82.24344 66.08520
# Shear Modulus (GPa) = 29.92558 38.10436 34.01497
#
# Velocity S-wave (km/s) = 3.44797 3.89072 3.67601
# Velocity P-wave (km/s) = 5.97375 7.27023 6.65365
#
# Compressibility (1/GPa) = 0.02002926
#
# Stress axis : x y z
#
# Youngs Moduli (GPa) = 84.87359 90.08559 91.94852
#
# Poissons Ratio (x) = 0.33212 0.10841
# Poissons Ratio (y) = 0.31291 0.18379
# Poissons Ratio (z) = 0.10007 0.18006
#
# Static dielectric constant tensor:
#      x y z
#    x 1.885140 -0.002720 -0.068420 
#    y -0.002720 1.967770 0.020370 
#    z -0.068420 0.020370 2.083280 
# 
# From -- ./inp_files/473314.got.cif
#   From: 2010.05.17/outbox.cif.g08.bks.cpg/sg2_237_cif.got.tgz:473314.got - 2010.06.03 11:33:40.
