data_PCOD9048898
_publ_section_title
;
Structure prediction by ZEFSAII (Michael W. Deem and Ramdas Pophale) SiO2 
 PCOD9048898
Probable space group: P -1
;
_chemical_formula_sum "Si O2"
_cell_formula_units_Z 13
_cell_length_a 9.568280
_cell_length_b 7.885611
_cell_length_c 11.237946
_cell_angle_alpha 133.302505
_cell_angle_beta 95.547376
_cell_angle_gamma 110.553699
_cell_volume 501.959993
_symmetry_space_group_name_H-M "P -1"
_symmetry_group_IT_number 2
_symmetry_cell_setting 'triclinic'
loop_
_space_group_symop_operation_xyz
x,y,z
-x,-y,-z
loop_
_atom_site_type_symbol
_atom_site_label
_atom_site_fract_x
_atom_site_fract_y
_atom_site_fract_z
Si Si1 0.518562 0.534207 0.218940
Si Si2 0.659667 0.770501 0.707961
Si Si3 0.441688 0.822659 0.142128
Si Si4 0.000000 0.500000 0.000000
Si Si5 0.819481 0.213569 0.373735
Si Si6 0.867519 0.069635 0.563094
Si Si7 0.033301 0.048403 0.885853
O O1 0.380288 0.306683 0.192283
O O2 0.458974 0.688932 0.200987
O O3 0.680308 0.778018 0.427217
O O4 0.581892 0.386789 0.066019
O O5 0.500000 0.500000 0.500000
O O6 0.685448 0.075854 0.829410
O O7 0.838348 0.820546 0.712393
O O8 0.629965 0.122302 0.283440
O O9 0.958162 0.291423 0.781418
O O10 0.081885 0.355772 0.008219
O O11 0.827808 0.189599 0.503513
O O12 0.000000 0.500000 0.500000
O O13 0.835570 0.991735 0.191320
O O14 0.000000 0.000000 0.500000
O O15 0.000000 0.000000 0.000000
#
# Coordination Sequence:
#
# PCOD9048898 Si02
#       7
#     2   2   2   1   2   2   2
#     4  10  24  46  69 101 142 184 250 293 362 439
#     4  12  26  43  71 104 145 189 239 297 368 435
#     4  10  24  45  75 100 138 198 238 302 367 434
#     4  12  26  46  72 108 150 186 250 304 368 434
#     4  11  23  45  73 105 148 190 248 302 365 441
#     4  11  24  43  73 105 141 195 243 303 368 437
#     4  12  27  44  70 110 147 192 240 306 368 433
#
# _framework density 25.898478000000001
#
# number of rings (size 3 to 8) (size 9 to 14) (size 15 to 20)
#    0.000    0.923    1.538    4.154    4.308    4.308 
#    0.000    0.000    0.000    0.000    0.000    0.000 
#    0.000    0.000    0.000    0.000    0.000    0.000 
#
# Total GULP energy -72604.653754 kJ/mol
# GULP energy per Si atom -5584.973366 kJ/mol
# Density = 2.583953 g / cm^3
# Si number density = 25.898478 Si / 1000 Ang^3
#
#
#
# Elastic Constant Matrix: (Units=GPa)
#
#
# Indices 1 2 3 4 5 6 
#
# 1 99.0912 -12.6322 19.9441 -5.2147 -7.8869 8.8081
# 2 -12.6322 107.4047 21.1698 -13.2273 -18.1304 -6.3987
# 3 19.9441 21.1698 169.2976 -25.1231 -8.7065 -8.1648
# 4 -5.2147 -13.2273 -25.1231 44.3956 0.3883 -3.3561
# 5 -7.8869 -18.1304 -8.7065 0.3883 45.2780 7.3037
# 6 8.8081 -6.3987 -8.1648 -3.3561 7.3037 27.6190
#
#
#
# Elastic Compliance Matrix: (Units=1/GPa)
#
#
# Indices 1 2 3 4 5 6 
#
# 1 0.011331 0.001997 -0.001527 0.000705 0.003176 -0.004357
# 2 0.001997 0.010877 -0.000885 0.002999 0.004374 0.000829
# 3 -0.001527 -0.000885 0.006882 0.003653 0.000236 0.002698
# 4 0.000705 0.002999 0.003653 0.025892 0.001093 0.004407
# 5 0.003176 0.004374 0.000236 0.001093 0.025481 -0.006535
# 6 -0.004357 0.000829 0.002698 0.004407 -0.006535 0.040850
#
#
# Mechanical properties :
#
#
# Convention : Reuss Voigt Hill
#
# Bulk Modulus (GPa) = 35.38686 48.08410 41.73548
# Shear Modulus (GPa) = 38.00510 46.61264 42.30887
#
# Velocity S-wave (km/s) = 3.83491 4.24703 4.04622
# Velocity P-wave (km/s) = 5.77079 6.53119 6.16273
#
# Compressibility (1/GPa) = 0.02825907
#
# Stress axis : x y z
#
# Youngs Moduli (GPa) = 88.25549 91.93753 145.31350
#
# Poissons Ratio (x) = -0.18360 0.22185
# Poissons Ratio (y) = -0.17625 0.12867
# Poissons Ratio (z) = 0.13474 0.08141
#
# Static dielectric constant tensor:
#      x y z
#    x 2.349630 0.311790 0.665750 
#    y 0.311790 2.322770 0.570450 
#    z 0.665750 0.570450 2.994520 
# 
# From -- ./inp_files/230671.got.cif
#   From: 2010.05.17/outbox.cif.g08.bks.cpg/sg2_116_cif.got.tgz:230671.got - 2010.06.03 11:33:40.
