data_PCOD9048933
_publ_section_title
;
Structure prediction by ZEFSAII (Michael W. Deem and Ramdas Pophale) SiO2 
 PCOD9048933
Probable space group: P -1
;
_chemical_formula_sum "Si O2"
_cell_formula_units_Z 9
_cell_length_a 7.501674
_cell_length_b 8.634010
_cell_length_c 5.049235
_cell_angle_alpha 99.269679
_cell_angle_beta 101.851402
_cell_angle_gamma 81.615154
_cell_volume 313.726514
_symmetry_space_group_name_H-M "P -1"
_symmetry_group_IT_number 2
_symmetry_cell_setting 'triclinic'
loop_
_space_group_symop_operation_xyz
x,y,z
-x,-y,-z
loop_
_atom_site_type_symbol
_atom_site_label
_atom_site_fract_x
_atom_site_fract_y
_atom_site_fract_z
Si Si1 0.731677 0.981257 0.788059
Si Si2 0.000000 0.500000 0.500000
Si Si3 0.378735 0.701884 0.914510
Si Si4 0.390665 0.324418 0.521958
Si Si5 0.960938 0.240115 0.864343
O O1 0.634945 0.108447 0.999302
O O2 0.367514 0.138194 0.448578
O O3 0.839084 0.104812 0.686383
O O4 0.872662 0.861528 0.967502
O O5 0.201485 0.425621 0.422835
O O6 0.986132 0.646085 0.312566
O O7 0.529590 0.640771 0.159931
O O8 0.171598 0.666753 0.921133
O O9 0.452879 0.656269 0.639793
#
# Coordination Sequence:
#
# PCOD9048933 Si02
#       5
#     2   1   2   2   2
#     4   9  21  47  74 105 135 188 230 297 343 427
#     4  12  28  44  66 106 144 198 220 296 350 430
#     4  10  24  45  76 109 131 187 235 304 331 428
#     4  12  25  44  74 102 149 175 245 282 365 401
#     4   9  23  46  72 104 144 181 238 281 363 409
#
# _framework density 28.687405999999999
#
# number of rings (size 3 to 8) (size 9 to 14) (size 15 to 20)
#    1.333    0.444    0.000    2.667    0.000    9.778 
#    0.000    0.000    0.000    0.000    0.000    0.000 
#    0.000    0.000    0.000    0.000    0.000    0.000 
#
# Total GULP energy -50330.593594 kJ/mol
# GULP energy per Si atom -5592.288177 kJ/mol
# Density = 2.862211 g / cm^3
# Si number density = 28.687406 Si / 1000 Ang^3
#
#
#
# Elastic Constant Matrix: (Units=GPa)
#
#
# Indices 1 2 3 4 5 6 
#
# 1 110.5893 59.7046 50.9572 -4.1762 -24.9941 7.3629
# 2 59.7046 180.8469 47.5008 -7.9989 5.7914 12.0464
# 3 50.9572 47.5008 119.5650 -13.6029 -14.4491 13.2498
# 4 -4.1762 -7.9989 -13.6029 71.5381 2.1732 3.0634
# 5 -24.9941 5.7914 -14.4491 2.1732 53.4057 -17.7435
# 6 7.3629 12.0464 13.2498 3.0634 -17.7435 70.0026
#
#
#
# Elastic Compliance Matrix: (Units=1/GPa)
#
#
# Indices 1 2 3 4 5 6 
#
# 1 0.014467 -0.004083 -0.003991 -0.000646 0.006714 0.001666
# 2 -0.004083 0.007500 -0.001454 0.000500 -0.003647 -0.001532
# 3 -0.003991 -0.001454 0.011080 0.001743 0.000783 -0.001305
# 4 -0.000646 0.000500 0.001743 0.014406 -0.000869 -0.001199
# 5 0.006714 -0.003647 0.000783 -0.000869 0.024511 0.006024
# 6 0.001666 -0.001532 -0.001305 -0.001199 0.006024 0.016200
#
#
# Mechanical properties :
#
#
# Convention : Reuss Voigt Hill
#
# Bulk Modulus (GPa) = 71.46370 80.81404 76.13887
# Shear Modulus (GPa) = 44.68977 55.84519 50.26748
#
# Velocity S-wave (km/s) = 3.95120 4.41691 4.19053
# Velocity P-wave (km/s) = 6.76619 7.36504 7.07195
#
# Compressibility (1/GPa) = 0.01399312
#
# Stress axis : x y z
#
# Youngs Moduli (GPa) = 69.12061 133.33005 90.25640
#
# Poissons Ratio (x) = 0.54434 0.36019
# Poissons Ratio (y) = 0.28220 0.13120
# Poissons Ratio (z) = 0.27584 0.19382
#
# Static dielectric constant tensor:
#      x y z
#    x 23.887660 14.190670 18.925870 
#    y 14.190670 11.575310 12.455800 
#    z 18.925870 12.455800 18.662820 
# 
# From -- ./inp_files/29152.got.cif
#   From: 2010.05.17/outbox.cif.g08.bks.cpg/sg2_15_cif.got.tgz:29152.got - 2010.06.03 11:33:40.
