data_PCOD9048934
_publ_section_title
;
Structure prediction by ZEFSAII (Michael W. Deem and Ramdas Pophale) SiO2 
 PCOD9048934
Probable space group: P -1
;
_chemical_formula_sum "Si O2"
_cell_formula_units_Z 13
_cell_length_a 5.226325
_cell_length_b 9.017674
_cell_length_c 11.967823
_cell_angle_alpha 73.693712
_cell_angle_beta 77.355123
_cell_angle_gamma 108.054611
_cell_volume 484.904963
_symmetry_space_group_name_H-M "P -1"
_symmetry_group_IT_number 2
_symmetry_cell_setting 'triclinic'
loop_
_space_group_symop_operation_xyz
x,y,z
-x,-y,-z
loop_
_atom_site_type_symbol
_atom_site_label
_atom_site_fract_x
_atom_site_fract_y
_atom_site_fract_z
Si Si1 0.079925 0.256210 0.645169
Si Si2 0.445363 0.661825 0.002899
Si Si3 0.489131 0.914557 0.399498
Si Si4 0.201619 0.990886 0.079669
Si Si5 0.735619 0.275046 0.205507
Si Si6 0.000000 0.500000 0.500000
Si Si7 0.298666 0.453600 0.260989
O O1 0.818911 0.221566 0.584961
O O2 0.292425 0.174931 0.602252
O O3 0.175679 0.453036 0.596539
O O4 0.947466 0.162343 0.791317
O O5 0.405390 0.632343 0.145351
O O6 0.500000 0.500000 0.000000
O O7 0.710325 0.829609 0.907496
O O8 0.203208 0.676131 0.942221
O O9 0.500000 0.000000 0.500000
O O10 0.587363 0.072886 0.273161
O O11 0.500000 0.000000 0.000000
O O12 0.000000 0.000000 0.000000
O O13 0.518983 0.361685 0.246192
O O14 0.009251 0.341655 0.244949
O O15 0.227779 0.481915 0.387118
#
# Coordination Sequence:
#
# PCOD9048934 Si02
#       7
#     2   2   2   2   2   1   2
#     4  12  27  46  72 103 143 198 238 305 363 449
#     4  10  24  45  76 109 149 188 252 310 374 438
#     4  12  24  44  72 105 143 183 243 301 373 433
#     4  12  27  48  74 110 153 199 247 307 382 454
#     4  11  23  44  73 106 143 183 250 300 377 431
#     4  12  28  50  70 104 154 190 262 290 382 452
#     4  11  25  43  72 107 143 198 233 311 362 448
#
# _framework density 26.809377999999999
#
# number of rings (size 3 to 8) (size 9 to 14) (size 15 to 20)
#    0.000    0.615    1.538    5.538    2.154    7.385 
#    0.000    0.000    0.000    0.000    0.000    0.000 
#    0.000    0.000    0.000    0.000    0.000    0.000 
#
# Total GULP energy -72672.242475 kJ/mol
# GULP energy per Si atom -5590.172498 kJ/mol
# Density = 2.674836 g / cm^3
# Si number density = 26.809378 Si / 1000 Ang^3
#
#
#
# Elastic Constant Matrix: (Units=GPa)
#
#
# Indices 1 2 3 4 5 6 
#
# 1 199.4690 42.8711 32.9849 16.0702 17.6558 -39.7159
# 2 42.8711 76.7304 24.7413 -0.0647 13.4146 -39.0845
# 3 32.9849 24.7413 177.3284 -22.2927 6.9247 -22.0898
# 4 16.0702 -0.0647 -22.2927 48.8243 -7.3718 10.7763
# 5 17.6558 13.4146 6.9247 -7.3718 33.6573 5.7413
# 6 -39.7159 -39.0845 -22.0898 10.7763 5.7413 64.2259
#
#
#
# Elastic Compliance Matrix: (Units=1/GPa)
#
#
# Indices 1 2 3 4 5 6 
#
# 1 0.007129 0.000071 -0.001058 -0.004856 -0.005534 0.005397
# 2 0.000071 0.024365 -0.001621 -0.006462 -0.013665 0.016619
# 3 -0.001058 -0.001621 0.006460 0.003400 0.000624 -0.000045
# 4 -0.004856 -0.006462 0.003400 0.028079 0.012552 -0.011600
# 5 -0.005534 -0.013665 0.000624 0.012552 0.043672 -0.017533
# 6 0.005397 0.016619 -0.000045 -0.011600 -0.017533 0.032519
#
#
# Mechanical properties :
#
#
# Convention : Reuss Voigt Hill
#
# Bulk Modulus (GPa) = 30.54730 72.74693 51.64712
# Shear Modulus (GPa) = 31.57513 52.87020 42.22267
#
# Velocity S-wave (km/s) = 3.43558 4.44563 3.97283
# Velocity P-wave (km/s) = 5.21120 7.31746 6.35224
#
# Compressibility (1/GPa) = 0.03273611
#
# Stress axis : x y z
#
# Youngs Moduli (GPa) = 140.27753 41.04284 154.80842
#
# Poissons Ratio (x) = -0.00290 0.16378
# Poissons Ratio (y) = -0.00991 0.25097
# Poissons Ratio (z) = 0.14841 0.06654
#
# Static dielectric constant tensor:
#      x y z
#    x -1.864370 0.749570 -3.019820 
#    y 0.749570 1.586140 0.844440 
#    z -3.019820 0.844440 -0.264920 
# 
# From -- ./inp_files/360086.got.cif
#   From: 2010.05.17/outbox.cif.g08.bks.cpg/sg2_181_cif.got.tgz:360086.got - 2010.06.03 11:33:40.
