data_PCOD9048138
_publ_section_title
;
Structure prediction by ZEFSAII (Michael W. Deem and Ramdas Pophale) SiO2 
 PCOD9048138
Probable space group: P -1
;
_chemical_formula_sum "Si O2"
_cell_formula_units_Z 16
_cell_length_a 19.125140
_cell_length_b 9.487589
_cell_length_c 13.824746
_cell_angle_alpha 30.432765
_cell_angle_beta 147.653301
_cell_angle_gamma 138.161305
_cell_volume 678.565021
_symmetry_space_group_name_H-M "P -1"
_symmetry_group_IT_number 2
_symmetry_cell_setting 'triclinic'
loop_
_space_group_symop_operation_xyz
x,y,z
-x,-y,-z
loop_
_atom_site_type_symbol
_atom_site_label
_atom_site_fract_x
_atom_site_fract_y
_atom_site_fract_z
Si Si1 0.537687 0.034469 0.910021
Si Si2 0.734787 0.444337 0.971652
Si Si3 0.245638 0.011983 0.569994
Si Si4 0.569985 0.959800 0.505186
Si Si5 0.137472 0.593623 0.152639
Si Si6 0.019691 0.695379 0.158768
Si Si7 0.791869 0.351614 0.433475
Si Si8 0.321892 0.100554 0.011269
O O1 0.396022 0.041327 0.693673
O O2 0.623876 0.818612 0.081212
O O3 0.636992 0.305378 0.859941
O O4 0.500000 0.000000 0.000000
O O5 0.877232 0.568514 0.035350
O O6 0.762234 0.206693 0.222090
O O7 0.648095 0.682215 0.770070
O O8 0.214217 0.314183 0.392645
O O9 0.169966 0.861233 0.480574
O O10 0.500000 0.000000 0.500000
O O11 0.682424 0.187598 0.468386
O O12 0.446643 0.969701 0.283145
O O13 0.113026 0.676950 0.186137
O O14 0.205176 0.864364 0.020233
O O15 0.000000 0.500000 0.000000
O O16 0.087674 0.548648 0.415666
O O17 0.000000 0.000000 0.000000
O O18 0.724737 0.623360 0.154986
#
# Coordination Sequence:
#
# PCOD9048138 Si02
#       8
#     2   2   2   2   2   2   2   2
#     4  10  24  44  74 106 149 184 250 301 375 439
#     4  11  26  46  76 103 149 196 245 305 374 429
#     4  11  26  49  74 109 145 195 247 310 373 445
#     4  12  25  44  74 108 148 187 247 304 371 437
#     4  12  29  49  74 106 150 199 255 301 369 449
#     4  12  27  49  73 107 152 195 252 306 368 444
#     4  12  27  45  75 110 153 190 248 304 375 446
#     4  12  27  45  77 109 149 197 246 308 378 433
#
# _framework density 23.579170000000001
#
# number of rings (size 3 to 8) (size 9 to 14) (size 15 to 20)
#    0.000    0.500    2.500    4.125   12.250    2.000 
#    0.000    0.000    0.000    0.000    0.000    0.000 
#    0.000    0.000    0.000    0.000    0.000    0.000 
#
# Total GULP energy -89412.057313 kJ/mol
# GULP energy per Si atom -5588.253582 kJ/mol
# Density = 2.352550 g / cm^3
# Si number density = 23.579170 Si / 1000 Ang^3
#
#
#
# Elastic Constant Matrix: (Units=GPa)
#
#
# Indices 1 2 3 4 5 6 
#
# 1 100.2323 17.4529 7.9042 -18.2503 11.5629 -22.3150
# 2 17.4529 77.8475 7.4627 -6.9030 6.5320 0.0742
# 3 7.9042 7.4627 56.3099 -18.6641 3.8208 -4.1641
# 4 -18.2503 -6.9030 -18.6641 49.5781 -3.6598 5.8070
# 5 11.5629 6.5320 3.8208 -3.6598 30.1874 -0.4626
# 6 -22.3150 0.0742 -4.1641 5.8070 -0.4626 37.3050
#
#
#
# Elastic Compliance Matrix: (Units=1/GPa)
#
#
# Indices 1 2 3 4 5 6 
#
# 1 0.013070 -0.002332 0.000447 0.003506 -0.004022 0.007277
# 2 -0.002332 0.013704 -0.001279 0.000628 -0.001860 -0.001686
# 3 0.000447 -0.001279 0.020541 0.007441 -0.001571 0.001385
# 4 0.003506 0.000628 0.007441 0.024492 0.000535 -0.000879
# 5 -0.004022 -0.001860 -0.001571 0.000535 0.035299 -0.002223
# 6 0.007277 -0.001686 0.001385 -0.000879 -0.002223 0.031426
#
#
# Mechanical properties :
#
#
# Convention : Reuss Voigt Hill
#
# Bulk Modulus (GPa) = 24.39700 33.33659 28.86680
# Shear Modulus (GPa) = 31.54125 36.85207 34.19666
#
# Velocity S-wave (km/s) = 3.66139 3.95765 3.81240
# Velocity P-wave (km/s) = 5.31448 5.92055 5.62568
#
# Compressibility (1/GPa) = 0.04098864
#
# Stress axis : x y z
#
# Youngs Moduli (GPa) = 76.51131 72.96933 48.68301
#
# Poissons Ratio (x) = 0.17014 -0.02178
# Poissons Ratio (y) = 0.17840 0.06227
# Poissons Ratio (z) = -0.03423 0.09334
#
# Static dielectric constant tensor:
#      x y z
#    x 1.965040 -0.076180 -0.008130 
#    y -0.076180 1.950240 -0.006470 
#    z -0.008130 -0.006470 1.975950 
# 
# From -- ./inp_files/540162.got.cif
#   From: 2010.05.17/outbox.cif.g08.bks.cpg/sg2_271_cif.got.tgz:540162.got - 2010.06.03 11:33:40.
