data_PCOD9048939
_publ_section_title
;
Structure prediction by ZEFSAII (Michael W. Deem and Ramdas Pophale) SiO2 
 PCOD9048939
Probable space group: P -1
;
_chemical_formula_sum "Si O2"
_cell_formula_units_Z 16
_cell_length_a 11.768834
_cell_length_b 12.427017
_cell_length_c 12.137840
_cell_angle_alpha 123.738477
_cell_angle_beta 155.888860
_cell_angle_gamma 60.971622
_cell_volume 601.809119
_symmetry_space_group_name_H-M "P -1"
_symmetry_group_IT_number 2
_symmetry_cell_setting 'triclinic'
loop_
_space_group_symop_operation_xyz
x,y,z
-x,-y,-z
loop_
_atom_site_type_symbol
_atom_site_label
_atom_site_fract_x
_atom_site_fract_y
_atom_site_fract_z
Si Si1 0.460586 0.333416 0.817112
Si Si2 0.160263 0.578986 0.282421
Si Si3 0.598037 0.160767 0.470230
Si Si4 0.310375 0.456798 0.537156
Si Si5 0.005229 0.807732 0.952856
Si Si6 0.077300 0.837358 0.796472
Si Si7 0.683575 0.645242 0.075181
Si Si8 0.882254 0.936606 0.471243
O O1 0.490347 0.393784 0.756881
O O2 0.245406 0.211592 0.531344
O O3 0.301312 0.409253 0.815809
O O4 0.722448 0.280546 0.081040
O O5 0.292569 0.715982 0.436218
O O6 0.372586 0.490684 0.484988
O O7 0.922012 0.599432 0.177877
O O8 0.000000 0.500000 0.000000
O O9 0.274844 0.160769 0.213445
O O10 0.681430 0.033119 0.408530
O O11 0.756456 0.176211 0.736163
O O12 0.070864 0.341123 0.242108
O O13 0.381138 0.602536 0.731842
O O14 0.088924 0.886931 0.960745
O O15 0.115341 0.914392 0.759809
O O16 0.742918 0.798033 0.231439
O O17 0.000000 0.000000 0.500000
#
# Coordination Sequence:
#
# PCOD9048939 Si02
#       8
#     2   2   2   2   2   2   2   2
#     4  10  24  45  76 114 152 199 251 314 387 453
#     4  12  26  45  72 113 152 199 256 310 387 455
#     4  12  27  47  77 108 153 208 254 312 377 451
#     4  11  25  43  78 108 156 196 251 321 386 453
#     4  11  25  49  76 111 149 199 257 317 381 440
#     4  10  24  48  78 111 150 199 259 315 376 455
#     4  11  26  45  73 110 154 202 253 311 383 459
#     4  11  26  52  75 111 157 204 256 314 379 461
#
# _framework density 26.586503
#
# number of rings (size 3 to 8) (size 9 to 14) (size 15 to 20)
#    0.000    1.000    2.500    2.625    8.750    4.500 
#    0.000    3.750    0.000    0.000    0.000    0.000 
#    0.000    0.000    0.000    0.000    0.000    0.000 
#
# Total GULP energy -89320.216026 kJ/mol
# GULP energy per Si atom -5582.513502 kJ/mol
# Density = 2.652599 g / cm^3
# Si number density = 26.586503 Si / 1000 Ang^3
#
#
#
# Elastic Constant Matrix: (Units=GPa)
#
#
# Indices 1 2 3 4 5 6 
#
# 1 194.2874 57.3343 30.1802 -14.8468 -33.1289 25.6803
# 2 57.3343 118.5048 44.5102 13.6029 -19.6945 14.1696
# 3 30.1802 44.5102 88.8835 5.9565 -19.9351 12.7331
# 4 -14.8468 13.6029 5.9565 45.2154 1.3652 -15.9787
# 5 -33.1289 -19.6945 -19.9351 1.3652 44.5672 -9.6995
# 6 25.6803 14.1696 12.7331 -15.9787 -9.6995 62.3267
#
#
#
# Elastic Compliance Matrix: (Units=1/GPa)
#
#
# Indices 1 2 3 4 5 6 
#
# 1 0.006972 -0.002934 -0.000160 0.002763 0.003530 -0.000915
# 2 -0.002934 0.012466 -0.004421 -0.004793 0.001110 -0.001778
# 3 -0.000160 -0.004421 0.014796 -0.001382 0.004229 -0.001648
# 4 0.002763 -0.004793 -0.001382 0.027195 0.000055 0.007214
# 5 0.003530 0.001110 0.004229 0.000055 0.027829 0.001774
# 6 -0.000915 -0.001778 -0.001648 0.007214 0.001774 0.019288
#
#
# Mechanical properties :
#
#
# Convention : Reuss Voigt Hill
#
# Bulk Modulus (GPa) = 52.07588 73.96945 63.02267
# Shear Modulus (GPa) = 38.46791 48.39861 43.43326
#
# Velocity S-wave (km/s) = 3.80794 4.27127 4.04624
# Velocity P-wave (km/s) = 6.24209 7.22548 6.75171
#
# Compressibility (1/GPa) = 0.01920275
#
# Stress axis : x y z
#
# Youngs Moduli (GPa) = 143.43529 80.21911 67.58388
#
# Poissons Ratio (x) = 0.23535 0.01084
# Poissons Ratio (y) = 0.42082 0.29882
# Poissons Ratio (z) = 0.02300 0.35469
#
# Static dielectric constant tensor:
#      x y z
#    x 2.180390 -0.029630 0.084710 
#    y -0.029630 2.287440 -0.022980 
#    z 0.084710 -0.022980 2.092030 
# 
# From -- ./inp_files/428824.got.cif
#   From: 2010.05.17/outbox.cif.g08.bks.cpg/sg2_215_cif.got.tgz:428824.got - 2010.06.03 11:33:40.
