data_PCOD9048030
_publ_section_title
;
Structure prediction by ZEFSAII (Michael W. Deem and Ramdas Pophale) SiO2 
 PCOD9048030
Probable space group: P -1
;
_chemical_formula_sum "Si O2"
_cell_formula_units_Z 15
_cell_length_a 8.607289
_cell_length_b 8.055055
_cell_length_c 14.714894
_cell_angle_alpha 141.975839
_cell_angle_beta 100.126072
_cell_angle_gamma 92.900560
_cell_volume 587.807257
_symmetry_space_group_name_H-M "P -1"
_symmetry_group_IT_number 2
_symmetry_cell_setting 'triclinic'
loop_
_space_group_symop_operation_xyz
x,y,z
-x,-y,-z
loop_
_atom_site_type_symbol
_atom_site_label
_atom_site_fract_x
_atom_site_fract_y
_atom_site_fract_z
Si Si1 0.731349 0.128968 0.266925
Si Si2 0.661822 0.979619 0.556867
Si Si3 0.942665 0.785483 0.126052
Si Si4 0.095603 0.639940 0.802955
Si Si5 0.738573 0.684518 0.594757
Si Si6 0.618430 0.915771 0.861964
Si Si7 0.774754 0.602794 0.850089
Si Si8 0.000000 0.000000 0.500000
O O1 0.845828 0.311647 0.275037
O O2 0.745827 0.365565 0.449003
O O3 0.549770 0.026112 0.157673
O O4 0.787143 0.860802 0.190180
O O5 0.726282 0.285899 0.744718
O O6 0.500000 0.000000 0.500000
O O7 0.629573 0.728505 0.517432
O O8 0.807834 0.967099 0.500362
O O9 0.879852 0.803571 0.024692
O O10 0.087793 0.064295 0.292904
O O11 0.000000 0.500000 0.000000
O O12 0.909565 0.657540 0.806593
O O13 0.065033 0.316313 0.685899
O O14 0.232830 0.828877 0.968474
O O15 0.671212 0.788858 0.722106
O O16 0.612528 0.678887 0.835690
#
# Coordination Sequence:
#
# PCOD9048030 Si02
#       8
#     2   2   2   2   2   2   2   1
#     4  12  26  45  75 111 149 197 257 312 373 452
#     4  11  24  45  73 104 153 202 245 311 383 447
#     4  12  25  46  72 106 152 196 251 309 383 453
#     4  11  22  43  72 108 140 200 250 307 370 459
#     4  12  25  48  71 110 153 195 253 316 374 452
#     4  12  25  45  77 110 152 196 252 310 388 451
#     4  11  23  43  74 104 141 202 246 302 380 454
#     4  10  24  44  72 110 150 188 264 308 366 466
#
# _framework density 25.51857
#
# number of rings (size 3 to 8) (size 9 to 14) (size 15 to 20)
#    0.000    0.533    5.333    3.200    0.000    0.000 
#    2.400    0.667    0.000    0.000    0.000    0.000 
#    0.000    0.000    0.000    0.000    0.000    0.000 
#
# Total GULP energy -83517.864080 kJ/mol
# GULP energy per Si atom -5567.857605 kJ/mol
# Density = 2.546049 g / cm^3
# Si number density = 25.518570 Si / 1000 Ang^3
#
#
#
# Elastic Constant Matrix: (Units=GPa)
#
#
# Indices 1 2 3 4 5 6 
#
# 1 98.6296 34.0770 44.4108 -3.3249 -0.8719 -33.0433
# 2 34.0770 68.4330 22.9553 6.7667 -3.4438 -37.9698
# 3 44.4108 22.9553 123.4338 20.1986 -5.7024 -18.5192
# 4 -3.3249 6.7667 20.1986 48.3224 -7.1570 -6.0557
# 5 -0.8719 -3.4438 -5.7024 -7.1570 44.7111 -0.5341
# 6 -33.0433 -37.9698 -18.5192 -6.0557 -0.5341 43.7820
#
#
#
# Elastic Compliance Matrix: (Units=1/GPa)
#
#
# Indices 1 2 3 4 5 6 
#
# 1 0.016196 -0.001682 -0.004846 0.004610 0.000418 0.009358
# 2 -0.001682 0.028904 -0.001096 -0.000451 0.002260 0.023298
# 3 -0.004846 -0.001096 0.010729 -0.004690 0.000430 -0.000713
# 4 0.004610 -0.000451 -0.004690 0.024095 0.003367 0.004478
# 5 0.000418 0.002260 0.000430 0.003367 0.023180 0.003206
# 6 0.009358 0.023298 -0.000713 0.004478 0.003206 0.050465
#
#
# Mechanical properties :
#
#
# Convention : Reuss Voigt Hill
#
# Bulk Modulus (GPa) = 24.64227 54.82028 39.73128
# Shear Modulus (GPa) = 27.42051 39.96665 33.69358
#
# Velocity S-wave (km/s) = 3.28156 3.96179 3.63761
# Velocity P-wave (km/s) = 4.90263 6.51589 5.76596
#
# Compressibility (1/GPa) = 0.04058068
#
# Stress axis : x y z
#
# Youngs Moduli (GPa) = 61.74279 34.59764 93.20366
#
# Poissons Ratio (x) = 0.05821 0.45162
# Poissons Ratio (y) = 0.10388 0.10218
# Poissons Ratio (z) = 0.29918 0.03793
#
# Static dielectric constant tensor:
#      x y z
#    x 2.089750 -0.022450 -0.039270 
#    y -0.022450 2.103040 0.014850 
#    z -0.039270 0.014850 2.043090 
# 
# From -- ./inp_files/494121.got.cif
#   From: 2010.05.17/outbox.cif.g08.bks.cpg/sg2_248_cif.got.tgz:494121.got - 2010.06.03 11:33:40.
