data_PCOD9048164
_publ_section_title
;
Structure prediction by ZEFSAII (Michael W. Deem and Ramdas Pophale) SiO2 
 PCOD9048164
Probable space group: P -1
;
_chemical_formula_sum "Si O2"
_cell_formula_units_Z 12
_cell_length_a 4.848860
_cell_length_b 10.010785
_cell_length_c 11.232643
_cell_angle_alpha 109.926381
_cell_angle_beta 68.809999
_cell_angle_gamma 80.380507
_cell_volume 450.970968
_symmetry_space_group_name_H-M "P -1"
_symmetry_group_IT_number 2
_symmetry_cell_setting 'triclinic'
loop_
_space_group_symop_operation_xyz
x,y,z
-x,-y,-z
loop_
_atom_site_type_symbol
_atom_site_label
_atom_site_fract_x
_atom_site_fract_y
_atom_site_fract_z
Si Si1 0.090433 0.643600 0.502147
Si Si2 0.644343 0.060738 0.627943
Si Si3 0.944783 0.264172 0.103060
Si Si4 0.454454 0.392113 0.768054
Si Si5 0.409208 0.819408 0.657985
Si Si6 0.394462 0.779125 0.079528
O O1 0.205588 0.624460 0.343229
O O2 0.348569 0.685367 0.551213
O O3 0.000000 0.500000 0.500000
O O4 0.772725 0.773035 0.621132
O O5 0.412770 0.962590 0.623578
O O6 0.433804 0.232583 0.677019
O O7 0.687606 0.088091 0.771307
O O8 0.000000 0.000000 0.500000
O O9 0.772445 0.446296 0.190634
O O10 0.800179 0.175807 0.192156
O O11 0.879358 0.223115 0.966052
O O12 0.313307 0.223312 0.048534
O O13 0.476271 0.366985 0.898442
#
# Coordination Sequence:
#
# PCOD9048164 Si02
#       6
#     2   2   2   2   2   2
#     4  12  25  45  72 109 136 186 239 298 347 407
#     4  10  24  49  70 109 141 189 232 295 353 421
#     4  12  24  46  71 104 141 188 235 288 346 422
#     4  10  24  44  75 101 144 179 244 289 352 409
#     4  12  26  44  73 104 145 183 236 289 357 418
#     4  10  26  44  72 102 142 185 237 285 351 417
#
# _framework density 26.609255000000001
#
# number of rings (size 3 to 8) (size 9 to 14) (size 15 to 20)
#    1.000    0.000    3.333    2.500    0.000    6.000 
#    0.000    0.000    0.000    0.000    0.000    0.000 
#    0.000    0.000    0.000    0.000    0.000    0.000 
#
# Total GULP energy -67059.656105 kJ/mol
# GULP energy per Si atom -5588.304675 kJ/mol
# Density = 2.654869 g / cm^3
# Si number density = 26.609255 Si / 1000 Ang^3
#
#
#
# Elastic Constant Matrix: (Units=GPa)
#
#
# Indices 1 2 3 4 5 6 
#
# 1 79.5460 46.2246 31.7447 6.7901 9.2752 12.1434
# 2 46.2246 161.6838 43.8376 3.8667 -14.9216 44.2877
# 3 31.7447 43.8376 120.8326 -6.8323 -20.7184 21.8766
# 4 6.7901 3.8667 -6.8323 61.3587 17.1692 -1.3937
# 5 9.2752 -14.9216 -20.7184 17.1692 38.6186 -1.4997
# 6 12.1434 44.2877 21.8766 -1.3937 -1.4997 32.9009
#
#
#
# Elastic Compliance Matrix: (Units=1/GPa)
#
#
# Indices 1 2 3 4 5 6 
#
# 1 0.018464 -0.005924 -0.005044 0.000520 -0.009502 0.004103
# 2 -0.005924 0.012453 0.000829 -0.002378 0.007158 -0.014903
# 3 -0.005044 0.000829 0.011849 -0.000528 0.007859 -0.006797
# 4 0.000520 -0.002378 -0.000528 0.019126 -0.009686 0.003729
# 5 -0.009502 0.007158 0.007859 -0.009686 0.039077 -0.009984
# 6 0.004103 -0.014903 -0.006797 0.003729 -0.009984 0.053163
#
#
# Mechanical properties :
#
#
# Convention : Reuss Voigt Hill
#
# Bulk Modulus (GPa) = 44.46801 67.29737 55.88269
# Shear Modulus (GPa) = 27.48669 42.59267 35.03968
#
# Velocity S-wave (km/s) = 3.21748 4.00518 3.63274
# Velocity P-wave (km/s) = 5.52727 6.83626 6.21631
#
# Compressibility (1/GPa) = 0.02248808
#
# Stress axis : x y z
#
# Youngs Moduli (GPa) = 54.15893 80.29958 84.39864
#
# Poissons Ratio (x) = 0.47572 0.42571
# Poissons Ratio (y) = 0.32086 -0.07000
# Poissons Ratio (z) = 0.27318 -0.06660
#
# Static dielectric constant tensor:
#      x y z
#    x 2.202800 -0.339330 -0.042990 
#    y -0.339330 2.661650 0.092910 
#    z -0.042990 0.092910 2.137270 
# 
# From -- ./inp_files/361492.got.cif
#   From: 2010.05.17/outbox.cif.g08.bks.cpg/sg2_181_cif.got.tgz:361492.got - 2010.06.03 11:33:40.
