data_PCOD9048256
_publ_section_title
;
Structure prediction by ZEFSAII (Michael W. Deem and Ramdas Pophale) SiO2 
 PCOD9048256
Probable space group: P -1
;
_chemical_formula_sum "Si O2"
_cell_formula_units_Z 16
_cell_length_a 10.670367
_cell_length_b 9.668986
_cell_length_c 8.882277
_cell_angle_alpha 69.712077
_cell_angle_beta 126.706847
_cell_angle_gamma 78.813227
_cell_volume 582.793830
_symmetry_space_group_name_H-M "P -1"
_symmetry_group_IT_number 2
_symmetry_cell_setting 'triclinic'
loop_
_space_group_symop_operation_xyz
x,y,z
-x,-y,-z
loop_
_atom_site_type_symbol
_atom_site_label
_atom_site_fract_x
_atom_site_fract_y
_atom_site_fract_z
Si Si1 0.743326 0.233954 0.995495
Si Si2 0.336693 0.557024 0.555341
Si Si3 0.108762 0.727261 0.626354
Si Si4 0.945921 0.391744 0.895053
Si Si5 0.393381 0.976501 0.566836
Si Si6 0.699034 0.847325 0.263580
Si Si7 0.217122 0.910085 0.207634
Si Si8 0.252683 0.336485 0.929060
O O1 0.535011 0.397348 0.800618
O O2 0.867638 0.296714 0.975720
O O3 0.731193 0.095827 0.930283
O O4 0.824412 0.185539 0.239408
O O5 0.219273 0.666727 0.573348
O O6 0.218578 0.506858 0.383286
O O7 0.347440 0.702281 0.412230
O O8 0.165279 0.540493 0.811050
O O9 0.892400 0.837989 0.398276
O O10 0.125532 0.285945 0.953168
O O11 0.000000 0.500000 0.000000
O O12 0.234671 0.983521 0.352018
O O13 0.500000 0.000000 0.500000
O O14 0.333221 0.125406 0.590308
O O15 0.538349 0.789338 0.815407
O O16 0.746404 0.693469 0.237562
O O17 0.500000 0.000000 0.000000
O O18 0.000000 0.000000 0.000000
#
# Coordination Sequence:
#
# PCOD9048256 Si02
#       8
#     2   2   2   2   2   2   2   2
#     4  11  25  44  70 104 145 180 233 291 353 414
#     4  11  26  45  70 102 146 185 231 291 355 421
#     4  12  23  45  74 102 144 185 233 287 356 427
#     4  11  22  39  71 104 142 176 231 289 353 404
#     4  11  27  45  72  99 140 185 239 288 348 420
#     4  10  24  45  64 103 145 176 229 294 355 416
#     4  11  25  46  67  99 140 186 235 282 348 419
#     4  11  24  42  71 109 140 179 235 295 352 410
#
# _framework density 27.453961
#
# number of rings (size 3 to 8) (size 9 to 14) (size 15 to 20)
#    0.000    1.000    2.500    3.750    7.000    1.000 
#    0.000    6.250    0.000    0.000    0.000    0.000 
#    0.000    0.000    0.000    0.000    0.000    0.000 
#
# Total GULP energy -89477.746060 kJ/mol
# GULP energy per Si atom -5592.359129 kJ/mol
# Density = 2.739148 g / cm^3
# Si number density = 27.453961 Si / 1000 Ang^3
#
#
#
# Elastic Constant Matrix: (Units=GPa)
#
#
# Indices 1 2 3 4 5 6 
#
# 1 106.6927 51.4406 42.6516 6.7111 5.3167 -30.3849
# 2 51.4406 168.0992 72.9162 43.9828 -9.4194 -33.5147
# 3 42.6516 72.9162 220.6677 33.7830 18.6247 -8.4226
# 4 6.7111 43.9828 33.7830 68.9788 -11.2589 -9.9044
# 5 5.3167 -9.4194 18.6247 -11.2589 46.9638 -0.0808
# 6 -30.3849 -33.5147 -8.4226 -9.9044 -0.0808 45.2434
#
#
#
# Elastic Compliance Matrix: (Units=1/GPa)
#
#
# Indices 1 2 3 4 5 6 
#
# 1 0.013186 -0.002433 -0.001709 0.002003 -0.000810 0.007172
# 2 -0.002433 0.009593 -0.002121 -0.003888 0.002116 0.004229
# 3 -0.001709 -0.002121 0.006105 -0.002295 -0.003207 -0.002091
# 4 0.002003 -0.003888 -0.002295 0.018947 0.004449 0.002193
# 5 -0.000810 0.002116 -0.003207 0.004449 0.024150 0.001443
# 6 0.007172 0.004229 -0.002091 0.002193 0.001443 0.030146
#
#
# Mechanical properties :
#
#
# Convention : Reuss Voigt Hill
#
# Bulk Modulus (GPa) = 61.13817 92.16403 76.65110
# Shear Modulus (GPa) = 41.62967 54.13394 47.88181
#
# Velocity S-wave (km/s) = 3.89825 4.44532 4.18074
# Velocity P-wave (km/s) = 6.52530 7.74539 7.16138
#
# Compressibility (1/GPa) = 0.01635639
#
# Stress axis : x y z
#
# Youngs Moduli (GPa) = 75.83768 104.24396 163.79471
#
# Poissons Ratio (x) = 0.25367 0.27994
# Poissons Ratio (y) = 0.18454 0.34747
# Poissons Ratio (z) = 0.12962 0.22114
#
# Static dielectric constant tensor:
#      x y z
#    x 2.033920 -0.078690 -0.154060 
#    y -0.078690 2.007310 -0.072440 
#    z -0.154060 -0.072440 2.019720 
# 
# From -- ./inp_files/262611.got.cif
#   From: 2010.05.17/outbox.cif.g08.bks.cpg/sg2_132_cif.got.tgz:262611.got - 2010.06.03 11:33:40.
