data_PCOD9048986
_publ_section_title
;
Structure prediction by ZEFSAII (Michael W. Deem and Ramdas Pophale) SiO2 
 PCOD9048986
Probable space group: P -1
;
_chemical_formula_sum "Si O2"
_cell_formula_units_Z 14
_cell_length_a 27.317317
_cell_length_b 30.003426
_cell_length_c 9.286332
_cell_angle_alpha 32.193810
_cell_angle_beta 145.518907
_cell_angle_gamma 171.194443
_cell_volume 614.051930
_symmetry_space_group_name_H-M "P -1"
_symmetry_group_IT_number 2
_symmetry_cell_setting 'triclinic'
loop_
_space_group_symop_operation_xyz
x,y,z
-x,-y,-z
loop_
_atom_site_type_symbol
_atom_site_label
_atom_site_fract_x
_atom_site_fract_y
_atom_site_fract_z
Si Si1 0.715036 0.618752 0.166554
Si Si2 0.092252 0.264342 0.147033
Si Si3 0.034227 0.613107 0.176608
Si Si4 0.783415 0.360628 0.945187
Si Si5 0.949817 0.718089 0.694185
Si Si6 0.217949 0.136143 0.742169
Si Si7 0.398728 0.640241 0.615354
O O1 0.729074 0.580470 0.454791
O O2 0.602552 0.447114 0.241388
O O3 0.500000 0.500000 0.000000
O O4 0.047818 0.961472 0.961981
O O5 0.939067 0.146785 0.248656
O O6 0.844607 0.999174 0.151368
O O7 0.280159 0.512377 0.838121
O O8 0.401498 0.495316 0.314436
O O9 0.000000 0.500000 0.500000
O O10 0.899179 0.462587 0.108069
O O11 0.411018 0.986919 0.059164
O O12 0.850662 0.529719 0.995324
O O13 0.815892 0.486946 0.626837
O O14 0.000000 0.500000 0.000000
O O15 0.241278 0.989902 0.542393
O O16 0.000000 0.000000 0.500000
#
# Coordination Sequence:
#
# PCOD9048986 Si02
#       7
#     2   2   2   2   2   2   2
#     4  11  23  42  69  94 139 188 229 286 343 402
#     4  11  25  41  68  95 133 180 226 279 351 397
#     4  11  25  46  70 109 143 176 235 289 347 432
#     4  11  24  45  75 102 143 182 228 287 361 416
#     4  11  24  44  70  98 141 184 229 286 349 407
#     4  11  24  44  62  99 134 170 238 290 329 411
#     4  10  24  46  64 103 140 177 236 287 337 422
#
# _framework density 22.799374
#
# number of rings (size 3 to 8) (size 9 to 14) (size 15 to 20)
#    0.000    1.143    2.857    2.143    6.000    1.714 
#    5.143    0.000    0.000    0.000    0.000    0.000 
#    0.000    0.000    0.000    0.000    0.000    0.000 
#
# Total GULP energy -78149.123083 kJ/mol
# GULP energy per Si atom -5582.080220 kJ/mol
# Density = 2.274748 g / cm^3
# Si number density = 22.799374 Si / 1000 Ang^3
#
#
#
# Elastic Constant Matrix: (Units=GPa)
#
#
# Indices 1 2 3 4 5 6 
#
# 1 117.3246 19.1262 51.2475 17.5788 -6.8100 -9.0174
# 2 19.1262 65.5465 16.0580 10.3331 0.1873 -7.7560
# 3 51.2475 16.0580 180.9019 27.6177 -1.7613 8.0450
# 4 17.5788 10.3331 27.6177 36.3616 2.9466 -8.0850
# 5 -6.8100 0.1873 -1.7613 2.9466 49.1425 5.1051
# 6 -9.0174 -7.7560 8.0450 -8.0850 5.1051 34.2725
#
#
#
# Elastic Compliance Matrix: (Units=1/GPa)
#
#
# Indices 1 2 3 4 5 6 
#
# 1 0.010522 -0.001829 -0.002566 -0.002222 0.001273 0.002243
# 2 -0.001829 0.016725 -0.000696 -0.002653 -0.000486 0.002913
# 3 -0.002566 -0.000696 0.007248 -0.004959 0.000598 -0.003793
# 4 -0.002222 -0.002653 -0.004959 0.035346 -0.003513 0.008841
# 5 0.001273 -0.000486 0.000598 -0.003513 0.021164 -0.003897
# 6 0.002243 0.002913 -0.003793 0.008841 -0.003897 0.033984
#
#
# Mechanical properties :
#
#
# Convention : Reuss Voigt Hill
#
# Bulk Modulus (GPa) = 41.13216 59.62627 50.37922
# Shear Modulus (GPa) = 34.89765 42.44473 38.67119
#
# Velocity S-wave (km/s) = 3.91658 4.31938 4.12290
# Velocity P-wave (km/s) = 6.20749 7.14741 6.69397
#
# Compressibility (1/GPa) = 0.02431188
#
# Stress axis : x y z
#
# Youngs Moduli (GPa) = 95.04028 59.79098 137.96571
#
# Poissons Ratio (x) = 0.10938 0.35408
# Poissons Ratio (y) = 0.17387 0.09597
# Poissons Ratio (z) = 0.24392 0.04159
#
# Static dielectric constant tensor:
#      x y z
#    x 1.783460 -0.014520 0.037490 
#    y -0.014520 1.921400 -0.010510 
#    z 0.037490 -0.010510 1.916850 
# 
# From -- ./inp_files/33456.got.cif
#   From: 2010.05.17/outbox.cif.g08.bks.cpg/sg2_17_cif.got.tgz:33456.got - 2010.06.03 11:33:40.
