data_PCOD9048551
_publ_section_title
;
Structure prediction by ZEFSAII (Michael W. Deem and Ramdas Pophale) SiO2 
 PCOD9048551
Probable space group: P -1
;
_chemical_formula_sum "Si O2"
_cell_formula_units_Z 12
_cell_length_a 15.195401
_cell_length_b 15.052567
_cell_length_c 6.523249
_cell_angle_alpha 133.167309
_cell_angle_beta 49.799663
_cell_angle_gamma 151.874698
_cell_volume 509.138919
_symmetry_space_group_name_H-M "P -1"
_symmetry_group_IT_number 2
_symmetry_cell_setting 'triclinic'
loop_
_space_group_symop_operation_xyz
x,y,z
-x,-y,-z
loop_
_atom_site_type_symbol
_atom_site_label
_atom_site_fract_x
_atom_site_fract_y
_atom_site_fract_z
Si Si1 0.736517 0.358616 0.215626
Si Si2 0.882677 0.267366 0.555151
Si Si3 0.653438 0.104938 0.261724
Si Si4 0.564833 0.562934 0.232312
Si Si5 0.773565 0.626674 0.334882
Si Si6 0.788976 0.003356 0.613041
O O1 0.616734 0.183292 0.281285
O O2 0.698510 0.443224 0.268862
O O3 0.901372 0.543560 0.409213
O O4 0.799367 0.309460 0.879981
O O5 0.839829 0.252064 0.357245
O O6 0.806861 0.080651 0.482645
O O7 0.500000 0.000000 0.500000
O O8 0.674778 0.002312 0.928633
O O9 0.707961 0.578987 0.123236
O O10 0.365731 0.389344 0.380700
O O11 0.684659 0.787883 0.426706
O O12 0.500000 0.500000 0.000000
O O13 0.994947 0.826366 0.358822
#
# Coordination Sequence:
#
# PCOD9048551 Si02
#       6
#     2   2   2   2   2   2
#     4   9  20  40  63  93 136 171 220 271 324 411
#     4   9  20  38  64  97 129 176 215 265 340 396
#     4  11  24  37  66 104 134 180 215 267 342 402
#     4  11  26  45  71 102 129 177 234 284 340 394
#     4  10  24  45  69  99 137 179 223 283 335 398
#     4  10  24  46  68  98 142 173 226 281 333 409
#
# _framework density 23.569205
#
# number of rings (size 3 to 8) (size 9 to 14) (size 15 to 20)
#    0.000    2.000    0.000    2.000    4.667    8.667 
#    0.000    0.000    0.000    0.000    0.000    0.000 
#    0.000    0.000    0.000    0.000    0.000    0.000 
#
# Total GULP energy -66955.435091 kJ/mol
# GULP energy per Si atom -5579.619591 kJ/mol
# Density = 2.351556 g / cm^3
# Si number density = 23.569205 Si / 1000 Ang^3
#
#
#
# Elastic Constant Matrix: (Units=GPa)
#
#
# Indices 1 2 3 4 5 6 
#
# 1 181.4252 68.9528 35.2536 23.5033 22.7106 -3.2581
# 2 68.9528 127.1477 44.4095 6.8019 1.3869 6.2226
# 3 35.2536 44.4095 61.9057 1.6929 18.7160 -7.6931
# 4 23.5033 6.8019 1.6929 23.0660 10.7374 -1.6944
# 5 22.7106 1.3869 18.7160 10.7374 32.7173 -5.0596
# 6 -3.2581 6.2226 -7.6931 -1.6944 -5.0596 37.6462
#
#
#
# Elastic Compliance Matrix: (Units=1/GPa)
#
#
# Indices 1 2 3 4 5 6 
#
# 1 0.008299 -0.003945 -0.000692 -0.005691 -0.003247 0.000536
# 2 -0.003945 0.014163 -0.011051 -0.003882 0.009133 -0.003888
# 3 -0.000692 -0.011051 0.030776 0.011175 -0.019404 0.005951
# 4 -0.005691 -0.003882 0.011175 0.059655 -0.021511 0.002227
# 5 -0.003247 0.009133 -0.019404 -0.021511 0.050603 0.000077
# 6 0.000536 -0.003888 0.005951 0.002227 0.000077 0.028579
#
#
# Mechanical properties :
#
#
# Convention : Reuss Voigt Hill
#
# Bulk Modulus (GPa) = 45.74447 74.19002 59.96725
# Shear Modulus (GPa) = 21.66945 33.47674 27.57309
#
# Velocity S-wave (km/s) = 3.03544 3.77285 3.42406
# Velocity P-wave (km/s) = 5.63347 7.10810 6.41331
#
# Compressibility (1/GPa) = 0.02186057
#
# Stress axis : x y z
#
# Youngs Moduli (GPa) = 120.49233 70.60720 32.49282
#
# Poissons Ratio (x) = 0.27858 0.02248
# Poissons Ratio (y) = 0.47540 0.35909
# Poissons Ratio (z) = 0.08336 0.78032
#
# Static dielectric constant tensor:
#      x y z
#    x 2.060020 0.042570 0.003920 
#    y 0.042570 1.970120 -0.014690 
#    z 0.003920 -0.014690 1.894240 
# 
# From -- ./inp_files/98671.got.cif
#   From: 2010.05.17/outbox.cif.g08.bks.cpg/sg2_50_cif.got.tgz:98671.got - 2010.06.03 11:33:40.
