data_PCOD9048090
_publ_section_title
;
Structure prediction by ZEFSAII (Michael W. Deem and Ramdas Pophale) SiO2 
 PCOD9048090
Probable space group: P -1
;
_chemical_formula_sum "Si O2"
_cell_formula_units_Z 16
_cell_length_a 17.326148
_cell_length_b 11.607066
_cell_length_c 8.952077
_cell_angle_alpha 137.420368
_cell_angle_beta 138.760082
_cell_angle_gamma 37.575006
_cell_volume 678.148586
_symmetry_space_group_name_H-M "P -1"
_symmetry_group_IT_number 2
_symmetry_cell_setting 'triclinic'
loop_
_space_group_symop_operation_xyz
x,y,z
-x,-y,-z
loop_
_atom_site_type_symbol
_atom_site_label
_atom_site_fract_x
_atom_site_fract_y
_atom_site_fract_z
Si Si1 0.604292 0.790412 0.830350
Si Si2 0.858096 0.556238 0.418947
Si Si3 0.325672 0.966962 0.410050
Si Si4 0.575072 0.192411 0.189813
Si Si5 0.136979 0.804634 0.082965
Si Si6 0.506858 0.294700 0.848447
Si Si7 0.860258 0.173981 0.546068
Si Si8 0.770496 0.555476 0.589577
O O1 0.476275 0.877262 0.613291
O O2 0.559554 0.675710 0.771415
O O3 0.738636 0.675095 0.811196
O O4 0.613659 0.970472 0.082452
O O5 0.881880 0.525571 0.603156
O O6 0.000000 0.500000 0.500000
O O7 0.757688 0.793981 0.468018
O O8 0.824632 0.397004 0.145782
O O9 0.253525 0.859934 0.279510
O O10 0.359980 0.890952 0.216292
O O11 0.722098 0.170526 0.375897
O O12 0.516661 0.250976 0.994644
O O13 0.107915 0.788917 0.201580
O O14 0.000000 0.000000 0.000000
O O15 0.365695 0.334673 0.608993
O O16 0.500000 0.500000 0.000000
O O17 0.802652 0.347221 0.502866
O O18 0.000000 0.000000 0.500000
#
# Coordination Sequence:
#
# PCOD9048090 Si02
#       8
#     2   2   2   2   2   2   2   2
#     4  10  24  44  73 106 145 188 240 314 371 436
#     4  12  26  46  76 106 147 198 252 308 363 447
#     4  11  24  45  75 110 149 189 251 307 373 443
#     4  11  23  44  72 108 147 189 241 301 377 431
#     4  12  26  48  75 103 146 203 249 301 373 441
#     4  11  22  41  75 107 143 190 237 306 367 442
#     4  12  28  47  72 105 151 195 248 307 366 453
#     4  11  25  46  68 108 143 186 247 300 377 436
#
# _framework density 23.59365
#
# number of rings (size 3 to 8) (size 9 to 14) (size 15 to 20)
#    0.000    0.750    3.750    3.000    1.750    7.500 
#    0.000    1.250    0.000    0.000    0.000    0.000 
#    0.000    0.000    0.000    0.000    0.000    0.000 
#
# Total GULP energy -89295.885143 kJ/mol
# GULP energy per Si atom -5580.992821 kJ/mol
# Density = 2.353995 g / cm^3
# Si number density = 23.593650 Si / 1000 Ang^3
#
#
#
# Elastic Constant Matrix: (Units=GPa)
#
#
# Indices 1 2 3 4 5 6 
#
# 1 203.7008 51.4283 31.5792 7.7613 -31.7803 13.0316
# 2 51.4283 81.2164 34.4097 13.3552 -14.8326 1.0546
# 3 31.5792 34.4097 45.3877 15.1141 -12.3108 2.0425
# 4 7.7613 13.3552 15.1141 37.9207 7.0341 -7.4585
# 5 -31.7803 -14.8326 -12.3108 7.0341 50.2425 3.2755
# 6 13.0316 1.0546 2.0425 -7.4585 3.2755 33.1195
#
#
#
# Elastic Compliance Matrix: (Units=1/GPa)
#
#
# Indices 1 2 3 4 5 6 
#
# 1 0.006559 -0.002913 -0.000886 -0.001200 0.003438 -0.003043
# 2 -0.002913 0.019772 -0.012146 -0.001592 0.001190 0.000790
# 3 -0.000886 -0.012146 0.038604 -0.013390 0.007540 -0.005407
# 4 -0.001200 -0.001592 -0.013390 0.036509 -0.010311 0.010590
# 5 0.003438 0.001190 0.007540 -0.010311 0.026162 -0.006765
# 6 -0.003043 0.000790 -0.005407 0.010590 -0.006765 0.034754
#
#
# Mechanical properties :
#
#
# Convention : Reuss Voigt Hill
#
# Bulk Modulus (GPa) = 30.26137 62.79325 46.52731
# Shear Modulus (GPa) = 24.35884 38.44904 31.40394
#
# Velocity S-wave (km/s) = 3.21663 4.04125 3.65229
# Velocity P-wave (km/s) = 5.16232 6.96045 6.12770
#
# Compressibility (1/GPa) = 0.03304543
#
# Stress axis : x y z
#
# Youngs Moduli (GPa) = 152.46761 50.57606 25.90403
#
# Poissons Ratio (x) = 0.14734 0.02295
# Poissons Ratio (y) = 0.44417 0.31462
# Poissons Ratio (z) = 0.13506 0.61428
#
# Static dielectric constant tensor:
#      x y z
#    x 2.094600 -0.155720 -0.081410 
#    y -0.155720 1.985190 0.068290 
#    z -0.081410 0.068290 1.972750 
# 
# From -- ./inp_files/333961.got.cif
#   From: 2010.05.17/outbox.cif.g08.bks.cpg/sg2_167_cif.got.tgz:333961.got - 2010.06.03 11:33:40.
