data_PCOD9048900
_publ_section_title
;
Structure prediction by ZEFSAII (Michael W. Deem and Ramdas Pophale) SiO2 
 PCOD9048900
Probable space group: P -1
;
_chemical_formula_sum "Si O2"
_cell_formula_units_Z 16
_cell_length_a 14.477342
_cell_length_b 24.497860
_cell_length_c 8.959923
_cell_angle_alpha 137.213266
_cell_angle_beta 123.960887
_cell_angle_gamma 21.704275
_cell_volume 695.619281
_symmetry_space_group_name_H-M "P -1"
_symmetry_group_IT_number 2
_symmetry_cell_setting 'triclinic'
loop_
_space_group_symop_operation_xyz
x,y,z
-x,-y,-z
loop_
_atom_site_type_symbol
_atom_site_label
_atom_site_fract_x
_atom_site_fract_y
_atom_site_fract_z
Si Si1 0.733115 0.311261 0.221693
Si Si2 0.265577 0.822319 0.501868
Si Si3 0.925955 0.635849 0.138422
Si Si4 0.337122 0.468586 0.996275
Si Si5 0.389060 0.048760 0.305880
Si Si6 0.215532 0.060670 0.606398
Si Si7 0.029951 0.059013 0.247167
Si Si8 0.173347 0.063786 0.921426
O O1 0.500000 0.500000 0.500000
O O2 0.989188 0.144038 0.237113
O O3 0.594361 0.322694 0.048791
O O4 0.845784 0.283160 0.123946
O O5 0.533045 0.624761 0.239911
O O6 0.189554 0.815895 0.561427
O O7 0.286936 0.899323 0.736463
O O8 0.000000 0.000000 0.500000
O O9 0.610304 0.850473 0.208846
O O10 0.892726 0.730001 0.419991
O O11 0.000000 0.500000 0.000000
O O12 0.160033 0.509432 0.975508
O O13 0.096311 0.698515 0.241321
O O14 0.561393 0.015720 0.359419
O O15 0.324297 0.038089 0.083521
O O16 0.195906 0.051603 0.741861
O O17 0.275761 0.941793 0.324276
O O18 0.000000 0.000000 0.000000
#
# Coordination Sequence:
#
# PCOD9048900 Si02
#       8
#     2   2   2   2   2   2   2   2
#     4  12  24  38  67  97 133 169 226 287 337 409
#     4  12  24  43  65  97 138 180 220 284 348 416
#     4  10  24  45  75 102 139 182 232 293 344 409
#     4  11  24  45  64 102 136 177 232 283 351 411
#     4  10  25  47  72 102 140 185 237 284 347 415
#     4  11  25  45  71  94 141 187 222 290 346 414
#     4  12  24  40  66 100 131 175 225 279 347 404
#     4  12  25  45  68  99 139 184 229 276 355 415
#
# _framework density 23.001086999999998
#
# number of rings (size 3 to 8) (size 9 to 14) (size 15 to 20)
#    0.000    0.750    5.000    1.125    7.000    2.000 
#    2.250    1.250    0.000    0.000    0.000    0.000 
#    0.000    0.000    0.000    0.000    0.000    0.000 
#
# Total GULP energy -89202.671180 kJ/mol
# GULP energy per Si atom -5575.166949 kJ/mol
# Density = 2.294874 g / cm^3
# Si number density = 23.001087 Si / 1000 Ang^3
#
#
#
# Elastic Constant Matrix: (Units=GPa)
#
#
# Indices 1 2 3 4 5 6 
#
# 1 132.6854 21.6897 29.7620 -7.0919 -7.6832 -14.1263
# 2 21.6897 56.1058 31.2405 -21.9653 7.4360 -11.2699
# 3 29.7620 31.2405 120.5490 -27.8959 -2.5782 -15.6603
# 4 -7.0919 -21.9653 -27.8959 47.8424 -6.8442 4.2594
# 5 -7.6832 7.4360 -2.5782 -6.8442 49.5931 -3.9095
# 6 -14.1263 -11.2699 -15.6603 4.2594 -3.9095 34.2018
#
#
#
# Elastic Compliance Matrix: (Units=1/GPa)
#
#
# Indices 1 2 3 4 5 6 
#
# 1 0.008564 -0.002619 -0.001229 -0.000610 0.001760 0.002389
# 2 -0.002619 0.025305 -0.003468 0.008413 -0.002881 0.004291
# 3 -0.001229 -0.003468 0.010997 0.004623 0.001777 0.003012
# 4 -0.000610 0.008413 0.004623 0.027638 0.002818 0.001517
# 5 0.001760 -0.002881 0.001777 0.002818 0.021563 0.002705
# 6 0.002389 0.004291 0.003012 0.001517 0.002705 0.033138
#
#
# Mechanical properties :
#
#
# Convention : Reuss Voigt Hill
#
# Bulk Modulus (GPa) = 33.07636 52.74716 42.91176
# Shear Modulus (GPa) = 32.91314 41.43734 37.17524
#
# Velocity S-wave (km/s) = 3.78688 4.24906 4.02461
# Velocity P-wave (km/s) = 5.79070 6.85966 6.34772
#
# Compressibility (1/GPa) = 0.03023307
#
# Stress axis : x y z
#
# Youngs Moduli (GPa) = 116.76869 39.51838 90.93512
#
# Poissons Ratio (x) = 0.10349 0.11176
# Poissons Ratio (y) = 0.30579 0.31541
# Poissons Ratio (z) = 0.14351 0.13707
#
# Static dielectric constant tensor:
#      x y z
#    x 1.892670 0.033250 0.070980 
#    y 0.033250 1.905960 0.103400 
#    z 0.070980 0.103400 1.967160 
# 
# From -- ./inp_files/320754.got.cif
#   From: 2010.05.17/outbox.cif.g08.bks.cpg/sg2_161_cif.got.tgz:320754.got - 2010.06.03 11:33:40.
