data_PCOD9048550
_publ_section_title
;
Structure prediction by ZEFSAII (Michael W. Deem and Ramdas Pophale) SiO2 
 PCOD9048550
Probable space group: P -1
;
_chemical_formula_sum "Si O2"
_cell_formula_units_Z 16
_cell_length_a 10.733320
_cell_length_b 8.736560
_cell_length_c 25.444480
_cell_angle_alpha 31.366447
_cell_angle_beta 146.693263
_cell_angle_gamma 137.536699
_cell_volume 679.539886
_symmetry_space_group_name_H-M "P -1"
_symmetry_group_IT_number 2
_symmetry_cell_setting 'triclinic'
loop_
_space_group_symop_operation_xyz
x,y,z
-x,-y,-z
loop_
_atom_site_type_symbol
_atom_site_label
_atom_site_fract_x
_atom_site_fract_y
_atom_site_fract_z
Si Si1 0.025098 0.819320 0.842115
Si Si2 0.771462 0.631213 0.400740
Si Si3 0.994540 0.814168 0.714376
Si Si4 0.688037 0.101815 0.704061
Si Si5 0.468054 0.518704 0.124425
Si Si6 0.297884 0.339707 0.940354
Si Si7 0.599363 0.327345 0.830853
Si Si8 0.449940 0.319452 0.459695
O O1 0.817409 0.562342 0.842304
O O2 0.047331 0.929317 0.757989
O O3 0.935686 0.047934 0.784907
O O4 0.247633 0.677302 0.981352
O O5 0.569344 0.599002 0.296432
O O6 0.670758 0.471178 0.463881
O O7 0.000000 0.500000 0.500000
O O8 0.847236 0.979885 0.329245
O O9 0.070450 0.482459 0.836184
O O10 0.733874 0.828005 0.602272
O O11 0.526221 0.104680 0.594669
O O12 0.670273 0.413989 0.633475
O O13 0.602687 0.828573 0.790776
O O14 0.649597 0.579122 0.125255
O O15 0.526050 0.653822 0.162609
O O16 0.500000 0.500000 0.000000
O O17 0.311799 0.992582 0.053083
#
# Coordination Sequence:
#
# PCOD9048550 Si02
#       8
#     2   2   2   2   2   2   2   2
#     4  11  23  43  73 100 136 182 230 280 345 412
#     4  12  26  45  72 103 137 182 236 280 335 414
#     4  12  26  43  73 104 134 184 231 279 346 403
#     4  10  24  45  69  99 136 180 228 282 342 402
#     4  11  24  44  69 100 140 178 232 282 341 416
#     4  12  24  43  64 101 140 171 225 286 340 409
#     4  11  24  43  66 103 136 186 225 281 351 400
#     4  11  26  48  70  99 140 183 229 286 337 404
#
# _framework density 23.545344
#
# number of rings (size 3 to 8) (size 9 to 14) (size 15 to 20)
#    0.000    0.750    3.750    3.375    7.000    1.500 
#    4.500    3.125    0.000    0.000    0.000    0.000 
#    0.000    0.000    0.000    0.000    0.000    0.000 
#
# Total GULP energy -89678.712692 kJ/mol
# GULP energy per Si atom -5604.919543 kJ/mol
# Density = 2.349175 g / cm^3
# Si number density = 23.545344 Si / 1000 Ang^3
#
#
#
# Elastic Constant Matrix: (Units=GPa)
#
#
# Indices 1 2 3 4 5 6 
#
# 1 88.1626 4.6018 21.0832 -3.0143 6.8172 5.4073
# 2 4.6018 55.6391 14.2977 -2.7779 3.4218 1.0770
# 3 21.0832 14.2977 98.9569 -4.5326 -6.1856 -1.0598
# 4 -3.0143 -2.7779 -4.5326 31.2001 -11.2264 6.8726
# 5 6.8172 3.4218 -6.1856 -11.2264 33.9188 -4.5243
# 6 5.4073 1.0770 -1.0598 6.8726 -4.5243 22.9103
#
#
#
# Elastic Compliance Matrix: (Units=1/GPa)
#
#
# Indices 1 2 3 4 5 6 
#
# 1 0.012559 0.000019 -0.002916 0.000413 -0.003442 -0.003903
# 2 0.000019 0.018931 -0.002872 0.000786 -0.002409 -0.001739
# 3 -0.002916 -0.002872 0.011503 0.002216 0.003902 0.001461
# 4 0.000413 0.000786 0.002216 0.038798 0.011838 -0.009333
# 5 -0.003442 -0.002409 0.003902 0.011838 0.035660 0.004597
# 6 -0.003903 -0.001739 0.001461 -0.009333 0.004597 0.048426
#
#
# Mechanical properties :
#
#
# Convention : Reuss Voigt Hill
#
# Bulk Modulus (GPa) = 31.79463 35.85822 33.82642
# Shear Modulus (GPa) = 26.60970 31.12424 28.86697
#
# Velocity S-wave (km/s) = 3.36541 3.63972 3.50525
# Velocity P-wave (km/s) = 5.35110 5.73811 5.54798
#
# Compressibility (1/GPa) = 0.03145185
#
# Stress axis : x y z
#
# Youngs Moduli (GPa) = 79.62528 52.82451 86.93528
#
# Poissons Ratio (x) = -0.00098 0.25354
# Poissons Ratio (y) = -0.00148 0.24971
# Poissons Ratio (z) = 0.23222 0.15173
#
# Static dielectric constant tensor:
#      x y z
#    x 1.907640 -0.009390 -0.002010 
#    y -0.009390 1.900190 -0.016530 
#    z -0.002010 -0.016530 1.869030 
# 
# From -- ./inp_files/272449.got.cif
#   From: 2010.05.17/outbox.cif.g08.bks.cpg/sg2_137_cif.got.tgz:272449.got - 2010.06.03 11:33:40.
