data_PCOD9048743
_publ_section_title
;
Structure prediction by ZEFSAII (Michael W. Deem and Ramdas Pophale) SiO2 
 PCOD9048743
Probable space group: P -1
;
_chemical_formula_sum "Si O2"
_cell_formula_units_Z 13
_cell_length_a 4.981662
_cell_length_b 11.444773
_cell_length_c 9.895015
_cell_angle_alpha 92.253375
_cell_angle_beta 112.922223
_cell_angle_gamma 68.532620
_cell_volume 480.039352
_symmetry_space_group_name_H-M "P -1"
_symmetry_group_IT_number 2
_symmetry_cell_setting 'triclinic'
loop_
_space_group_symop_operation_xyz
x,y,z
-x,-y,-z
loop_
_atom_site_type_symbol
_atom_site_label
_atom_site_fract_x
_atom_site_fract_y
_atom_site_fract_z
Si Si1 0.242058 0.730892 0.586132
Si Si2 0.747454 0.827523 0.731379
Si Si3 0.256851 0.431919 0.933935
Si Si4 0.474197 0.319353 0.711412
Si Si5 0.847636 0.801504 0.054211
Si Si6 0.745728 0.907222 0.310811
Si Si7 0.000000 0.500000 0.500000
O O1 0.017174 0.799529 0.673679
O O2 0.086418 0.830142 0.437521
O O3 0.159976 0.608329 0.544286
O O4 0.412887 0.275892 0.306113
O O5 0.458048 0.960548 0.658881
O O6 0.866704 0.835042 0.906097
O O7 0.206053 0.426798 0.759576
O O8 0.368116 0.281833 0.978928
O O9 0.500000 0.500000 0.000000
O O10 0.000000 0.500000 0.000000
O O11 0.431238 0.188630 0.705856
O O12 0.358626 0.386097 0.552230
O O13 0.814673 0.298474 0.831024
O O14 0.765883 0.913059 0.152227
#
# Coordination Sequence:
#
# PCOD9048743 Si02
#       7
#     2   2   2   2   2   2   1
#     4  11  28  49  76 107 147 198 248 301 369 439
#     4  12  28  46  77 114 145 189 256 306 363 433
#     4  11  23  41  67  97 143 185 232 294 355 426
#     4  10  24  45  72 101 144 196 237 292 372 428
#     4  11  26  44  75 111 149 194 244 303 379 427
#     4  10  25  49  73 106 151 200 240 304 369 443
#     4  10  26  50  70 106 144 196 238 296 364 452
#
# _framework density 27.081115
#
# number of rings (size 3 to 8) (size 9 to 14) (size 15 to 20)
#    0.000    1.231    1.538    1.385   15.077    1.231 
#    2.769    0.000    0.000    0.000    0.000    0.000 
#    0.000    0.000    0.000    0.000    0.000    0.000 
#
# Total GULP energy -72563.029705 kJ/mol
# GULP energy per Si atom -5581.771516 kJ/mol
# Density = 2.701948 g / cm^3
# Si number density = 27.081115 Si / 1000 Ang^3
#
#
#
# Elastic Constant Matrix: (Units=GPa)
#
#
# Indices 1 2 3 4 5 6 
#
# 1 107.8560 5.8955 22.0107 15.9079 2.9404 -1.8336
# 2 5.8955 91.0533 10.6030 20.2214 1.3680 2.9677
# 3 22.0107 10.6030 96.9625 11.5506 -5.5898 4.6088
# 4 15.9079 20.2214 11.5506 49.7860 -14.8303 1.4164
# 5 2.9404 1.3680 -5.5898 -14.8303 44.4607 6.1710
# 6 -1.8336 2.9677 4.6088 1.4164 6.1710 27.0081
#
#
#
# Elastic Compliance Matrix: (Units=1/GPa)
#
#
# Indices 1 2 3 4 5 6 
#
# 1 0.010344 0.000394 -0.002172 -0.003747 -0.002468 0.001790
# 2 0.000394 0.012357 -0.000889 -0.005628 -0.002347 -0.000348
# 3 -0.002172 -0.000889 0.011223 -0.001020 0.001556 -0.002267
# 4 -0.003747 -0.005628 -0.001020 0.026767 0.009647 -0.003070
# 5 -0.002468 -0.002347 0.001556 0.009647 0.027094 -0.006872
# 6 0.001790 -0.000348 -0.002267 -0.003070 -0.006872 0.039304
#
#
# Mechanical properties :
#
#
# Convention : Reuss Voigt Hill
#
# Bulk Modulus (GPa) = 34.97812 41.43225 38.20518
# Shear Modulus (GPa) = 35.22309 41.40847 38.31578
#
# Velocity S-wave (km/s) = 3.61037 3.91455 3.76553
# Velocity P-wave (km/s) = 5.50670 5.98031 5.74839
#
# Compressibility (1/GPa) = 0.02858930
#
# Stress axis : x y z
#
# Youngs Moduli (GPa) = 96.67691 80.92544 89.10602
#
# Poissons Ratio (x) = -0.03190 0.19355
# Poissons Ratio (y) = -0.03810 0.07922
# Poissons Ratio (z) = 0.20999 0.07195
#
# Static dielectric constant tensor:
#      x y z
#    x 2.132120 -0.126430 0.108600 
#    y -0.126430 2.078950 0.039390 
#    z 0.108600 0.039390 1.825310 
# 
# From -- ./inp_files/362156.got.cif
#   From: 2010.05.17/outbox.cif.g08.bks.cpg/sg2_182_cif.got.tgz:362156.got - 2010.06.03 11:33:40.
