data_PCOD9048347
_publ_section_title
;
Structure prediction by ZEFSAII (Michael W. Deem and Ramdas Pophale) SiO2 
 PCOD9048347
Probable space group: P -1
;
_chemical_formula_sum "Si O2"
_cell_formula_units_Z 12
_cell_length_a 12.448516
_cell_length_b 7.594481
_cell_length_c 11.976327
_cell_angle_alpha 106.505465
_cell_angle_beta 147.893100
_cell_angle_gamma 64.450393
_cell_volume 535.094757
_symmetry_space_group_name_H-M "P -1"
_symmetry_group_IT_number 2
_symmetry_cell_setting 'triclinic'
loop_
_space_group_symop_operation_xyz
x,y,z
-x,-y,-z
loop_
_atom_site_type_symbol
_atom_site_label
_atom_site_fract_x
_atom_site_fract_y
_atom_site_fract_z
Si Si1 0.927002 0.539385 0.248238
Si Si2 0.621358 0.865155 0.185839
Si Si3 0.710406 0.239657 0.976509
Si Si4 0.597244 0.199807 0.616722
Si Si5 0.809846 0.899502 0.571709
Si Si6 0.150037 0.552750 0.229478
O O1 0.834076 0.695677 0.291724
O O2 0.127360 0.338178 0.421636
O O3 0.007246 0.625806 0.228298
O O4 0.741159 0.450950 0.036264
O O5 0.462392 0.772526 0.088517
O O6 0.690077 0.982455 0.365709
O O7 0.500000 0.000000 0.000000
O O8 0.654436 0.182861 0.794716
O O9 0.951809 0.094503 0.200547
O O10 0.357105 0.356291 0.407558
O O11 0.755631 0.298325 0.716848
O O12 0.664078 0.998815 0.567639
O O13 0.000000 0.500000 0.000000
#
# Coordination Sequence:
#
# PCOD9048347 Si02
#       6
#     2   2   2   2   2   2
#     4  10  24  45  67  96 136 179 224 273 333 396
#     4  12  27  44  68  98 135 184 228 274 332 396
#     4  10  24  45  69  96 134 178 224 279 330 400
#     4  11  24  42  72 104 132 176 223 276 345 392
#     4  10  25  44  69  99 134 180 219 281 328 406
#     4  11  23  42  68 104 139 170 220 283 334 398
#
# _framework density 22.425934999999999
#
# number of rings (size 3 to 8) (size 9 to 14) (size 15 to 20)
#    1.000    0.333    1.667    2.500    4.667    3.333 
#    0.000    0.000    0.000    0.000    0.000    0.000 
#    0.000    0.000    0.000    0.000    0.000    0.000 
#
# Total GULP energy -67064.586260 kJ/mol
# GULP energy per Si atom -5588.715522 kJ/mol
# Density = 2.237489 g / cm^3
# Si number density = 22.425935 Si / 1000 Ang^3
#
#
#
# Elastic Constant Matrix: (Units=GPa)
#
#
# Indices 1 2 3 4 5 6 
#
# 1 191.7093 25.3015 38.0665 -2.9384 -6.2550 -7.9204
# 2 25.3015 53.2492 -3.1801 -1.5452 -6.2722 -1.9187
# 3 38.0665 -3.1801 114.1293 9.0334 -11.3472 7.9594
# 4 -2.9384 -1.5452 9.0334 19.9785 -2.2564 -1.4755
# 5 -6.2550 -6.2722 -11.3472 -2.2564 44.1509 0.8576
# 6 -7.9204 -1.9187 7.9594 -1.4755 0.8576 41.2346
#
#
#
# Elastic Compliance Matrix: (Units=1/GPa)
#
#
# Indices 1 2 3 4 5 6 
#
# 1 0.006180 -0.002981 -0.002413 0.001875 -0.000103 0.001583
# 2 -0.002981 0.020680 0.001817 0.000680 0.003017 0.000001
# 3 -0.002413 0.001817 0.010422 -0.004849 0.002398 -0.002614
# 4 0.001875 0.000680 -0.004849 0.053009 0.001763 0.003188
# 5 -0.000103 0.003017 0.002398 0.001763 0.023785 -0.000774
# 6 0.001583 0.000001 -0.002614 0.003188 -0.000774 0.025190
#
#
# Mechanical properties :
#
#
# Convention : Reuss Voigt Hill
#
# Bulk Modulus (GPa) = 33.19403 53.27374 43.23389
# Shear Modulus (GPa) = 31.95631 40.99946 36.47789
#
# Velocity S-wave (km/s) = 3.77897 4.28040 4.03748
# Velocity P-wave (km/s) = 5.82019 6.94522 6.40745
#
# Compressibility (1/GPa) = 0.03012590
#
# Stress axis : x y z
#
# Youngs Moduli (GPa) = 161.82150 48.35646 95.95046
#
# Poissons Ratio (x) = 0.14416 0.23156
# Poissons Ratio (y) = 0.48241 -0.17431
# Poissons Ratio (z) = 0.39052 -0.08785
#
# Static dielectric constant tensor:
#      x y z
#    x 1.819110 0.053960 0.012480 
#    y 0.053960 1.905150 0.029660 
#    z 0.012480 0.029660 1.849500 
# 
# From -- ./inp_files/413027.got.cif
#   From: 2010.05.17/outbox.cif.g08.bks.cpg/sg2_207_cif.got.tgz:413027.got - 2010.06.03 11:33:40.
