data_PCOD9048029
_publ_section_title
;
Structure prediction by ZEFSAII (Michael W. Deem and Ramdas Pophale) SiO2 
 PCOD9048029
Probable space group: P -1
;
_chemical_formula_sum "Si O2"
_cell_formula_units_Z 14
_cell_length_a 6.242024
_cell_length_b 14.165083
_cell_length_c 7.797239
_cell_angle_alpha 52.587114
_cell_angle_beta 74.523079
_cell_angle_gamma 76.002047
_cell_volume 524.863550
_symmetry_space_group_name_H-M "P -1"
_symmetry_group_IT_number 2
_symmetry_cell_setting 'triclinic'
loop_
_space_group_symop_operation_xyz
x,y,z
-x,-y,-z
loop_
_atom_site_type_symbol
_atom_site_label
_atom_site_fract_x
_atom_site_fract_y
_atom_site_fract_z
Si Si1 0.552110 0.087889 0.550949
Si Si2 0.752452 0.679757 0.535130
Si Si3 0.526315 0.475573 0.722743
Si Si4 0.966330 0.154142 0.240013
Si Si5 0.766062 0.064073 0.038919
Si Si6 0.895724 0.381533 0.203382
Si Si7 0.382488 0.237506 0.900590
O O1 0.429496 0.224919 0.431314
O O2 0.823444 0.092160 0.488588
O O3 0.500000 0.000000 0.500000
O O4 0.410900 0.031458 0.791954
O O5 0.739556 0.534609 0.683409
O O6 0.748632 0.718121 0.293144
O O7 0.974355 0.686654 0.590968
O O8 0.500000 0.500000 0.500000
O O9 0.349147 0.571000 0.743738
O O10 0.452453 0.342913 0.894442
O O11 0.833508 0.119594 0.141994
O O12 0.911348 0.292606 0.141126
O O13 0.228149 0.153164 0.133650
O O14 0.619777 0.171976 0.858171
O O15 0.000000 0.000000 0.000000
O O16 0.000000 0.500000 0.000000
#
# Coordination Sequence:
#
# PCOD9048029 Si02
#       7
#     2   2   2   2   2   2   2
#     4  10  24  46  71 108 146 200 251 316 374 435
#     4  11  26  47  71 109 157 197 252 309 380 458
#     4  10  24  44  72 110 149 198 246 309 376 456
#     4  11  25  46  75 113 151 194 255 317 373 457
#     4  11  27  51  78 111 150 201 264 318 376 453
#     4  12  26  45  75 115 151 203 245 314 389 447
#     4  11  26  47  78 112 147 206 255 311 388 451
#
# _framework density 26.673597999999998
#
# number of rings (size 3 to 8) (size 9 to 14) (size 15 to 20)
#    0.000    1.143    2.857    0.857    6.000   10.286 
#    2.571    0.000    0.000    0.000    0.000    0.000 
#    0.000    0.000    0.000    0.000    0.000    0.000 
#
# Total GULP energy -78144.005989 kJ/mol
# GULP energy per Si atom -5581.714713 kJ/mol
# Density = 2.661289 g / cm^3
# Si number density = 26.673598 Si / 1000 Ang^3
#
#
#
# Elastic Constant Matrix: (Units=GPa)
#
#
# Indices 1 2 3 4 5 6 
#
# 1 83.2967 43.3753 53.0768 -22.2909 -27.3144 0.4997
# 2 43.3753 176.1402 31.5166 -5.9080 -12.2946 32.2239
# 3 53.0768 31.5166 94.4731 -10.5122 -12.8224 0.4779
# 4 -22.2909 -5.9080 -10.5122 31.9516 6.4368 -5.7125
# 5 -27.3144 -12.2946 -12.8224 6.4368 46.2482 3.0479
# 6 0.4997 32.2239 0.4779 -5.7125 3.0479 56.1680
#
#
#
# Elastic Compliance Matrix: (Units=1/GPa)
#
#
# Indices 1 2 3 4 5 6 
#
# 1 0.029055 -0.004415 -0.011880 0.014001 0.010531 0.003228
# 2 -0.004415 0.007566 -0.000312 -0.002595 -0.000021 -0.004562
# 3 -0.011880 -0.000312 0.016812 -0.002388 -0.002107 0.000013
# 4 0.014001 -0.002595 -0.002388 0.040594 0.000907 0.005464
# 5 0.010531 -0.000021 -0.002107 0.000907 0.027222 -0.001449
# 6 0.003228 -0.004562 0.000013 0.005464 -0.001449 0.021026
#
#
# Mechanical properties :
#
#
# Convention : Reuss Voigt Hill
#
# Bulk Modulus (GPa) = 49.45876 67.76082 58.60979
# Shear Modulus (GPa) = 27.43804 41.93631 34.68717
#
# Velocity S-wave (km/s) = 3.21075 3.96940 3.61006
# Velocity P-wave (km/s) = 5.68574 6.81668 6.27673
#
# Compressibility (1/GPa) = 0.02021887
#
# Stress axis : x y z
#
# Youngs Moduli (GPa) = 34.41758 132.16217 59.48203
#
# Poissons Ratio (x) = 0.58351 0.70663
# Poissons Ratio (y) = 0.15196 0.01857
# Poissons Ratio (z) = 0.40887 0.04126
#
# Static dielectric constant tensor:
#      x y z
#    x 2.361010 -0.038820 -0.205700 
#    y -0.038820 2.083140 -0.025340 
#    z -0.205700 -0.025340 2.276660 
# 
# From -- ./inp_files/132865.got.cif
#   From: 2010.05.17/outbox.cif.g08.bks.cpg/sg2_67_cif.got.tgz:132865.got - 2010.06.03 11:33:40.
