data_PCOD9048830
_publ_section_title
;
Structure prediction by ZEFSAII (Michael W. Deem and Ramdas Pophale) SiO2 
 PCOD9048830
Probable space group: P -1
;
_chemical_formula_sum "Si O2"
_cell_formula_units_Z 14
_cell_length_a 16.999216
_cell_length_b 8.395006
_cell_length_c 8.997952
_cell_angle_alpha 115.283162
_cell_angle_beta 60.783091
_cell_angle_gamma 149.153920
_cell_volume 574.538777
_symmetry_space_group_name_H-M "P -1"
_symmetry_group_IT_number 2
_symmetry_cell_setting 'triclinic'
loop_
_space_group_symop_operation_xyz
x,y,z
-x,-y,-z
loop_
_atom_site_type_symbol
_atom_site_label
_atom_site_fract_x
_atom_site_fract_y
_atom_site_fract_z
Si Si1 0.870171 0.670457 0.843532
Si Si2 0.877539 0.140707 0.452463
Si Si3 0.361454 0.229568 0.191783
Si Si4 0.134458 0.603671 0.994014
Si Si5 0.306130 0.614889 0.663068
Si Si6 0.377285 0.654833 0.290035
Si Si7 0.700454 0.684444 0.200117
O O1 0.889411 0.543114 0.891035
O O2 0.711660 0.395163 0.782622
O O3 0.016920 0.868547 0.675005
O O4 0.829008 0.784058 0.018842
O O5 0.000000 0.500000 0.500000
O O6 0.760074 0.952607 0.627375
O O7 0.772824 0.973533 0.329693
O O8 0.378991 0.448473 0.188431
O O9 0.534711 0.451617 0.178906
O O10 0.281400 0.966872 0.045165
O O11 0.162026 0.494202 0.807837
O O12 0.000000 0.500000 0.000000
O O13 0.285213 0.533795 0.480640
O O14 0.336970 0.502612 0.699821
O O15 0.454725 0.985222 0.694019
#
# Coordination Sequence:
#
# PCOD9048830 Si02
#       7
#     2   2   2   2   2   2   2
#     4  11  26  47  74 104 150 191 241 297 374 424
#     4  12  26  45  74 114 144 190 241 309 362 428
#     4  12  26  47  76 111 145 194 247 302 360 432
#     4  11  26  48  72 106 148 193 240 303 363 436
#     4  10  24  45  73 106 147 190 243 300 362 428
#     4  11  25  43  73 109 145 189 246 301 359 433
#     4  11  25  50  78 103 148 197 247 293 362 441
#
# _framework density 24.367372
#
# number of rings (size 3 to 8) (size 9 to 14) (size 15 to 20)
#    0.000    0.857    2.857    2.571    2.000   10.857 
#    0.000    0.000    0.000    0.000    0.000    0.000 
#    0.000    0.000    0.000    0.000    0.000    0.000 
#
# Total GULP energy -78337.527312 kJ/mol
# GULP energy per Si atom -5595.537665 kJ/mol
# Density = 2.431191 g / cm^3
# Si number density = 24.367372 Si / 1000 Ang^3
#
#
#
# Elastic Constant Matrix: (Units=GPa)
#
#
# Indices 1 2 3 4 5 6 
#
# 1 155.1775 50.0127 43.0700 3.9934 12.9698 10.4036
# 2 50.0127 123.2260 37.6973 20.6857 -4.0922 -2.7363
# 3 43.0700 37.6973 152.0054 4.8495 -6.6532 -1.6707
# 4 3.9934 20.6857 4.8495 53.1917 4.3096 1.4640
# 5 12.9698 -4.0922 -6.6532 4.3096 28.3333 3.3415
# 6 10.4036 -2.7363 -1.6707 1.4640 3.3415 28.1519
#
#
#
# Elastic Compliance Matrix: (Units=1/GPa)
#
#
# Indices 1 2 3 4 5 6 
#
# 1 0.008624 -0.003366 -0.001891 0.001302 -0.004706 -0.003135
# 2 -0.003366 0.010757 -0.001423 -0.004112 0.003145 0.002046
# 3 -0.001891 -0.001423 0.007587 -0.000210 0.002386 0.000738
# 4 0.001302 -0.004112 -0.000210 0.020702 -0.004215 -0.001469
# 5 -0.004706 0.003145 0.002386 -0.004215 0.039371 -0.002268
# 6 -0.003135 0.002046 0.000738 -0.001469 -0.002268 0.037269
#
#
# Mechanical properties :
#
#
# Convention : Reuss Voigt Hill
#
# Bulk Modulus (GPa) = 73.48471 76.88542 75.18507
# Shear Modulus (GPa) = 35.16070 41.91065 38.53568
#
# Velocity S-wave (km/s) = 3.80273 4.15173 3.98105
# Velocity P-wave (km/s) = 7.03587 7.38942 7.21481
#
# Compressibility (1/GPa) = 0.01360827
#
# Stress axis : x y z
#
# Youngs Moduli (GPa) = 115.95639 92.96587 131.81298
#
# Poissons Ratio (x) = 0.31293 0.24922
# Poissons Ratio (y) = 0.39032 0.18751
# Poissons Ratio (z) = 0.21924 0.13225
#
# Static dielectric constant tensor:
#      x y z
#    x 1.895420 -0.014960 0.013900 
#    y -0.014960 2.005150 -0.064130 
#    z 0.013900 -0.064130 2.047230 
# 
# From -- ./inp_files/329414.got.cif
#   From: 2010.05.17/outbox.cif.g08.bks.cpg/sg2_165_cif.got.tgz:329414.got - 2010.06.03 11:33:40.
