data_PCOD9048648
_publ_section_title
;
Structure prediction by ZEFSAII (Michael W. Deem and Ramdas Pophale) SiO2 
 PCOD9048648
Probable space group: P -1
;
_chemical_formula_sum "Si O2"
_cell_formula_units_Z 10
_cell_length_a 10.116590
_cell_length_b 8.870735
_cell_length_c 13.697876
_cell_angle_alpha 47.545984
_cell_angle_beta 153.117440
_cell_angle_gamma 136.033537
_cell_volume 383.735836
_symmetry_space_group_name_H-M "P -1"
_symmetry_group_IT_number 2
_symmetry_cell_setting 'triclinic'
loop_
_space_group_symop_operation_xyz
x,y,z
-x,-y,-z
loop_
_atom_site_type_symbol
_atom_site_label
_atom_site_fract_x
_atom_site_fract_y
_atom_site_fract_z
Si Si1 0.232568 0.602469 0.259492
Si Si2 0.378389 0.947150 0.689158
Si Si3 0.628929 0.442992 0.271043
Si Si4 0.324754 0.783382 0.920694
Si Si5 0.512193 0.805447 0.526852
O O1 0.500000 0.500000 0.500000
O O2 0.353346 0.836406 0.184798
O O3 0.194565 0.683589 0.309310
O O4 0.946443 0.404203 0.120325
O O5 0.263424 0.063164 0.472562
O O6 0.482958 0.764456 0.784696
O O7 0.181831 0.836059 0.702017
O O8 0.468377 0.366305 0.305245
O O9 0.000000 0.500000 0.500000
O O10 0.557835 0.655968 0.101005
O O11 0.500000 0.000000 0.000000
O O12 0.500000 0.000000 0.500000
#
# Coordination Sequence:
#
# PCOD9048648 Si02
#       5
#     2   2   2   2   2
#     4  10  24  45  70  98 140 176 226 281 343 397
#     4   9  23  46  68  98 134 182 228 280 335 402
#     4  11  23  44  71 100 137 178 227 279 341 405
#     4  12  28  43  69 104 139 180 229 280 338 402
#     4   8  19  42  67  98 126 179 221 278 334 402
#
# _framework density 26.059591000000001
#
# number of rings (size 3 to 8) (size 9 to 14) (size 15 to 20)
#    1.200    0.800    0.000    1.800    5.600    2.400 
#   10.800    0.000    0.000    0.000    0.000    0.000 
#    0.000    0.000    0.000    0.000    0.000    0.000 
#
# Total GULP energy -55685.890766 kJ/mol
# GULP energy per Si atom -5568.589077 kJ/mol
# Density = 2.600028 g / cm^3
# Si number density = 26.059591 Si / 1000 Ang^3
#
#
#
# Elastic Constant Matrix: (Units=GPa)
#
#
# Indices 1 2 3 4 5 6 
#
# 1 100.7183 36.1174 30.2258 -12.2854 -28.7520 20.5185
# 2 36.1174 225.9747 48.1797 11.2503 7.1493 -17.4713
# 3 30.2258 48.1797 63.7333 -16.7241 12.0635 1.0812
# 4 -12.2854 11.2503 -16.7241 46.4793 7.8780 -2.6683
# 5 -28.7520 7.1493 12.0635 7.8780 51.3834 -11.2150
# 6 20.5185 -17.4713 1.0812 -2.6683 -11.2150 43.7063
#
#
#
# Elastic Compliance Matrix: (Units=1/GPa)
#
#
# Indices 1 2 3 4 5 6 
#
# 1 0.017549 -0.001619 -0.009209 -0.000484 0.011001 -0.005865
# 2 -0.001619 0.006179 -0.005057 -0.003673 0.000708 0.003312
# 3 -0.009209 -0.005057 0.029482 0.011603 -0.013403 -0.001158
# 4 -0.000484 -0.003673 0.011603 0.027554 -0.007071 -0.001660
# 5 0.011001 0.000708 -0.013403 -0.007071 0.030363 0.002809
# 6 -0.005865 0.003312 -0.001158 -0.001660 0.002809 0.027605
#
#
# Mechanical properties :
#
#
# Convention : Reuss Voigt Hill
#
# Bulk Modulus (GPa) = 46.64151 68.83023 57.73587
# Shear Modulus (GPa) = 28.14551 46.70737 37.42644
#
# Velocity S-wave (km/s) = 3.28997 4.23818 3.79382
# Velocity P-wave (km/s) = 5.68935 7.10067 6.43383
#
# Compressibility (1/GPa) = 0.02144013
#
# Stress axis : x y z
#
# Youngs Moduli (GPa) = 56.98378 161.84379 33.91899
#
# Poissons Ratio (x) = 0.26199 0.31235
# Poissons Ratio (y) = 0.09224 0.17153
# Poissons Ratio (z) = 0.52475 0.81847
#
# Static dielectric constant tensor:
#      x y z
#    x 2.108290 0.004030 0.004530 
#    y 0.004030 2.244500 0.009520 
#    z 0.004530 0.009520 2.088090 
# 
# From -- ./inp_files/143604.got.cif
#   From: 2010.05.17/outbox.cif.g08.bks.cpg/sg2_72_cif.got.tgz:143604.got - 2010.06.03 11:33:40.
