data_PCOD9048658
_publ_section_title
;
Structure prediction by ZEFSAII (Michael W. Deem and Ramdas Pophale) SiO2 
 PCOD9048658
Probable space group: P -1
;
_chemical_formula_sum "Si O2"
_cell_formula_units_Z 16
_cell_length_a 27.149944
_cell_length_b 15.582850
_cell_length_c 7.694373
_cell_angle_alpha 43.339873
_cell_angle_beta 42.290503
_cell_angle_gamma 19.269487
_cell_volume 716.684930
_symmetry_space_group_name_H-M "P -1"
_symmetry_group_IT_number 2
_symmetry_cell_setting 'triclinic'
loop_
_space_group_symop_operation_xyz
x,y,z
-x,-y,-z
loop_
_atom_site_type_symbol
_atom_site_label
_atom_site_fract_x
_atom_site_fract_y
_atom_site_fract_z
Si Si1 0.044978 0.670946 0.009457
Si Si2 0.698649 0.922935 0.772520
Si Si3 0.266921 0.554489 0.475136
Si Si4 0.947124 0.936887 0.233201
Si Si5 0.339560 0.759240 0.443507
Si Si6 0.825895 0.035566 0.750405
Si Si7 0.571395 0.994371 0.690349
Si Si8 0.411006 0.229478 0.266931
O O1 0.132637 0.661405 0.720775
O O2 0.163554 0.379596 0.112075
O O3 0.900853 0.859089 0.982660
O O4 0.010600 0.761356 0.164884
O O5 0.659685 0.966514 0.607053
O O6 0.732916 0.008746 0.623287
O O7 0.544735 0.106906 0.003469
O O8 0.225870 0.752799 0.353582
O O9 0.300662 0.483878 0.288140
O O10 0.425967 0.273889 0.564294
O O11 0.762070 0.209203 0.294821
O O12 0.953809 0.864976 0.514672
O O13 0.000000 0.000000 0.000000
O O14 0.500000 0.500000 0.500000
O O15 0.315398 0.809351 0.223488
O O16 0.670316 0.750667 0.673553
O O17 0.500000 0.000000 0.000000
O O18 0.500000 0.000000 0.500000
#
# Coordination Sequence:
#
# PCOD9048658 Si02
#       8
#     2   2   2   2   2   2   2   2
#     4  12  22  41  64 100 135 177 230 274 343 404
#     4  11  22  39  66  93 140 177 223 286 335 406
#     4  11  19  37  62  94 138 167 229 281 325 398
#     4  10  24  45  71 100 133 186 227 275 342 402
#     4  10  24  49  68  96 136 180 229 279 345 405
#     4  10  25  43  64  98 136 174 227 281 330 403
#     4   9  17  34  55  95 127 171 220 274 327 388
#     4   9  18  35  58 100 128 172 225 274 333 396
#
# _framework density 22.325012999999998
#
# number of rings (size 3 to 8) (size 9 to 14) (size 15 to 20)
#    0.750    1.000    5.000    1.125    0.000    3.000 
#    2.250    5.000    0.000    0.000    0.000    0.000 
#    0.000    0.000    0.000    0.000    0.000    0.000 
#
# Total GULP energy -89198.320007 kJ/mol
# GULP energy per Si atom -5574.895000 kJ/mol
# Density = 2.227420 g / cm^3
# Si number density = 22.325013 Si / 1000 Ang^3
#
#
#
# Elastic Constant Matrix: (Units=GPa)
#
#
# Indices 1 2 3 4 5 6 
#
# 1 157.0413 48.3890 13.9453 1.7432 7.4874 14.7576
# 2 48.3890 82.7160 6.0362 2.9063 10.0446 13.3986
# 3 13.9453 6.0362 24.1127 11.6157 1.3342 6.9779
# 4 1.7432 2.9063 11.6157 19.5837 2.2901 5.0541
# 5 7.4874 10.0446 1.3342 2.2901 33.5169 11.3378
# 6 14.7576 13.3986 6.9779 5.0541 11.3378 47.7132
#
#
#
# Elastic Compliance Matrix: (Units=1/GPa)
#
#
# Indices 1 2 3 4 5 6 
#
# 1 0.008209 -0.004386 -0.004857 0.003052 -0.000243 -0.000863
# 2 -0.004386 0.015391 -0.000065 -0.000961 -0.002826 -0.002182
# 3 -0.004857 -0.000065 0.062754 -0.035928 0.002571 -0.004462
# 4 0.003052 -0.000961 -0.035928 0.073239 -0.003146 -0.002430
# 5 -0.000243 -0.002826 0.002571 -0.003146 0.033242 -0.007073
# 6 -0.000863 -0.002182 -0.004462 -0.002430 -0.007073 0.024429
#
#
# Mechanical properties :
#
#
# Convention : Reuss Voigt Hill
#
# Bulk Modulus (GPa) = 14.76290 44.51234 29.63762
# Shear Modulus (GPa) = 19.34544 33.19606 26.27075
#
# Velocity S-wave (km/s) = 2.94689 3.86028 3.43409
# Velocity P-wave (km/s) = 4.26685 6.31273 5.38779
#
# Compressibility (1/GPa) = 0.06773739
#
# Stress axis : x y z
#
# Youngs Moduli (GPa) = 121.81344 64.97467 15.93535
#
# Poissons Ratio (x) = 0.28498 0.07740
# Poissons Ratio (y) = 0.53428 0.00104
# Poissons Ratio (z) = 0.59164 0.00423
#
# Static dielectric constant tensor:
#      x y z
#    x 1.921970 -0.046760 0.063530 
#    y -0.046760 1.855650 0.020750 
#    z 0.063530 0.020750 1.846680 
# 
# From -- ./inp_files/357245.got.cif
#   From: 2010.05.17/outbox.cif.g08.bks.cpg/sg2_179_cif.got.tgz:357245.got - 2010.06.03 11:33:40.
