data_PCOD9048663
_publ_section_title
;
Structure prediction by ZEFSAII (Michael W. Deem and Ramdas Pophale) SiO2 
 PCOD9048663
Probable space group: P -1
;
_chemical_formula_sum "Si O2"
_cell_formula_units_Z 15
_cell_length_a 16.162452
_cell_length_b 11.986809
_cell_length_c 9.316991
_cell_angle_alpha 38.480512
_cell_angle_beta 36.274378
_cell_angle_gamma 40.557349
_cell_volume 622.638449
_symmetry_space_group_name_H-M "P -1"
_symmetry_group_IT_number 2
_symmetry_cell_setting 'triclinic'
loop_
_space_group_symop_operation_xyz
x,y,z
-x,-y,-z
loop_
_atom_site_type_symbol
_atom_site_label
_atom_site_fract_x
_atom_site_fract_y
_atom_site_fract_z
Si Si1 0.624697 0.518642 0.411912
Si Si2 0.089855 0.752164 0.809050
Si Si3 0.344840 0.139462 0.140683
Si Si4 0.982859 0.839828 0.472708
Si Si5 0.000000 0.500000 0.000000
Si Si6 0.691195 0.891161 0.451819
Si Si7 0.471263 0.321081 0.296746
Si Si8 0.026362 0.699953 0.246672
O O1 0.500000 0.500000 0.500000
O O2 0.758178 0.316970 0.425780
O O3 0.572540 0.606321 0.552162
O O4 0.691584 0.664130 0.093727
O O5 0.990569 0.970675 0.708451
O O6 0.998876 0.616156 0.033624
O O7 0.135021 0.708814 0.957963
O O8 0.197170 0.086748 0.379023
O O9 0.364986 0.153836 0.267993
O O10 0.500000 0.000000 0.000000
O O11 0.061780 0.758647 0.294422
O O12 0.016299 0.680228 0.706069
O O13 0.653338 0.748678 0.536505
O O14 0.865732 0.844898 0.274859
O O15 0.608068 0.116478 0.309774
O O16 0.500000 0.500000 0.000000
O O17 0.000000 0.500000 0.500000
#
# Coordination Sequence:
#
# PCOD9048663 Si02
#       8
#     2   2   2   2   1   2   2   2
#     4  12  25  44  74 105 140 187 238 295 353 427
#     4  12  26  46  72 104 142 188 241 291 359 426
#     4  11  20  43  71  99 141 180 237 295 344 420
#     4  11  25  45  71 104 139 191 237 292 358 422
#     4  12  24  48  64 100 150 178 234 286 356 420
#     4  10  24  45  71 100 141 188 232 292 358 417
#     4  11  25  47  68 104 142 183 234 292 362 418
#     4  11  23  48  73 102 143 189 239 297 354 429
#
# _framework density 24.091028999999999
#
# number of rings (size 3 to 8) (size 9 to 14) (size 15 to 20)
#    0.000    0.800    4.000    3.200    3.733    0.000 
#    7.200    0.000    0.000    0.000    0.000    0.000 
#    0.000    0.000    0.000    0.000    0.000    0.000 
#
# Total GULP energy -83684.884238 kJ/mol
# GULP energy per Si atom -5578.992283 kJ/mol
# Density = 2.403620 g / cm^3
# Si number density = 24.091029 Si / 1000 Ang^3
#
#
#
# Elastic Constant Matrix: (Units=GPa)
#
#
# Indices 1 2 3 4 5 6 
#
# 1 86.9640 35.6874 30.5257 14.1527 21.3453 19.8834
# 2 35.6874 126.4763 53.9032 -14.7219 12.8825 31.0803
# 3 30.5257 53.9032 106.7443 -24.3503 21.1736 11.8382
# 4 14.1527 -14.7219 -24.3503 51.9337 -1.9910 -0.1514
# 5 21.3453 12.8825 21.1736 -1.9910 32.7422 -0.0873
# 6 19.8834 31.0803 11.8382 -0.1514 -0.0873 33.8916
#
#
#
# Elastic Compliance Matrix: (Units=1/GPa)
#
#
# Indices 1 2 3 4 5 6 
#
# 1 0.019047 -0.001714 -0.003404 -0.007682 -0.010031 -0.008474
# 2 -0.001714 0.012841 -0.004295 0.002026 -0.001059 -0.009264
# 3 -0.003404 -0.004295 0.014990 0.006534 -0.005385 0.000715
# 4 -0.007682 0.002026 0.006534 0.025046 0.001510 0.000482
# 5 -0.010031 -0.001059 -0.005385 0.001510 0.041096 0.008850
# 6 -0.008474 -0.009264 0.000715 0.000482 0.008850 0.042748
#
#
# Mechanical properties :
#
#
# Convention : Reuss Voigt Hill
#
# Bulk Modulus (GPa) = 35.64746 62.26861 48.95803
# Shear Modulus (GPa) = 27.18233 37.05138 32.11686
#
# Velocity S-wave (km/s) = 3.36269 3.92596 3.65519
# Velocity P-wave (km/s) = 5.46864 6.81573 6.17900
#
# Compressibility (1/GPa) = 0.02805249
#
# Stress axis : x y z
#
# Youngs Moduli (GPa) = 52.50190 77.87781 66.71163
#
# Poissons Ratio (x) = 0.13344 0.22711
# Poissons Ratio (y) = 0.08996 0.28650
# Poissons Ratio (z) = 0.17874 0.33445
#
# Static dielectric constant tensor:
#      x y z
#    x 1.915880 -0.007700 0.044850 
#    y -0.007700 1.956160 0.018160 
#    z 0.044850 0.018160 1.891320 
# 
# From -- ./inp_files/282948.got.cif
#   From: 2010.05.17/outbox.cif.g08.bks.cpg/sg2_142_cif.got.tgz:282948.got - 2010.06.03 11:33:40.
