data_PCOD9048324
_publ_section_title
;
Structure prediction by ZEFSAII (Michael W. Deem and Ramdas Pophale) SiO2 
 PCOD9048324
Probable space group: P -1
;
_chemical_formula_sum "Si O2"
_cell_formula_units_Z 16
_cell_length_a 9.269965
_cell_length_b 18.863162
_cell_length_c 5.679525
_cell_angle_alpha 117.429339
_cell_angle_beta 53.220356
_cell_angle_gamma 129.670828
_cell_volume 607.293768
_symmetry_space_group_name_H-M "P -1"
_symmetry_group_IT_number 2
_symmetry_cell_setting 'triclinic'
loop_
_space_group_symop_operation_xyz
x,y,z
-x,-y,-z
loop_
_atom_site_type_symbol
_atom_site_label
_atom_site_fract_x
_atom_site_fract_y
_atom_site_fract_z
Si Si1 0.304047 0.549346 0.864319
Si Si2 0.029735 0.921497 0.135351
Si Si3 0.253648 0.246674 0.584527
Si Si4 0.890664 0.419749 0.291141
Si Si5 0.650937 0.102146 0.414228
Si Si6 0.359362 0.103176 0.345455
Si Si7 0.728594 0.656764 0.780585
Si Si8 0.809720 0.303549 0.590500
O O1 0.275048 0.633582 0.122202
O O2 0.092815 0.452564 0.978156
O O3 0.289361 0.568179 0.633570
O O4 0.509531 0.561027 0.801142
O O5 0.969932 0.848219 0.295977
O O6 0.811755 0.918712 0.307050
O O7 0.215791 0.022099 0.180690
O O8 0.118928 0.884225 0.793904
O O9 0.400023 0.201353 0.368521
O O10 0.266924 0.291042 0.387800
O O11 0.284590 0.302443 0.887297
O O12 0.806827 0.321635 0.341695
O O13 0.000000 0.500000 0.500000
O O14 0.555279 0.100089 0.246327
O O15 0.678335 0.197024 0.635434
O O16 0.500000 0.000000 0.500000
O O17 0.944645 0.658172 0.562381
#
# Coordination Sequence:
#
# PCOD9048324 Si02
#       8
#     2   2   2   2   2   2   2   2
#     4  10  24  45  77 107 140 192 235 305 361 449
#     4   9  21  42  60  90 133 183 244 305 350 421
#     4  10  24  45  67 102 141 192 246 300 359 425
#     4   9  22  47  74 107 145 178 245 295 370 441
#     4  12  25  38  64 102 145 190 250 293 361 425
#     4   9  21  41  62  89 130 194 238 311 355 411
#     4  12  26  44  73 108 148 189 242 300 358 448
#     4  11  25  44  70 106 146 197 235 309 362 433
#
# _framework density 26.346392000000002
#
# number of rings (size 3 to 8) (size 9 to 14) (size 15 to 20)
#    0.750    1.000    1.250    1.125    8.750    3.000 
#    0.000    5.625    0.000    0.000    0.000    0.000 
#    0.000    0.000    0.000    0.000    0.000    0.000 
#
# Total GULP energy -89272.713955 kJ/mol
# GULP energy per Si atom -5579.544622 kJ/mol
# Density = 2.628643 g / cm^3
# Si number density = 26.346392 Si / 1000 Ang^3
#
#
#
# Elastic Constant Matrix: (Units=GPa)
#
#
# Indices 1 2 3 4 5 6 
#
# 1 140.3171 22.2555 27.5825 -2.2304 -2.3227 6.8357
# 2 22.2555 96.3344 49.2117 4.2076 -1.7434 -13.8019
# 3 27.5825 49.2117 92.5187 3.8161 7.9989 -3.5749
# 4 -2.2304 4.2076 3.8161 34.4274 3.2456 6.7894
# 5 -2.3227 -1.7434 7.9989 3.2456 35.5896 -7.2864
# 6 6.8357 -13.8019 -3.5749 6.7894 -7.2864 39.3269
#
#
#
# Elastic Compliance Matrix: (Units=1/GPa)
#
#
# Indices 1 2 3 4 5 6 
#
# 1 0.007809 -0.001213 -0.001843 0.001244 0.000320 -0.002106
# 2 -0.001213 0.015880 -0.008080 -0.002743 0.004049 0.006273
# 3 -0.001843 -0.008080 0.015975 -0.000111 -0.004480 -0.001874
# 4 0.001244 -0.002743 -0.000111 0.031353 -0.004406 -0.007418
# 5 0.000320 0.004049 -0.004480 -0.004406 0.031264 0.007511
# 6 -0.002106 0.006273 -0.001874 -0.007418 0.007511 0.030498
#
#
# Mechanical properties :
#
#
# Convention : Reuss Voigt Hill
#
# Bulk Modulus (GPa) = 57.49498 58.58552 58.04025
# Shear Modulus (GPa) = 31.08520 37.21015 34.14767
#
# Velocity S-wave (km/s) = 3.43864 3.76219 3.60405
# Velocity P-wave (km/s) = 6.13480 6.41537 6.27666
#
# Compressibility (1/GPa) = 0.01739282
#
# Stress axis : x y z
#
# Youngs Moduli (GPa) = 128.05622 62.97232 62.59604
#
# Poissons Ratio (x) = 0.07636 0.11539
# Poissons Ratio (y) = 0.15528 0.50576
# Poissons Ratio (z) = 0.23607 0.50880
#
# Static dielectric constant tensor:
#      x y z
#    x 2.063910 0.022810 0.027910 
#    y 0.022810 2.089220 -0.030260 
#    z 0.027910 -0.030260 2.230390 
# 
# From -- ./inp_files/48515.got.cif
#   From: 2010.05.17/outbox.cif.g08.bks.cpg/sg2_25_cif.got.tgz:48515.got - 2010.06.03 11:33:40.
