data_PCOD9048357
_publ_section_title
;
Structure prediction by ZEFSAII (Michael W. Deem and Ramdas Pophale) SiO2 
 PCOD9048357
Probable space group: P -1
;
_chemical_formula_sum "Si O2"
_cell_formula_units_Z 16
_cell_length_a 9.563445
_cell_length_b 11.417096
_cell_length_c 9.318333
_cell_angle_alpha 102.479114
_cell_angle_beta 55.558423
_cell_angle_gamma 129.251118
_cell_volume 633.560577
_symmetry_space_group_name_H-M "P -1"
_symmetry_group_IT_number 2
_symmetry_cell_setting 'triclinic'
loop_
_space_group_symop_operation_xyz
x,y,z
-x,-y,-z
loop_
_atom_site_type_symbol
_atom_site_label
_atom_site_fract_x
_atom_site_fract_y
_atom_site_fract_z
Si Si1 0.473292 0.631388 0.535933
Si Si2 0.846491 0.605818 0.555097
Si Si3 0.198827 0.782549 0.614936
Si Si4 0.587316 0.864415 0.031020
Si Si5 0.551528 0.411994 0.140411
Si Si6 0.810252 0.135842 0.781925
Si Si7 0.314347 0.086644 0.695777
Si Si8 0.027890 0.650004 0.977914
O O1 0.500000 0.500000 0.500000
O O2 0.257679 0.536075 0.533655
O O3 0.460161 0.662309 0.717794
O O4 0.664223 0.785846 0.381021
O O5 0.644801 0.582074 0.741063
O O6 0.011273 0.638496 0.590592
O O7 0.994587 0.763857 0.417352
O O8 0.437640 0.855128 0.440140
O O9 0.170101 0.914765 0.669179
O O10 0.184884 0.739449 0.776878
O O11 0.469593 0.690472 0.003563
O O12 0.739016 0.975229 0.840023
O O13 0.402751 0.886390 0.156904
O O14 0.718846 0.907705 0.114221
O O15 0.785932 0.581370 0.050639
O O16 0.888382 0.240490 0.906223
O O17 0.000000 0.500000 0.000000
#
# Coordination Sequence:
#
# PCOD9048357 Si02
#       8
#     2   2   2   2   2   2   2   2
#     4  10  24  45  67  98 137 183 227 282 348 414
#     4  11  25  46  66 101 139 183 226 286 352 420
#     4  11  26  43  70 106 138 181 231 288 356 408
#     4  11  24  42  68 106 136 182 233 289 344 411
#     4  11  25  44  68  98 139 185 226 285 349 417
#     4  11  23  42  69 101 144 175 236 288 342 419
#     4  11  24  45  71 103 142 177 234 294 342 414
#     4  12  23  42  70 103 137 182 232 286 342 411
#
# _framework density 25.254096000000001
#
# number of rings (size 3 to 8) (size 9 to 14) (size 15 to 20)
#    0.000    1.000    5.000    0.750    3.500    1.500 
#    4.500    0.625    0.000    0.000    0.000    0.000 
#    0.000    0.000    0.000    0.000    0.000    0.000 
#
# Total GULP energy -89607.808730 kJ/mol
# GULP energy per Si atom -5600.488046 kJ/mol
# Density = 2.519662 g / cm^3
# Si number density = 25.254096 Si / 1000 Ang^3
#
#
#
# Elastic Constant Matrix: (Units=GPa)
#
#
# Indices 1 2 3 4 5 6 
#
# 1 73.1439 20.7442 6.7450 8.0285 6.4983 3.6336
# 2 20.7442 97.0372 -1.8960 10.3457 17.5247 3.4222
# 3 6.7450 -1.8960 71.1659 0.7970 14.7360 -6.4244
# 4 8.0285 10.3457 0.7970 38.8327 9.8301 12.9336
# 5 6.4983 17.5247 14.7360 9.8301 37.9593 -7.2520
# 6 3.6336 3.4222 -6.4244 12.9336 -7.2520 38.5733
#
#
#
# Elastic Compliance Matrix: (Units=1/GPa)
#
#
# Indices 1 2 3 4 5 6 
#
# 1 0.014917 -0.002934 -0.001486 -0.001939 -0.000272 -0.000793
# 2 -0.002934 0.012146 0.001694 -0.000730 -0.005836 -0.001371
# 3 -0.001486 0.001694 0.015700 0.000859 -0.006641 0.001068
# 4 -0.001939 -0.000730 0.000859 0.033308 -0.010735 -0.012796
# 5 -0.000272 -0.005836 -0.006641 -0.010735 0.036328 0.009866
# 6 -0.000793 -0.001371 0.001068 -0.012796 0.009866 0.032444
#
#
# Mechanical properties :
#
#
# Convention : Reuss Voigt Hill
#
# Bulk Modulus (GPa) = 26.80114 32.50370 29.65242
# Shear Modulus (GPa) = 30.72554 37.45665 34.09110
#
# Velocity S-wave (km/s) = 3.49184 3.85540 3.67812
# Velocity P-wave (km/s) = 5.18584 5.71991 5.45941
#
# Compressibility (1/GPa) = 0.03731184
#
# Stress axis : x y z
#
# Youngs Moduli (GPa) = 67.03669 82.33289 63.69621
#
# Poissons Ratio (x) = 0.24158 0.09463
# Poissons Ratio (y) = 0.19670 -0.10793
# Poissons Ratio (z) = 0.09959 -0.13951
#
# Static dielectric constant tensor:
#      x y z
#    x 2.074220 -0.022000 -0.026270 
#    y -0.022000 1.974620 -0.037170 
#    z -0.026270 -0.037170 2.011080 
# 
# From -- ./inp_files/273328.got.cif
#   From: 2010.05.17/outbox.cif.g08.bks.cpg/sg2_137_cif.got.tgz:273328.got - 2010.06.03 11:33:40.
