data_PCOD9048045
_publ_section_title
;
Structure prediction by ZEFSAII (Michael W. Deem and Ramdas Pophale) SiO2 
 PCOD9048045
Probable space group: P -1
;
_chemical_formula_sum "Si O2"
_cell_formula_units_Z 16
_cell_length_a 9.283687
_cell_length_b 14.777535
_cell_length_c 9.273976
_cell_angle_alpha 115.244779
_cell_angle_beta 67.433462
_cell_angle_gamma 137.987029
_cell_volume 765.504307
_symmetry_space_group_name_H-M "P -1"
_symmetry_group_IT_number 2
_symmetry_cell_setting 'triclinic'
loop_
_space_group_symop_operation_xyz
x,y,z
-x,-y,-z
loop_
_atom_site_type_symbol
_atom_site_label
_atom_site_fract_x
_atom_site_fract_y
_atom_site_fract_z
Si Si1 0.778092 0.448331 0.692099
Si Si2 0.610033 0.949089 0.857587
Si Si3 0.745796 0.889901 0.043843
Si Si4 0.543682 0.420259 0.021376
Si Si5 0.007072 0.883911 0.397215
Si Si6 0.279158 0.947574 0.612270
Si Si7 0.440607 0.434624 0.637046
Si Si8 0.239706 0.732602 0.631629
O O1 0.642029 0.465288 0.654738
O O2 0.720554 0.314434 0.559436
O O3 0.030620 0.586227 0.678556
O O4 0.710848 0.431302 0.871162
O O5 0.446136 0.828601 0.721651
O O6 0.837269 0.069691 0.768440
O O7 0.644959 0.890478 0.937606
O O8 0.500000 0.000000 0.000000
O O9 0.690598 0.937560 0.231352
O O10 0.664173 0.741870 0.998677
O O11 0.000000 0.000000 0.000000
O O12 0.611328 0.490142 0.197570
O O13 0.500000 0.500000 0.000000
O O14 0.122066 0.893007 0.501691
O O15 0.767652 0.730311 0.380640
O O16 0.000000 0.000000 0.500000
O O17 0.187588 0.823252 0.671655
O O18 0.500000 0.000000 0.500000
O O19 0.500000 0.500000 0.500000
#
# Coordination Sequence:
#
# PCOD9048045 Si02
#       8
#     2   2   2   2   2   2   2   2
#     4  10  24  44  72  95 142 189 236 288 358 434
#     4  12  26  45  72 108 149 183 241 304 361 427
#     4  12  28  44  75 105 143 187 243 297 359 423
#     4  10  26  44  68 100 140 183 236 291 358 425
#     4  12  27  44  76 106 142 188 242 302 355 426
#     4  12  24  45  72 100 142 184 241 285 358 424
#     4  11  26  44  70 104 146 181 240 296 365 421
#     4  11  23  44  73  99 142 191 238 290 362 432
#
# _framework density 20.901254000000002
#
# number of rings (size 3 to 8) (size 9 to 14) (size 15 to 20)
#    0.000    0.750    2.500    3.000   17.500    0.000 
#    0.000    0.625    0.000    0.000    0.000    0.000 
#    0.000    0.000    0.000    0.000    0.000    0.000 
#
# Total GULP energy -89483.815873 kJ/mol
# GULP energy per Si atom -5592.738492 kJ/mol
# Density = 2.085368 g / cm^3
# Si number density = 20.901254 Si / 1000 Ang^3
#
#
#
# Elastic Constant Matrix: (Units=GPa)
#
#
# Indices 1 2 3 4 5 6 
#
# 1 57.2706 17.4069 6.9287 -0.1853 -7.7053 -0.6735
# 2 17.4069 145.4531 58.4127 4.7841 -23.5131 -6.1431
# 3 6.9287 58.4127 139.6000 0.9024 -17.0512 5.2263
# 4 -0.1853 4.7841 0.9024 35.7619 -5.7130 -5.1810
# 5 -7.7053 -23.5131 -17.0512 -5.7130 29.1023 -2.6943
# 6 -0.6735 -6.1431 5.2263 -5.1810 -2.6943 28.6838
#
#
#
# Elastic Compliance Matrix: (Units=1/GPa)
#
#
# Indices 1 2 3 4 5 6 
#
# 1 0.018482 -0.001681 0.000238 0.001027 0.003930 0.000585
# 2 -0.001681 0.009427 -0.003301 0.000155 0.005558 0.003131
# 3 0.000238 -0.003301 0.008911 0.000322 0.002492 -0.002033
# 4 0.001027 0.000155 0.000322 0.029940 0.007025 0.006066
# 5 0.003930 0.005558 0.002492 0.007025 0.043303 0.006165
# 6 0.000585 0.003131 -0.002033 0.006066 0.006165 0.037592
#
#
# Mechanical properties :
#
#
# Convention : Reuss Voigt Hill
#
# Bulk Modulus (GPa) = 36.58638 56.42449 46.50543
# Shear Modulus (GPa) = 30.07432 36.01462 33.04447
#
# Velocity S-wave (km/s) = 3.79737 4.15551 3.98047
# Velocity P-wave (km/s) = 6.06375 7.07663 6.58968
#
# Compressibility (1/GPa) = 0.02733258
#
# Stress axis : x y z
#
# Youngs Moduli (GPa) = 54.10634 106.07422 112.22078
#
# Poissons Ratio (x) = 0.17830 -0.02666
# Poissons Ratio (y) = 0.09095 0.37039
# Poissons Ratio (z) = -0.01285 0.35011
#
# Static dielectric constant tensor:
#      x y z
#    x 1.697450 0.048390 -0.064110 
#    y 0.048390 1.670230 0.021220 
#    z -0.064110 0.021220 1.736290 
# 
# From -- ./inp_files/208254.got.cif
#   From: 2010.05.17/outbox.cif.g08.bks.cpg/sg2_105_cif.got.tgz:208254.got - 2010.06.03 11:33:40.
