data_PCOD9048525
_publ_section_title
;
Structure prediction by ZEFSAII (Michael W. Deem and Ramdas Pophale) SiO2 
 PCOD9048525
Probable space group: P -1
;
_chemical_formula_sum "Si O2"
_cell_formula_units_Z 16
_cell_length_a 13.288029
_cell_length_b 8.448108
_cell_length_c 11.737046
_cell_angle_alpha 94.151738
_cell_angle_beta 97.767902
_cell_angle_gamma 146.886617
_cell_volume 669.949142
_symmetry_space_group_name_H-M "P -1"
_symmetry_group_IT_number 2
_symmetry_cell_setting 'triclinic'
loop_
_space_group_symop_operation_xyz
x,y,z
-x,-y,-z
loop_
_atom_site_type_symbol
_atom_site_label
_atom_site_fract_x
_atom_site_fract_y
_atom_site_fract_z
Si Si1 0.724676 0.332268 0.863642
Si Si2 0.681694 0.355857 0.593488
Si Si3 0.954227 0.078124 0.911103
Si Si4 0.236093 0.433369 0.783838
Si Si5 0.644569 0.890549 0.916346
Si Si6 0.769440 0.731796 0.463571
Si Si7 0.688134 0.092653 0.167542
Si Si8 0.096902 0.781369 0.587136
O O1 0.709766 0.375338 0.734506
O O2 0.543312 0.180773 0.885843
O O3 0.684995 0.091297 0.847650
O O4 0.906268 0.602194 0.991461
O O5 0.663573 0.507120 0.542291
O O6 0.898560 0.596953 0.594577
O O7 0.500000 0.000000 0.500000
O O8 0.030297 0.126371 0.801088
O O9 0.735446 0.853627 0.876352
O O10 0.000000 0.000000 0.000000
O O11 0.410954 0.582317 0.888274
O O12 0.293951 0.443132 0.670322
O O13 0.234505 0.622893 0.792146
O O14 0.743511 0.074392 0.060547
O O15 0.778348 0.933336 0.459699
O O16 0.000000 0.000000 0.500000
O O17 0.761836 0.088912 0.284056
O O18 0.000000 0.500000 0.500000
#
# Coordination Sequence:
#
# PCOD9048525 Si02
#       8
#     2   2   2   2   2   2   2   2
#     4  11  22  44  66 101 134 174 232 290 345 416
#     4  11  23  43  69  98 139 182 236 294 349 412
#     4  12  27  39  65 104 138 182 229 287 349 414
#     4  11  23  45  70  98 141 179 233 288 352 419
#     4  11  23  44  68 101 139 183 228 282 357 414
#     4  10  24  45  69  96 138 188 232 291 351 418
#     4  11  21  42  72  97 135 182 229 287 350 422
#     4  11  24  43  69  99 130 189 239 282 356 419
#
# _framework density 23.882411000000001
#
# number of rings (size 3 to 8) (size 9 to 14) (size 15 to 20)
#    0.000    1.000    2.500    5.625    7.000    1.500 
#    0.000    2.500    0.000    0.000    0.000    0.000 
#    0.000    0.000    0.000    0.000    0.000    0.000 
#
# Total GULP energy -89262.541019 kJ/mol
# GULP energy per Si atom -5578.908814 kJ/mol
# Density = 2.382805 g / cm^3
# Si number density = 23.882411 Si / 1000 Ang^3
#
#
#
# Elastic Constant Matrix: (Units=GPa)
#
#
# Indices 1 2 3 4 5 6 
#
# 1 105.3755 26.5500 -7.0399 -17.5448 15.7224 -1.1264
# 2 26.5500 45.6829 3.4377 -19.3096 -0.0919 -6.8825
# 3 -7.0399 3.4377 73.8386 -16.7719 3.7383 -22.6324
# 4 -17.5448 -19.3096 -16.7719 42.0733 1.5902 4.9247
# 5 15.7224 -0.0919 3.7383 1.5902 35.3458 2.1492
# 6 -1.1264 -6.8825 -22.6324 4.9247 2.1492 16.4951
#
#
#
# Elastic Compliance Matrix: (Units=1/GPa)
#
#
# Indices 1 2 3 4 5 6 
#
# 1 0.012832 -0.005463 0.003813 0.004210 -0.006523 0.003421
# 2 -0.005463 0.032995 0.006645 0.013343 0.000087 0.018516
# 3 0.003813 0.006645 0.029037 0.011783 -0.007734 0.040364
# 4 0.004210 0.013343 0.011783 0.035116 -0.005408 0.012242
# 5 -0.006523 0.000087 -0.007734 -0.005408 0.033089 -0.013718
# 6 0.003421 0.018516 0.040364 0.012242 -0.013718 0.122098
#
#
# Mechanical properties :
#
#
# Convention : Reuss Voigt Hill
#
# Bulk Modulus (GPa) = 11.78500 30.08805 20.93653
# Shear Modulus (GPa) = 17.63916 32.24611 24.94264
#
# Velocity S-wave (km/s) = 2.72064 3.67850 3.23521
# Velocity P-wave (km/s) = 3.84896 5.53783 4.76875
#
# Compressibility (1/GPa) = 0.08485360
#
# Stress axis : x y z
#
# Youngs Moduli (GPa) = 77.93239 30.30799 34.43874
#
# Poissons Ratio (x) = 0.16556 -0.13131
# Poissons Ratio (y) = 0.42572 -0.22884
# Poissons Ratio (z) = -0.29715 -0.20139
#
# Static dielectric constant tensor:
#      x y z
#    x 2.196830 -0.321940 -0.668310 
#    y -0.321940 2.289920 0.719800 
#    z -0.668310 0.719800 3.820300 
# 
# From -- ./inp_files/447528.got.cif
#   From: 2010.05.17/outbox.cif.g08.bks.cpg/sg2_224_cif.got.tgz:447528.got - 2010.06.03 11:33:40.
