data_PCOD9048244
_publ_section_title
;
Structure prediction by ZEFSAII (Michael W. Deem and Ramdas Pophale) SiO2 
 PCOD9048244
Probable space group: P -1
;
_chemical_formula_sum "Si O2"
_cell_formula_units_Z 11
_cell_length_a 7.631892
_cell_length_b 13.205090
_cell_length_c 5.336006
_cell_angle_alpha 80.283846
_cell_angle_beta 88.679737
_cell_angle_gamma 130.726667
_cell_volume 395.253037
_symmetry_space_group_name_H-M "P -1"
_symmetry_group_IT_number 2
_symmetry_cell_setting 'triclinic'
loop_
_space_group_symop_operation_xyz
x,y,z
-x,-y,-z
loop_
_atom_site_type_symbol
_atom_site_label
_atom_site_fract_x
_atom_site_fract_y
_atom_site_fract_z
Si Si1 0.277346 0.217526 0.975955
Si Si2 0.179068 0.326613 0.545468
Si Si3 0.500000 0.500000 0.000000
Si Si4 0.128557 0.943275 0.587492
Si Si5 0.493621 0.883502 0.146281
Si Si6 0.012701 0.573406 0.217927
O O1 0.300210 0.272140 0.673446
O O2 0.456519 0.356811 0.063359
O O3 0.325455 0.117335 0.014645
O O4 0.020043 0.142821 0.119404
O O5 0.931577 0.179958 0.527306
O O6 0.177444 0.406117 0.749387
O O7 0.310552 0.433502 0.273710
O O8 0.604366 0.931392 0.400881
O O9 0.000000 0.000000 0.500000
O O10 0.253927 0.730240 0.170359
O O11 0.500000 0.000000 0.000000
O O12 0.000000 0.500000 0.500000
O O13 0.000000 0.500000 0.000000
#
# Coordination Sequence:
#
# PCOD9048244 Si02
#       6
#     2   2   1   2   2   2
#     4  11  24  46  77 118 162 220 287 356 421 517
#     4  11  25  49  82 118 166 224 287 358 427 520
#     4  10  24  44  84 118 162 220 298 344 430 510
#     4  11  25  47  79 119 163 218 292 352 419 521
#     4  12  28  50  83 123 171 232 283 358 447 517
#     4  12  32  56  81 124 181 231 289 363 449 529
#
# _framework density 27.830273999999999
#
# number of rings (size 3 to 8) (size 9 to 14) (size 15 to 20)
#    0.000    0.727    1.818    3.273   12.727    2.182 
#    0.000    0.000    0.000    0.000    0.000    0.000 
#    0.000    0.000    0.000    0.000    0.000    0.000 
#
# Total GULP energy -61414.466763 kJ/mol
# GULP energy per Si atom -5583.133342 kJ/mol
# Density = 2.776693 g / cm^3
# Si number density = 27.830274 Si / 1000 Ang^3
#
#
#
# Elastic Constant Matrix: (Units=GPa)
#
#
# Indices 1 2 3 4 5 6 
#
# 1 87.1944 65.8701 21.1471 9.6829 3.2728 -16.4974
# 2 65.8701 289.9139 76.6696 40.4273 -4.6040 5.1203
# 3 21.1471 76.6696 161.9021 11.8042 1.5331 -15.1794
# 4 9.6829 40.4273 11.8042 59.6202 -10.4620 -2.9550
# 5 3.2728 -4.6040 1.5331 -10.4620 36.3233 -1.3460
# 6 -16.4974 5.1203 -15.1794 -2.9550 -1.3460 68.1995
#
#
#
# Elastic Compliance Matrix: (Units=1/GPa)
#
#
# Indices 1 2 3 4 5 6 
#
# 1 0.014882 -0.003474 0.000091 -0.000187 -0.001697 0.003839
# 2 -0.003474 0.005155 -0.001967 -0.002588 0.000238 -0.001773
# 3 0.000091 -0.001967 0.007277 -0.000128 -0.000536 0.001773
# 4 -0.000187 -0.002588 -0.000128 0.019579 0.005373 0.001075
# 5 -0.001697 0.000238 -0.000536 0.005373 0.029294 0.000263
# 6 0.003839 -0.001773 0.001773 0.001075 0.000263 0.016171
#
#
# Mechanical properties :
#
#
# Convention : Reuss Voigt Hill
#
# Bulk Modulus (GPa) = 60.19322 96.26489 78.22905
# Shear Modulus (GPa) = 46.04243 57.85017 51.94630
#
# Velocity S-wave (km/s) = 4.07185 4.56420 4.32503
# Velocity P-wave (km/s) = 6.61681 7.90196 7.28777
#
# Compressibility (1/GPa) = 0.01661317
#
# Stress axis : x y z
#
# Youngs Moduli (GPa) = 67.19624 193.99559 137.42199
#
# Poissons Ratio (x) = 0.67394 -0.01250
# Poissons Ratio (y) = 0.23344 0.27032
# Poissons Ratio (z) = -0.00611 0.38161
#
# Static dielectric constant tensor:
#      x y z
#    x 2.088300 -0.013970 -0.173000 
#    y -0.013970 2.056950 0.010210 
#    z -0.173000 0.010210 2.219730 
# 
# From -- ./inp_files/21923.got.cif
#   From: 2010.05.17/outbox.cif.g08.bks.cpg/sg2_11_cif.got.tgz:21923.got - 2010.06.03 11:33:40.
