data_PCOD9048157
_publ_section_title
;
Structure prediction by ZEFSAII (Michael W. Deem and Ramdas Pophale) SiO2 
 PCOD9048157
Probable space group: P -1
;
_chemical_formula_sum "Si O2"
_cell_formula_units_Z 13
_cell_length_a 11.729240
_cell_length_b 9.215061
_cell_length_c 14.987690
_cell_angle_alpha 119.712083
_cell_angle_beta 27.210657
_cell_angle_gamma 128.375590
_cell_volume 573.463755
_symmetry_space_group_name_H-M "P -1"
_symmetry_group_IT_number 2
_symmetry_cell_setting 'triclinic'
loop_
_space_group_symop_operation_xyz
x,y,z
-x,-y,-z
loop_
_atom_site_type_symbol
_atom_site_label
_atom_site_fract_x
_atom_site_fract_y
_atom_site_fract_z
Si Si1 0.231361 0.931417 0.795991
Si Si2 0.260283 0.716651 0.539987
Si Si3 0.684949 0.621469 0.632648
Si Si4 0.703281 0.619585 0.818636
Si Si5 0.794719 0.025344 0.841952
Si Si6 0.000000 0.000000 0.500000
Si Si7 0.784219 0.281479 0.077067
O O1 0.165918 0.788987 0.715150
O O2 0.260582 0.828513 0.832923
O O3 0.505445 0.111457 0.624771
O O4 0.000000 0.000000 0.000000
O O5 0.356881 0.558295 0.448345
O O6 0.995134 0.616676 0.630316
O O7 0.587973 0.554447 0.779965
O O8 0.514243 0.733279 0.752069
O O9 0.990663 0.795571 0.474768
O O10 0.753355 0.832982 0.856753
O O11 0.500000 0.500000 0.000000
O O12 0.888658 0.185648 0.899440
O O13 0.984501 0.054009 0.632796
O O14 0.500000 0.000000 0.000000
O O15 0.000000 0.500000 0.000000
#
# Coordination Sequence:
#
# PCOD9048157 Si02
#       7
#     2   2   2   2   2   1   2
#     4  11  27  51  75 103 149 192 245 304 370 447
#     4  11  27  47  74 106 145 196 247 298 373 441
#     4  11  26  45  70 110 142 190 248 300 377 425
#     4  11  26  43  76 106 145 194 245 309 362 433
#     4  11  24  47  71 104 146 189 245 299 370 425
#     4  10  24  44  74  98 150 180 242 308 350 434
#     4  12  27  45  77 108 149 194 241 307 374 440
#
# _framework density 22.669262
#
# number of rings (size 3 to 8) (size 9 to 14) (size 15 to 20)
#    0.000    0.923    3.077    2.308   15.077    1.846 
#    0.000    0.000    0.000    0.000    0.000    0.000 
#    0.000    0.000    0.000    0.000    0.000    0.000 
#
# Total GULP energy -72484.128206 kJ/mol
# GULP energy per Si atom -5575.702170 kJ/mol
# Density = 2.261767 g / cm^3
# Si number density = 22.669262 Si / 1000 Ang^3
#
#
#
# Elastic Constant Matrix: (Units=GPa)
#
#
# Indices 1 2 3 4 5 6 
#
# 1 106.0226 30.5517 54.5980 14.0707 37.1131 -15.4059
# 2 30.5517 126.8279 51.3041 29.5391 44.7175 4.2282
# 3 54.5980 51.3041 111.5106 9.4448 44.5434 -1.2106
# 4 14.0707 29.5391 9.4448 33.1797 -3.0156 9.7744
# 5 37.1131 44.7175 44.5434 -3.0156 43.9525 3.7657
# 6 -15.4059 4.2282 -1.2106 9.7744 3.7657 43.6593
#
#
#
# Elastic Compliance Matrix: (Units=1/GPa)
#
#
# Indices 1 2 3 4 5 6 
#
# 1 0.029247 0.018233 -0.000111 -0.039255 -0.047665 0.021451
# 2 0.018233 0.033280 0.003038 -0.049105 -0.057352 0.019235
# 3 -0.000111 0.003038 0.017193 -0.010813 -0.021543 0.004422
# 4 -0.039255 -0.049105 -0.010813 0.116333 0.105864 -0.044571
# 5 -0.047665 -0.057352 -0.021543 0.105864 0.154635 -0.048901
# 6 0.021451 0.019235 0.004422 -0.044571 -0.048901 0.042930
#
#
# Mechanical properties :
#
#
# Convention : Reuss Voigt Hill
#
# Bulk Modulus (GPa) = 8.19395 68.58540 38.38968
# Shear Modulus (GPa) = 12.75585 38.01878 25.38732
#
# Velocity S-wave (km/s) = 2.37469 4.09969 3.35012
# Velocity P-wave (km/s) = 3.33786 7.26157 5.65118
#
# Compressibility (1/GPa) = 0.12204121
#
# Stress axis : x y z
#
# Youngs Moduli (GPa) = 34.19209 30.04779 58.16173
#
# Poissons Ratio (x) = -0.54786 0.00645
# Poissons Ratio (y) = -0.62342 -0.17672
# Poissons Ratio (z) = 0.00379 -0.09130
#
# Static dielectric constant tensor:
#      x y z
#    x 1.856810 -0.068050 -0.015580 
#    y -0.068050 1.941670 0.002150 
#    z -0.015580 0.002150 1.819420 
# 
# From -- ./inp_files/513413.got.cif
#   From: 2010.05.17/outbox.cif.g08.bks.cpg/sg2_257_cif.got.tgz:513413.got - 2010.06.03 11:33:40.
