data_PCOD9048677
_publ_section_title
;
Structure prediction by ZEFSAII (Michael W. Deem and Ramdas Pophale) SiO2 
 PCOD9048677
Probable space group: P -1
;
_chemical_formula_sum "Si O2"
_cell_formula_units_Z 16
_cell_length_a 8.558526
_cell_length_b 14.470020
_cell_length_c 12.158627
_cell_angle_alpha 64.016574
_cell_angle_beta 120.796501
_cell_angle_gamma 66.046752
_cell_volume 671.640175
_symmetry_space_group_name_H-M "P -1"
_symmetry_group_IT_number 2
_symmetry_cell_setting 'triclinic'
loop_
_space_group_symop_operation_xyz
x,y,z
-x,-y,-z
loop_
_atom_site_type_symbol
_atom_site_label
_atom_site_fract_x
_atom_site_fract_y
_atom_site_fract_z
Si Si1 0.325590 0.666022 0.920294
Si Si2 0.936733 0.472330 0.665061
Si Si3 0.502341 0.233501 0.460647
Si Si4 0.348380 0.072491 0.561497
Si Si5 0.398465 0.384085 0.744954
Si Si6 0.385141 0.824837 0.712641
Si Si7 0.098178 0.012952 0.921592
Si Si8 0.380935 0.078167 0.038578
O O1 0.462708 0.710035 0.897461
O O2 0.966426 0.808780 0.681952
O O3 0.500000 0.500000 0.000000
O O4 0.391661 0.640534 0.087523
O O5 0.751399 0.595122 0.641494
O O6 0.703863 0.532572 0.456234
O O7 0.086094 0.501817 0.640869
O O8 0.213987 0.263692 0.896204
O O9 0.478017 0.120580 0.535107
O O10 0.492972 0.271346 0.310664
O O11 0.846319 0.111798 0.685290
O O12 0.508492 0.885276 0.715853
O O13 0.356537 0.076302 0.696291
O O14 0.584824 0.190473 0.896324
O O15 0.000000 0.000000 0.500000
O O16 0.106568 0.122042 0.917192
O O17 0.000000 0.000000 0.000000
O O18 0.500000 0.000000 0.000000
#
# Coordination Sequence:
#
# PCOD9048677 Si02
#       8
#     2   2   2   2   2   2   2   2
#     4  11  25  44  73 104 146 193 239 302 365 435
#     4  11  25  44  74 109 144 190 240 312 359 431
#     4  12  25  47  74 108 149 189 253 306 369 427
#     4  11  24  46  69 107 142 195 243 293 371 435
#     4  11  23  46  71 103 150 187 243 291 372 432
#     4  10  24  45  71 102 141 191 241 289 357 448
#     4  12  23  44  68 106 140 190 239 300 361 437
#     4  12  26  43  75 106 146 194 245 298 371 441
#
# _framework density 23.822279000000002
#
# number of rings (size 3 to 8) (size 9 to 14) (size 15 to 20)
#    0.000    0.750    3.750    3.375    7.000    0.500 
#    2.250    4.375    0.000    0.000    0.000    0.000 
#    0.000    0.000    0.000    0.000    0.000    0.000 
#
# Total GULP energy -89192.980587 kJ/mol
# GULP energy per Si atom -5574.561287 kJ/mol
# Density = 2.376806 g / cm^3
# Si number density = 23.822279 Si / 1000 Ang^3
#
#
#
# Elastic Constant Matrix: (Units=GPa)
#
#
# Indices 1 2 3 4 5 6 
#
# 1 62.2466 31.6964 -1.1257 5.9487 -8.1162 -3.0582
# 2 31.6964 121.8696 40.1949 8.4763 -3.6558 -12.1782
# 3 -1.1257 40.1949 88.8230 23.8679 2.7469 -5.7873
# 4 5.9487 8.4763 23.8679 53.2191 4.8911 0.4518
# 5 -8.1162 -3.6558 2.7469 4.8911 14.6926 0.2063
# 6 -3.0582 -12.1782 -5.7873 0.4518 0.2063 54.2313
#
#
#
# Elastic Compliance Matrix: (Units=1/GPa)
#
#
# Indices 1 2 3 4 5 6 
#
# 1 0.021042 -0.006100 0.003804 -0.004076 0.010748 0.000216
# 2 -0.006100 0.011731 -0.005634 0.001313 0.000142 0.001678
# 3 0.003804 -0.005634 0.015663 -0.006553 -0.000057 0.000676
# 4 -0.004076 0.001313 -0.006553 0.022741 -0.008259 -0.000792
# 5 0.010748 0.000142 -0.000057 -0.008259 0.076788 0.000409
# 6 0.000216 0.001678 0.000676 -0.000792 0.000409 0.018906
#
#
# Mechanical properties :
#
#
# Convention : Reuss Voigt Hill
#
# Bulk Modulus (GPa) = 30.69745 46.05225 38.37485
# Shear Modulus (GPa) = 25.82813 37.90685 31.86749
#
# Velocity S-wave (km/s) = 3.29629 3.99336 3.66145
# Velocity P-wave (km/s) = 5.23463 6.37464 5.83256
#
# Compressibility (1/GPa) = 0.03257600
#
# Stress axis : x y z
#
# Youngs Moduli (GPa) = 47.52502 85.24734 63.84671
#
# Poissons Ratio (x) = 0.51998 -0.24287
# Poissons Ratio (y) = 0.28989 0.35968
# Poissons Ratio (z) = -0.18078 0.48025
#
# Static dielectric constant tensor:
#      x y z
#    x 1.823540 -0.016130 0.018670 
#    y -0.016130 1.925820 0.089380 
#    z 0.018670 0.089380 1.933920 
# 
# From -- ./inp_files/398979.got.cif
#   From: 2010.05.17/outbox.cif.g08.bks.cpg/sg2_200_cif.got.tgz:398979.got - 2010.06.03 11:33:40.
