data_PCOD9048151
_publ_section_title
;
Structure prediction by ZEFSAII (Michael W. Deem and Ramdas Pophale) SiO2 
 PCOD9048151
Probable space group: P -1
;
_chemical_formula_sum "Si O2"
_cell_formula_units_Z 14
_cell_length_a 18.605913
_cell_length_b 11.709704
_cell_length_c 4.772173
_cell_angle_alpha 80.180518
_cell_angle_beta 103.053608
_cell_angle_gamma 151.129322
_cell_volume 488.215156
_symmetry_space_group_name_H-M "P -1"
_symmetry_group_IT_number 2
_symmetry_cell_setting 'triclinic'
loop_
_space_group_symop_operation_xyz
x,y,z
-x,-y,-z
loop_
_atom_site_type_symbol
_atom_site_label
_atom_site_fract_x
_atom_site_fract_y
_atom_site_fract_z
Si Si1 0.314108 0.092256 0.815530
Si Si2 0.591810 0.237363 0.139665
Si Si3 0.336414 0.916488 0.495537
Si Si4 0.744992 0.783478 0.667549
Si Si5 0.500000 0.500000 0.000000
Si Si6 0.000000 0.500000 0.500000
Si Si7 0.223745 0.430343 0.348548
Si Si8 0.974720 0.264674 0.997742
O O1 0.328139 0.247820 0.651885
O O2 0.363410 0.063916 0.658927
O O3 0.409441 0.251438 0.106528
O O4 0.136457 0.831612 0.823956
O O5 0.627570 0.151985 0.274930
O O6 0.716981 0.479160 0.324452
O O7 0.433746 0.043821 0.242694
O O8 0.640707 0.337414 0.827209
O O9 0.158464 0.688129 0.379679
O O10 0.813901 0.754791 0.662726
O O11 0.867376 0.036001 0.805710
O O12 0.610282 0.577820 0.847543
O O13 0.040932 0.450616 0.775936
O O14 0.089226 0.334656 0.215199
#
# Coordination Sequence:
#
# PCOD9048151 Si02
#       8
#     2   2   2   2   1   1   2   2
#     4  11  25  46  77 116 153 203 263 331 389 478
#     4  11  29  51  79 116 156 214 261 328 395 473
#     4  11  26  50  79 112 159 198 276 320 395 464
#     4  11  25  45  74 112 154 205 261 323 397 473
#     4  10  24  44  74 112 154 200 258 318 404 458
#     4  12  24  50  74 110 152 204 262 322 390 464
#     4  12  28  50  80 111 165 208 263 322 403 472
#     4  11  27  47  75 115 153 208 267 322 401 464
#
# _framework density 28.675879999999999
#
# number of rings (size 3 to 8) (size 9 to 14) (size 15 to 20)
#    0.000    0.857    2.857    1.714   10.000    5.714 
#    0.000    0.000    0.000    0.000    0.000    0.000 
#    0.000    0.000    0.000    0.000    0.000    0.000 
#
# Total GULP energy -78251.113553 kJ/mol
# GULP energy per Si atom -5589.365254 kJ/mol
# Density = 2.861061 g / cm^3
# Si number density = 28.675880 Si / 1000 Ang^3
#
#
#
# Elastic Constant Matrix: (Units=GPa)
#
#
# Indices 1 2 3 4 5 6 
#
# 1 203.1180 46.8157 35.8949 -11.5363 1.7911 12.2062
# 2 46.8157 93.5978 -5.6716 4.0529 -3.8062 24.7330
# 3 35.8949 -5.6716 90.2654 -6.5441 3.9964 -1.5457
# 4 -11.5363 4.0529 -6.5441 27.5559 -6.3883 -2.3808
# 5 1.7911 -3.8062 3.9964 -6.3883 47.1916 0.6834
# 6 12.2062 24.7330 -1.5457 -2.3808 0.6834 46.9270
#
#
#
# Elastic Compliance Matrix: (Units=1/GPa)
#
#
# Indices 1 2 3 4 5 6 
#
# 1 0.006306 -0.003482 -0.002537 0.002580 0.000040 0.000242
# 2 -0.003482 0.014546 0.001888 -0.003567 0.000762 -0.006891
# 3 -0.002537 0.001888 0.012341 0.001465 -0.000600 0.000154
# 4 0.002580 -0.003567 0.001465 0.039634 0.004809 0.003198
# 5 0.000040 0.000762 -0.000600 0.004809 0.021959 -0.000508
# 6 0.000242 -0.006891 0.000154 0.003198 -0.000508 0.025054
#
#
# Mechanical properties :
#
#
# Convention : Reuss Voigt Hill
#
# Bulk Modulus (GPa) = 40.10838 60.11770 50.11304
# Shear Modulus (GPa) = 36.65382 44.99771 40.82577
#
# Velocity S-wave (km/s) = 3.57909 3.96559 3.77728
# Velocity P-wave (km/s) = 5.57647 6.47904 6.04462
#
# Compressibility (1/GPa) = 0.02493245
#
# Stress axis : x y z
#
# Youngs Moduli (GPa) = 158.58765 68.74646 81.02841
#
# Poissons Ratio (x) = 0.23935 0.20556
# Poissons Ratio (y) = 0.55213 -0.15299
# Poissons Ratio (z) = 0.40232 -0.12980
#
# Static dielectric constant tensor:
#      x y z
#    x 2.330340 0.100990 0.121980 
#    y 0.100990 3.321750 1.493880 
#    z 0.121980 1.493880 4.198610 
# 
# From -- ./inp_files/71772.got.cif
#   From: 2010.05.17/outbox.cif.g08.bks.cpg/sg2_36_cif.got.tgz:71772.got - 2010.06.03 11:33:40.
