data_PCOD9048511
_publ_section_title
;
Structure prediction by ZEFSAII (Michael W. Deem and Ramdas Pophale) SiO2 
 PCOD9048511
Probable space group: P -1
;
_chemical_formula_sum "Si O2"
_cell_formula_units_Z 16
_cell_length_a 5.349173
_cell_length_b 17.212171
_cell_length_c 12.969264
_cell_angle_alpha 44.642774
_cell_angle_beta 58.943751
_cell_angle_gamma 54.313668
_cell_volume 670.792391
_symmetry_space_group_name_H-M "P -1"
_symmetry_group_IT_number 2
_symmetry_cell_setting 'triclinic'
loop_
_space_group_symop_operation_xyz
x,y,z
-x,-y,-z
loop_
_atom_site_type_symbol
_atom_site_label
_atom_site_fract_x
_atom_site_fract_y
_atom_site_fract_z
Si Si1 0.740728 0.279565 0.488535
Si Si2 0.694249 0.640625 0.690244
Si Si3 0.789662 0.229049 0.173499
Si Si4 0.348359 0.725913 0.070024
Si Si5 0.990072 0.570750 0.040398
Si Si6 0.867528 0.981391 0.434643
Si Si7 0.677280 0.813819 0.211584
Si Si8 0.632520 0.048155 0.059279
O O1 0.514483 0.344191 0.381076
O O2 0.521570 0.264354 0.641012
O O3 0.979016 0.341752 0.414351
O O4 0.946550 0.147378 0.529462
O O5 0.509741 0.741038 0.717896
O O6 0.759383 0.518297 0.852652
O O7 0.922051 0.089148 0.260334
O O8 0.728947 0.285391 0.021009
O O9 0.968956 0.306429 0.115591
O O10 0.660742 0.615663 0.128554
O O11 0.416646 0.848521 0.946570
O O12 0.046849 0.743542 0.187837
O O13 0.000000 0.500000 0.000000
O O14 0.500000 0.000000 0.500000
O O15 0.000000 0.000000 0.500000
O O16 0.565334 0.881240 0.063082
O O17 0.592711 0.923851 0.206383
O O18 0.000000 0.000000 0.000000
#
# Coordination Sequence:
#
# PCOD9048511 Si02
#       8
#     2   2   2   2   2   2   2   2
#     4  12  27  47  75 104 160 195 240 304 374 468
#     4  12  27  49  72 110 145 202 249 299 379 441
#     4  12  26  45  75 110 146 190 248 314 379 434
#     4  11  25  43  74 107 143 184 255 311 365 434
#     4  12  27  47  78 105 148 194 257 319 365 431
#     4  12  26  45  69 112 154 190 242 296 382 467
#     4  10  24  45  69 108 144 202 241 302 375 441
#     4   9  21  42  69 102 146 187 251 298 362 440
#
# _framework density 23.852388000000001
#
# number of rings (size 3 to 8) (size 9 to 14) (size 15 to 20)
#    0.000    0.750    3.750    1.875   14.000    0.000 
#    0.000    1.250    0.000    0.000    0.000    0.000 
#    0.000    0.000    0.000    0.000    0.000    0.000 
#
# Total GULP energy -89477.880596 kJ/mol
# GULP energy per Si atom -5592.367537 kJ/mol
# Density = 2.379810 g / cm^3
# Si number density = 23.852388 Si / 1000 Ang^3
#
#
#
# Elastic Constant Matrix: (Units=GPa)
#
#
# Indices 1 2 3 4 5 6 
#
# 1 93.6234 34.8720 24.6468 -7.7011 -15.0263 -14.2175
# 2 34.8720 85.1177 12.9365 -5.7282 -11.0446 -16.0680
# 3 24.6468 12.9365 91.3970 -6.0016 -25.5575 -12.9159
# 4 -7.7011 -5.7282 -6.0016 36.7121 -4.6921 -5.9489
# 5 -15.0263 -11.0446 -25.5575 -4.6921 44.0668 -5.7233
# 6 -14.2175 -16.0680 -12.9159 -5.9489 -5.7233 46.3975
#
#
#
# Elastic Compliance Matrix: (Units=1/GPa)
#
#
# Indices 1 2 3 4 5 6 
#
# 1 0.013958 -0.004217 -0.001521 0.002997 0.003557 0.003216
# 2 -0.004217 0.014969 0.000998 0.002920 0.003855 0.005019
# 3 -0.001521 0.000998 0.015038 0.004479 0.009688 0.005835
# 4 0.002997 0.002920 0.004479 0.031524 0.008786 0.008302
# 5 0.003557 0.003855 0.009688 0.008786 0.032762 0.010290
# 6 0.003216 0.005019 0.005835 0.008302 0.010290 0.028235
#
#
# Mechanical properties :
#
#
# Convention : Reuss Voigt Hill
#
# Bulk Modulus (GPa) = 28.99911 46.11655 37.55783
# Shear Modulus (GPa) = 31.75391 38.61413 35.18402
#
# Velocity S-wave (km/s) = 3.65261 4.02789 3.84483
# Velocity P-wave (km/s) = 5.47475 6.40375 5.95739
#
# Compressibility (1/GPa) = 0.03448382
#
# Stress axis : x y z
#
# Youngs Moduli (GPa) = 71.64286 66.80609 66.49894
#
# Poissons Ratio (x) = 0.28171 0.10115
# Poissons Ratio (y) = 0.30211 -0.06633
# Poissons Ratio (z) = 0.10897 -0.06664
#
# Static dielectric constant tensor:
#      x y z
#    x 2.049960 -0.057200 -0.052350 
#    y -0.057200 1.964270 -0.017880 
#    z -0.052350 -0.017880 1.934780 
# 
# From -- ./inp_files/485192.got.cif
#   From: 2010.05.17/outbox.cif.g08.bks.cpg/sg2_243_cif.got.tgz:485192.got - 2010.06.03 11:33:40.
