data_PCOD9048069
_publ_section_title
;
Structure prediction by ZEFSAII (Michael W. Deem and Ramdas Pophale) SiO2 
 PCOD9048069
Probable space group: P -1
;
_chemical_formula_sum "Si O2"
_cell_formula_units_Z 14
_cell_length_a 17.648143
_cell_length_b 6.853895
_cell_length_c 7.080486
_cell_angle_alpha 65.043961
_cell_angle_beta 128.215580
_cell_angle_gamma 94.699478
_cell_volume 590.478008
_symmetry_space_group_name_H-M "P -1"
_symmetry_group_IT_number 2
_symmetry_cell_setting 'triclinic'
loop_
_space_group_symop_operation_xyz
x,y,z
-x,-y,-z
loop_
_atom_site_type_symbol
_atom_site_label
_atom_site_fract_x
_atom_site_fract_y
_atom_site_fract_z
Si Si1 0.483627 0.264447 0.326763
Si Si2 0.813801 0.788283 0.577325
Si Si3 0.400560 0.099529 0.922590
Si Si4 0.051656 0.271807 0.561504
Si Si5 0.859344 0.359967 0.007378
Si Si6 0.357688 0.657634 0.227454
Si Si7 0.113549 0.953395 0.132188
O O1 0.414871 0.432737 0.299788
O O2 0.589034 0.326491 0.494063
O O3 0.500000 0.000000 0.500000
O O4 0.428605 0.274258 0.039213
O O5 0.870337 0.738575 0.485918
O O6 0.867584 0.609873 0.889143
O O7 0.823404 0.012548 0.603827
O O8 0.698980 0.785484 0.389841
O O9 0.372863 0.881962 0.060321
O O10 0.500000 0.000000 0.000000
O O11 0.000000 0.500000 0.500000
O O12 0.110971 0.103967 0.879247
O O13 0.954227 0.229135 0.323670
O O14 0.756925 0.339893 0.945741
O O15 0.855978 0.287007 0.814550
O O16 0.000000 0.000000 0.000000
#
# Coordination Sequence:
#
# PCOD9048069 Si02
#       7
#     2   2   2   2   2   2   2
#     4   9  22  45  70  95 138 178 240 292 359 415
#     4  12  28  47  69 109 144 190 242 294 361 421
#     4  11  27  45  69 101 146 184 235 301 359 421
#     4  12  25  48  73 103 150 186 231 295 361 423
#     4  12  26  44  75 105 141 188 238 294 360 428
#     4  10  24  44  73 102 133 187 241 290 364 427
#     4  12  26  46  74 102 146 188 238 289 352 434
#
# _framework density 23.709605
#
# number of rings (size 3 to 8) (size 9 to 14) (size 15 to 20)
#    0.000    0.857    2.857    2.571   12.000    2.857 
#    0.000    0.000    0.000    0.000    0.000    0.000 
#    0.000    0.000    0.000    0.000    0.000    0.000 
#
# Total GULP energy -78193.938767 kJ/mol
# GULP energy per Si atom -5585.281340 kJ/mol
# Density = 2.365564 g / cm^3
# Si number density = 23.709605 Si / 1000 Ang^3
#
#
#
# Elastic Constant Matrix: (Units=GPa)
#
#
# Indices 1 2 3 4 5 6 
#
# 1 118.1405 15.6688 31.1516 10.8467 10.2706 -2.7728
# 2 15.6688 106.4936 20.7888 23.5483 -9.2656 -28.2443
# 3 31.1516 20.7888 108.9525 19.8291 3.6140 -8.7593
# 4 10.8467 23.5483 19.8291 47.7155 -0.0066 -10.1538
# 5 10.2706 -9.2656 3.6140 -0.0066 37.1421 -7.2772
# 6 -2.7728 -28.2443 -8.7593 -10.1538 -7.2772 28.0870
#
#
#
# Elastic Compliance Matrix: (Units=1/GPa)
#
#
# Indices 1 2 3 4 5 6 
#
# 1 0.009643 -0.001801 -0.002358 -0.000924 -0.003439 -0.002820
# 2 -0.001801 0.015416 -0.000767 -0.003526 0.007505 0.015755
# 3 -0.002358 -0.000767 0.010697 -0.003310 -0.000378 0.001038
# 4 -0.000924 -0.003526 -0.003310 0.025267 0.000608 0.004622
# 5 -0.003439 0.007505 -0.000378 0.000608 0.032885 0.015830
# 6 -0.002820 0.015755 0.001038 0.004622 0.015830 0.057265
#
#
# Mechanical properties :
#
#
# Convention : Reuss Voigt Hill
#
# Bulk Modulus (GPa) = 38.60420 52.08943 45.34681
# Shear Modulus (GPa) = 29.47063 40.32075 34.89569
#
# Velocity S-wave (km/s) = 3.52942 4.12832 3.84056
# Velocity P-wave (km/s) = 5.73816 6.68891 6.23169
#
# Compressibility (1/GPa) = 0.02590392
#
# Stress axis : x y z
#
# Youngs Moduli (GPa) = 103.70513 64.86626 93.48241
#
# Poissons Ratio (x) = 0.11684 0.22042
# Poissons Ratio (y) = 0.18680 0.07170
# Poissons Ratio (z) = 0.24452 0.04975
#
# Static dielectric constant tensor:
#      x y z
#    x 1.865350 0.021020 -0.066440 
#    y 0.021020 1.966540 -0.027800 
#    z -0.066440 -0.027800 1.960350 
# 
# From -- ./inp_files/339749.got.cif
#   From: 2010.05.17/outbox.cif.g08.bks.cpg/sg2_170_cif.got.tgz:339749.got - 2010.06.03 11:33:40.
