data_PCOD9048361
_publ_section_title
;
Structure prediction by ZEFSAII (Michael W. Deem and Ramdas Pophale) SiO2 
 PCOD9048361
Probable space group: P -1
;
_chemical_formula_sum "Si O2"
_cell_formula_units_Z 16
_cell_length_a 6.116980
_cell_length_b 10.986353
_cell_length_c 24.180799
_cell_angle_alpha 147.925758
_cell_angle_beta 61.141578
_cell_angle_gamma 106.406244
_cell_volume 727.249785
_symmetry_space_group_name_H-M "P -1"
_symmetry_group_IT_number 2
_symmetry_cell_setting 'triclinic'
loop_
_space_group_symop_operation_xyz
x,y,z
-x,-y,-z
loop_
_atom_site_type_symbol
_atom_site_label
_atom_site_fract_x
_atom_site_fract_y
_atom_site_fract_z
Si Si1 0.669525 0.840976 0.370516
Si Si2 0.815998 0.904830 0.770351
Si Si3 0.261278 0.002105 0.900585
Si Si4 0.933793 0.668134 0.841773
Si Si5 0.528998 0.415117 0.794167
Si Si6 0.842205 0.033622 0.688055
Si Si7 0.043159 0.684348 0.021856
Si Si8 0.792039 0.537719 0.485139
O O1 0.849225 0.580983 0.268307
O O2 0.481477 0.780846 0.324673
O O3 0.866954 0.969618 0.366767
O O4 0.500000 0.000000 0.500000
O O5 0.554075 0.849873 0.801259
O O6 0.816741 0.999050 0.743267
O O7 0.848930 0.119147 0.886014
O O8 0.043976 0.663202 0.652812
O O9 0.222289 0.180566 0.922667
O O10 0.068361 0.835905 0.855870
O O11 0.182846 0.168505 0.027846
O O12 0.689920 0.588669 0.818067
O O13 0.665272 0.282327 0.781543
O O14 0.241786 0.558662 0.901758
O O15 0.762631 0.814464 0.584687
O O16 0.000000 0.500000 0.000000
O O17 0.500000 0.500000 0.500000
O O18 0.000000 0.500000 0.500000
#
# Coordination Sequence:
#
# PCOD9048361 Si02
#       8
#     2   2   2   2   2   2   2   2
#     4  11  25  46  69  96 134 188 243 300 363 434
#     4  11  25  43  70 106 139 188 234 294 373 444
#     4  11  24  44  68 104 143 186 236 299 366 438
#     4  10  24  45  67  98 143 185 241 300 357 439
#     4  11  23  44  70  99 137 186 240 302 367 432
#     4  10  25  44  70 100 142 184 236 305 361 438
#     4  12  25  38  71 104 141 185 235 298 367 443
#     4  10  25  45  68 101 147 191 239 298 363 440
#
# _framework density 22.000695
#
# number of rings (size 3 to 8) (size 9 to 14) (size 15 to 20)
#    0.000    1.250    2.500    1.500   12.250    4.500 
#    2.250    0.000    0.000    0.000    0.000    0.000 
#    0.000    0.000    0.000    0.000    0.000    0.000 
#
# Total GULP energy -89304.806404 kJ/mol
# GULP energy per Si atom -5581.550400 kJ/mol
# Density = 2.195062 g / cm^3
# Si number density = 22.000695 Si / 1000 Ang^3
#
#
#
# Elastic Constant Matrix: (Units=GPa)
#
#
# Indices 1 2 3 4 5 6 
#
# 1 72.6026 38.5582 29.2397 -9.3702 3.6454 25.5639
# 2 38.5582 94.6152 49.4475 -3.1801 8.1706 28.2103
# 3 29.2397 49.4475 114.8774 -17.3911 -2.6467 11.7593
# 4 -9.3702 -3.1801 -17.3911 32.6375 6.5376 2.1911
# 5 3.6454 8.1706 -2.6467 6.5376 45.0814 3.0098
# 6 25.5639 28.2103 11.7593 2.1911 3.0098 39.9221
#
#
#
# Elastic Compliance Matrix: (Units=1/GPa)
#
#
# Indices 1 2 3 4 5 6 
#
# 1 0.021154 -0.004481 -0.001580 0.005704 -0.001141 -0.010141
# 2 -0.004481 0.018116 -0.006185 -0.001791 -0.002502 -0.007823
# 3 -0.001580 -0.006185 0.012455 0.005265 0.001127 0.001340
# 4 0.005704 -0.001791 0.005265 0.036225 -0.004709 -0.005571
# 5 -0.001141 -0.002502 0.001127 -0.004709 0.023433 0.000659
# 6 -0.010141 -0.007823 0.001340 -0.005571 0.000659 0.036932
#
#
# Mechanical properties :
#
#
# Convention : Reuss Voigt Hill
#
# Bulk Modulus (GPa) = 36.72078 57.39844 47.05961
# Shear Modulus (GPa) = 27.48962 34.51820 31.00391
#
# Velocity S-wave (km/s) = 3.53865 3.96531 3.75804
# Velocity P-wave (km/s) = 5.78126 6.86374 6.34562
#
# Compressibility (1/GPa) = 0.02723253
#
# Stress axis : x y z
#
# Youngs Moduli (GPa) = 47.27228 55.19896 80.28673
#
# Poissons Ratio (x) = 0.24735 0.12687
# Poissons Ratio (y) = 0.21183 0.49660
# Poissons Ratio (z) = 0.07470 0.34142
#
# Static dielectric constant tensor:
#      x y z
#    x 1.828230 -0.081040 0.044150 
#    y -0.081040 1.729750 0.075080 
#    z 0.044150 0.075080 1.720540 
# 
# From -- ./inp_files/69126.got.cif
#   From: 2010.05.17/outbox.cif.g08.bks.cpg/sg2_35_cif.got.tgz:69126.got - 2010.06.03 11:33:40.
