data_PCOD9048155
_publ_section_title
;
Structure prediction by ZEFSAII (Michael W. Deem and Ramdas Pophale) SiO2 
 PCOD9048155
Probable space group: P -1
;
_chemical_formula_sum "Si O2"
_cell_formula_units_Z 13
_cell_length_a 17.781021
_cell_length_b 9.104230
_cell_length_c 15.292038
_cell_angle_alpha 114.591066
_cell_angle_beta 155.050195
_cell_angle_gamma 46.913660
_cell_volume 573.182432
_symmetry_space_group_name_H-M "P -1"
_symmetry_group_IT_number 2
_symmetry_cell_setting 'triclinic'
loop_
_space_group_symop_operation_xyz
x,y,z
-x,-y,-z
loop_
_atom_site_type_symbol
_atom_site_label
_atom_site_fract_x
_atom_site_fract_y
_atom_site_fract_z
Si Si1 0.000000 0.000000 0.000000
Si Si2 0.283236 0.195281 0.062378
Si Si3 0.770199 0.428206 0.995527
Si Si4 0.325747 0.032447 0.249597
Si Si5 0.078670 0.297932 0.466873
Si Si6 0.825071 0.270319 0.332145
Si Si7 0.732468 0.452520 0.463755
O O1 0.970827 0.144621 0.091774
O O2 0.935054 0.887717 0.965880
O O3 0.226658 0.416371 0.023108
O O4 0.254114 0.204102 0.137826
O O5 0.600539 0.920760 0.290678
O O6 0.049771 0.236766 0.788566
O O7 0.455331 0.566241 0.708311
O O8 0.866543 0.419720 0.190804
O O9 0.550896 0.738339 0.374544
O O10 0.500000 0.000000 0.500000
O O11 0.000000 0.500000 0.500000
O O12 0.043612 0.171242 0.462687
O O13 0.773186 0.428595 0.397244
O O14 0.500000 0.500000 0.000000
O O15 0.000000 0.000000 0.500000
#
# Coordination Sequence:
#
# PCOD9048155 Si02
#       7
#     1   2   2   2   2   2   2
#     4  10  24  44  74  98 142 188 242 306 386 452
#     4  12  26  45  74 107 147 195 254 314 386 461
#     4  11  25  49  70 109 146 195 250 314 382 468
#     4  11  25  47  71 106 148 191 245 317 383 466
#     4  12  27  47  73 106 155 198 255 316 389 462
#     4  12  27  47  76 111 154 205 260 319 386 462
#     4  11  26  45  73 105 149 196 253 312 388 454
#
# _framework density 22.680388000000001
#
# number of rings (size 3 to 8) (size 9 to 14) (size 15 to 20)
#    0.000    0.615    1.538    5.538    4.308    7.385 
#    0.000    5.385    0.000    0.000    0.000    0.000 
#    0.000    0.000    0.000    0.000    0.000    0.000 
#
# Total GULP energy -72416.676749 kJ/mol
# GULP energy per Si atom -5570.513596 kJ/mol
# Density = 2.262877 g / cm^3
# Si number density = 22.680388 Si / 1000 Ang^3
#
#
#
# Elastic Constant Matrix: (Units=GPa)
#
#
# Indices 1 2 3 4 5 6 
#
# 1 213.2471 45.5163 68.6297 18.0054 -26.5934 24.9556
# 2 45.5163 134.3850 40.4496 27.5779 -21.5958 -1.0136
# 3 68.6297 40.4496 140.2054 28.2670 -10.7167 14.5983
# 4 18.0054 27.5779 28.2670 30.8919 -11.7034 -8.5840
# 5 -26.5934 -21.5958 -10.7167 -11.7034 46.4217 2.0843
# 6 24.9556 -1.0136 14.5983 -8.5840 2.0843 47.8423
#
#
#
# Elastic Compliance Matrix: (Units=1/GPa)
#
#
# Indices 1 2 3 4 5 6 
#
# 1 0.006315 -0.000948 -0.002190 -0.000628 0.002642 -0.002874
# 2 -0.000948 0.009711 -0.000791 -0.006687 0.002122 -0.000351
# 3 -0.002190 -0.000791 0.010576 -0.009232 -0.001342 -0.003700
# 4 -0.000628 -0.006687 -0.009232 0.053321 0.007291 0.012252
# 5 0.002642 0.002122 -0.001342 0.007291 0.025603 -0.000731
# 6 -0.002874 -0.000351 -0.003700 0.012252 -0.000731 0.025753
#
#
# Mechanical properties :
#
#
# Convention : Reuss Voigt Hill
#
# Bulk Modulus (GPa) = 53.34707 88.55874 70.95291
# Shear Modulus (GPa) = 34.39139 47.24730 40.81935
#
# Velocity S-wave (km/s) = 3.89826 4.56914 4.24697
# Velocity P-wave (km/s) = 6.62074 8.18335 7.44316
#
# Compressibility (1/GPa) = 0.01874517
#
# Stress axis : x y z
#
# Youngs Moduli (GPa) = 158.34303 102.97626 94.55063
#
# Poissons Ratio (x) = 0.09762 0.20706
# Poissons Ratio (y) = 0.15011 0.07477
# Poissons Ratio (z) = 0.34677 0.08143
#
# Static dielectric constant tensor:
#      x y z
#    x 1.841310 0.011830 -0.007000 
#    y 0.011830 1.890970 -0.019280 
#    z -0.007000 -0.019280 1.901090 
# 
# From -- ./inp_files/135894.got.cif
#   From: 2010.05.17/outbox.cif.g08.bks.cpg/sg2_68_cif.got.tgz:135894.got - 2010.06.03 11:33:40.
