data_PCOD9048883
_publ_section_title
;
Structure prediction by ZEFSAII (Michael W. Deem and Ramdas Pophale) SiO2 
 PCOD9048883
Probable space group: P -1
;
_chemical_formula_sum "Si O2"
_cell_formula_units_Z 12
_cell_length_a 8.721159
_cell_length_b 5.176493
_cell_length_c 13.813566
_cell_angle_alpha 105.825589
_cell_angle_beta 58.710164
_cell_angle_gamma 95.077490
_cell_volume 511.638613
_symmetry_space_group_name_H-M "P -1"
_symmetry_group_IT_number 2
_symmetry_cell_setting 'triclinic'
loop_
_space_group_symop_operation_xyz
x,y,z
-x,-y,-z
loop_
_atom_site_type_symbol
_atom_site_label
_atom_site_fract_x
_atom_site_fract_y
_atom_site_fract_z
Si Si1 0.229555 0.603112 0.178505
Si Si2 0.599488 0.851592 0.041072
Si Si3 0.344300 0.830745 0.754416
Si Si4 0.880176 0.276027 0.559017
Si Si5 0.659821 0.574758 0.523008
Si Si6 0.833354 0.726814 0.287096
O O1 0.432215 0.696474 0.120500
O O2 0.191700 0.603453 0.304548
O O3 0.048061 0.759603 0.213019
O O4 0.246497 0.338498 0.079362
O O5 0.669832 0.033635 0.121799
O O6 0.500000 0.000000 0.000000
O O7 0.558156 0.770681 0.654661
O O8 0.239075 0.555423 0.757920
O O9 0.265880 0.033366 0.717257
O O10 0.726848 0.304490 0.530310
O O11 0.000000 0.500000 0.500000
O O12 0.000000 0.000000 0.500000
O O13 0.500000 0.500000 0.500000
O O14 0.789988 0.698092 0.413657
#
# Coordination Sequence:
#
# PCOD9048883 Si02
#       6
#     2   2   2   2   2   2
#     4  11  28  47  75 107 151 190 260 301 378 433
#     4  11  28  49  76 102 149 204 251 312 367 446
#     4  11  27  47  76 107 152 197 251 297 382 442
#     4  12  28  45  77 113 148 192 247 312 376 445
#     4  10  24  45  74 109 156 192 244 301 382 445
#     4  11  26  46  75 111 149 196 245 314 368 449
#
# _framework density 23.454052000000001
#
# number of rings (size 3 to 8) (size 9 to 14) (size 15 to 20)
#    0.000    1.000    1.667    1.500   21.000    1.333 
#    0.000    0.000    0.000    0.000    0.000    0.000 
#    0.000    0.000    0.000    0.000    0.000    0.000 
#
# Total GULP energy -66976.284312 kJ/mol
# GULP energy per Si atom -5581.357026 kJ/mol
# Density = 2.340067 g / cm^3
# Si number density = 23.454052 Si / 1000 Ang^3
#
#
#
# Elastic Constant Matrix: (Units=GPa)
#
#
# Indices 1 2 3 4 5 6 
#
# 1 96.1983 36.9837 31.4259 13.3348 16.1458 -21.9071
# 2 36.9837 134.1300 46.0830 6.6115 8.5373 -29.0494
# 3 31.4259 46.0830 160.3805 10.9981 21.8413 -12.4392
# 4 13.3348 6.6115 10.9981 26.4966 1.4533 2.7810
# 5 16.1458 8.5373 21.8413 1.4533 48.1548 8.2455
# 6 -21.9071 -29.0494 -12.4392 2.7810 8.2455 56.1717
#
#
#
# Elastic Compliance Matrix: (Units=1/GPa)
#
#
# Indices 1 2 3 4 5 6 
#
# 1 0.014372 -0.001872 -0.000716 -0.006781 -0.004905 0.005534
# 2 -0.001872 0.009592 -0.001890 -0.001038 -0.000867 0.003990
# 3 -0.000716 -0.001890 0.007548 -0.002240 -0.002944 0.000958
# 4 -0.006781 -0.001038 -0.002240 0.042822 0.003255 -0.006275
# 5 -0.004905 -0.000867 -0.002944 0.003255 0.024973 -0.006841
# 6 0.005534 0.003990 0.000958 -0.006275 -0.006841 0.023552
#
#
# Mechanical properties :
#
#
# Convention : Reuss Voigt Hill
#
# Bulk Modulus (GPa) = 44.33653 68.85489 56.59571
# Shear Modulus (GPa) = 35.88522 44.57903 40.23213
#
# Velocity S-wave (km/s) = 3.91579 4.36443 4.14618
# Velocity P-wave (km/s) = 6.27608 7.40397 6.86323
#
# Compressibility (1/GPa) = 0.02255477
#
# Stress axis : x y z
#
# Youngs Moduli (GPa) = 69.57839 104.25708 132.49380
#
# Poissons Ratio (x) = 0.19515 0.09488
# Poissons Ratio (y) = 0.13024 0.25047
# Poissons Ratio (z) = 0.04983 0.19709
#
# Static dielectric constant tensor:
#      x y z
#    x 5.435170 -2.177640 -1.890910 
#    y -2.177640 3.274140 1.303660 
#    z -1.890910 1.303660 2.912100 
# 
# From -- ./inp_files/21737.got.cif
#   From: 2010.05.17/outbox.cif.g08.bks.cpg/sg2_11_cif.got.tgz:21737.got - 2010.06.03 11:33:40.
