data_PCOD9048570
_publ_section_title
;
Structure prediction by ZEFSAII (Michael W. Deem and Ramdas Pophale) SiO2 
 PCOD9048570
Probable space group: P -1
;
_chemical_formula_sum "Si O2"
_cell_formula_units_Z 15
_cell_length_a 10.226521
_cell_length_b 6.519543
_cell_length_c 16.912326
_cell_angle_alpha 127.681479
_cell_angle_beta 44.356132
_cell_angle_gamma 117.857197
_cell_volume 622.955825
_symmetry_space_group_name_H-M "P -1"
_symmetry_group_IT_number 2
_symmetry_cell_setting 'triclinic'
loop_
_space_group_symop_operation_xyz
x,y,z
-x,-y,-z
loop_
_atom_site_type_symbol
_atom_site_label
_atom_site_fract_x
_atom_site_fract_y
_atom_site_fract_z
Si Si1 0.811896 0.959551 0.522527
Si Si2 0.500000 0.000000 0.500000
Si Si3 0.745956 0.386124 0.394369
Si Si4 0.521259 0.692335 0.261703
Si Si5 0.929007 0.414401 0.155614
Si Si6 0.268841 0.101584 0.927866
Si Si7 0.992152 0.991406 0.280284
Si Si8 0.570156 0.916197 0.864361
O O1 0.740556 0.666708 0.501625
O O2 0.666024 0.172149 0.653432
O O3 0.000000 0.000000 0.500000
O O4 0.857683 0.982645 0.413982
O O5 0.435844 0.787268 0.545488
O O6 0.541515 0.768897 0.362583
O O7 0.792922 0.416092 0.289853
O O8 0.915143 0.225260 0.319030
O O9 0.489168 0.385718 0.193631
O O10 0.684395 0.811935 0.162068
O O11 0.839321 0.182726 0.086075
O O12 0.965000 0.711653 0.183468
O O13 0.129887 0.310781 0.069562
O O14 0.460331 0.083343 0.888146
O O15 0.205781 0.038927 0.225148
O O16 0.500000 0.000000 0.000000
#
# Coordination Sequence:
#
# PCOD9048570 Si02
#       8
#     2   1   2   2   2   2   2   2
#     4  11  25  41  65  99 135 181 227 282 347 416
#     4  12  26  44  70 108 144 184 228 292 352 422
#     4  11  24  43  70  98 140 180 232 289 347 414
#     4  12  27  44  72 106 142 184 234 288 353 417
#     4  10  24  45  70 101 133 184 238 290 348 411
#     4  11  25  45  72 100 139 185 237 296 348 409
#     4  11  24  43  68  97 140 183 229 287 347 417
#     4  12  28  47  72 104 142 189 237 291 349 418
#
# _framework density 24.078755999999998
#
# number of rings (size 3 to 8) (size 9 to 14) (size 15 to 20)
#    0.000    0.800    2.667    3.200    5.600    5.867 
#    0.000    3.333    0.000    0.000    0.000    0.000 
#    0.000    0.000    0.000    0.000    0.000    0.000 
#
# Total GULP energy -83806.674941 kJ/mol
# GULP energy per Si atom -5587.111663 kJ/mol
# Density = 2.402395 g / cm^3
# Si number density = 24.078756 Si / 1000 Ang^3
#
#
#
# Elastic Constant Matrix: (Units=GPa)
#
#
# Indices 1 2 3 4 5 6 
#
# 1 89.6403 21.5816 26.3823 10.5678 -27.3290 -11.0931
# 2 21.5816 105.8885 45.7417 10.2344 -4.6847 6.6937
# 3 26.3823 45.7417 124.7216 8.0812 -2.2529 -1.5555
# 4 10.5678 10.2344 8.0812 44.5027 -1.4147 0.2681
# 5 -27.3290 -4.6847 -2.2529 -1.4147 52.9588 1.6232
# 6 -11.0931 6.6937 -1.5555 0.2681 1.6232 33.6835
#
#
#
# Elastic Compliance Matrix: (Units=1/GPa)
#
#
# Indices 1 2 3 4 5 6 
#
# 1 0.015491 -0.001942 -0.002196 -0.002625 0.007504 0.005046
# 2 -0.001942 0.011862 -0.003880 -0.001545 -0.000062 -0.003161
# 3 -0.002196 -0.003880 0.009920 -0.000425 -0.001083 0.000562
# 4 -0.002625 -0.001545 -0.000425 0.023504 -0.000859 -0.000723
# 5 0.007504 -0.000062 -0.001083 -0.000859 0.022639 0.001350
# 6 0.005046 -0.003161 0.000562 -0.000723 0.001350 0.031945
#
#
# Mechanical properties :
#
#
# Convention : Reuss Voigt Hill
#
# Bulk Modulus (GPa) = 47.08616 56.40685 51.74651
# Shear Modulus (GPa) = 36.10713 41.33198 38.71956
#
# Velocity S-wave (km/s) = 3.87659 4.14760 4.01439
# Velocity P-wave (km/s) = 6.29562 6.81275 6.55929
#
# Compressibility (1/GPa) = 0.02123766
#
# Stress axis : x y z
#
# Youngs Moduli (GPa) = 64.55245 84.30125 100.80196
#
# Poissons Ratio (x) = 0.16371 0.22137
# Poissons Ratio (y) = 0.12535 0.39112
# Poissons Ratio (z) = 0.14176 0.32710
#
# Static dielectric constant tensor:
#      x y z
#    x 1.874830 0.013290 0.007460 
#    y 0.013290 1.896710 -0.008970 
#    z 0.007460 -0.008970 1.890280 
# 
# From -- ./inp_files/63114.got.cif
#   From: 2010.05.17/outbox.cif.g08.bks.cpg/sg2_32_cif.got.tgz:63114.got - 2010.06.03 11:33:40.
