data_PCOD9048996
_publ_section_title
;
Structure prediction by ZEFSAII (Michael W. Deem and Ramdas Pophale) SiO2 
 PCOD9048996
Probable space group: P -1
;
_chemical_formula_sum "Si O2"
_cell_formula_units_Z 16
_cell_length_a 15.190417
_cell_length_b 12.203597
_cell_length_c 8.858548
_cell_angle_alpha 78.589840
_cell_angle_beta 73.259990
_cell_angle_gamma 28.918444
_cell_volume 755.202634
_symmetry_space_group_name_H-M "P -1"
_symmetry_group_IT_number 2
_symmetry_cell_setting 'triclinic'
loop_
_space_group_symop_operation_xyz
x,y,z
-x,-y,-z
loop_
_atom_site_type_symbol
_atom_site_label
_atom_site_fract_x
_atom_site_fract_y
_atom_site_fract_z
Si Si1 0.477154 0.182097 0.154014
Si Si2 0.020877 0.867375 0.125054
Si Si3 0.479378 0.637731 0.380608
Si Si4 0.439062 0.446301 0.981359
Si Si5 0.687610 0.596021 0.498356
Si Si6 0.799125 0.675689 0.213929
Si Si7 0.917880 0.437578 0.919457
Si Si8 0.059198 0.058052 0.518628
O O1 0.555119 0.212691 0.029382
O O2 0.422626 0.269259 0.328729
O O3 0.287251 0.348411 0.114632
O O4 0.630084 0.922994 0.152651
O O5 0.912939 0.984294 0.303522
O O6 0.242786 0.631678 0.111074
O O7 0.989504 0.782681 0.082296
O O8 0.000000 0.000000 0.000000
O O9 0.500000 0.500000 0.500000
O O10 0.570334 0.639960 0.432882
O O11 0.256039 0.888569 0.398431
O O12 0.576214 0.530652 0.197939
O O13 0.500000 0.500000 0.000000
O O14 0.723909 0.676736 0.381828
O O15 0.888051 0.324037 0.502884
O O16 0.950643 0.607698 0.207082
O O17 0.892009 0.498726 0.089220
O O18 0.000000 0.000000 0.500000
#
# Coordination Sequence:
#
# PCOD9048996 Si02
#       8
#     2   2   2   2   2   2   2   2
#     4  11  24  45  68  95 138 177 238 285 341 412
#     4  11  24  43  71  99 139 179 221 284 348 411
#     4  12  25  42  70 103 141 180 230 280 350 419
#     4  11  23  43  67 102 136 178 228 288 342 414
#     4  12  25  44  66 103 137 181 234 284 349 413
#     4  11  26  43  72  94 138 184 234 286 342 414
#     4  10  24  46  65 101 133 178 237 284 339 417
#     4  12  25  44  68 103 145 178 220 289 344 414
#
# _framework density 21.186367000000001
#
# number of rings (size 3 to 8) (size 9 to 14) (size 15 to 20)
#    0.000    0.750    3.750    4.500    5.250    3.500 
#    0.000    0.000    0.000    0.000    0.000    0.000 
#    0.000    0.000    0.000    0.000    0.000    0.000 
#
# Total GULP energy -89478.597726 kJ/mol
# GULP energy per Si atom -5592.412358 kJ/mol
# Density = 2.113815 g / cm^3
# Si number density = 21.186367 Si / 1000 Ang^3
#
#
#
# Elastic Constant Matrix: (Units=GPa)
#
#
# Indices 1 2 3 4 5 6 
#
# 1 148.4506 25.4304 32.6425 -8.6051 -7.0088 14.3532
# 2 25.4304 77.6728 0.8859 -9.2212 -6.8219 15.8015
# 3 32.6425 0.8859 86.8180 -9.9888 -6.8699 22.0860
# 4 -8.6051 -9.2212 -9.9888 33.5442 8.0129 -11.5294
# 5 -7.0088 -6.8219 -6.8699 8.0129 34.1919 1.9884
# 6 14.3532 15.8015 22.0860 -11.5294 1.9884 43.2334
#
#
#
# Elastic Compliance Matrix: (Units=1/GPa)
#
#
# Indices 1 2 3 4 5 6 
#
# 1 0.007824 -0.002399 -0.002780 0.000317 0.000506 -0.000239
# 2 -0.002399 0.015283 0.002665 0.001639 0.003049 -0.005854
# 3 -0.002780 0.002665 0.014809 0.001123 0.003108 -0.007460
# 4 0.000317 0.001639 0.001123 0.035596 -0.008224 0.008593
# 5 0.000506 0.003049 0.003108 -0.008224 0.032893 -0.006576
# 6 -0.000239 -0.005854 -0.007460 0.008593 -0.006576 0.031754
#
#
# Mechanical properties :
#
#
# Convention : Reuss Voigt Hill
#
# Bulk Modulus (GPa) = 30.40575 47.87324 39.13949
# Shear Modulus (GPa) = 32.43606 39.12608 35.78107
#
# Velocity S-wave (km/s) = 3.91703 4.30205 4.11405
# Velocity P-wave (km/s) = 5.90256 6.87911 6.40946
#
# Compressibility (1/GPa) = 0.03288851
#
# Stress axis : x y z
#
# Youngs Moduli (GPa) = 127.81387 65.43258 67.52527
#
# Poissons Ratio (x) = 0.15698 0.18771
# Poissons Ratio (y) = 0.30664 -0.17997
# Poissons Ratio (z) = 0.35530 -0.17439
#
# Static dielectric constant tensor:
#      x y z
#    x 1.751410 -0.015910 -0.025250 
#    y -0.015910 1.787460 -0.033990 
#    z -0.025250 -0.033990 1.701970 
# 
# From -- ./inp_files/283387.got.cif
#   From: 2010.05.17/outbox.cif.g08.bks.cpg/sg2_142_cif.got.tgz:283387.got - 2010.06.03 11:33:40.
