data_PCOD9048037
_publ_section_title
;
Structure prediction by ZEFSAII (Michael W. Deem and Ramdas Pophale) SiO2 
 PCOD9048037
Probable space group: P -1
;
_chemical_formula_sum "Si O2"
_cell_formula_units_Z 14
_cell_length_a 11.856711
_cell_length_b 16.900492
_cell_length_c 8.787682
_cell_angle_alpha 133.181316
_cell_angle_beta 51.020280
_cell_angle_gamma 154.116617
_cell_volume 560.041837
_symmetry_space_group_name_H-M "P -1"
_symmetry_group_IT_number 2
_symmetry_cell_setting 'triclinic'
loop_
_space_group_symop_operation_xyz
x,y,z
-x,-y,-z
loop_
_atom_site_type_symbol
_atom_site_label
_atom_site_fract_x
_atom_site_fract_y
_atom_site_fract_z
Si Si1 0.550474 0.641488 0.521938
Si Si2 0.600608 0.289650 0.498178
Si Si3 0.680402 0.728038 0.836012
Si Si4 0.071341 0.419220 0.850675
Si Si5 0.983912 0.336737 0.157136
Si Si6 0.701061 0.054044 0.495993
Si Si7 0.103066 0.921172 0.923164
O O1 0.572887 0.747944 0.518108
O O2 0.770278 0.767432 0.630864
O O3 0.493658 0.489500 0.295657
O O4 0.303225 0.526959 0.683939
O O5 0.816812 0.500877 0.668145
O O6 0.754367 0.283934 0.282744
O O7 0.438072 0.134919 0.565154
O O8 0.839320 0.823141 0.986133
O O9 0.660784 0.848389 0.991140
O O10 0.824204 0.198470 0.716134
O O11 0.118555 0.425122 0.995640
O O12 0.000000 0.500000 0.000000
O O13 0.890584 0.158736 0.049851
O O14 0.906005 0.152043 0.322260
O O15 0.500000 0.000000 0.500000
#
# Coordination Sequence:
#
# PCOD9048037 Si02
#       7
#     2   2   2   2   2   2   2
#     4  11  23  47  68  95 134 174 224 260 327 387
#     4  11  23  41  67  99 133 167 212 274 335 388
#     4  10  24  44  72  88 132 190 214 262 312 394
#     4  12  25  41  67 102 133 167 216 275 333 387
#     4  11  23  41  67  99 133 167 212 274 335 388
#     4  12  25  41  67 102 133 167 216 275 333 387
#     4  11  23  47  68  95 134 174 224 260 327 387
#
# _framework density 24.998131000000001
#
# number of rings (size 3 to 8) (size 9 to 14) (size 15 to 20)
#    0.000    0.857    5.714    0.857    6.000    0.571 
#    0.000    8.571    0.000    0.000    0.000    0.000 
#    0.000    0.000    0.000    0.000    0.000    0.000 
#
# Total GULP energy -78131.761872 kJ/mol
# GULP energy per Si atom -5580.840134 kJ/mol
# Density = 2.494123 g / cm^3
# Si number density = 24.998131 Si / 1000 Ang^3
#
#
#
# Elastic Constant Matrix: (Units=GPa)
#
#
# Indices 1 2 3 4 5 6 
#
# 1 141.5979 36.1268 25.8846 10.5227 -10.1442 -44.6071
# 2 36.1268 83.8069 27.2407 0.7090 -16.1064 -37.1276
# 3 25.8846 27.2407 98.1892 11.1771 -14.0845 -7.6198
# 4 10.5227 0.7090 11.1771 39.5592 -2.0177 0.7287
# 5 -10.1442 -16.1064 -14.0845 -2.0177 39.8588 7.1142
# 6 -44.6071 -37.1276 -7.6198 0.7287 7.1142 55.7017
#
#
#
# Elastic Compliance Matrix: (Units=1/GPa)
#
#
# Indices 1 2 3 4 5 6 
#
# 1 0.010032 -0.000352 -0.001644 -0.002318 0.000363 0.007558
# 2 -0.000352 0.019222 -0.003827 0.000840 0.004325 0.011443
# 3 -0.001644 -0.003827 0.012178 -0.002754 0.002646 -0.002504
# 4 -0.002318 0.000840 -0.002754 0.026722 0.000502 -0.002087
# 5 0.000363 0.004325 0.002646 0.000502 0.027895 -0.000033
# 6 0.007558 0.011443 -0.002504 -0.002087 -0.000033 0.031322
#
#
# Mechanical properties :
#
#
# Convention : Reuss Voigt Hill
#
# Bulk Modulus (GPa) = 33.57437 55.78871 44.68154
# Shear Modulus (GPa) = 33.56912 42.64673 38.10793
#
# Velocity S-wave (km/s) = 3.66849 4.13485 3.90863
# Velocity P-wave (km/s) = 5.60390 6.72024 6.18730
#
# Compressibility (1/GPa) = 0.02978462
#
# Stress axis : x y z
#
# Youngs Moduli (GPa) = 99.68083 52.02506 82.11291
#
# Poissons Ratio (x) = 0.01833 0.13502
# Poissons Ratio (y) = 0.03511 0.31425
# Poissons Ratio (z) = 0.16391 0.19910
#
# Static dielectric constant tensor:
#      x y z
#    x 4.278450 2.129890 0.120980 
#    y 2.129890 3.447890 -0.067150 
#    z 0.120980 -0.067150 1.895360 
# 
# From -- ./inp_files/176848.got.cif
#   From: 2010.05.17/outbox.cif.g08.bks.cpg/sg2_89_cif.got.tgz:176848.got - 2010.06.03 11:33:40.
