data_PCOD9048227
_publ_section_title
;
Structure prediction by ZEFSAII (Michael W. Deem and Ramdas Pophale) SiO2 
 PCOD9048227
Probable space group: P -1
;
_chemical_formula_sum "Si O2"
_cell_formula_units_Z 15
_cell_length_a 15.504187
_cell_length_b 8.422784
_cell_length_c 8.161602
_cell_angle_alpha 53.613356
_cell_angle_beta 132.271782
_cell_angle_gamma 120.478509
_cell_volume 624.339538
_symmetry_space_group_name_H-M "P -1"
_symmetry_group_IT_number 2
_symmetry_cell_setting 'triclinic'
loop_
_space_group_symop_operation_xyz
x,y,z
-x,-y,-z
loop_
_atom_site_type_symbol
_atom_site_label
_atom_site_fract_x
_atom_site_fract_y
_atom_site_fract_z
Si Si1 0.480791 0.771323 0.177264
Si Si2 0.742884 0.906564 0.947432
Si Si3 0.664518 0.610380 0.308950
Si Si4 0.991088 0.039042 0.769650
Si Si5 0.882902 0.602131 0.790793
Si Si6 0.751035 0.535668 0.995960
Si Si7 0.583303 0.197819 0.546766
Si Si8 0.000000 0.500000 0.500000
O O1 0.599960 0.691539 0.331049
O O2 0.454410 0.758375 0.344758
O O3 0.367111 0.630176 0.033575
O O4 0.500000 0.000000 0.000000
O O5 0.669075 0.772218 0.074770
O O6 0.878906 0.948710 0.145211
O O7 0.724678 0.760086 0.856031
O O8 0.707558 0.121151 0.752563
O O9 0.797499 0.577830 0.540205
O O10 0.590629 0.388878 0.323619
O O11 0.957024 0.254761 0.571947
O O12 0.914779 0.840402 0.717491
O O13 0.000000 0.000000 0.000000
O O14 0.804120 0.512475 0.899012
O O15 0.000000 0.500000 0.000000
O O16 0.863270 0.531470 0.260147
O O17 0.500000 0.000000 0.500000
#
# Coordination Sequence:
#
# PCOD9048227 Si02
#       8
#     2   2   2   2   2   2   2   1
#     4  12  27  49  74 112 156 200 253 308 379 457
#     4  11  26  47  71 110 143 196 255 310 375 456
#     4  12  28  49  74 110 154 200 245 318 381 448
#     4  11  24  46  73 104 146 193 255 309 379 447
#     4  12  27  47  77 109 153 202 253 323 386 454
#     4  11  26  49  74 110 153 194 258 310 378 461
#     4  12  27  46  76 106 148 198 252 309 374 447
#     4  10  24  44  78 108 140 198 252 308 382 440
#
# _framework density 24.025389000000001
#
# number of rings (size 3 to 8) (size 9 to 14) (size 15 to 20)
#    0.000    0.533    5.333    2.000    9.333    3.733 
#    0.000    0.000    0.000    0.000    0.000    0.000 
#    0.000    0.000    0.000    0.000    0.000    0.000 
#
# Total GULP energy -83694.174083 kJ/mol
# GULP energy per Si atom -5579.611606 kJ/mol
# Density = 2.397071 g / cm^3
# Si number density = 24.025389 Si / 1000 Ang^3
#
#
#
# Elastic Constant Matrix: (Units=GPa)
#
#
# Indices 1 2 3 4 5 6 
#
# 1 85.8406 5.7920 24.1436 -10.2388 -1.1050 -3.7583
# 2 5.7920 131.6138 23.7391 -21.2451 -11.3541 24.0480
# 3 24.1436 23.7391 65.9170 -14.5666 24.6644 0.5512
# 4 -10.2388 -21.2451 -14.5666 54.3282 -5.6904 5.7121
# 5 -1.1050 -11.3541 24.6644 -5.6904 26.7167 -1.7094
# 6 -3.7583 24.0480 0.5512 5.7121 -1.7094 38.7326
#
#
#
# Elastic Compliance Matrix: (Units=1/GPa)
#
#
# Indices 1 2 3 4 5 6 
#
# 1 0.014744 0.002482 -0.010099 0.002221 0.011475 0.000212
# 2 0.002482 0.012934 -0.010193 0.005242 0.015631 -0.007728
# 3 -0.010099 -0.010193 0.036912 -0.000380 -0.038704 0.003171
# 4 0.002221 0.005242 -0.000380 0.022137 0.007002 -0.005990
# 5 0.011475 0.015631 -0.038704 0.007002 0.081419 -0.005480
# 6 0.000212 -0.007728 0.003171 -0.005990 -0.005480 0.031233
#
#
# Mechanical properties :
#
#
# Convention : Reuss Voigt Hill
#
# Bulk Modulus (GPa) = 34.51678 43.41344 38.96511
# Shear Modulus (GPa) = 20.43698 39.26863 29.85281
#
# Velocity S-wave (km/s) = 2.91974 4.04724 3.52881
# Velocity P-wave (km/s) = 5.07587 6.32054 5.73209
#
# Compressibility (1/GPa) = 0.02897141
#
# Stress axis : x y z
#
# Youngs Moduli (GPa) = 67.82260 77.31583 27.09151
#
# Poissons Ratio (x) = -0.19193 0.27359
# Poissons Ratio (y) = -0.16836 0.27614
# Poissons Ratio (z) = 0.68493 0.78808
#
# Static dielectric constant tensor:
#      x y z
#    x 1.971850 0.009850 0.029510 
#    y 0.009850 1.907020 0.048860 
#    z 0.029510 0.048860 2.003510 
# 
# From -- ./inp_files/294348.got.cif
#   From: 2010.05.17/outbox.cif.g08.bks.cpg/sg2_148_cif.got.tgz:294348.got - 2010.06.03 11:33:40.
