data_PCOD9048925
_publ_section_title
;
Structure prediction by ZEFSAII (Michael W. Deem and Ramdas Pophale) SiO2 
 PCOD9048925
Probable space group: P -1
;
_chemical_formula_sum "Si O2"
_cell_formula_units_Z 14
_cell_length_a 5.325556
_cell_length_b 23.288233
_cell_length_c 8.119873
_cell_angle_alpha 34.584828
_cell_angle_beta 78.784624
_cell_angle_gamma 67.860089
_cell_volume 516.482994
_symmetry_space_group_name_H-M "P -1"
_symmetry_group_IT_number 2
_symmetry_cell_setting 'triclinic'
loop_
_space_group_symop_operation_xyz
x,y,z
-x,-y,-z
loop_
_atom_site_type_symbol
_atom_site_label
_atom_site_fract_x
_atom_site_fract_y
_atom_site_fract_z
Si Si1 0.088706 0.159515 0.773500
Si Si2 0.506828 0.783784 0.610359
Si Si3 0.608694 0.278697 0.891251
Si Si4 0.725260 0.495357 0.621006
Si Si5 0.043443 0.020293 0.646217
Si Si6 0.350951 0.625273 0.787386
Si Si7 0.737272 0.846504 0.878480
O O1 0.937726 0.244611 0.958441
O O2 0.881991 0.287230 0.502527
O O3 0.285375 0.158224 0.600962
O O4 0.924806 0.079158 0.999757
O O5 0.511956 0.700245 0.658664
O O6 0.215697 0.880469 0.471662
O O7 0.553013 0.709614 0.942296
O O8 0.445858 0.387085 0.551722
O O9 0.517738 0.188775 0.031535
O O10 0.500000 0.500000 0.500000
O O11 0.000000 0.500000 0.500000
O O12 0.786153 0.397573 0.972020
O O13 0.732651 0.876771 0.998098
O O14 0.273314 0.070032 0.463263
O O15 0.000000 0.000000 0.500000
O O16 0.500000 0.500000 0.000000
#
# Coordination Sequence:
#
# PCOD9048925 Si02
#       7
#     2   2   2   2   2   2   2
#     4  11  25  47  73 110 155 198 249 319 386 454
#     4  11  25  45  76 110 152 196 253 318 384 454
#     4  11  23  46  72 103 145 196 257 309 371 448
#     4  12  25  45  73 102 141 198 256 308 364 444
#     4   9  22  49  76 112 145 198 254 313 385 461
#     4  12  29  48  71 112 157 203 253 314 385 452
#     4  10  24  45  76 104 146 196 252 306 376 457
#
# _framework density 27.106411999999999
#
# number of rings (size 3 to 8) (size 9 to 14) (size 15 to 20)
#    0.000    1.143    1.429    3.000   10.000    1.143 
#    5.143    6.429    0.000    0.000    0.000    0.000 
#    0.000    0.000    0.000    0.000    0.000    0.000 
#
# Total GULP energy -78163.937633 kJ/mol
# GULP energy per Si atom -5583.138402 kJ/mol
# Density = 2.704472 g / cm^3
# Si number density = 27.106412 Si / 1000 Ang^3
#
#
#
# Elastic Constant Matrix: (Units=GPa)
#
#
# Indices 1 2 3 4 5 6 
#
# 1 101.9086 30.7192 46.0086 -2.0270 2.9395 -22.6132
# 2 30.7192 107.7761 31.1825 -0.3082 0.2119 -13.0749
# 3 46.0086 31.1825 240.4908 -9.9785 7.5661 -24.9567
# 4 -2.0270 -0.3082 -9.9785 41.7929 -5.8128 4.8422
# 5 2.9395 0.2119 7.5661 -5.8128 49.4996 5.2357
# 6 -22.6132 -13.0749 -24.9567 4.8422 5.2357 56.6295
#
#
#
# Elastic Compliance Matrix: (Units=1/GPa)
#
#
# Indices 1 2 3 4 5 6 
#
# 1 0.012135 -0.002551 -0.001597 -0.000361 -0.000896 0.003667
# 2 -0.002551 0.010353 -0.000761 -0.000342 0.000071 0.001059
# 3 -0.001597 -0.000761 0.004749 0.000811 -0.000667 0.001272
# 4 -0.000361 -0.000342 0.000811 0.024788 0.003050 -0.002267
# 5 -0.000896 0.000071 -0.000667 0.003050 0.021015 -0.002839
# 6 0.003667 0.001059 0.001272 -0.002267 -0.002839 0.020384
#
#
# Mechanical properties :
#
#
# Convention : Reuss Voigt Hill
#
# Bulk Modulus (GPa) = 57.40913 73.99958 65.70435
# Shear Modulus (GPa) = 45.85086 52.40208 49.12647
#
# Velocity S-wave (km/s) = 4.11726 4.40159 4.26180
# Velocity P-wave (km/s) = 6.62024 7.29321 6.96486
#
# Compressibility (1/GPa) = 0.01741883
#
# Stress axis : x y z
#
# Youngs Moduli (GPa) = 82.40599 96.58894 210.57224
#
# Poissons Ratio (x) = 0.24642 0.33630
# Poissons Ratio (y) = 0.21024 0.16022
# Poissons Ratio (z) = 0.13161 0.07349
#
# Static dielectric constant tensor:
#      x y z
#    x 2.149450 0.062020 -0.045960 
#    y 0.062020 2.405570 -0.122060 
#    z -0.045960 -0.122060 1.988710 
# 
# From -- ./inp_files/142130.got.cif
#   From: 2010.05.17/outbox.cif.g08.bks.cpg/sg2_72_cif.got.tgz:142130.got - 2010.06.03 11:33:40.
