data_PCOD9048246
_publ_section_title
;
Structure prediction by ZEFSAII (Michael W. Deem and Ramdas Pophale) SiO2 
 PCOD9048246
Probable space group: P -1
;
_chemical_formula_sum "Si O2"
_cell_formula_units_Z 16
_cell_length_a 11.525261
_cell_length_b 10.272055
_cell_length_c 14.817555
_cell_angle_alpha 64.854510
_cell_angle_beta 29.666432
_cell_angle_gamma 72.311439
_cell_volume 777.556579
_symmetry_space_group_name_H-M "P -1"
_symmetry_group_IT_number 2
_symmetry_cell_setting 'triclinic'
loop_
_space_group_symop_operation_xyz
x,y,z
-x,-y,-z
loop_
_atom_site_type_symbol
_atom_site_label
_atom_site_fract_x
_atom_site_fract_y
_atom_site_fract_z
Si Si1 0.742943 0.548508 0.269957
Si Si2 0.514375 0.950895 0.315272
Si Si3 0.674435 0.757114 0.103561
Si Si4 0.101931 0.115461 0.472840
Si Si5 0.197437 0.754720 0.935248
Si Si6 0.631599 0.165462 0.869961
Si Si7 0.505710 0.337345 0.075635
Si Si8 0.803419 0.241462 0.274602
O O1 0.500000 0.500000 0.500000
O O2 0.687755 0.607168 0.191127
O O3 0.860724 0.402953 0.229173
O O4 0.924601 0.680569 0.150133
O O5 0.567637 0.856637 0.220740
O O6 0.409900 0.849685 0.498826
O O7 0.301781 0.041998 0.410332
O O8 0.741407 0.072414 0.141488
O O9 0.507086 0.746633 0.133473
O O10 0.946149 0.820997 0.875516
O O11 0.238097 0.259217 0.292698
O O12 0.896654 0.156976 0.662257
O O13 0.000000 0.000000 0.500000
O O14 0.350309 0.675694 0.925418
O O15 0.262037 0.738774 0.791240
O O16 0.614977 0.238637 0.956438
O O17 0.500000 0.000000 0.000000
O O18 0.500000 0.500000 0.000000
#
# Coordination Sequence:
#
# PCOD9048246 Si02
#       8
#     2   2   2   2   2   2   2   2
#     4  11  24  45  67  95 127 177 218 270 332 396
#     4  11  22  42  67 102 130 169 217 279 335 380
#     4  11  23  39  69  99 128 171 226 267 323 404
#     4  11  22  43  68  99 136 175 229 272 321 411
#     4  10  24  45  62  95 141 159 219 280 320 393
#     4  12  23  42  71 100 136 181 224 272 335 397
#     4  11  27  43  66 101 138 180 221 279 339 385
#     4  11  24  42  69  94 128 177 220 265 339 390
#
# _framework density 20.577279999999998
#
# number of rings (size 3 to 8) (size 9 to 14) (size 15 to 20)
#    0.000    1.000    3.750    3.375    3.500    3.500 
#    6.750    0.000    0.000    0.000    0.000    0.000 
#    0.000    0.000    0.000    0.000    0.000    0.000 
#
# Total GULP energy -89396.369729 kJ/mol
# GULP energy per Si atom -5587.273108 kJ/mol
# Density = 2.053045 g / cm^3
# Si number density = 20.577280 Si / 1000 Ang^3
#
#
#
# Elastic Constant Matrix: (Units=GPa)
#
#
# Indices 1 2 3 4 5 6 
#
# 1 83.9840 14.8353 29.6578 -2.3119 -8.2917 -1.5558
# 2 14.8353 74.0029 52.8772 -1.9481 -2.1251 -6.1101
# 3 29.6578 52.8772 153.5186 -4.5307 0.6337 -0.3006
# 4 -2.3119 -1.9481 -4.5307 48.1585 -0.1375 4.7656
# 5 -8.2917 -2.1251 0.6337 -0.1375 21.4759 1.0978
# 6 -1.5558 -6.1101 -0.3006 4.7656 1.0978 29.1558
#
#
#
# Elastic Compliance Matrix: (Units=1/GPa)
#
#
# Indices 1 2 3 4 5 6 
#
# 1 0.013395 -0.000863 -0.002300 0.000381 0.005143 0.000254
# 2 -0.000863 0.018459 -0.006197 -0.000244 0.001483 0.003743
# 3 -0.002300 -0.006197 0.009116 0.000627 -0.001696 -0.001366
# 4 0.000381 -0.000244 0.000627 0.021180 0.000419 -0.003502
# 5 0.005143 0.001483 -0.001696 0.000419 0.048818 -0.001339
# 6 0.000254 0.003743 -0.001366 -0.003502 -0.001339 0.035705
#
#
# Mechanical properties :
#
#
# Convention : Reuss Voigt Hill
#
# Bulk Modulus (GPa) = 44.94594 56.24957 50.59775
# Shear Modulus (GPa) = 28.93364 34.03372 31.48368
#
# Velocity S-wave (km/s) = 3.75386 4.07129 3.91579
# Velocity P-wave (km/s) = 6.37798 7.03531 6.71469
#
# Compressibility (1/GPa) = 0.02224895
#
# Stress axis : x y z
#
# Youngs Moduli (GPa) = 74.65645 54.17306 109.70255
#
# Poissons Ratio (x) = 0.04676 0.25230
# Poissons Ratio (y) = 0.06444 0.67986
# Poissons Ratio (z) = 0.17170 0.33573
#
# Static dielectric constant tensor:
#      x y z
#    x 1.689890 -0.055510 -0.001170 
#    y -0.055510 1.668550 -0.019280 
#    z -0.001170 -0.019280 1.745940 
# 
# From -- ./inp_files/515288.got.cif
#   From: 2010.05.17/outbox.cif.g08.bks.cpg/sg2_258_cif.got.tgz:515288.got - 2010.06.03 11:33:40.
