data_PCOD9048314
_publ_section_title
;
Structure prediction by ZEFSAII (Michael W. Deem and Ramdas Pophale) SiO2 
 PCOD9048314
Probable space group: P -1
;
_chemical_formula_sum "Si O2"
_cell_formula_units_Z 14
_cell_length_a 9.463440
_cell_length_b 9.983844
_cell_length_c 11.574985
_cell_angle_alpha 125.448487
_cell_angle_beta 53.284652
_cell_angle_gamma 139.540682
_cell_volume 552.179691
_symmetry_space_group_name_H-M "P -1"
_symmetry_group_IT_number 2
_symmetry_cell_setting 'triclinic'
loop_
_space_group_symop_operation_xyz
x,y,z
-x,-y,-z
loop_
_atom_site_type_symbol
_atom_site_label
_atom_site_fract_x
_atom_site_fract_y
_atom_site_fract_z
Si Si1 0.912577 0.133444 0.540692
Si Si2 0.163202 0.290944 0.956986
Si Si3 0.069773 0.473773 0.293973
Si Si4 0.728808 0.577869 0.293067
Si Si5 0.657953 0.858797 0.038050
Si Si6 0.721264 0.659806 0.704074
Si Si7 0.580525 0.170280 0.292562
O O1 0.884473 0.308105 0.607955
O O2 0.083051 0.242080 0.620931
O O3 0.058873 0.140402 0.369578
O O4 0.662143 0.920302 0.582930
O O5 0.181514 0.343477 0.840838
O O6 0.333733 0.253978 0.909141
O O7 0.917163 0.068839 0.992474
O O8 0.167040 0.456091 0.117578
O O9 0.795904 0.281807 0.329702
O O10 0.189370 0.440380 0.317489
O O11 0.472367 0.500635 0.373662
O O12 0.675281 0.357672 0.247251
O O13 0.610151 0.718989 0.879862
O O14 0.534536 0.959820 0.160556
#
# Coordination Sequence:
#
# PCOD9048314 Si02
#       7
#     2   2   2   2   2   2   2
#     4  11  25  45  66  96 141 180 213 272 333 400
#     4   9  20  43  69 100 131 169 223 281 323 384
#     4   9  22  45  69  99 130 170 232 273 325 392
#     4  11  26  43  68  99 137 177 218 271 332 398
#     4   9  21  42  71 100 126 171 228 273 327 390
#     4  11  24  44  68 100 134 176 225 270 329 396
#     4  10  24  45  67 100 134 172 223 273 333 388
#
# _framework density 25.354064999999999
#
# number of rings (size 3 to 8) (size 9 to 14) (size 15 to 20)
#    0.000    2.000    0.000    1.714    6.000    8.000 
#    5.143    0.000    0.000    0.000    0.000    0.000 
#    0.000    0.000    0.000    0.000    0.000    0.000 
#
# Total GULP energy -78396.079765 kJ/mol
# GULP energy per Si atom -5599.719983 kJ/mol
# Density = 2.529636 g / cm^3
# Si number density = 25.354065 Si / 1000 Ang^3
#
#
#
# Elastic Constant Matrix: (Units=GPa)
#
#
# Indices 1 2 3 4 5 6 
#
# 1 145.8703 39.8026 33.8116 -0.6958 -8.4489 -1.3707
# 2 39.8026 99.8115 28.6479 5.1983 -7.9178 -3.1747
# 3 33.8116 28.6479 101.9218 -14.5759 -0.4775 -11.4225
# 4 -0.6958 5.1983 -14.5759 49.8777 2.6439 -6.0043
# 5 -8.4489 -7.9178 -0.4775 2.6439 32.3377 -7.1976
# 6 -1.3707 -3.1747 -11.4225 -6.0043 -7.1976 37.7368
#
#
#
# Elastic Compliance Matrix: (Units=1/GPa)
#
#
# Indices 1 2 3 4 5 6 
#
# 1 0.008097 -0.002518 -0.002056 -0.000340 0.001425 -0.000323
# 2 -0.002518 0.012170 -0.002876 -0.002255 0.002504 0.000181
# 3 -0.002056 -0.002876 0.012381 0.004402 -0.000521 0.004032
# 4 -0.000340 -0.002255 0.004402 0.022169 -0.001412 0.004388
# 5 0.001425 0.002504 -0.000521 -0.001412 0.033408 0.006252
# 6 -0.000323 0.000181 0.004032 0.004388 0.006252 0.029614
#
#
# Mechanical properties :
#
#
# Convention : Reuss Voigt Hill
#
# Bulk Modulus (GPa) = 56.34653 61.34752 58.84702
# Shear Modulus (GPa) = 36.06038 40.34653 38.20346
#
# Velocity S-wave (km/s) = 3.77539 3.99347 3.88596
# Velocity P-wave (km/s) = 6.42471 6.74630 6.58747
#
# Compressibility (1/GPa) = 0.01774732
#
# Stress axis : x y z
#
# Youngs Moduli (GPa) = 123.50166 82.16668 80.76918
#
# Poissons Ratio (x) = 0.20692 0.16609
# Poissons Ratio (y) = 0.31101 0.23228
# Poissons Ratio (z) = 0.25397 0.23630
#
# Static dielectric constant tensor:
#      x y z
#    x 1.976700 0.022370 -0.043560 
#    y 0.022370 2.045210 0.011560 
#    z -0.043560 0.011560 2.031160 
# 
# From -- ./inp_files/382878.got.cif
#   From: 2010.05.17/outbox.cif.g08.bks.cpg/sg2_192_cif.got.tgz:382878.got - 2010.06.03 11:33:40.
