data_PCOD9048869
_publ_section_title
;
Structure prediction by ZEFSAII (Michael W. Deem and Ramdas Pophale) SiO2 
 PCOD9048869
Probable space group: P -1
;
_chemical_formula_sum "Si O2"
_cell_formula_units_Z 16
_cell_length_a 5.338817
_cell_length_b 17.620993
_cell_length_c 7.819141
_cell_angle_alpha 73.648046
_cell_angle_beta 60.498337
_cell_angle_gamma 83.292415
_cell_volume 614.105986
_symmetry_space_group_name_H-M "P -1"
_symmetry_group_IT_number 2
_symmetry_cell_setting 'triclinic'
loop_
_space_group_symop_operation_xyz
x,y,z
-x,-y,-z
loop_
_atom_site_type_symbol
_atom_site_label
_atom_site_fract_x
_atom_site_fract_y
_atom_site_fract_z
Si Si1 0.905514 0.568757 0.115838
Si Si2 0.449939 0.969171 0.770066
Si Si3 0.823411 0.730550 0.154639
Si Si4 0.242323 0.784603 0.426184
Si Si5 0.625263 0.197027 0.238064
Si Si6 0.783788 0.669266 0.598271
Si Si7 0.294570 0.509206 0.293105
Si Si8 0.064784 0.940171 0.257356
O O1 0.847927 0.661072 0.048995
O O2 0.575797 0.538105 0.281075
O O3 0.179677 0.568481 0.151140
O O4 0.000000 0.500000 0.000000
O O5 0.518161 0.883186 0.731399
O O6 0.732681 0.019198 0.693555
O O7 0.235860 0.017751 0.691506
O O8 0.254236 0.954120 0.014272
O O9 0.539026 0.782091 0.222392
O O10 0.794777 0.687203 0.378080
O O11 0.103809 0.783501 0.987817
O O12 0.279411 0.812020 0.590781
O O13 0.105134 0.695814 0.529987
O O14 0.040642 0.846579 0.360581
O O15 0.418651 0.270871 0.273700
O O16 0.678801 0.580390 0.725426
O O17 0.000000 0.500000 0.500000
#
# Coordination Sequence:
#
# PCOD9048869 Si02
#       8
#     2   2   2   2   2   2   2   2
#     4  12  27  47  73 109 141 191 244 301 360 430
#     4  10  24  45  74 107 142 191 238 297 356 431
#     4  11  26  47  71 103 148 192 237 300 365 429
#     4  11  27  45  74 106 145 192 240 297 361 431
#     4  11  27  45  73 108 145 189 244 298 358 431
#     4  11  26  46  71 104 146 192 239 300 364 430
#     4  12  25  47  76 101 146 189 242 296 363 429
#     4  10  24  45  74 105 145 190 240 291 363 429
#
# _framework density 26.054133
#
# number of rings (size 3 to 8) (size 9 to 14) (size 15 to 20)
#    0.000    1.000    1.250    3.000   15.750    2.000 
#    0.000    0.000    0.000    0.000    0.000    0.000 
#    0.000    0.000    0.000    0.000    0.000    0.000 
#
# Total GULP energy -89566.356459 kJ/mol
# GULP energy per Si atom -5597.897279 kJ/mol
# Density = 2.599483 g / cm^3
# Si number density = 26.054133 Si / 1000 Ang^3
#
#
#
# Elastic Constant Matrix: (Units=GPa)
#
#
# Indices 1 2 3 4 5 6 
#
# 1 99.2102 49.3333 37.1448 -2.5196 -7.0310 -11.3171
# 2 49.3333 133.4180 17.8925 14.3695 -13.8029 4.8563
# 3 37.1448 17.8925 114.5177 8.5110 -35.4647 -13.8610
# 4 -2.5196 14.3695 8.5110 41.8705 4.3581 -12.5385
# 5 -7.0310 -13.8029 -35.4647 4.3581 36.3615 2.9429
# 6 -11.3171 4.8563 -13.8610 -12.5385 2.9429 44.5938
#
#
#
# Elastic Compliance Matrix: (Units=1/GPa)
#
#
# Indices 1 2 3 4 5 6 
#
# 1 0.015969 -0.006691 -0.006036 0.006735 -0.006570 0.005232
# 2 -0.006691 0.011210 0.002373 -0.006752 0.006450 -0.004505
# 3 -0.006036 0.002373 0.015659 -0.005876 0.015679 0.000390
# 4 0.006735 -0.006752 -0.005876 0.032139 -0.011687 0.010426
# 5 -0.006570 0.006450 0.015679 -0.011687 0.045680 -0.003797
# 6 0.005232 -0.004505 0.000390 0.010426 -0.003797 0.027547
#
#
# Mechanical properties :
#
#
# Convention : Reuss Voigt Hill
#
# Bulk Modulus (GPa) = 45.18991 61.76522 53.47756
# Shear Modulus (GPa) = 28.36282 40.75017 34.55650
#
# Velocity S-wave (km/s) = 3.30299 3.95911 3.64584
# Velocity P-wave (km/s) = 5.65054 6.68261 6.18813
#
# Compressibility (1/GPa) = 0.02212884
#
# Stress axis : x y z
#
# Youngs Moduli (GPa) = 62.62183 89.20973 63.86153
#
# Poissons Ratio (x) = 0.59688 0.38548
# Poissons Ratio (y) = 0.41899 -0.15152
# Poissons Ratio (z) = 0.37799 -0.21166
#
# Static dielectric constant tensor:
#      x y z
#    x 1.999390 -0.003280 -0.039770 
#    y -0.003280 1.986590 0.014760 
#    z -0.039770 0.014760 1.854150 
# 
# From -- ./inp_files/55344.got.cif
#   From: 2010.05.17/outbox.cif.g08.bks.cpg/sg2_28_cif.got.tgz:55344.got - 2010.06.03 11:33:40.
