data_PCOD9048059
_publ_section_title
;
Structure prediction by ZEFSAII (Michael W. Deem and Ramdas Pophale) SiO2 
 PCOD9048059
Probable space group: P -1
;
_chemical_formula_sum "Si O2"
_cell_formula_units_Z 14
_cell_length_a 11.785972
_cell_length_b 18.875566
_cell_length_c 7.815410
_cell_angle_alpha 78.937345
_cell_angle_beta 70.115612
_cell_angle_gamma 22.627262
_cell_volume 592.165156
_symmetry_space_group_name_H-M "P -1"
_symmetry_group_IT_number 2
_symmetry_cell_setting 'triclinic'
loop_
_space_group_symop_operation_xyz
x,y,z
-x,-y,-z
loop_
_atom_site_type_symbol
_atom_site_label
_atom_site_fract_x
_atom_site_fract_y
_atom_site_fract_z
Si Si1 0.915843 0.842538 0.440452
Si Si2 0.353215 0.007114 0.134718
Si Si3 0.257992 0.791893 0.166389
Si Si4 0.714246 0.731631 0.358689
Si Si5 0.837234 0.530743 0.191938
Si Si6 0.848283 0.442132 0.543187
Si Si7 0.881290 0.146776 0.190068
O O1 0.159771 0.769460 0.300801
O O2 0.000525 0.716772 0.387734
O O3 0.904656 0.837147 0.652214
O O4 0.564285 0.074960 0.472139
O O5 0.659058 0.802675 0.174610
O O6 0.162574 0.052679 0.100158
O O7 0.500000 0.000000 0.000000
O O8 0.607028 0.615829 0.144582
O O9 0.225623 0.803375 0.974514
O O10 0.036192 0.984363 0.244003
O O11 0.652748 0.683819 0.358345
O O12 0.051446 0.555289 0.364785
O O13 0.001469 0.383890 0.310343
O O14 0.000000 0.500000 0.000000
O O15 0.457536 0.648644 0.632335
#
# Coordination Sequence:
#
# PCOD9048059 Si02
#       7
#     2   2   2   2   2   2   2
#     4  10  25  43  70  95 139 178 221 276 341 394
#     4  10  24  44  72  99 134 180 223 272 340 403
#     4  11  24  47  69  99 137 179 228 273 345 401
#     4  10  24  46  67  99 136 182 218 275 340 397
#     4  12  26  43  71 102 136 176 228 283 332 401
#     4  12  26  44  70 104 136 174 231 279 336 397
#     4  11  25  45  73  99 133 182 226 280 332 406
#
# _framework density 23.642053000000001
#
# number of rings (size 3 to 8) (size 9 to 14) (size 15 to 20)
#    0.857    0.286    1.429    3.429    4.000    6.857 
#    0.000    0.000    0.000    0.000    0.000    0.000 
#    0.000    0.000    0.000    0.000    0.000    0.000 
#
# Total GULP energy -78056.717272 kJ/mol
# GULP energy per Si atom -5575.479805 kJ/mol
# Density = 2.358824 g / cm^3
# Si number density = 23.642053 Si / 1000 Ang^3
#
#
#
# Elastic Constant Matrix: (Units=GPa)
#
#
# Indices 1 2 3 4 5 6 
#
# 1 148.8873 20.5590 58.1350 -21.1349 -17.0028 -23.7502
# 2 20.5590 38.5513 24.3223 -8.7475 -1.8592 -3.7349
# 3 58.1350 24.3223 80.7251 -11.2904 -30.1469 -9.2953
# 4 -21.1349 -8.7475 -11.2904 31.0666 2.6472 2.8798
# 5 -17.0028 -1.8592 -30.1469 2.6472 42.5329 -7.2345
# 6 -23.7502 -3.7349 -9.2953 2.8798 -7.2345 49.6205
#
#
#
# Elastic Compliance Matrix: (Units=1/GPa)
#
#
# Indices 1 2 3 4 5 6 
#
# 1 0.010444 -0.000133 -0.006511 0.004388 -0.000124 0.003496
# 2 -0.000133 0.034912 -0.012826 0.005907 -0.008220 -0.001380
# 3 -0.006511 -0.012826 0.027791 0.000265 0.017132 0.003607
# 4 0.004388 0.005907 0.000265 0.036893 -0.000020 0.000450
# 5 -0.000124 -0.008220 0.017132 -0.000020 0.036584 0.007866
# 6 0.003496 -0.001380 0.003607 0.000450 0.007866 0.023519
#
#
# Mechanical properties :
#
#
# Convention : Reuss Voigt Hill
#
# Bulk Modulus (GPa) = 29.23353 52.68848 40.96101
# Shear Modulus (GPa) = 22.67718 35.65383 29.16550
#
# Velocity S-wave (km/s) = 3.10044 3.88760 3.51611
# Velocity P-wave (km/s) = 5.02084 6.51809 5.81783
#
# Compressibility (1/GPa) = 0.03420729
#
# Stress axis : x y z
#
# Youngs Moduli (GPa) = 95.75273 28.64304 35.98248
#
# Poissons Ratio (x) = 0.00382 0.23429
# Poissons Ratio (y) = 0.01276 0.46150
# Poissons Ratio (z) = 0.62346 0.36737
#
# Static dielectric constant tensor:
#      x y z
#    x 1.922480 0.026370 0.004040 
#    y 0.026370 2.027320 0.085610 
#    z 0.004040 0.085610 1.959260 
# 
# From -- ./inp_files/276460.got.cif
#   From: 2010.05.17/outbox.cif.g08.bks.cpg/sg2_139_cif.got.tgz:276460.got - 2010.06.03 11:33:40.
