data_PCOD9048185
_publ_section_title
;
Structure prediction by ZEFSAII (Michael W. Deem and Ramdas Pophale) SiO2 
 PCOD9048185
Probable space group: P -1
;
_chemical_formula_sum "Si O2"
_cell_formula_units_Z 15
_cell_length_a 5.067695
_cell_length_b 23.355720
_cell_length_c 13.860645
_cell_angle_alpha 158.830304
_cell_angle_beta 89.491701
_cell_angle_gamma 87.784412
_cell_volume 587.403104
_symmetry_space_group_name_H-M "P -1"
_symmetry_group_IT_number 2
_symmetry_cell_setting 'triclinic'
loop_
_space_group_symop_operation_xyz
x,y,z
-x,-y,-z
loop_
_atom_site_type_symbol
_atom_site_label
_atom_site_fract_x
_atom_site_fract_y
_atom_site_fract_z
Si Si1 0.980418 0.748619 0.351087
Si Si2 0.373465 0.290008 0.550952
Si Si3 0.167699 0.986941 0.880656
Si Si4 0.635883 0.120813 0.786576
Si Si5 0.840549 0.012582 0.405669
Si Si6 0.061240 0.345763 0.453177
Si Si7 0.480953 0.480374 0.354059
Si Si8 0.500000 0.500000 0.000000
O O1 0.024458 0.888411 0.647037
O O2 0.217507 0.609964 0.141500
O O3 0.706951 0.691181 0.302651
O O4 0.023236 0.833356 0.383805
O O5 0.550373 0.121329 0.271770
O O6 0.132113 0.324192 0.532828
O O7 0.547946 0.433050 0.778146
O O8 0.170275 0.168863 0.134733
O O9 0.000000 0.000000 0.000000
O O10 0.441962 0.019987 0.689604
O O11 0.925686 0.128982 0.844230
O O12 0.741520 0.036698 0.553873
O O13 0.474973 0.293092 0.039152
O O14 0.248439 0.470426 0.611641
O O15 0.764956 0.405364 0.512695
O O16 0.500000 0.500000 0.500000
#
# Coordination Sequence:
#
# PCOD9048185 Si02
#       8
#     2   2   2   2   2   2   2   1
#     4  11  25  41  74 103 145 192 233 306 359 448
#     4  11  25  46  72 109 149 194 240 300 367 457
#     4  11  24  45  69 107 148 192 246 291 362 454
#     4  10  24  49  67 102 137 182 252 300 361 428
#     4  10  24  44  75  98 136 189 236 306 358 426
#     4  12  27  45  74 104 146 196 233 302 373 428
#     4  12  29  47  73 104 142 190 246 310 365 432
#     4  10  26  46  64 110 154 182 244 294 358 460
#
# _framework density 25.536127
#
# number of rings (size 3 to 8) (size 9 to 14) (size 15 to 20)
#    0.000    1.067    1.333    2.800   13.067    0.000 
#    0.000    0.000    0.000    0.000    0.000    0.000 
#    0.000    0.000    0.000    0.000    0.000    0.000 
#
# Total GULP energy -83622.897365 kJ/mol
# GULP energy per Si atom -5574.859824 kJ/mol
# Density = 2.547801 g / cm^3
# Si number density = 25.536127 Si / 1000 Ang^3
#
#
#
# Elastic Constant Matrix: (Units=GPa)
#
#
# Indices 1 2 3 4 5 6 
#
# 1 119.7796 27.3321 21.2996 -1.4794 -31.5632 5.1412
# 2 27.3321 96.5087 14.2350 4.7189 -14.7650 -0.9665
# 3 21.2996 14.2350 138.0841 8.7646 -23.6736 -14.4453
# 4 -1.4794 4.7189 8.7646 21.4585 -1.3598 2.5278
# 5 -31.5632 -14.7650 -23.6736 -1.3598 51.9303 2.1002
# 6 5.1412 -0.9665 -14.4453 2.5278 2.1002 46.0639
#
#
#
# Elastic Compliance Matrix: (Units=1/GPa)
#
#
# Indices 1 2 3 4 5 6 
#
# 1 0.010549 -0.002140 -0.000774 0.002084 0.005579 -0.001834
# 2 -0.002140 0.011404 -0.000354 -0.002453 0.001699 0.000424
# 3 -0.000774 -0.000354 0.008441 -0.003556 0.003071 0.002781
# 4 0.002084 -0.002453 -0.003556 0.049248 0.000404 -0.004120
# 5 0.005579 0.001699 0.003071 0.000404 0.024572 -0.000766
# 6 -0.001834 0.000424 0.002781 -0.004120 -0.000766 0.023056
#
#
# Mechanical properties :
#
#
# Convention : Reuss Voigt Hill
#
# Bulk Modulus (GPa) = 41.91546 53.34508 47.63027
# Shear Modulus (GPa) = 35.27077 43.32425 39.29751
#
# Velocity S-wave (km/s) = 3.72050 4.12343 3.92714
# Velocity P-wave (km/s) = 5.90812 6.60346 6.26544
#
# Compressibility (1/GPa) = 0.02385755
#
# Stress axis : x y z
#
# Youngs Moduli (GPa) = 94.79289 87.68683 118.46793
#
# Poissons Ratio (x) = 0.18766 0.09172
# Poissons Ratio (y) = 0.20287 0.04196
# Poissons Ratio (z) = 0.07339 0.03106
#
# Static dielectric constant tensor:
#      x y z
#    x 4.852360 0.644960 2.272650 
#    y 0.644960 2.360750 0.565780 
#    z 2.272650 0.565780 3.769600 
# 
# From -- ./inp_files/485997.got.cif
#   From: 2010.05.17/outbox.cif.g08.bks.cpg/sg2_243_cif.got.tgz:485997.got - 2010.06.03 11:33:40.
