data_PCOD9048343
_publ_section_title
;
Structure prediction by ZEFSAII (Michael W. Deem and Ramdas Pophale) SiO2 
 PCOD9048343
Probable space group: P -1
;
_chemical_formula_sum "Si O2"
_cell_formula_units_Z 16
_cell_length_a 20.057302
_cell_length_b 15.905951
_cell_length_c 12.838967
_cell_angle_alpha 134.827684
_cell_angle_beta 27.769318
_cell_angle_gamma 154.305636
_cell_volume 735.869846
_symmetry_space_group_name_H-M "P -1"
_symmetry_group_IT_number 2
_symmetry_cell_setting 'triclinic'
loop_
_space_group_symop_operation_xyz
x,y,z
-x,-y,-z
loop_
_atom_site_type_symbol
_atom_site_label
_atom_site_fract_x
_atom_site_fract_y
_atom_site_fract_z
Si Si1 0.596430 0.465757 0.756299
Si Si2 0.598864 0.721660 0.589328
Si Si3 0.007943 0.724131 0.981546
Si Si4 0.953735 0.030954 0.980049
Si Si5 0.590101 0.897599 0.080007
Si Si6 0.713573 0.742001 0.674146
Si Si7 0.113491 0.562793 0.593196
Si Si8 0.491770 0.885195 0.986481
O O1 0.701605 0.612686 0.640825
O O2 0.804401 0.512038 0.548332
O O3 0.500000 0.500000 0.000000
O O4 0.333042 0.210728 0.870278
O O5 0.302827 0.502551 0.765437
O O6 0.821470 0.852169 0.311033
O O7 0.617435 0.660366 0.617660
O O8 0.630173 0.874902 0.725349
O O9 0.039374 0.821498 0.915426
O O10 0.121158 0.670674 0.764616
O O11 0.167159 0.907154 0.008681
O O12 0.000000 0.000000 0.000000
O O13 0.327283 0.746512 0.372606
O O14 0.619365 0.990281 0.014083
O O15 0.560383 0.739720 0.946379
O O16 0.000000 0.000000 0.500000
O O17 0.815698 0.359706 0.786160
O O18 0.500000 0.000000 0.000000
#
# Coordination Sequence:
#
# PCOD9048343 Si02
#       8
#     2   2   2   2   2   2   2   2
#     4  12  24  42  69 104 134 173 236 286 329 399
#     4  10  24  45  67  95 139 180 225 274 342 408
#     4  11  23  46  67 100 142 182 223 268 350 408
#     4  12  26  44  71 102 136 179 224 283 335 406
#     4  11  22  42  71  95 132 186 220 279 339 401
#     4  11  23  41  70  99 131 181 227 282 342 395
#     4  11  24  44  67 100 140 177 226 281 339 402
#     4  10  25  43  67 100 132 176 228 283 335 399
#
# _framework density 21.742975999999999
#
# number of rings (size 3 to 8) (size 9 to 14) (size 15 to 20)
#    0.000    1.000    2.500    3.375    5.250    2.000 
#    0.000    1.250    0.000    0.000    0.000    0.000 
#    0.000    0.000    0.000    0.000    0.000    0.000 
#
# Total GULP energy -89452.070396 kJ/mol
# GULP energy per Si atom -5590.754400 kJ/mol
# Density = 2.169349 g / cm^3
# Si number density = 21.742976 Si / 1000 Ang^3
#
#
#
# Elastic Constant Matrix: (Units=GPa)
#
#
# Indices 1 2 3 4 5 6 
#
# 1 136.2783 25.1633 29.4292 18.1612 7.4223 -18.0036
# 2 25.1633 54.1759 28.4512 -1.3766 6.6487 -7.5997
# 3 29.4292 28.4512 115.2094 9.8026 5.1640 1.6697
# 4 18.1612 -1.3766 9.8026 41.2220 -8.4481 -4.6931
# 5 7.4223 6.6487 5.1640 -8.4481 26.3272 2.4071
# 6 -18.0036 -7.5997 1.6697 -4.6931 2.4071 41.5231
#
#
#
# Elastic Compliance Matrix: (Units=1/GPa)
#
#
# Indices 1 2 3 4 5 6 
#
# 1 0.009312 -0.002944 -0.001192 -0.004223 -0.003301 0.003261
# 2 -0.002944 0.023614 -0.005239 0.003052 -0.003474 0.003802
# 3 -0.001192 -0.005239 0.010580 -0.002627 -0.001064 -0.002136
# 4 -0.004223 0.003052 -0.002627 0.029097 0.010132 0.001535
# 5 -0.003301 -0.003474 -0.001064 0.010132 0.043563 -0.003405
# 6 0.003261 0.003802 -0.002136 0.001535 -0.003405 0.026649
#
#
# Mechanical properties :
#
#
# Convention : Reuss Voigt Hill
#
# Bulk Modulus (GPa) = 40.39142 52.41678 46.40410
# Shear Modulus (GPa) = 29.44332 36.65578 33.04955
#
# Velocity S-wave (km/s) = 3.68387 4.11039 3.90296
# Velocity P-wave (km/s) = 6.05902 6.83278 6.45750
#
# Compressibility (1/GPa) = 0.02475773
#
# Stress axis : x y z
#
# Youngs Moduli (GPa) = 107.38526 42.34706 94.51690
#
# Poissons Ratio (x) = 0.12468 0.11263
# Poissons Ratio (y) = 0.31617 0.49514
# Poissons Ratio (z) = 0.12796 0.22184
#
# Static dielectric constant tensor:
#      x y z
#    x 1.811230 -0.004860 -0.020250 
#    y -0.004860 1.816010 0.034910 
#    z -0.020250 0.034910 1.820980 
# 
# From -- ./inp_files/185967.got.cif
#   From: 2010.05.17/outbox.cif.g08.bks.cpg/sg2_93_cif.got.tgz:185967.got - 2010.06.03 11:33:40.
