data_PCOD9048270
_publ_section_title
;
Structure prediction by ZEFSAII (Michael W. Deem and Ramdas Pophale) SiO2 
 PCOD9048270
Probable space group: P -1
;
_chemical_formula_sum "Si O2"
_cell_formula_units_Z 16
_cell_length_a 13.983240
_cell_length_b 9.470764
_cell_length_c 8.770196
_cell_angle_alpha 129.112946
_cell_angle_beta 126.129670
_cell_angle_gamma 86.084344
_cell_volume 636.704476
_symmetry_space_group_name_H-M "P -1"
_symmetry_group_IT_number 2
_symmetry_cell_setting 'triclinic'
loop_
_space_group_symop_operation_xyz
x,y,z
-x,-y,-z
loop_
_atom_site_type_symbol
_atom_site_label
_atom_site_fract_x
_atom_site_fract_y
_atom_site_fract_z
Si Si1 0.605117 0.430234 0.117419
Si Si2 0.822416 0.896972 0.646545
Si Si3 0.591192 0.330866 0.726699
Si Si4 0.784712 0.215215 0.666952
Si Si5 0.095298 0.912091 0.818956
Si Si6 0.019583 0.619379 0.302880
Si Si7 0.802556 0.727255 0.041707
Si Si8 0.599603 0.544679 0.483558
O O1 0.565704 0.361616 0.206942
O O2 0.742892 0.647771 0.418451
O O3 0.500000 0.500000 0.000000
O O4 0.610976 0.289025 0.892566
O O5 0.757885 0.986886 0.526323
O O6 0.836906 0.012173 0.900848
O O7 0.966361 0.947374 0.746253
O O8 0.653109 0.230499 0.602715
O O9 0.441324 0.294571 0.529324
O O10 0.692755 0.580260 0.963078
O O11 0.846002 0.300954 0.617448
O O12 0.911441 0.378243 0.004645
O O13 0.048748 0.685508 0.551193
O O14 0.176900 0.052475 0.844141
O O15 0.937585 0.729735 0.226060
O O16 0.742072 0.614144 0.744861
O O17 0.500000 0.500000 0.500000
#
# Coordination Sequence:
#
# PCOD9048270 Si02
#       8
#     2   2   2   2   2   2   2   2
#     4  10  20  38  60  88 110 149 204 241 284 338
#     4  11  22  36  57  90 121 153 190 247 291 342
#     4   9  20  35  60  87 114 154 192 241 289 348
#     4  10  21  37  55  84 123 156 190 232 296 356
#     4  11  22  35  58  89 119 150 201 241 285 346
#     4  10  21  36  56  86 117 162 192 232 292 348
#     4  10  17  34  58  86 114 146 196 245 277 336
#     4   9  18  35  59  85 110 147 193 245 284 331
#
# _framework density 25.129397999999998
#
# number of rings (size 3 to 8) (size 9 to 14) (size 15 to 20)
#    0.000    2.000    2.500    1.875    1.750    0.500 
#    0.000    7.500    0.000    0.750    0.000    0.000 
#    0.000    0.000    0.000    0.000    0.000    0.000 
#
# Total GULP energy -89147.540089 kJ/mol
# GULP energy per Si atom -5571.721256 kJ/mol
# Density = 2.507220 g / cm^3
# Si number density = 25.129398 Si / 1000 Ang^3
#
#
#
# Elastic Constant Matrix: (Units=GPa)
#
#
# Indices 1 2 3 4 5 6 
#
# 1 92.1536 13.1398 30.2759 -13.9138 -12.7755 3.2802
# 2 13.1398 49.8173 -0.1678 2.7387 -3.0731 10.5008
# 3 30.2759 -0.1678 92.2364 -26.1467 -26.5966 4.1626
# 4 -13.9138 2.7387 -26.1467 26.6737 4.0392 -3.5143
# 5 -12.7755 -3.0731 -26.5966 4.0392 32.1784 -6.1587
# 6 3.2802 10.5008 4.1626 -3.5143 -6.1587 24.7669
#
#
#
# Elastic Compliance Matrix: (Units=1/GPa)
#
#
# Indices 1 2 3 4 5 6 
#
# 1 0.013209 -0.003946 -0.002245 0.004904 0.002716 0.001672
# 2 -0.003946 0.023597 0.000009 -0.005761 -0.000582 -0.010446
# 3 -0.002245 0.000009 0.020441 0.017060 0.014411 0.002862
# 4 0.004904 -0.005761 0.017060 0.057082 0.010160 0.009552
# 5 0.002716 -0.000582 0.014411 0.010160 0.044651 0.010010
# 6 0.001672 -0.010446 0.002862 0.009552 0.010010 0.047947
#
#
# Mechanical properties :
#
#
# Convention : Reuss Voigt Hill
#
# Bulk Modulus (GPa) = 22.28058 35.63366 28.95712
# Shear Modulus (GPa) = 21.34442 29.45444 25.39943
#
# Velocity S-wave (km/s) = 2.91757 3.42732 3.18267
# Velocity P-wave (km/s) = 4.49836 5.46561 5.00541
#
# Compressibility (1/GPa) = 0.04488213
#
# Stress axis : x y z
#
# Youngs Moduli (GPa) = 75.70522 42.37869 48.92114
#
# Poissons Ratio (x) = 0.16723 0.10983
# Poissons Ratio (y) = 0.29874 -0.00043
# Poissons Ratio (z) = 0.16997 -0.00037
#
# Static dielectric constant tensor:
#      x y z
#    x 2.070260 0.082580 -0.036830 
#    y 0.082580 2.077190 0.037710 
#    z -0.036830 0.037710 2.131460 
# 
# From -- ./inp_files/263353.got.cif
#   From: 2010.05.17/outbox.cif.g08.bks.cpg/sg2_132_cif.got.tgz:263353.got - 2010.06.03 11:33:40.
