data_PCOD9048490
_publ_section_title
;
Structure prediction by ZEFSAII (Michael W. Deem and Ramdas Pophale) SiO2 
 PCOD9048490
Probable space group: P -1
;
_chemical_formula_sum "Si O2"
_cell_formula_units_Z 16
_cell_length_a 17.943060
_cell_length_b 26.589572
_cell_length_c 6.381348
_cell_angle_alpha 135.477137
_cell_angle_beta 137.180774
_cell_angle_gamma 19.219029
_cell_volume 678.359129
_symmetry_space_group_name_H-M "P -1"
_symmetry_group_IT_number 2
_symmetry_cell_setting 'triclinic'
loop_
_space_group_symop_operation_xyz
x,y,z
-x,-y,-z
loop_
_atom_site_type_symbol
_atom_site_label
_atom_site_fract_x
_atom_site_fract_y
_atom_site_fract_z
Si Si1 0.960899 0.942442 0.330559
Si Si2 0.354778 0.885642 0.474865
Si Si3 0.651488 0.348127 0.962451
Si Si4 0.600457 0.991492 0.997062
Si Si5 0.790770 0.639712 0.328054
Si Si6 0.693991 0.546869 0.672476
Si Si7 0.827133 0.753300 0.437244
Si Si8 0.657918 0.270954 0.160650
O O1 0.078786 0.817496 0.045826
O O2 0.127005 0.839454 0.569509
O O3 0.000000 0.000000 0.500000
O O4 0.696683 0.086787 0.296924
O O5 0.577387 0.767990 0.432660
O O6 0.293552 0.838430 0.147572
O O7 0.259726 0.022447 0.657448
O O8 0.512593 0.357436 0.623631
O O9 0.500000 0.500000 0.000000
O O10 0.647137 0.340029 0.175363
O O11 0.755524 0.860296 0.756642
O O12 0.372512 0.146679 0.850881
O O13 0.500000 0.000000 0.000000
O O14 0.842818 0.678522 0.410460
O O15 0.000000 0.500000 0.500000
O O16 0.745775 0.600510 0.959959
O O17 0.587112 0.587521 0.798117
O O18 0.931083 0.374330 0.566352
#
# Coordination Sequence:
#
# PCOD9048490 Si02
#       8
#     2   2   2   2   2   2   2   2
#     4  11  24  44  72 104 135 176 237 288 338 416
#     4  11  23  42  73  97 135 180 227 279 347 390
#     4  11  26  47  66 103 142 179 228 289 350 415
#     4  11  25  46  63 100 139 178 225 283 332 413
#     4  11  24  42  72 101 137 178 227 285 336 409
#     4  10  25  41  71  99 129 182 225 275 347 404
#     4  11  25  44  66  97 139 176 226 273 343 408
#     4  10  24  45  69 104 134 172 233 286 337 412
#
# _framework density 23.586326
#
# number of rings (size 3 to 8) (size 9 to 14) (size 15 to 20)
#    0.000    1.250    2.500    1.500    7.000    3.000 
#    2.250    0.000    0.000    0.000    0.000    0.000 
#    0.000    0.000    0.000    0.000    0.000    0.000 
#
# Total GULP energy -89212.524431 kJ/mol
# GULP energy per Si atom -5575.782777 kJ/mol
# Density = 2.353264 g / cm^3
# Si number density = 23.586326 Si / 1000 Ang^3
#
#
#
# Elastic Constant Matrix: (Units=GPa)
#
#
# Indices 1 2 3 4 5 6 
#
# 1 133.6489 55.0473 14.6076 2.8384 -20.1849 6.9759
# 2 55.0473 90.1120 38.3287 15.2516 -19.5462 -8.5507
# 3 14.6076 38.3287 54.3612 9.1359 -1.8328 -3.1885
# 4 2.8384 15.2516 9.1359 34.6054 -4.9743 -18.4809
# 5 -20.1849 -19.5462 -1.8328 -4.9743 36.4257 4.9139
# 6 6.9759 -8.5507 -3.1885 -18.4809 4.9139 53.2817
#
#
#
# Elastic Compliance Matrix: (Units=1/GPa)
#
#
# Indices 1 2 3 4 5 6 
#
# 1 0.010737 -0.007219 0.002006 0.000875 0.002618 -0.002382
# 2 -0.007219 0.023853 -0.013810 -0.004270 0.007279 0.001794
# 3 0.002006 -0.013810 0.027826 -0.002874 -0.005111 -0.001339
# 4 0.000875 -0.004270 -0.002874 0.038172 0.001627 0.012118
# 5 0.002618 0.007279 -0.005111 0.001627 0.033040 -0.001963
# 6 -0.002382 0.001794 -0.001339 0.012118 -0.001963 0.023672
#
#
# Mechanical properties :
#
#
# Convention : Reuss Voigt Hill
#
# Bulk Modulus (GPa) = 41.03348 54.89881 47.96614
# Shear Modulus (GPa) = 24.57372 36.20514 30.38943
#
# Velocity S-wave (km/s) = 3.23129 3.92216 3.59337
# Velocity P-wave (km/s) = 5.59969 6.62098 6.13164
#
# Compressibility (1/GPa) = 0.02437034
#
# Stress axis : x y z
#
# Youngs Moduli (GPa) = 93.13167 41.92328 35.93798
#
# Poissons Ratio (x) = 0.30263 -0.07209
# Poissons Ratio (y) = 0.67229 0.49631
# Poissons Ratio (z) = -0.18681 0.57896
#
# Static dielectric constant tensor:
#      x y z
#    x 1.927400 -0.055120 0.007400 
#    y -0.055120 2.035250 -0.133590 
#    z 0.007400 -0.133590 2.152280 
# 
# From -- ./inp_files/113284.got.cif
#   From: 2010.05.17/outbox.cif.g08.bks.cpg/sg2_57_cif.got.tgz:113284.got - 2010.06.03 11:33:40.
