data_PCOD9048304
_publ_section_title
;
Structure prediction by ZEFSAII (Michael W. Deem and Ramdas Pophale) SiO2 
 PCOD9048304
Probable space group: P -1
;
_chemical_formula_sum "Si O2"
_cell_formula_units_Z 16
_cell_length_a 9.032575
_cell_length_b 10.003174
_cell_length_c 15.875664
_cell_angle_alpha 44.082391
_cell_angle_beta 131.169761
_cell_angle_gamma 134.776115
_cell_volume 673.846412
_symmetry_space_group_name_H-M "P -1"
_symmetry_group_IT_number 2
_symmetry_cell_setting 'triclinic'
loop_
_space_group_symop_operation_xyz
x,y,z
-x,-y,-z
loop_
_atom_site_type_symbol
_atom_site_label
_atom_site_fract_x
_atom_site_fract_y
_atom_site_fract_z
Si Si1 0.065106 0.624203 0.688917
Si Si2 0.543972 0.756696 0.504344
Si Si3 0.596249 0.843910 0.146419
Si Si4 0.191104 0.382789 0.230552
Si Si5 0.014342 0.158113 0.102176
Si Si6 0.430678 0.087491 0.248024
Si Si7 0.236378 0.254989 0.577888
Si Si8 0.896652 0.167715 0.880944
O O1 0.932114 0.628194 0.722039
O O2 0.991532 0.739813 0.535364
O O3 0.989494 0.371083 0.762418
O O4 0.324077 0.733019 0.747085
O O5 0.687394 0.766277 0.634181
O O6 0.424974 0.907692 0.392016
O O7 0.386007 0.506709 0.540785
O O8 0.690316 0.820465 0.445471
O O9 0.392722 0.609392 0.177814
O O10 0.707379 0.864433 0.271249
O O11 0.819621 0.916264 0.143097
O O12 0.500000 0.000000 0.000000
O O13 0.968463 0.715350 0.863117
O O14 0.945329 0.259218 0.951928
O O15 0.250263 0.166208 0.170219
O O16 0.348859 0.971631 0.179146
O O17 0.000000 0.000000 0.000000
#
# Coordination Sequence:
#
# PCOD9048304 Si02
#       8
#     2   2   2   2   2   2   2   2
#     4  11  23  42  75 103 128 179 235 287 329 397
#     4   9  19  40  69  95 134 174 227 286 329 393
#     4  11  25  43  69  98 138 182 219 282 344 402
#     4  10  25  44  65 103 134 173 232 283 332 404
#     4  11  27  44  64 101 144 177 223 274 352 414
#     4  11  25  42  71 101 134 183 225 281 343 401
#     4   9  20  40  68 102 131 170 239 279 330 398
#     4  10  24  45  66  96 139 181 226 273 334 409
#
# _framework density 23.744281999999998
#
# number of rings (size 3 to 8) (size 9 to 14) (size 15 to 20)
#    0.000    1.750    1.250    1.500    5.250    8.500 
#    0.000    1.250    0.000    0.000    0.000    0.000 
#    0.000    0.000    0.000    0.000    0.000    0.000 
#
# Total GULP energy -89250.467566 kJ/mol
# GULP energy per Si atom -5578.154223 kJ/mol
# Density = 2.369024 g / cm^3
# Si number density = 23.744282 Si / 1000 Ang^3
#
#
#
# Elastic Constant Matrix: (Units=GPa)
#
#
# Indices 1 2 3 4 5 6 
#
# 1 43.8107 31.4688 40.0335 4.7315 4.7249 13.0490
# 2 31.4688 110.6040 35.0974 8.8124 0.1102 26.4100
# 3 40.0335 35.0974 167.0210 6.5437 -10.4111 4.3720
# 4 4.7315 8.8124 6.5437 38.2798 2.3450 1.4159
# 5 4.7249 0.1102 -10.4111 2.3450 35.5324 8.5767
# 6 13.0490 26.4100 4.3720 1.4159 8.5767 35.6512
#
#
#
# Elastic Compliance Matrix: (Units=1/GPa)
#
#
# Indices 1 2 3 4 5 6 
#
# 1 0.037147 -0.006488 -0.007668 -0.001209 -0.005524 -0.006473
# 2 -0.006488 0.013152 -0.000764 -0.001966 0.002617 -0.007826
# 3 -0.007668 -0.000764 0.008152 -0.000518 0.003044 0.001661
# 4 -0.001209 -0.001966 -0.000518 0.026891 -0.002097 0.001399
# 5 -0.005524 0.002617 0.003044 -0.002097 0.031796 -0.007856
# 6 -0.006473 -0.007826 0.001661 0.001399 -0.007856 0.037847
#
#
# Mechanical properties :
#
#
# Convention : Reuss Voigt Hill
#
# Bulk Modulus (GPa) = 34.95039 59.40388 47.17714
# Shear Modulus (GPa) = 25.72510 36.21508 30.97009
#
# Velocity S-wave (km/s) = 3.29511 3.90963 3.61545
# Velocity P-wave (km/s) = 5.40633 6.74187 6.11070
#
# Compressibility (1/GPa) = 0.02861198
#
# Stress axis : x y z
#
# Youngs Moduli (GPa) = 26.92003 76.03187 122.66606
#
# Poissons Ratio (x) = 0.49332 0.94059
# Poissons Ratio (y) = 0.17467 0.09367
# Poissons Ratio (z) = 0.20642 0.05806
#
# Static dielectric constant tensor:
#      x y z
#    x 1.974030 -0.032870 -0.021140 
#    y -0.032870 1.926260 -0.009600 
#    z -0.021140 -0.009600 1.916600 
# 
# From -- ./inp_files/595633.got.cif
#   From: 2010.05.17/outbox.cif.g08.bks.cpg/sg2_298_cif.got.tgz:595633.got - 2010.06.03 11:33:40.
