data_PCOD9048339
_publ_section_title
;
Structure prediction by ZEFSAII (Michael W. Deem and Ramdas Pophale) SiO2 
 PCOD9048339
Probable space group: P -1
;
_chemical_formula_sum "Si O2"
_cell_formula_units_Z 14
_cell_length_a 7.010620
_cell_length_b 7.222285
_cell_length_c 10.601664
_cell_angle_alpha 102.081086
_cell_angle_beta 83.563792
_cell_angle_gamma 95.153606
_cell_volume 520.375924
_symmetry_space_group_name_H-M "P -1"
_symmetry_group_IT_number 2
_symmetry_cell_setting 'triclinic'
loop_
_space_group_symop_operation_xyz
x,y,z
-x,-y,-z
loop_
_atom_site_type_symbol
_atom_site_label
_atom_site_fract_x
_atom_site_fract_y
_atom_site_fract_z
Si Si1 0.774042 0.134309 0.920440
Si Si2 0.403919 0.562237 0.872452
Si Si3 0.864179 0.471069 0.358177
Si Si4 0.394737 0.228261 0.503632
Si Si5 0.206377 0.197754 0.951988
Si Si6 0.276946 0.933967 0.667767
Si Si7 0.280923 0.654669 0.298414
O O1 0.625002 0.237754 0.033251
O O2 0.737483 0.187030 0.786582
O O3 0.982789 0.232404 0.955213
O O4 0.778614 0.919588 0.936704
O O5 0.249786 0.533216 0.766035
O O6 0.332265 0.391423 0.947304
O O7 0.607638 0.515959 0.794299
O O8 0.727211 0.589771 0.475131
O O9 0.871346 0.249275 0.356786
O O10 0.930175 0.418874 0.653652
O O11 0.511768 0.152340 0.366700
O O12 0.570392 0.269114 0.595445
O O13 0.263726 0.070299 0.567096
O O14 0.252531 0.056133 0.812385
#
# Coordination Sequence:
#
# PCOD9048339 Si02
#       7
#     2   2   2   2   2   2   2
#     4  11  23  40  65  98 130 173 214 268 320 388
#     4  11  22  42  65  93 135 172 213 262 325 383
#     4  11  22  42  68  95 131 171 215 266 324 386
#     4  10  24  45  67  94 131 170 217 271 320 386
#     4  11  22  40  69  94 124 177 219 256 322 389
#     4  11  21  44  70  91 129 176 216 263 328 382
#     4  11  23  41  68 101 132 166 220 268 323 386
#
# _framework density 26.903631000000001
#
# number of rings (size 3 to 8) (size 9 to 14) (size 15 to 20)
#    0.000    1.143    5.714    1.286    0.000    1.143 
#    0.000   15.000    0.000    0.000    0.000    0.000 
#    0.000    0.000    0.000    0.000    0.000    0.000 
#
# Total GULP energy -78554.649882 kJ/mol
# GULP energy per Si atom -5611.046420 kJ/mol
# Density = 2.684240 g / cm^3
# Si number density = 26.903631 Si / 1000 Ang^3
#
#
#
# Elastic Constant Matrix: (Units=GPa)
#
#
# Indices 1 2 3 4 5 6 
#
# 1 133.5386 9.4328 22.7782 -2.1236 -6.5204 -6.1186
# 2 9.4328 88.8651 16.5697 -8.8266 6.2477 5.7475
# 3 22.7782 16.5697 78.9637 -0.5570 1.0357 -13.4152
# 4 -2.1236 -8.8266 -0.5570 42.1841 -4.5237 6.0494
# 5 -6.5204 6.2477 1.0357 -4.5237 36.4541 -8.4140
# 6 -6.1186 5.7475 -13.4152 6.0494 -8.4140 31.0864
#
#
#
# Elastic Compliance Matrix: (Units=1/GPa)
#
#
# Indices 1 2 3 4 5 6 
#
# 1 0.008033 -0.000684 -0.001971 0.000253 0.001950 0.001336
# 2 -0.000684 0.012816 -0.003343 0.003043 -0.003087 -0.005374
# 3 -0.001971 -0.003343 0.015168 -0.001523 0.001315 0.007428
# 4 0.000253 0.003043 -0.001523 0.025304 0.001387 -0.005719
# 5 0.001950 -0.003087 0.001315 0.001387 0.030648 0.009547
# 6 0.001336 -0.005374 0.007428 -0.005719 0.009547 0.040328
#
#
# Mechanical properties :
#
#
# Convention : Reuss Voigt Hill
#
# Bulk Modulus (GPa) = 41.62830 44.32543 42.97686
# Shear Modulus (GPa) = 32.83020 38.78403 35.80712
#
# Velocity S-wave (km/s) = 3.49705 3.80095 3.65216
# Velocity P-wave (km/s) = 5.64026 5.98117 5.81321
#
# Compressibility (1/GPa) = 0.02402212
#
# Stress axis : x y z
#
# Youngs Moduli (GPa) = 124.48128 78.02895 65.92790
#
# Poissons Ratio (x) = 0.05334 0.12993
# Poissons Ratio (y) = 0.08509 0.22041
# Poissons Ratio (z) = 0.24532 0.26086
#
# Static dielectric constant tensor:
#      x y z
#    x 2.078350 -0.003490 0.039920 
#    y -0.003490 2.089770 -0.021860 
#    z 0.039920 -0.021860 2.152760 
# 
# From -- ./inp_files/376088.got.cif
#   From: 2010.05.17/outbox.cif.g08.bks.cpg/sg2_189_cif.got.tgz:376088.got - 2010.06.03 11:33:40.
