data_PCOD9048478
_publ_section_title
;
Structure prediction by ZEFSAII (Michael W. Deem and Ramdas Pophale) SiO2 
 PCOD9048478
Probable space group: P -1
;
_chemical_formula_sum "Si O2"
_cell_formula_units_Z 13
_cell_length_a 9.519176
_cell_length_b 13.250432
_cell_length_c 11.687057
_cell_angle_alpha 147.434483
_cell_angle_beta 54.377455
_cell_angle_gamma 138.527546
_cell_volume 520.488441
_symmetry_space_group_name_H-M "P -1"
_symmetry_group_IT_number 2
_symmetry_cell_setting 'triclinic'
loop_
_space_group_symop_operation_xyz
x,y,z
-x,-y,-z
loop_
_atom_site_type_symbol
_atom_site_label
_atom_site_fract_x
_atom_site_fract_y
_atom_site_fract_z
Si Si1 0.513111 0.393046 0.619120
Si Si2 0.000000 0.000000 0.500000
Si Si3 0.954230 0.570922 0.970753
Si Si4 0.528784 0.240762 0.716918
Si Si5 0.690575 0.222714 0.192299
Si Si6 0.938733 0.975605 0.293356
Si Si7 0.207758 0.091281 0.062084
O O1 0.582306 0.351157 0.669568
O O2 0.621827 0.356050 0.425584
O O3 0.591248 0.657191 0.828132
O O4 0.262374 0.206677 0.548921
O O5 0.934708 0.114572 0.531354
O O6 0.716622 0.405327 0.873655
O O7 0.119496 0.624744 0.842611
O O8 0.981895 0.819750 0.208518
O O9 0.000000 0.500000 0.000000
O O10 0.295031 0.178626 0.798459
O O11 0.500000 0.000000 0.500000
O O12 0.500000 0.000000 0.000000
O O13 0.756691 0.106552 0.141388
O O14 0.128140 0.098428 0.233136
O O15 0.000000 0.000000 0.000000
#
# Coordination Sequence:
#
# PCOD9048478 Si02
#       7
#     2   1   2   2   2   2   2
#     4  11  25  49  77 103 156 191 253 315 371 446
#     4  10  24  46  70 104 142 196 238 304 378 430
#     4  11  26  45  74 106 148 196 239 305 370 437
#     4  11  27  45  70 105 142 195 247 299 370 441
#     4  11  27  46  72 114 145 191 256 302 373 447
#     4  10  24  45  69 102 147 182 252 294 366 445
#     4  11  26  46  75 105 144 197 245 308 377 441
#
# _framework density 24.976538999999999
#
# number of rings (size 3 to 8) (size 9 to 14) (size 15 to 20)
#    0.000    1.231    0.000    4.154   10.769    7.385 
#    0.000    0.769    0.000    0.000    0.000    0.000 
#    0.000    0.000    0.000    0.000    0.000    0.000 
#
# Total GULP energy -72679.142468 kJ/mol
# GULP energy per Si atom -5590.703267 kJ/mol
# Density = 2.491969 g / cm^3
# Si number density = 24.976539 Si / 1000 Ang^3
#
#
#
# Elastic Constant Matrix: (Units=GPa)
#
#
# Indices 1 2 3 4 5 6 
#
# 1 163.5437 51.6890 37.5384 25.4138 23.6337 -1.7314
# 2 51.6890 162.5303 72.2609 2.7499 -12.3498 2.2142
# 3 37.5384 72.2609 99.1128 11.6566 16.2846 -3.2603
# 4 25.4138 2.7499 11.6566 51.2146 6.3012 -2.8217
# 5 23.6337 -12.3498 16.2846 6.3012 44.0532 5.8296
# 6 -1.7314 2.2142 -3.2603 -2.8217 5.8296 45.5268
#
#
#
# Elastic Compliance Matrix: (Units=1/GPa)
#
#
# Indices 1 2 3 4 5 6 
#
# 1 0.008296 -0.003191 0.000459 -0.003362 -0.005160 0.000956
# 2 -0.003191 0.011868 -0.009128 0.001856 0.008455 -0.002320
# 3 0.000459 -0.009128 0.018562 -0.002614 -0.009672 0.002867
# 4 -0.003362 0.001856 -0.002614 0.021734 0.000058 0.000934
# 5 -0.005160 0.008455 -0.009672 0.000058 0.032121 -0.005410
# 6 0.000956 -0.002320 0.002867 0.000934 -0.005410 0.023070
#
#
# Mechanical properties :
#
#
# Convention : Reuss Voigt Hill
#
# Bulk Modulus (GPa) = 66.63882 83.12928 74.88405
# Shear Modulus (GPa) = 34.63231 45.73883 40.18557
#
# Velocity S-wave (km/s) = 3.72774 4.28398 4.01550
# Velocity P-wave (km/s) = 6.72804 7.60429 7.17954
#
# Compressibility (1/GPa) = 0.01500627
#
# Stress axis : x y z
#
# Youngs Moduli (GPa) = 120.54084 84.25678 53.87368
#
# Poissons Ratio (x) = 0.26883 -0.02472
# Poissons Ratio (y) = 0.38459 0.49178
# Poissons Ratio (z) = -0.05531 0.76912
#
# Static dielectric constant tensor:
#      x y z
#    x 2.010130 -0.099530 0.038520 
#    y -0.099530 1.954520 -0.033440 
#    z 0.038520 -0.033440 2.129150 
# 
# From -- ./inp_files/391908.got.cif
#   From: 2010.05.17/outbox.cif.g08.bks.cpg/sg2_196_cif.got.tgz:391908.got - 2010.06.03 11:33:40.
