data_PCOD9048531
_publ_section_title
;
Structure prediction by ZEFSAII (Michael W. Deem and Ramdas Pophale) SiO2 
 PCOD9048531
Probable space group: P -1
;
_chemical_formula_sum "Si O2"
_cell_formula_units_Z 16
_cell_length_a 26.022242
_cell_length_b 14.631198
_cell_length_c 9.014292
_cell_angle_alpha 131.019646
_cell_angle_beta 38.203315
_cell_angle_gamma 159.115920
_cell_volume 707.873038
_symmetry_space_group_name_H-M "P -1"
_symmetry_group_IT_number 2
_symmetry_cell_setting 'triclinic'
loop_
_space_group_symop_operation_xyz
x,y,z
-x,-y,-z
loop_
_atom_site_type_symbol
_atom_site_label
_atom_site_fract_x
_atom_site_fract_y
_atom_site_fract_z
Si Si1 0.518453 0.728642 0.150481
Si Si2 0.089262 0.011409 0.706681
Si Si3 0.485394 0.431534 0.748376
Si Si4 0.169719 0.983225 0.780337
Si Si5 0.817551 0.532417 0.278212
Si Si6 0.839744 0.302950 0.531987
Si Si7 0.847464 0.530033 0.534929
Si Si8 0.602463 0.036550 0.063925
O O1 0.600949 0.783341 0.174790
O O2 0.334875 0.565877 0.437436
O O3 0.636892 0.968235 0.025162
O O4 0.469665 0.541992 0.976672
O O5 0.295399 0.313902 0.499928
O O6 0.133508 0.959795 0.665712
O O7 0.950522 0.777593 0.646185
O O8 0.000000 0.000000 0.000000
O O9 0.368046 0.289216 0.713232
O O10 0.174456 0.848179 0.663143
O O11 0.993629 0.810574 0.082021
O O12 0.899610 0.588756 0.306655
O O13 0.707070 0.287075 0.170229
O O14 0.882827 0.458778 0.478295
O O15 0.000000 0.500000 0.500000
O O16 0.665508 0.105156 0.823906
O O17 0.621578 0.244786 0.736186
#
# Coordination Sequence:
#
# PCOD9048531 Si02
#       8
#     2   2   2   2   2   2   2   2
#     4  10  24  45  69  97 136 174 228 279 331 396
#     4  12  27  47  68  98 138 182 230 272 330 406
#     4  11  27  43  69  99 136 180 226 276 335 390
#     4  12  27  43  70 101 136 180 223 278 339 396
#     4  11  25  45  72 102 134 174 228 276 342 401
#     4  12  24  44  67 101 140 169 221 284 338 401
#     4  11  26  43  71  98 133 182 221 278 337 395
#     4  11  24  46  71  99 136 176 224 277 341 402
#
# _framework density 22.602922
#
# number of rings (size 3 to 8) (size 9 to 14) (size 15 to 20)
#    0.000    0.750    2.500    3.750   12.250    1.000 
#    0.000    0.000    0.000    0.000    0.000    0.000 
#    0.000    0.000    0.000    0.000    0.000    0.000 
#
# Total GULP energy -89424.055949 kJ/mol
# GULP energy per Si atom -5589.003497 kJ/mol
# Density = 2.255148 g / cm^3
# Si number density = 22.602922 Si / 1000 Ang^3
#
#
#
# Elastic Constant Matrix: (Units=GPa)
#
#
# Indices 1 2 3 4 5 6 
#
# 1 61.1666 11.1753 -6.4317 -3.2618 -2.5085 4.0558
# 2 11.1753 71.3400 9.5113 -0.8075 -17.2760 23.8649
# 3 -6.4317 9.5113 70.4103 7.1696 -12.8454 2.9822
# 4 -3.2618 -0.8075 7.1696 32.1733 -8.7038 -0.9643
# 5 -2.5085 -17.2760 -12.8454 -8.7038 24.1486 6.2417
# 6 4.0558 23.8649 2.9822 -0.9643 6.2417 38.9007
#
#
#
# Elastic Compliance Matrix: (Units=1/GPa)
#
#
# Indices 1 2 3 4 5 6 
#
# 1 0.017211 -0.002019 0.002144 0.001840 0.002422 -0.001063
# 2 -0.002019 0.028802 0.001502 0.007537 0.029633 -0.022142
# 3 0.002144 0.001502 0.016419 -0.000580 0.010899 -0.004167
# 4 0.001840 0.007537 -0.000580 0.036896 0.020416 -0.007132
# 5 0.002422 0.029633 0.010899 0.020416 0.084366 -0.032298
# 6 -0.001063 -0.022142 -0.004167 -0.007132 -0.032298 0.044726
#
#
# Mechanical properties :
#
#
# Convention : Reuss Voigt Hill
#
# Bulk Modulus (GPa) = 15.22383 25.71407 20.46895
# Shear Modulus (GPa) = 20.23789 31.62197 25.92993
#
# Velocity S-wave (km/s) = 2.99551 3.74441 3.39070
# Velocity P-wave (km/s) = 4.32598 5.48591 4.94011
#
# Compressibility (1/GPa) = 0.06568648
#
# Stress axis : x y z
#
# Youngs Moduli (GPa) = 58.10206 34.71997 60.90343
#
# Poissons Ratio (x) = 0.07010 -0.13061
# Poissons Ratio (y) = 0.11731 -0.09145
# Poissons Ratio (z) = -0.12460 -0.05213
#
# Static dielectric constant tensor:
#      x y z
#    x 1.857060 -0.009930 -0.038030 
#    y -0.009930 1.887200 -0.063290 
#    z -0.038030 -0.063290 1.717430 
# 
# From -- ./inp_files/357422.got.cif
#   From: 2010.05.17/outbox.cif.g08.bks.cpg/sg2_179_cif.got.tgz:357422.got - 2010.06.03 11:33:40.
