data_PCOD9048249
_publ_section_title
;
Structure prediction by ZEFSAII (Michael W. Deem and Ramdas Pophale) SiO2 
 PCOD9048249
Probable space group: P -1
;
_chemical_formula_sum "Si O2"
_cell_formula_units_Z 16
_cell_length_a 9.972132
_cell_length_b 14.737935
_cell_length_c 6.711525
_cell_angle_alpha 97.076774
_cell_angle_beta 44.638898
_cell_angle_gamma 96.898666
_cell_volume 687.043858
_symmetry_space_group_name_H-M "P -1"
_symmetry_group_IT_number 2
_symmetry_cell_setting 'triclinic'
loop_
_space_group_symop_operation_xyz
x,y,z
-x,-y,-z
loop_
_atom_site_type_symbol
_atom_site_label
_atom_site_fract_x
_atom_site_fract_y
_atom_site_fract_z
Si Si1 0.256345 0.535327 0.873626
Si Si2 0.034473 0.702440 0.136702
Si Si3 0.271461 0.925929 0.409638
Si Si4 0.681069 0.595790 0.532483
Si Si5 0.433703 0.118658 0.246296
Si Si6 0.702323 0.651422 0.984562
Si Si7 0.391473 0.770594 0.541892
Si Si8 0.088715 0.179591 0.353864
O O1 0.106033 0.606570 0.118672
O O2 0.462507 0.586524 0.693608
O O3 0.238485 0.500161 0.655174
O O4 0.749141 0.559064 0.024848
O O5 0.184103 0.730042 0.817265
O O6 0.814510 0.676252 0.313554
O O7 0.034903 0.777222 0.327871
O O8 0.355917 0.855172 0.456540
O O9 0.045501 0.901091 0.618856
O O10 0.326872 0.030137 0.435764
O O11 0.381085 0.910959 0.080266
O O12 0.679611 0.617617 0.771556
O O13 0.501344 0.190620 0.362622
O O14 0.283103 0.151804 0.249186
O O15 0.855554 0.737396 0.832393
O O16 0.512354 0.695855 0.280800
#
# Coordination Sequence:
#
# PCOD9048249 Si02
#       8
#     2   2   2   2   2   2   2   2
#     4  11  24  44  69  94 141 188 232 293 353 400
#     4  11  26  42  69  99 143 182 236 287 345 411
#     4  11  25  48  77 107 141 186 230 292 364 423
#     4  10  24  45  63  97 131 184 233 294 341 405
#     4  11  25  50  73 107 149 178 229 299 361 418
#     4  11  26  42  71  99 141 183 239 288 345 412
#     4  12  25  45  76 108 140 190 236 288 350 430
#     4  11  25  46  74 108 141 187 233 295 349 421
#
# _framework density 23.288180000000001
#
# number of rings (size 3 to 8) (size 9 to 14) (size 15 to 20)
#    0.000    1.000    2.500    3.000   10.500    2.000 
#    0.000    1.250    0.000    2.250    0.000    0.000 
#    0.000    0.000    0.000    0.000    0.000    0.000 
#
# Total GULP energy -89487.252314 kJ/mol
# GULP energy per Si atom -5592.953270 kJ/mol
# Density = 2.323518 g / cm^3
# Si number density = 23.288180 Si / 1000 Ang^3
#
#
#
# Elastic Constant Matrix: (Units=GPa)
#
#
# Indices 1 2 3 4 5 6 
#
# 1 83.6934 39.2334 10.9137 -20.7211 -1.0480 17.7019
# 2 39.2334 115.0778 23.6836 -32.9993 0.7888 8.0622
# 3 10.9137 23.6836 97.9261 -16.1328 4.1437 13.5296
# 4 -20.7211 -32.9993 -16.1328 46.1565 6.2112 -2.7225
# 5 -1.0480 0.7888 4.1437 6.2112 25.9897 -4.1697
# 6 17.7019 8.0622 13.5296 -2.7225 -4.1697 45.8904
#
#
#
# Elastic Compliance Matrix: (Units=1/GPa)
#
#
# Indices 1 2 3 4 5 6 
#
# 1 0.015945 -0.003908 0.000724 0.004467 -0.001309 -0.005532
# 2 -0.003908 0.012263 -0.001321 0.006812 -0.001952 -0.000031
# 3 0.000724 -0.001321 0.011690 0.003693 -0.003250 -0.003570
# 4 0.004467 0.006812 0.003693 0.030795 -0.008448 -0.002949
# 5 -0.001309 -0.001952 -0.003250 -0.008448 0.041840 0.005106
# 6 -0.005532 -0.000031 -0.003570 -0.002949 0.005106 0.025272
#
#
# Mechanical properties :
#
#
# Convention : Reuss Voigt Hill
#
# Bulk Modulus (GPa) = 32.37543 49.37318 40.87430
# Shear Modulus (GPa) = 31.82476 38.46511 35.14494
#
# Velocity S-wave (km/s) = 3.70072 4.06852 3.88897
# Velocity P-wave (km/s) = 5.67386 6.58160 6.14452
#
# Compressibility (1/GPa) = 0.03088762
#
# Stress axis : x y z
#
# Youngs Moduli (GPa) = 62.71380 81.54719 85.54509
#
# Poissons Ratio (x) = 0.31865 -0.06190
# Poissons Ratio (y) = 0.24506 0.11302
# Poissons Ratio (z) = -0.04538 0.10774
#
# Static dielectric constant tensor:
#      x y z
#    x 1.902830 -0.005920 0.002090 
#    y -0.005920 1.874680 -0.018280 
#    z 0.002090 -0.018280 1.874770 
# 
# From -- ./inp_files/48090.got.cif
#   From: 2010.05.17/outbox.cif.g08.bks.cpg/sg2_25_cif.got.tgz:48090.got - 2010.06.03 11:33:40.
