data_PCOD9048358
_publ_section_title
;
Structure prediction by ZEFSAII (Michael W. Deem and Ramdas Pophale) SiO2 
 PCOD9048358
Probable space group: P -1
;
_chemical_formula_sum "Si O2"
_cell_formula_units_Z 14
_cell_length_a 7.044742
_cell_length_b 20.656204
_cell_length_c 9.028970
_cell_angle_alpha 49.394727
_cell_angle_beta 116.428753
_cell_angle_gamma 142.652912
_cell_volume 597.623682
_symmetry_space_group_name_H-M "P -1"
_symmetry_group_IT_number 2
_symmetry_cell_setting 'triclinic'
loop_
_space_group_symop_operation_xyz
x,y,z
-x,-y,-z
loop_
_atom_site_type_symbol
_atom_site_label
_atom_site_fract_x
_atom_site_fract_y
_atom_site_fract_z
Si Si1 0.737321 0.271586 0.088708
Si Si2 0.105529 0.304107 0.909065
Si Si3 0.156211 0.618836 0.479645
Si Si4 0.900897 0.860012 0.035310
Si Si5 0.152465 0.432564 0.241189
Si Si6 0.134014 0.006408 0.382373
Si Si7 0.883859 0.784866 0.459037
O O1 0.498577 0.144260 0.294827
O O2 0.944437 0.392931 0.084433
O O3 0.483455 0.245155 0.937590
O O4 0.967539 0.284564 0.049857
O O5 0.032443 0.188804 0.995844
O O6 0.481338 0.432639 0.844478
O O7 0.934422 0.318551 0.718245
O O8 0.526302 0.709465 0.478511
O O9 0.000000 0.500000 0.500000
O O10 0.002433 0.577365 0.649890
O O11 0.004716 0.857569 0.233950
O O12 0.017187 0.984423 0.822727
O O13 0.130704 0.321772 0.398685
O O14 0.000000 0.000000 0.500000
O O15 0.080443 0.892499 0.494071
#
# Coordination Sequence:
#
# PCOD9048358 Si02
#       7
#     2   2   2   2   2   2   2
#     4  10  26  45  64 100 137 177 222 278 342 386
#     4  12  23  44  68 101 140 175 227 271 340 406
#     4  12  23  42  68 103 137 176 221 277 332 404
#     4  10  24  45  67  98 140 174 224 280 329 402
#     4  12  26  40  71 106 130 185 220 275 343 403
#     4  10  24  48  71  96 137 178 227 287 332 393
#     4  12  23  45  73  98 139 175 231 273 337 402
#
# _framework density 23.426110000000001
#
# number of rings (size 3 to 8) (size 9 to 14) (size 15 to 20)
#    0.857    0.000    4.286    3.000    2.000    1.143 
#    2.571    1.429    0.000    0.000    0.000    0.000 
#    0.000    0.000    0.000    0.000    0.000    0.000 
#
# Total GULP energy -78328.686096 kJ/mol
# GULP energy per Si atom -5594.906150 kJ/mol
# Density = 2.337279 g / cm^3
# Si number density = 23.426110 Si / 1000 Ang^3
#
#
#
# Elastic Constant Matrix: (Units=GPa)
#
#
# Indices 1 2 3 4 5 6 
#
# 1 98.1921 40.4489 31.4970 -3.1817 -36.1441 -26.3530
# 2 40.4489 73.1716 6.9430 -0.0194 -11.7428 -24.1092
# 3 31.4970 6.9430 92.0391 -0.2546 -19.5321 -12.8665
# 4 -3.1817 -0.0194 -0.2546 28.6631 -9.9808 -0.4598
# 5 -36.1441 -11.7428 -19.5321 -9.9808 59.8437 4.3484
# 6 -26.3530 -24.1092 -12.8665 -0.4598 4.3484 48.4296
#
#
#
# Elastic Compliance Matrix: (Units=1/GPa)
#
#
# Indices 1 2 3 4 5 6 
#
# 1 0.019350 -0.007061 -0.003252 0.005608 0.009788 0.005324
# 2 -0.007061 0.019408 0.001729 -0.000824 -0.000488 0.006315
# 3 -0.003252 0.001729 0.012685 0.000645 0.002460 0.002247
# 4 0.005608 -0.000824 0.000645 0.038953 0.009765 0.002306
# 5 0.009788 -0.000488 0.002460 0.009765 0.024695 0.003612
# 6 0.005324 0.006315 0.002247 0.002306 0.003612 0.026984
#
#
# Mechanical properties :
#
#
# Convention : Reuss Voigt Hill
#
# Bulk Modulus (GPa) = 29.17599 46.79786 37.98693
# Shear Modulus (GPa) = 29.29669 39.68820 34.49244
#
# Velocity S-wave (km/s) = 3.54022 4.12051 3.84134
# Velocity P-wave (km/s) = 5.40300 6.53134 5.99378
#
# Compressibility (1/GPa) = 0.03427475
#
# Stress axis : x y z
#
# Youngs Moduli (GPa) = 51.68048 51.52558 78.83163
#
# Poissons Ratio (x) = 0.36383 0.25636
# Poissons Ratio (y) = 0.36493 -0.13632
# Poissons Ratio (z) = 0.16807 -0.08910
#
# Static dielectric constant tensor:
#      x y z
#    x 1.901690 0.019820 0.076110 
#    y 0.019820 1.849670 0.028050 
#    z 0.076110 0.028050 1.931230 
# 
# From -- ./inp_files/138414.got.cif
#   From: 2010.05.17/outbox.cif.g08.bks.cpg/sg2_70_cif.got.tgz:138414.got - 2010.06.03 11:33:40.
