data_PCOD9048041
_publ_section_title
;
Structure prediction by ZEFSAII (Michael W. Deem and Ramdas Pophale) SiO2 
 PCOD9048041
Probable space group: P -1
;
_chemical_formula_sum "Si O2"
_cell_formula_units_Z 16
_cell_length_a 7.657707
_cell_length_b 15.086334
_cell_length_c 11.937843
_cell_angle_alpha 120.511268
_cell_angle_beta 137.254391
_cell_angle_gamma 81.647502
_cell_volume 742.878235
_symmetry_space_group_name_H-M "P -1"
_symmetry_group_IT_number 2
_symmetry_cell_setting 'triclinic'
loop_
_space_group_symop_operation_xyz
x,y,z
-x,-y,-z
loop_
_atom_site_type_symbol
_atom_site_label
_atom_site_fract_x
_atom_site_fract_y
_atom_site_fract_z
Si Si1 0.226108 0.897371 0.942561
Si Si2 0.550278 0.353695 0.412887
Si Si3 0.974358 0.587394 0.760659
Si Si4 0.422163 0.705541 0.865931
Si Si5 0.655098 0.138232 0.359842
Si Si6 0.258622 0.805946 0.145867
Si Si7 0.000698 0.133320 0.725136
Si Si8 0.105913 0.108286 0.421241
O O1 0.208382 0.853910 0.033726
O O2 0.430912 0.026736 0.127680
O O3 0.341666 0.813296 0.880438
O O4 0.956667 0.889987 0.739208
O O5 0.838299 0.457420 0.641908
O O6 0.295148 0.379550 0.359908
O O7 0.534991 0.344144 0.263770
O O8 0.547742 0.236950 0.377387
O O9 0.177018 0.617940 0.768263
O O10 0.150374 0.672851 0.993662
O O11 0.715911 0.763077 0.106752
O O12 0.746981 0.114172 0.509854
O O13 0.943981 0.174318 0.449751
O O14 0.576239 0.852496 0.366658
O O15 0.082415 0.839095 0.175022
O O16 0.041358 0.017873 0.681158
#
# Coordination Sequence:
#
# PCOD9048041 Si02
#       8
#     2   2   2   2   2   2   2   2
#     4  11  23  40  69  99 135 179 217 277 338 405
#     4  11  23  45  71  98 129 173 234 277 336 400
#     4  10  24  44  72  94 131 178 224 288 332 392
#     4  11  21  44  68  99 132 175 223 274 346 398
#     4  12  23  41  65 101 136 176 226 275 336 407
#     4  11  25  44  62 102 137 178 230 275 331 403
#     4  12  24  41  66  97 144 183 211 277 344 401
#     4  12  23  41  65  98 142 180 220 273 339 406
#
# _framework density 21.537852000000001
#
# number of rings (size 3 to 8) (size 9 to 14) (size 15 to 20)
#    0.000    0.750    5.000    3.750    0.000    2.500 
#    0.000    3.125    0.000    0.000    0.000    0.000 
#    0.000    0.000    0.000    0.000    0.000    0.000 
#
# Total GULP energy -89425.494215 kJ/mol
# GULP energy per Si atom -5589.093388 kJ/mol
# Density = 2.148883 g / cm^3
# Si number density = 21.537852 Si / 1000 Ang^3
#
#
#
# Elastic Constant Matrix: (Units=GPa)
#
#
# Indices 1 2 3 4 5 6 
#
# 1 67.6007 2.7754 16.2744 -6.0418 2.5788 4.3503
# 2 2.7754 40.2281 28.8682 4.3446 -0.1269 -1.5653
# 3 16.2744 28.8682 115.4376 -2.7631 9.4797 18.6702
# 4 -6.0418 4.3446 -2.7631 39.1783 10.0782 -1.4033
# 5 2.5788 -0.1269 9.4797 10.0782 34.7200 6.5249
# 6 4.3503 -1.5653 18.6702 -1.4033 6.5249 17.0800
#
#
#
# Elastic Compliance Matrix: (Units=1/GPa)
#
#
# Indices 1 2 3 4 5 6 
#
# 1 0.015588 -0.000123 -0.001789 0.002537 -0.001147 -0.001380
# 2 -0.000123 0.033763 -0.010952 -0.004492 0.001787 0.014045
# 3 -0.001789 -0.010952 0.014322 0.001756 -0.001410 -0.015520
# 4 0.002537 -0.004492 0.001756 0.029155 -0.009737 0.003138
# 5 -0.001147 0.001787 -0.001410 -0.009737 0.034346 -0.011923
# 6 -0.001380 0.014045 -0.015520 0.003138 -0.011923 0.081964
#
#
# Mechanical properties :
#
#
# Convention : Reuss Voigt Hill
#
# Bulk Modulus (GPa) = 26.35383 35.45582 30.90482
# Shear Modulus (GPa) = 20.20096 29.88555 25.04325
#
# Velocity S-wave (km/s) = 3.06588 3.72907 3.41362
# Velocity P-wave (km/s) = 4.97951 5.91938 5.46967
#
# Compressibility (1/GPa) = 0.03794515
#
# Stress axis : x y z
#
# Youngs Moduli (GPa) = 64.15312 29.61789 69.82421
#
# Poissons Ratio (x) = 0.00365 0.12490
# Poissons Ratio (y) = 0.00790 0.76471
# Poissons Ratio (z) = 0.11475 0.32438
#
# Static dielectric constant tensor:
#      x y z
#    x 1.823290 0.017900 -0.000560 
#    y 0.017900 1.762260 0.000500 
#    z -0.000560 0.000500 1.796960 
# 
# From -- ./inp_files/397696.got.cif
#   From: 2010.05.17/outbox.cif.g08.bks.cpg/sg2_199_cif.got.tgz:397696.got - 2010.06.03 11:33:40.
