data_PCOD9048712
_publ_section_title
;
Structure prediction by ZEFSAII (Michael W. Deem and Ramdas Pophale) SiO2 
 PCOD9048712
Probable space group: P -1
;
_chemical_formula_sum "Si O2"
_cell_formula_units_Z 14
_cell_length_a 10.506349
_cell_length_b 15.329969
_cell_length_c 10.134111
_cell_angle_alpha 144.047052
_cell_angle_beta 36.542245
_cell_angle_gamma 131.889514
_cell_volume 569.891055
_symmetry_space_group_name_H-M "P -1"
_symmetry_group_IT_number 2
_symmetry_cell_setting 'triclinic'
loop_
_space_group_symop_operation_xyz
x,y,z
-x,-y,-z
loop_
_atom_site_type_symbol
_atom_site_label
_atom_site_fract_x
_atom_site_fract_y
_atom_site_fract_z
Si Si1 0.783829 0.570377 0.717363
Si Si2 0.293502 0.907108 0.933181
Si Si3 0.098755 0.015338 0.790036
Si Si4 0.616497 0.494056 0.202074
Si Si5 0.893685 0.300595 0.583084
Si Si6 0.480501 0.240903 0.214169
Si Si7 0.476869 0.218901 0.655913
O O1 0.587840 0.485838 0.700178
O O2 0.000000 0.500000 0.500000
O O3 0.884954 0.679866 0.655160
O O4 0.675358 0.646325 0.024673
O O5 0.323961 0.821300 0.939021
O O6 0.462577 0.840408 0.609271
O O7 0.057709 0.886833 0.044636
O O8 0.348231 0.085140 0.108799
O O9 0.102821 0.851093 0.524164
O O10 0.334816 0.088058 0.683989
O O11 0.000000 0.000000 0.000000
O O12 0.554876 0.345170 0.157771
O O13 0.641478 0.640404 0.449347
O O14 0.829276 0.446352 0.892267
O O15 0.697253 0.265168 0.602315
#
# Coordination Sequence:
#
# PCOD9048712 Si02
#       7
#     2   2   2   2   2   2   2
#     4  11  25  40  68 104 132 163 219 278 333 395
#     4  11  24  43  70  93 139 170 226 266 333 381
#     4  12  22  38  67 103 135 161 215 274 332 394
#     4  10  24  45  71  89 138 175 225 262 335 383
#     4  11  23  41  67 103 133 170 210 275 342 391
#     4  10  24  47  65  93 129 193 216 268 310 403
#     4  11  23  39  67 102 133 170 206 278 344 390
#
# _framework density 24.566098
#
# number of rings (size 3 to 8) (size 9 to 14) (size 15 to 20)
#    0.000    1.143    2.857    2.143    8.000    1.143 
#    0.000   15.714    0.000    0.000    0.000    0.000 
#    0.000    0.000    0.000    0.000    0.000    0.000 
#
# Total GULP energy -78268.918554 kJ/mol
# GULP energy per Si atom -5590.637040 kJ/mol
# Density = 2.451018 g / cm^3
# Si number density = 24.566098 Si / 1000 Ang^3
#
#
#
# Elastic Constant Matrix: (Units=GPa)
#
#
# Indices 1 2 3 4 5 6 
#
# 1 88.9479 11.6587 37.6947 -3.3283 -17.7543 -8.1324
# 2 11.6587 117.3519 45.2581 4.7600 6.6789 0.1908
# 3 37.6947 45.2581 152.8018 15.2165 -1.7536 10.6894
# 4 -3.3283 4.7600 15.2165 37.3585 6.6068 -7.7009
# 5 -17.7543 6.6789 -1.7536 6.6068 33.7972 7.1692
# 6 -8.1324 0.1908 10.6894 -7.7009 7.1692 28.0165
#
#
#
# Elastic Compliance Matrix: (Units=1/GPa)
#
#
# Indices 1 2 3 4 5 6 
#
# 1 0.014828 -0.000339 -0.004163 0.003089 0.005928 0.005227
# 2 -0.000339 0.009878 -0.003105 0.000902 -0.002893 0.002007
# 3 -0.004163 -0.003105 0.009521 -0.005481 0.001411 -0.006687
# 4 0.003089 0.000902 -0.005481 0.033624 -0.008465 0.014390
# 5 0.005928 -0.002893 0.001411 -0.008465 0.037263 -0.010660
# 6 0.005227 0.002007 -0.006687 0.014390 -0.010660 0.046432
#
#
# Mechanical properties :
#
#
# Convention : Reuss Voigt Hill
#
# Bulk Modulus (GPa) = 52.59778 60.92496 56.76137
# Shear Modulus (GPa) = 28.88566 37.46711 33.17638
#
# Velocity S-wave (km/s) = 3.43276 3.90956 3.67889
# Velocity P-wave (km/s) = 6.09664 6.72561 6.41883
#
# Compressibility (1/GPa) = 0.01901221
#
# Stress axis : x y z
#
# Youngs Moduli (GPa) = 67.44150 101.24018 105.03154
#
# Poissons Ratio (x) = 0.03431 0.43721
# Poissons Ratio (y) = 0.02285 0.32617
# Poissons Ratio (z) = 0.28074 0.31439
#
# Static dielectric constant tensor:
#      x y z
#    x 1.990780 -0.049960 -0.006840 
#    y -0.049960 1.972250 0.073520 
#    z -0.006840 0.073520 1.955230 
# 
# From -- ./inp_files/69552.got.cif
#   From: 2010.05.17/outbox.cif.g08.bks.cpg/sg2_35_cif.got.tgz:69552.got - 2010.06.03 11:33:40.
