data_PCOD9048306
_publ_section_title
;
Structure prediction by ZEFSAII (Michael W. Deem and Ramdas Pophale) SiO2 
 PCOD9048306
Probable space group: P -1
;
_chemical_formula_sum "Si O2"
_cell_formula_units_Z 14
_cell_length_a 13.010895
_cell_length_b 10.812402
_cell_length_c 9.371774
_cell_angle_alpha 80.054364
_cell_angle_beta 34.920054
_cell_angle_gamma 64.996588
_cell_volume 644.422515
_symmetry_space_group_name_H-M "P -1"
_symmetry_group_IT_number 2
_symmetry_cell_setting 'triclinic'
loop_
_space_group_symop_operation_xyz
x,y,z
-x,-y,-z
loop_
_atom_site_type_symbol
_atom_site_label
_atom_site_fract_x
_atom_site_fract_y
_atom_site_fract_z
Si Si1 0.997076 0.883982 0.135420
Si Si2 0.463941 0.919414 0.422316
Si Si3 0.914456 0.153347 0.639459
Si Si4 0.627397 0.404890 0.718472
Si Si5 0.655206 0.330823 0.384896
Si Si6 0.757041 0.559489 0.741492
Si Si7 0.672127 0.851386 0.901001
O O1 0.105053 0.867176 0.167238
O O2 0.132533 0.731828 0.932930
O O3 0.752626 0.953546 0.423115
O O4 0.000000 0.000000 0.000000
O O5 0.433923 0.780009 0.520681
O O6 0.500000 0.000000 0.500000
O O7 0.632585 0.863912 0.114199
O O8 0.098349 0.186704 0.393492
O O9 0.718433 0.278291 0.758259
O O10 0.000000 0.000000 0.500000
O O11 0.703399 0.326241 0.498050
O O12 0.712540 0.511643 0.647863
O O13 0.376716 0.487876 0.994407
O O14 0.500000 0.500000 0.500000
O O15 0.651492 0.725483 0.873503
O O16 0.000000 0.500000 0.500000
O O17 0.500000 0.000000 0.000000
#
# Coordination Sequence:
#
# PCOD9048306 Si02
#       7
#     2   2   2   2   2   2   2
#     4  10  24  45  66  97 143 184 234 289 356 433
#     4  11  25  45  70 104 145 189 237 294 362 428
#     4  12  24  41  74 105 135 187 245 295 359 424
#     4  11  25  45  74 102 139 186 238 294 360 426
#     4  11  26  47  71 100 145 190 236 291 360 437
#     4  11  24  44  70 101 141 178 234 297 354 420
#     4  12  24  43  69 103 145 178 240 304 346 421
#
# _framework density 21.724878
#
# number of rings (size 3 to 8) (size 9 to 14) (size 15 to 20)
#    0.000    0.857    4.286    2.571   10.000    1.143 
#    0.000    0.714    0.000    0.000    0.000    0.000 
#    0.000    0.000    0.000    0.000    0.000    0.000 
#
# Total GULP energy -78084.333418 kJ/mol
# GULP energy per Si atom -5577.452387 kJ/mol
# Density = 2.167543 g / cm^3
# Si number density = 21.724878 Si / 1000 Ang^3
#
#
#
# Elastic Constant Matrix: (Units=GPa)
#
#
# Indices 1 2 3 4 5 6 
#
# 1 136.2036 62.0850 44.1015 3.2083 20.2107 18.5446
# 2 62.0850 122.1687 25.7193 27.2850 13.6170 19.3099
# 3 44.1015 25.7193 109.1227 11.0765 6.8686 2.9966
# 4 3.2083 27.2850 11.0765 38.7630 7.2800 1.3773
# 5 20.2107 13.6170 6.8686 7.2800 50.5508 2.1196
# 6 18.5446 19.3099 2.9966 1.3773 2.1196 53.4272
#
#
#
# Elastic Compliance Matrix: (Units=1/GPa)
#
#
# Indices 1 2 3 4 5 6 
#
# 1 0.011673 -0.005556 -0.003625 0.004660 -0.003272 -0.001831
# 2 -0.005556 0.013409 0.000062 -0.008900 -0.000005 -0.002692
# 3 -0.003625 0.000062 0.010872 -0.002941 0.000350 0.000688
# 4 0.004660 -0.008900 -0.002941 0.033211 -0.003893 0.001063
# 5 -0.003272 -0.000005 0.000350 -0.003893 0.021590 0.000362
# 6 -0.001831 -0.002692 0.000688 0.001063 0.000362 0.020245
#
#
# Mechanical properties :
#
#
# Convention : Reuss Voigt Hill
#
# Bulk Modulus (GPa) = 56.43966 70.14518 63.29242
# Shear Modulus (GPa) = 36.99802 44.25416 40.62609
#
# Velocity S-wave (km/s) = 4.13125 4.51824 4.32907
# Velocity P-wave (km/s) = 6.98513 7.71864 7.36102
#
# Compressibility (1/GPa) = 0.01771804
#
# Stress axis : x y z
#
# Youngs Moduli (GPa) = 85.66645 74.57454 91.98040
#
# Poissons Ratio (x) = 0.41431 0.33343
# Poissons Ratio (y) = 0.47594 -0.00575
# Poissons Ratio (z) = 0.31054 -0.00466
#
# Static dielectric constant tensor:
#      x y z
#    x 1.829370 -0.014400 -0.021820 
#    y -0.014400 1.867100 0.017100 
#    z -0.021820 0.017100 1.863280 
# 
# From -- ./inp_files/258365.got.cif
#   From: 2010.05.17/outbox.cif.g08.bks.cpg/sg2_130_cif.got.tgz:258365.got - 2010.06.03 11:33:40.
