data_PCOD9048398
_publ_section_title
;
Structure prediction by ZEFSAII (Michael W. Deem and Ramdas Pophale) SiO2 
 PCOD9048398
Probable space group: P -1
;
_chemical_formula_sum "Si O2"
_cell_formula_units_Z 16
_cell_length_a 15.843672
_cell_length_b 8.649770
_cell_length_c 18.651345
_cell_angle_alpha 128.717479
_cell_angle_beta 23.621593
_cell_angle_gamma 131.870279
_cell_volume 761.841853
_symmetry_space_group_name_H-M "P -1"
_symmetry_group_IT_number 2
_symmetry_cell_setting 'triclinic'
loop_
_space_group_symop_operation_xyz
x,y,z
-x,-y,-z
loop_
_atom_site_type_symbol
_atom_site_label
_atom_site_fract_x
_atom_site_fract_y
_atom_site_fract_z
Si Si1 0.706557 0.207465 0.413671
Si Si2 0.378057 0.691686 0.330861
Si Si3 0.435306 0.947674 0.921085
Si Si4 0.111870 0.204609 0.017494
Si Si5 0.811045 0.013668 0.530101
Si Si6 0.685378 0.775802 0.795887
Si Si7 0.592070 0.551132 0.522457
Si Si8 0.175833 0.544567 0.940489
O O1 0.678524 0.302108 0.539553
O O2 0.701033 0.376450 0.407617
O O3 0.948126 0.185046 0.206635
O O4 0.500000 0.000000 0.500000
O O5 0.243442 0.826413 0.436174
O O6 0.323361 0.461960 0.274280
O O7 0.643078 0.787398 0.146865
O O8 0.511505 0.823245 0.889897
O O9 0.231784 0.781555 0.992577
O O10 0.643382 0.007861 0.723841
O O11 0.374835 0.142865 0.057467
O O12 0.128975 0.392814 0.001991
O O13 0.000000 0.000000 0.000000
O O14 0.065341 0.087349 0.376076
O O15 0.748265 0.785060 0.477805
O O16 0.500000 0.500000 0.500000
O O17 0.396624 0.527298 0.725100
O O18 0.000000 0.500000 0.000000
#
# Coordination Sequence:
#
# PCOD9048398 Si02
#       8
#     2   2   2   2   2   2   2   2
#     4  12  24  44  69  98 138 180 226 276 349 410
#     4  12  25  46  64 103 138 178 233 278 342 417
#     4  10  24  45  68 103 132 175 235 283 335 410
#     4  12  25  42  69  97 140 183 215 280 344 408
#     4  11  26  42  70  97 136 181 230 282 342 403
#     4  11  24  46  71  93 141 179 234 283 336 408
#     4  11  23  41  66 103 138 175 232 282 334 417
#     4  11  23  42  67 103 140 170 225 283 343 404
#
# _framework density 21.001733999999999
#
# number of rings (size 3 to 8) (size 9 to 14) (size 15 to 20)
#    0.000    0.750    3.750    3.000    7.000    2.500 
#    0.000    0.000    0.000    0.000    0.000    0.000 
#    0.000    0.000    0.000    0.000    0.000    0.000 
#
# Total GULP energy -89454.103061 kJ/mol
# GULP energy per Si atom -5590.881441 kJ/mol
# Density = 2.095393 g / cm^3
# Si number density = 21.001734 Si / 1000 Ang^3
#
#
#
# Elastic Constant Matrix: (Units=GPa)
#
#
# Indices 1 2 3 4 5 6 
#
# 1 66.3067 26.9637 10.4713 8.0993 4.7158 18.3508
# 2 26.9637 129.4458 32.8087 10.8303 5.8171 32.1160
# 3 10.4713 32.8087 97.8312 -5.4178 16.8519 22.7388
# 4 8.0993 10.8303 -5.4178 30.0661 3.9469 -5.0517
# 5 4.7158 5.8171 16.8519 3.9469 36.2399 2.7364
# 6 18.3508 32.1160 22.7388 -5.0517 2.7364 38.2239
#
#
#
# Elastic Compliance Matrix: (Units=1/GPa)
#
#
# Indices 1 2 3 4 5 6 
#
# 1 0.018791 -0.001257 0.000331 -0.005896 -0.001086 -0.008864
# 2 -0.001257 0.010952 -0.002043 -0.005416 0.000560 -0.008139
# 3 0.000331 -0.002043 0.013326 0.002873 -0.005804 -0.005575
# 4 -0.005896 -0.005416 0.002873 0.039856 -0.004893 0.011290
# 5 -0.001086 0.000560 -0.005804 -0.004893 0.030828 0.000650
# 6 -0.008864 -0.008139 -0.005575 0.011290 0.000650 0.042017
#
#
# Mechanical properties :
#
#
# Convention : Reuss Voigt Hill
#
# Bulk Modulus (GPa) = 26.93156 48.23014 37.58085
# Shear Modulus (GPa) = 28.72155 35.79530 32.25842
#
# Velocity S-wave (km/s) = 3.70209 4.13291 3.92342
# Velocity P-wave (km/s) = 5.57901 6.76678 6.20140
#
# Compressibility (1/GPa) = 0.03713115
#
# Stress axis : x y z
#
# Youngs Moduli (GPa) = 53.21757 91.30612 75.04156
#
# Poissons Ratio (x) = 0.11475 -0.02483
# Poissons Ratio (y) = 0.06688 0.15331
# Poissons Ratio (z) = -0.01761 0.18654
#
# Static dielectric constant tensor:
#      x y z
#    x 1.646800 -0.022930 0.137920 
#    y -0.022930 1.750190 0.003750 
#    z 0.137920 0.003750 1.633950 
# 
# From -- ./inp_files/272656.got.cif
#   From: 2010.05.17/outbox.cif.g08.bks.cpg/sg2_137_cif.got.tgz:272656.got - 2010.06.03 11:33:40.
