data_PCOD9048831
_publ_section_title
;
Structure prediction by ZEFSAII (Michael W. Deem and Ramdas Pophale) SiO2 
 PCOD9048831
Probable space group: P -1
;
_chemical_formula_sum "Si O2"
_cell_formula_units_Z 14
_cell_length_a 26.758615
_cell_length_b 4.980701
_cell_length_c 9.599370
_cell_angle_alpha 108.008112
_cell_angle_beta 153.836610
_cell_angle_gamma 70.891465
_cell_volume 532.672743
_symmetry_space_group_name_H-M "P -1"
_symmetry_group_IT_number 2
_symmetry_cell_setting 'triclinic'
loop_
_space_group_symop_operation_xyz
x,y,z
-x,-y,-z
loop_
_atom_site_type_symbol
_atom_site_label
_atom_site_fract_x
_atom_site_fract_y
_atom_site_fract_z
Si Si1 0.420096 0.686937 0.027202
Si Si2 0.893626 0.216486 0.717116
Si Si3 0.398957 0.329991 0.167304
Si Si4 0.333089 0.529162 0.494258
Si Si5 0.016575 0.427204 0.791870
Si Si6 0.190465 0.174328 0.757262
Si Si7 0.797012 0.000069 0.932378
O O1 0.358529 0.496991 0.952232
O O2 0.437293 0.999134 0.176612
O O3 0.544819 0.516174 0.284418
O O4 0.355795 0.691337 0.719745
O O5 0.935616 0.362194 0.707016
O O6 0.806750 0.014354 0.407443
O O7 0.883107 0.427357 0.854643
O O8 0.000000 0.000000 0.000000
O O9 0.500000 0.500000 0.500000
O O10 0.299134 0.339212 0.032502
O O11 0.294625 0.217415 0.369755
O O12 0.238884 0.711900 0.193424
O O13 0.931433 0.631032 0.515075
O O14 0.080386 0.151911 0.835063
O O15 0.202923 0.991360 0.898894
#
# Coordination Sequence:
#
# PCOD9048831 Si02
#       7
#     2   2   2   2   2   2   2
#     4  11  26  51  78 106 154 198 262 318 386 446
#     4   9  22  43  70 103 148 192 259 305 371 451
#     4  12  27  47  80 113 151 200 256 317 388 454
#     4  11  27  48  76 112 147 203 257 319 375 462
#     4  10  24  45  73 106 153 202 251 313 377 458
#     4  11  27  45  72 112 153 200 253 314 383 458
#     4  12  27  45  76 110 158 197 256 310 385 454
#
# _framework density 26.282557000000001
#
# number of rings (size 3 to 8) (size 9 to 14) (size 15 to 20)
#    0.000    1.143    0.000    3.429   10.000    8.571 
#    0.000    0.000    0.000    0.000    0.000    0.000 
#    0.000    0.000    0.000    0.000    0.000    0.000 
#
# Total GULP energy -78515.979363 kJ/mol
# GULP energy per Si atom -5608.284240 kJ/mol
# Density = 2.622274 g / cm^3
# Si number density = 26.282557 Si / 1000 Ang^3
#
#
#
# Elastic Constant Matrix: (Units=GPa)
#
#
# Indices 1 2 3 4 5 6 
#
# 1 116.0575 39.5091 45.1603 -8.2763 -12.2763 -6.9942
# 2 39.5091 109.2840 20.8491 -9.5673 -13.1192 -3.8857
# 3 45.1603 20.8491 127.8003 8.2835 -14.4097 -8.6541
# 4 -8.2763 -9.5673 8.2835 56.1162 4.2251 -3.9683
# 5 -12.2763 -13.1192 -14.4097 4.2251 50.1060 0.2401
# 6 -6.9942 -3.8857 -8.6541 -3.9683 0.2401 43.2393
#
#
#
# Elastic Compliance Matrix: (Units=1/GPa)
#
#
# Indices 1 2 3 4 5 6 
#
# 1 0.011283 -0.003150 -0.003420 0.001642 0.000813 0.001004
# 2 -0.003150 0.010730 -0.000492 0.001337 0.001782 0.000469
# 3 -0.003420 -0.000492 0.009542 -0.002065 0.001946 0.001112
# 4 0.001642 0.001337 -0.002065 0.018824 -0.001437 0.001708
# 5 0.000813 0.001782 0.001946 -0.001437 0.021302 0.000431
# 6 0.001004 0.000469 0.001112 0.001708 0.000431 0.023709
#
#
# Mechanical properties :
#
#
# Convention : Reuss Voigt Hill
#
# Bulk Modulus (GPa) = 57.36214 62.68655 60.02435
# Shear Modulus (GPa) = 43.35631 46.40051 44.87841
#
# Velocity S-wave (km/s) = 4.06596 4.20628 4.13672
# Velocity P-wave (km/s) = 6.62686 6.89153 6.76049
#
# Compressibility (1/GPa) = 0.01743310
#
# Stress axis : x y z
#
# Youngs Moduli (GPa) = 88.62911 93.19243 104.80003
#
# Poissons Ratio (x) = 0.29352 0.35841
# Poissons Ratio (y) = 0.27915 0.05152
# Poissons Ratio (z) = 0.30311 0.04581
#
# Static dielectric constant tensor:
#      x y z
#    x 2.115300 0.064490 -0.035480 
#    y 0.064490 2.151620 0.020740 
#    z -0.035480 0.020740 2.158230 
# 
# From -- ./inp_files/356007.got.cif
#   From: 2010.05.17/outbox.cif.g08.bks.cpg/sg2_179_cif.got.tgz:356007.got - 2010.06.03 11:33:40.
