data_PCOD9048281
_publ_section_title
;
Structure prediction by ZEFSAII (Michael W. Deem and Ramdas Pophale) SiO2 
 PCOD9048281
Probable space group: P -1
;
_chemical_formula_sum "Si O2"
_cell_formula_units_Z 16
_cell_length_a 9.237917
_cell_length_b 8.764986
_cell_length_c 14.789152
_cell_angle_alpha 80.319261
_cell_angle_beta 72.965518
_cell_angle_gamma 43.059063
_cell_volume 779.780454
_symmetry_space_group_name_H-M "P -1"
_symmetry_group_IT_number 2
_symmetry_cell_setting 'triclinic'
loop_
_space_group_symop_operation_xyz
x,y,z
-x,-y,-z
loop_
_atom_site_type_symbol
_atom_site_label
_atom_site_fract_x
_atom_site_fract_y
_atom_site_fract_z
Si Si1 0.841949 0.476752 0.554779
Si Si2 0.344584 0.544924 0.153903
Si Si3 0.782090 0.734053 0.055764
Si Si4 0.423035 0.192192 0.566327
Si Si5 0.590496 0.257503 0.298842
Si Si6 0.842196 0.028016 0.458940
Si Si7 0.859754 0.776095 0.236784
Si Si8 0.591456 0.188393 0.979822
O O1 0.710467 0.563732 0.475937
O O2 0.638519 0.656966 0.639910
O O3 0.000000 0.500000 0.500000
O O4 0.994890 0.225334 0.582775
O O5 0.498466 0.449029 0.224603
O O6 0.471142 0.351244 0.073371
O O7 0.118481 0.621553 0.208685
O O8 0.303590 0.744714 0.099166
O O9 0.803496 0.731720 0.159061
O O10 0.751407 0.932674 0.006502
O O11 0.584758 0.771236 0.054326
O O12 0.000000 0.500000 0.000000
O O13 0.658657 0.090377 0.552768
O O14 0.261608 0.233241 0.662517
O O15 0.500000 0.000000 0.500000
O O16 0.720040 0.192253 0.376737
O O17 0.741328 0.029141 0.239091
O O18 0.000000 0.000000 0.500000
#
# Coordination Sequence:
#
# PCOD9048281 Si02
#       8
#     2   2   2   2   2   2   2   2
#     4  11  19  39  68  90 129 175 219 268 327 391
#     4  11  23  41  73  97 131 177 229 281 336 402
#     4  11  23  45  69  97 141 175 217 281 351 402
#     4  11  21  40  66  98 128 173 225 269 320 405
#     4  11  22  39  66  97 132 171 235 268 324 413
#     4  11  24  43  65  95 141 176 218 285 341 382
#     4  12  22  41  69 103 131 180 227 278 332 404
#     4  10  24  45  66 101 135 172 221 286 342 402
#
# _framework density 20.518597
#
# number of rings (size 3 to 8) (size 9 to 14) (size 15 to 20)
#    0.000    1.000    6.250    1.500    0.000    3.500 
#    6.750    0.000    0.000    0.000    0.000    0.000 
#    0.000    0.000    0.000    0.000    0.000    0.000 
#
# Total GULP energy -89109.030521 kJ/mol
# GULP energy per Si atom -5569.314408 kJ/mol
# Density = 2.047190 g / cm^3
# Si number density = 20.518597 Si / 1000 Ang^3
#
#
#
# Elastic Constant Matrix: (Units=GPa)
#
#
# Indices 1 2 3 4 5 6 
#
# 1 116.5646 34.2823 54.5965 -6.3204 4.5770 -17.5830
# 2 34.2823 102.2801 53.8878 -5.0574 -2.7584 -16.2635
# 3 54.5965 53.8878 134.0813 -6.4757 4.1260 -9.4710
# 4 -6.3204 -5.0574 -6.4757 31.2180 -2.7490 -1.2008
# 5 4.5770 -2.7584 4.1260 -2.7490 29.7124 1.2073
# 6 -17.5830 -16.2635 -9.4710 -1.2008 1.2073 29.0941
#
#
#
# Elastic Compliance Matrix: (Units=1/GPa)
#
#
# Indices 1 2 3 4 5 6 
#
# 1 0.011607 -0.000986 -0.003838 0.001474 -0.001427 0.005334
# 2 -0.000986 0.013545 -0.004651 0.001412 0.001965 0.005439
# 3 -0.003838 -0.004651 0.010863 0.000563 -0.001244 -0.001308
# 4 0.001474 0.001412 0.000563 0.033039 0.002756 0.003113
# 5 -0.001427 0.001965 -0.001244 0.002756 0.034546 -0.001489
# 6 0.005334 0.005439 -0.001308 0.003113 -0.001489 0.040400
#
#
# Mechanical properties :
#
#
# Convention : Reuss Voigt Hill
#
# Bulk Modulus (GPa) = 58.59394 70.93990 64.76692
# Shear Modulus (GPa) = 29.64908 32.01553 30.83231
#
# Velocity S-wave (km/s) = 3.80542 3.95437 3.88061
# Velocity P-wave (km/s) = 6.92292 7.44969 7.19113
#
# Compressibility (1/GPa) = 0.01706661
#
# Stress axis : x y z
#
# Youngs Moduli (GPa) = 86.15347 73.82591 92.05337
#
# Poissons Ratio (x) = 0.07277 0.35333
# Poissons Ratio (y) = 0.08492 0.42811
# Poissons Ratio (z) = 0.33068 0.34334
#
# Static dielectric constant tensor:
#      x y z
#    x 1.778100 -0.003140 0.022020 
#    y -0.003140 1.780190 -0.043530 
#    z 0.022020 -0.043530 1.795050 
# 
# From -- ./inp_files/494847.got.cif
#   From: 2010.05.17/outbox.cif.g08.bks.cpg/sg2_248_cif.got.tgz:494847.got - 2010.06.03 11:33:40.
