data_PCOD9048104
_publ_section_title
;
Structure prediction by ZEFSAII (Michael W. Deem and Ramdas Pophale) SiO2 
 PCOD9048104
Probable space group: P -1
;
_chemical_formula_sum "Si O2"
_cell_formula_units_Z 11
_cell_length_a 12.645447
_cell_length_b 14.919926
_cell_length_c 8.806542
_cell_angle_alpha 36.694899
_cell_angle_beta 140.593752
_cell_angle_gamma 152.695304
_cell_volume 444.331975
_symmetry_space_group_name_H-M "P -1"
_symmetry_group_IT_number 2
_symmetry_cell_setting 'triclinic'
loop_
_space_group_symop_operation_xyz
x,y,z
-x,-y,-z
loop_
_atom_site_type_symbol
_atom_site_label
_atom_site_fract_x
_atom_site_fract_y
_atom_site_fract_z
Si Si1 0.772304 0.679178 0.934364
Si Si2 0.938815 0.595630 0.524068
Si Si3 0.784355 0.957579 0.750395
Si Si4 0.000000 0.000000 0.500000
Si Si5 0.484872 0.814736 0.193438
Si Si6 0.390932 0.696108 0.897758
O O1 0.859252 0.626664 0.238787
O O2 0.614230 0.483525 0.907036
O O3 0.656932 0.750341 0.790380
O O4 0.986714 0.881645 0.797924
O O5 0.726271 0.392573 0.660516
O O6 0.134945 0.596304 0.706245
O O7 0.084504 0.815835 0.483045
O O8 0.600285 0.895269 0.756244
O O9 0.000000 0.000000 0.000000
O O10 0.734479 0.892610 0.389945
O O11 0.425572 0.749958 0.038942
O O12 0.500000 0.000000 0.000000
#
# Coordination Sequence:
#
# PCOD9048104 Si02
#       6
#     2   2   2   1   2   2
#     4  11  27  49  77 123 153 211 259 324 399 485
#     4  11  26  49  82 113 160 206 266 325 397 480
#     4  10  24  44  73 116 155 197 259 316 388 477
#     4  12  30  50  82 104 172 202 270 328 410 452
#     4  12  30  53  79 119 161 212 273 334 398 475
#     4  12  26  49  81 113 163 207 263 328 405 469
#
# _framework density 24.756266
#
# number of rings (size 3 to 8) (size 9 to 14) (size 15 to 20)
#    0.000    0.727    0.000    5.455   12.727    2.182 
#    0.000    0.000    0.000    0.000    0.000    0.000 
#    0.000    0.000    0.000    0.000    0.000    0.000 
#
# Total GULP energy -61322.838597 kJ/mol
# GULP energy per Si atom -5574.803509 kJ/mol
# Density = 2.469992 g / cm^3
# Si number density = 24.756266 Si / 1000 Ang^3
#
#
#
# Elastic Constant Matrix: (Units=GPa)
#
#
# Indices 1 2 3 4 5 6 
#
# 1 166.5466 110.6631 96.9909 -24.0574 -19.6426 12.8626
# 2 110.6631 135.1290 82.1696 -13.1335 4.5607 17.2580
# 3 96.9909 82.1696 142.5957 -21.4994 -24.4609 13.8080
# 4 -24.0574 -13.1335 -21.4994 46.9725 -5.9585 1.5875
# 5 -19.6426 4.5607 -24.4609 -5.9585 47.7955 -8.1761
# 6 12.8626 17.2580 13.8080 1.5875 -8.1761 86.1626
#
#
#
# Elastic Compliance Matrix: (Units=1/GPa)
#
#
# Indices 1 2 3 4 5 6 
#
# 1 0.017553 -0.012700 -0.002566 0.005238 0.007935 0.000991
# 2 -0.012700 0.022022 -0.006527 -0.004732 -0.011677 -0.002490
# 3 -0.002566 -0.006527 0.014482 0.004445 0.007534 0.000003
# 4 0.005238 -0.004732 0.004445 0.025712 0.008040 -0.000257
# 5 0.007935 -0.011677 0.007534 0.008040 0.030619 0.002704
# 6 0.000991 -0.002490 0.000003 -0.000257 0.002704 0.012218
#
#
# Mechanical properties :
#
#
# Convention : Reuss Voigt Hill
#
# Bulk Modulus (GPa) = 95.50638 113.76873 104.63756
# Shear Modulus (GPa) = 29.46681 46.48264 37.97473
#
# Velocity S-wave (km/s) = 3.45378 4.33784 3.92081
# Velocity P-wave (km/s) = 7.38696 8.43472 7.92817
#
# Compressibility (1/GPa) = 0.01047050
#
# Stress axis : x y z
#
# Youngs Moduli (GPa) = 56.96927 45.40864 69.05151
#
# Poissons Ratio (x) = 0.57669 0.17721
# Poissons Ratio (y) = 0.72351 0.45071
# Poissons Ratio (z) = 0.14620 0.29639
#
# Static dielectric constant tensor:
#      x y z
#    x 1.974880 -0.095130 -0.001000 
#    y -0.095130 2.031090 -0.019580 
#    z -0.001000 -0.019580 2.008440 
# 
# From -- ./inp_files/266565.got.cif
#   From: 2010.05.17/outbox.cif.g08.bks.cpg/sg2_134_cif.got.tgz:266565.got - 2010.06.03 11:33:40.
