data_PCOD9048581
_publ_section_title
;
Structure prediction by ZEFSAII (Michael W. Deem and Ramdas Pophale) SiO2 
 PCOD9048581
Probable space group: P -1
;
_chemical_formula_sum "Si O2"
_cell_formula_units_Z 16
_cell_length_a 9.045532
_cell_length_b 11.496586
_cell_length_c 14.660037
_cell_angle_alpha 57.237700
_cell_angle_beta 99.844148
_cell_angle_gamma 140.970929
_cell_volume 712.150470
_symmetry_space_group_name_H-M "P -1"
_symmetry_group_IT_number 2
_symmetry_cell_setting 'triclinic'
loop_
_space_group_symop_operation_xyz
x,y,z
-x,-y,-z
loop_
_atom_site_type_symbol
_atom_site_label
_atom_site_fract_x
_atom_site_fract_y
_atom_site_fract_z
Si Si1 0.849204 0.847496 0.813283
Si Si2 0.603085 0.845662 0.288659
Si Si3 0.242655 0.124085 0.413423
Si Si4 0.263002 0.546492 0.557778
Si Si5 0.753524 0.140279 0.570345
Si Si6 0.770493 0.269156 0.198719
Si Si7 0.372383 0.755379 0.112976
Si Si8 0.553063 0.334312 0.017900
O O1 0.762033 0.820210 0.713039
O O2 0.709790 0.834704 0.880065
O O3 0.738642 0.610213 0.924329
O O4 0.167367 0.085859 0.743813
O O5 0.417070 0.654295 0.431761
O O6 0.435000 0.759788 0.219986
O O7 0.745116 0.092309 0.237275
O O8 0.531832 0.364608 0.387511
O O9 0.195919 0.923476 0.481070
O O10 0.000000 0.000000 0.500000
O O11 0.229445 0.683512 0.522104
O O12 0.967777 0.272081 0.617401
O O13 0.460807 0.887266 0.684997
O O14 0.703359 0.320874 0.086897
O O15 0.058369 0.518424 0.162859
O O16 0.495729 0.741898 0.059311
O O17 0.500000 0.000000 0.000000
#
# Coordination Sequence:
#
# PCOD9048581 Si02
#       8
#     2   2   2   2   2   2   2   2
#     4  11  24  45  67  99 146 182 222 278 345 417
#     4  11  23  43  69 102 138 180 230 281 341 410
#     4  12  24  45  72  99 138 189 223 280 356 405
#     4  10  24  45  72 101 135 177 238 286 333 409
#     4  10  24  45  70 102 133 178 230 289 335 402
#     4  11  22  45  72  97 143 176 228 290 335 403
#     4  12  24  40  74 105 129 180 234 283 345 401
#     4  11  23  45  69  99 139 183 223 280 342 409
#
# _framework density 22.467164
#
# number of rings (size 3 to 8) (size 9 to 14) (size 15 to 20)
#    0.000    1.000    5.000    1.500    0.000    7.000 
#    2.250    0.000    0.000    0.000    0.000    0.000 
#    0.000    0.000    0.000    0.000    0.000    0.000 
#
# Total GULP energy -89588.184081 kJ/mol
# GULP energy per Si atom -5599.261505 kJ/mol
# Density = 2.241603 g / cm^3
# Si number density = 22.467164 Si / 1000 Ang^3
#
#
#
# Elastic Constant Matrix: (Units=GPa)
#
#
# Indices 1 2 3 4 5 6 
#
# 1 98.1067 28.4368 21.2941 -11.3532 -45.3683 11.6966
# 2 28.4368 119.5863 24.6578 -3.4402 -18.1644 16.1153
# 3 21.2941 24.6578 64.6768 -13.5724 -13.4334 6.3568
# 4 -11.3532 -3.4402 -13.5724 22.8963 8.5618 3.1511
# 5 -45.3683 -18.1644 -13.4334 8.5618 34.6243 7.7434
# 6 11.6966 16.1153 6.3568 3.1511 7.7434 30.3662
#
#
#
# Elastic Compliance Matrix: (Units=1/GPa)
#
#
# Indices 1 2 3 4 5 6 
#
# 1 0.048581 0.005135 0.002698 0.003869 0.075772 -0.041726
# 2 0.005135 0.011248 -0.002049 -0.000884 0.014543 -0.011135
# 3 0.002698 -0.002049 0.020295 0.010591 0.009439 -0.007706
# 4 0.003869 -0.000884 0.010591 0.053903 -0.002799 -0.008118
# 5 0.075772 0.014543 0.009439 -0.002799 0.157777 -0.078823
# 6 -0.041726 -0.011135 -0.007706 -0.008118 -0.078823 0.077468
#
#
# Mechanical properties :
#
#
# Convention : Reuss Voigt Hill
#
# Bulk Modulus (GPa) = 10.90615 47.90524 29.40569
# Shear Modulus (GPa) = 12.87770 31.44277 22.16023
#
# Velocity S-wave (km/s) = 2.39671 3.74505 3.14401
# Velocity P-wave (km/s) = 3.53889 6.33002 5.12801
#
# Compressibility (1/GPa) = 0.09169141
#
# Stress axis : x y z
#
# Youngs Moduli (GPa) = 20.58413 88.90710 49.27339
#
# Poissons Ratio (x) = -0.45653 -0.13296
# Poissons Ratio (y) = -0.10570 0.10098
# Poissons Ratio (z) = -0.05554 0.18221
#
# Static dielectric constant tensor:
#      x y z
#    x 1.871190 0.004700 0.004790 
#    y 0.004700 1.846910 -0.041560 
#    z 0.004790 -0.041560 1.842870 
# 
# From -- ./inp_files/500187.got.cif
#   From: 2010.05.17/outbox.cif.g08.bks.cpg/sg2_251_cif.got.tgz:500187.got - 2010.06.03 11:33:40.
