data_PCOD9048981
_publ_section_title
;
Structure prediction by ZEFSAII (Michael W. Deem and Ramdas Pophale) SiO2 
 PCOD9048981
Probable space group: P -1
;
_chemical_formula_sum "Si O2"
_cell_formula_units_Z 16
_cell_length_a 14.968059
_cell_length_b 12.763648
_cell_length_c 14.996466
_cell_angle_alpha 46.758373
_cell_angle_beta 151.796938
_cell_angle_gamma 113.170564
_cell_volume 781.001263
_symmetry_space_group_name_H-M "P -1"
_symmetry_group_IT_number 2
_symmetry_cell_setting 'triclinic'
loop_
_space_group_symop_operation_xyz
x,y,z
-x,-y,-z
loop_
_atom_site_type_symbol
_atom_site_label
_atom_site_fract_x
_atom_site_fract_y
_atom_site_fract_z
Si Si1 0.050403 0.623303 0.421854
Si Si2 0.549493 0.925028 0.728718
Si Si3 0.442039 0.045063 0.770241
Si Si4 0.062873 0.412553 0.322814
Si Si5 0.969354 0.808086 0.420019
Si Si6 0.513906 0.758814 0.626374
Si Si7 0.366878 0.518666 0.604287
Si Si8 0.740550 0.165238 0.206597
O O1 0.287031 0.512105 0.637850
O O2 0.000000 0.500000 0.500000
O O3 0.051794 0.735683 0.435819
O O4 0.829241 0.759793 0.083587
O O5 0.458506 0.840410 0.631286
O O6 0.452932 0.997630 0.702215
O O7 0.519926 0.087309 0.555143
O O8 0.219880 0.247992 0.485939
O O9 0.412773 0.906653 0.875891
O O10 0.696581 0.991088 0.059273
O O11 0.056730 0.317431 0.463106
O O12 0.199192 0.500913 0.405101
O O13 0.788342 0.578079 0.965941
O O14 0.185014 0.798258 0.656470
O O15 0.361923 0.692502 0.497448
O O16 0.630165 0.329271 0.944598
O O17 0.000000 0.000000 0.500000
#
# Coordination Sequence:
#
# PCOD9048981 Si02
#       8
#     2   2   2   2   2   2   2   2
#     4  11  21  39  62  92 125 152 197 253 306 366
#     4  10  24  46  62  88 124 163 204 258 304 352
#     4  11  23  40  63  90 129 162 198 255 312 358
#     4  12  21  41  62  92 126 163 203 248 307 364
#     4  11  21  36  57  90 131 155 194 248 305 364
#     4  11  24  44  64  86 123 162 214 253 293 368
#     4  12  23  36  65  92 119 166 207 247 307 356
#     4  12  22  35  59  95 125 160 200 243 311 374
#
# _framework density 20.486522000000001
#
# number of rings (size 3 to 8) (size 9 to 14) (size 15 to 20)
#    0.000    0.750    6.250    1.875    1.750    1.500 
#    0.000    0.625    0.000    0.000    0.000    0.000 
#    0.000    0.000    0.000    0.000    0.000    0.000 
#
# Total GULP energy -89235.365516 kJ/mol
# GULP energy per Si atom -5577.210345 kJ/mol
# Density = 2.043989 g / cm^3
# Si number density = 20.486522 Si / 1000 Ang^3
#
#
#
# Elastic Constant Matrix: (Units=GPa)
#
#
# Indices 1 2 3 4 5 6 
#
# 1 29.2049 8.3304 16.9321 -8.5502 3.2203 -8.8679
# 2 8.3304 115.5502 8.7282 -7.1488 4.2077 0.6831
# 3 16.9321 8.7282 71.8726 -15.2990 -1.1779 4.4533
# 4 -8.5502 -7.1488 -15.2990 30.4590 0.0594 -1.0997
# 5 3.2203 4.2077 -1.1779 0.0594 22.7335 -0.1784
# 6 -8.8679 0.6831 4.4533 -1.0997 -0.1784 23.9462
#
#
#
# Elastic Compliance Matrix: (Units=1/GPa)
#
#
# Indices 1 2 3 4 5 6 
#
# 1 0.051475 -0.002153 -0.011406 0.009009 -0.007338 0.021604
# 2 -0.002153 0.008968 -0.000261 0.001338 -0.001379 -0.000953
# 3 -0.011406 -0.000261 0.018338 0.005677 0.002542 -0.007347
# 4 0.009009 0.001338 0.005677 0.038673 -0.001299 0.004009
# 5 -0.007338 -0.001379 0.002542 -0.001299 0.045395 -0.002872
# 6 0.021604 -0.000953 -0.007347 0.004009 -0.002872 0.051317
#
#
# Mechanical properties :
#
#
# Convention : Reuss Voigt Hill
#
# Bulk Modulus (GPa) = 19.55378 31.62323 25.58850
# Shear Modulus (GPa) = 19.31608 27.60353 23.45981
#
# Velocity S-wave (km/s) = 3.07395 3.67468 3.38765
# Velocity P-wave (km/s) = 4.70790 5.78567 5.27438
#
# Compressibility (1/GPa) = 0.05114101
#
# Stress axis : x y z
#
# Youngs Moduli (GPa) = 19.42705 111.51054 54.53233
#
# Poissons Ratio (x) = 0.24003 0.62201
# Poissons Ratio (y) = 0.04182 0.01422
# Poissons Ratio (z) = 0.22159 0.02907
#
# Static dielectric constant tensor:
#      x y z
#    x 1.722020 0.011740 0.043750 
#    y 0.011740 1.541430 -0.098620 
#    z 0.043750 -0.098620 1.718860 
# 
# From -- ./inp_files/532362.got.cif
#   From: 2010.05.17/outbox.cif.g08.bks.cpg/sg2_267_cif.got.tgz:532362.got - 2010.06.03 11:33:40.
