data_PCOD9048747
_publ_section_title
;
Structure prediction by ZEFSAII (Michael W. Deem and Ramdas Pophale) SiO2 
 PCOD9048747
Probable space group: P -1
;
_chemical_formula_sum "Si O2"
_cell_formula_units_Z 14
_cell_length_a 16.263680
_cell_length_b 7.983603
_cell_length_c 9.048253
_cell_angle_alpha 32.864547
_cell_angle_beta 119.917943
_cell_angle_gamma 121.955082
_cell_volume 537.165385
_symmetry_space_group_name_H-M "P -1"
_symmetry_group_IT_number 2
_symmetry_cell_setting 'triclinic'
loop_
_space_group_symop_operation_xyz
x,y,z
-x,-y,-z
loop_
_atom_site_type_symbol
_atom_site_label
_atom_site_fract_x
_atom_site_fract_y
_atom_site_fract_z
Si Si1 0.931611 0.456927 0.760262
Si Si2 0.317091 0.116575 0.184014
Si Si3 0.856750 0.428631 0.019408
Si Si4 0.554240 0.366146 0.881777
Si Si5 0.815167 0.116339 0.492596
Si Si6 0.578460 0.259745 0.665888
Si Si7 0.121857 0.246986 0.792831
O O1 0.851930 0.378202 0.878413
O O2 0.898586 0.682301 0.446298
O O3 0.035640 0.615448 0.806850
O O4 0.933278 0.111472 0.953808
O O5 0.396465 0.400913 0.117549
O O6 0.266467 0.926819 0.423091
O O7 0.358277 0.902389 0.264780
O O8 0.232606 0.244228 0.933708
O O9 0.851653 0.793093 0.769983
O O10 0.786584 0.195551 0.242576
O O11 0.617117 0.379103 0.776198
O O12 0.458984 0.477518 0.654962
O O13 0.517249 0.016863 0.173137
O O14 0.893642 0.440471 0.367853
#
# Coordination Sequence:
#
# PCOD9048747 Si02
#       7
#     2   2   2   2   2   2   2
#     4  11  25  47  71  96 134 187 243 299 347 409
#     4  12  26  44  71 104 148 186 220 290 361 418
#     4  11  25  47  71  96 134 187 243 299 347 409
#     4  10  24  45  72 103 135 182 236 280 337 416
#     4  12  25  44  65 105 139 180 234 280 364 421
#     4  10  24  45  72 103 135 182 236 280 337 416
#     4  12  25  44  65 105 139 180 234 280 364 421
#
# _framework density 26.062739000000001
#
# number of rings (size 3 to 8) (size 9 to 14) (size 15 to 20)
#    0.000    0.857    2.857    2.571    4.000    6.857 
#    5.143    0.000    0.000    0.000    0.000    0.000 
#    0.000    0.000    0.000    0.000    0.000    0.000 
#
# Total GULP energy -78444.695147 kJ/mol
# GULP energy per Si atom -5603.192511 kJ/mol
# Density = 2.600342 g / cm^3
# Si number density = 26.062739 Si / 1000 Ang^3
#
#
#
# Elastic Constant Matrix: (Units=GPa)
#
#
# Indices 1 2 3 4 5 6 
#
# 1 112.1654 33.9928 36.6488 11.8850 -5.7135 -44.2632
# 2 33.9928 77.3007 17.2428 6.0179 21.9583 -12.3895
# 3 36.6488 17.2428 147.1793 -5.4301 7.9100 1.5426
# 4 11.8850 6.0179 -5.4301 46.3114 2.4778 1.2413
# 5 -5.7135 21.9583 7.9100 2.4778 20.1261 -2.9343
# 6 -44.2632 -12.3895 1.5426 1.2413 -2.9343 42.8891
#
#
#
# Elastic Compliance Matrix: (Units=1/GPa)
#
#
# Indices 1 2 3 4 5 6 
#
# 1 0.032239 -0.016857 -0.008727 -0.009920 0.036791 0.031521
# 2 -0.016857 0.028654 0.003215 0.003415 -0.039487 -0.012036
# 3 -0.008727 0.003215 0.009448 0.003796 -0.011524 -0.009316
# 4 -0.009920 0.003415 0.003796 0.025115 -0.012727 -0.010985
# 5 0.036791 -0.039487 -0.011524 -0.012727 0.114437 0.035175
# 6 0.031521 -0.012036 -0.009316 -0.010985 0.035175 0.055429
#
#
# Mechanical properties :
#
#
# Convention : Reuss Voigt Hill
#
# Bulk Modulus (GPa) = 39.05705 56.93491 47.99598
# Shear Modulus (GPa) = 15.69391 38.44938 27.07164
#
# Velocity S-wave (km/s) = 2.45655 3.84508 3.22640
# Velocity P-wave (km/s) = 4.80255 6.45024 5.68639
#
# Compressibility (1/GPa) = 0.02560357
#
# Stress axis : x y z
#
# Youngs Moduli (GPa) = 31.01789 34.89897 105.84489
#
# Poissons Ratio (x) = 0.58830 0.92367
# Poissons Ratio (y) = 0.52288 -0.34028
# Poissons Ratio (z) = 0.27068 -0.11220
#
# Static dielectric constant tensor:
#      x y z
#    x 2.102620 -0.023190 -0.043740 
#    y -0.023190 2.100080 0.007400 
#    z -0.043740 0.007400 1.966770 
# 
# From -- ./inp_files/328253.got.cif
#   From: 2010.05.17/outbox.cif.g08.bks.cpg/sg2_165_cif.got.tgz:328253.got - 2010.06.03 11:33:40.
