data_PCOD9048604
_publ_section_title
;
Structure prediction by ZEFSAII (Michael W. Deem and Ramdas Pophale) SiO2 
 PCOD9048604
Probable space group: P -1
;
_chemical_formula_sum "Si O2"
_cell_formula_units_Z 16
_cell_length_a 8.926873
_cell_length_b 8.900289
_cell_length_c 9.930763
_cell_angle_alpha 87.230873
_cell_angle_beta 78.611967
_cell_angle_gamma 50.806556
_cell_volume 596.418181
_symmetry_space_group_name_H-M "P -1"
_symmetry_group_IT_number 2
_symmetry_cell_setting 'triclinic'
loop_
_space_group_symop_operation_xyz
x,y,z
-x,-y,-z
loop_
_atom_site_type_symbol
_atom_site_label
_atom_site_fract_x
_atom_site_fract_y
_atom_site_fract_z
Si Si1 0.806123 0.716731 0.790012
Si Si2 0.857835 0.894724 0.297415
Si Si3 0.979754 0.828545 0.983124
Si Si4 0.539306 0.125917 0.769485
Si Si5 0.454210 0.666875 0.625579
Si Si6 0.785041 0.626714 0.397950
Si Si7 0.255880 0.741609 0.381693
Si Si8 0.369062 0.436424 0.997302
O O1 0.994380 0.573112 0.663478
O O2 0.603175 0.914742 0.761158
O O3 0.861989 0.814154 0.885483
O O4 0.745147 0.594362 0.869243
O O5 0.903988 0.815173 0.141061
O O6 0.790798 0.801742 0.409350
O O7 0.054934 0.826700 0.341425
O O8 0.695266 0.123710 0.294048
O O9 0.194355 0.621986 0.934874
O O10 0.000000 0.000000 0.000000
O O11 0.342395 0.296478 0.719016
O O12 0.711918 0.105021 0.661344
O O13 0.507510 0.223789 0.913779
O O14 0.646087 0.633442 0.531202
O O15 0.309441 0.690842 0.532288
O O16 0.560399 0.470610 0.699802
O O17 0.500000 0.500000 0.000000
#
# Coordination Sequence:
#
# PCOD9048604 Si02
#       8
#     2   2   2   2   2   2   2   2
#     4  12  25  49  70 103 152 192 234 297 363 419
#     4  12  24  44  70 103 142 184 241 292 359 426
#     4  12  26  43  72 108 149 192 236 297 355 430
#     4  11  25  44  72 101 142 191 233 287 360 428
#     4  10  25  45  72 100 139 185 241 298 356 425
#     4  11  25  46  71 102 143 185 238 299 358 426
#     4  10  24  45  70 104 136 188 237 299 354 421
#     4  12  24  43  68 104 144 183 241 286 352 435
#
# _framework density 26.826813999999999
#
# number of rings (size 3 to 8) (size 9 to 14) (size 15 to 20)
#    0.000    0.750    2.500    4.500    1.750    8.500 
#    2.250    0.000    0.000    0.000    0.000    0.000 
#    0.000    0.000    0.000    0.000    0.000    0.000 
#
# Total GULP energy -89440.760824 kJ/mol
# GULP energy per Si atom -5590.047552 kJ/mol
# Density = 2.676575 g / cm^3
# Si number density = 26.826814 Si / 1000 Ang^3
#
#
#
# Elastic Constant Matrix: (Units=GPa)
#
#
# Indices 1 2 3 4 5 6 
#
# 1 66.8186 0.0381 14.8904 -0.1630 2.6040 -4.6483
# 2 0.0381 163.2733 20.8210 22.9038 -9.8946 -4.2859
# 3 14.8904 20.8210 64.5050 14.7331 1.2994 -0.5662
# 4 -0.1630 22.9038 14.7331 42.0224 5.3039 -10.1614
# 5 2.6040 -9.8946 1.2994 5.3039 26.0533 -2.5693
# 6 -4.6483 -4.2859 -0.5662 -10.1614 -2.5693 40.2406
#
#
#
# Elastic Compliance Matrix: (Units=1/GPa)
#
#
# Indices 1 2 3 4 5 6 
#
# 1 0.016134 0.000196 -0.004236 0.002187 -0.001548 0.002278
# 2 0.000196 0.007059 -0.001539 -0.003741 0.003503 0.000032
# 3 -0.004236 -0.001539 0.018348 -0.006073 -0.000030 -0.001931
# 4 0.002187 -0.003741 -0.006073 0.030543 -0.006860 0.007043
# 5 -0.001548 0.003503 -0.000030 -0.006860 0.041375 0.001103
# 6 0.002278 0.000032 -0.001931 0.007043 0.001103 0.026939
#
#
# Mechanical properties :
#
#
# Convention : Reuss Voigt Hill
#
# Bulk Modulus (GPa) = 32.91466 40.67731 36.79599
# Shear Modulus (GPa) = 30.92451 38.91976 34.92213
#
# Velocity S-wave (km/s) = 3.39889 3.81304 3.61191
# Velocity P-wave (km/s) = 5.26301 5.88061 5.58036
#
# Compressibility (1/GPa) = 0.03038160
#
# Stress axis : x y z
#
# Youngs Moduli (GPa) = 61.98132 141.66497 54.50118
#
# Poissons Ratio (x) = -0.02771 0.23086
# Poissons Ratio (y) = -0.01212 0.08390
# Poissons Ratio (z) = 0.26255 0.21808
#
# Static dielectric constant tensor:
#      x y z
#    x 2.249170 0.027170 0.082780 
#    y 0.027170 2.086800 -0.001560 
#    z 0.082780 -0.001560 2.198700 
# 
# From -- ./inp_files/382271.got.cif
#   From: 2010.05.17/outbox.cif.g08.bks.cpg/sg2_192_cif.got.tgz:382271.got - 2010.06.03 11:33:40.
