data_PCOD9048501
_publ_section_title
;
Structure prediction by ZEFSAII (Michael W. Deem and Ramdas Pophale) SiO2 
 PCOD9048501
Probable space group: P -1
;
_chemical_formula_sum "Si O2"
_cell_formula_units_Z 16
_cell_length_a 22.380914
_cell_length_b 5.251710
_cell_length_c 11.159380
_cell_angle_alpha 66.393209
_cell_angle_beta 143.441242
_cell_angle_gamma 122.604744
_cell_volume 656.787077
_symmetry_space_group_name_H-M "P -1"
_symmetry_group_IT_number 2
_symmetry_cell_setting 'triclinic'
loop_
_space_group_symop_operation_xyz
x,y,z
-x,-y,-z
loop_
_atom_site_type_symbol
_atom_site_label
_atom_site_fract_x
_atom_site_fract_y
_atom_site_fract_z
Si Si1 0.321684 0.896062 0.747867
Si Si2 0.432238 0.244997 0.533749
Si Si3 0.525641 0.399587 0.908092
Si Si4 0.079374 0.434350 0.047039
Si Si5 0.896292 0.087917 0.660773
Si Si6 0.696176 0.070245 0.017577
Si Si7 0.684762 0.333548 0.697142
Si Si8 0.929252 0.140437 0.432106
O O1 0.406315 0.248058 0.806195
O O2 0.289409 0.791136 0.852220
O O3 0.210676 0.839172 0.510819
O O4 0.395939 0.717439 0.867685
O O5 0.500000 0.500000 0.500000
O O6 0.499023 0.254363 0.759421
O O7 0.337487 0.360114 0.401075
O O8 0.398137 0.928620 0.470328
O O9 0.594543 0.749383 0.927224
O O10 0.200062 0.659613 0.165975
O O11 0.103808 0.164581 0.198918
O O12 0.000000 0.500000 0.000000
O O13 0.009874 0.357196 0.827492
O O14 0.899369 0.999530 0.544412
O O15 0.814412 0.056395 0.194699
O O16 0.676385 0.242595 0.840194
O O17 0.000000 0.500000 0.500000
O O18 0.000000 0.000000 0.500000
#
# Coordination Sequence:
#
# PCOD9048501 Si02
#       8
#     2   2   2   2   2   2   2   2
#     4  10  24  45  69 106 142 193 235 305 359 442
#     4  12  26  48  74 111 146 196 241 310 366 440
#     4  11  24  43  73 102 148 185 251 286 374 427
#     4  11  27  46  76 107 145 199 247 312 371 445
#     4  10  25  48  72 105 151 185 252 297 375 437
#     4  11  25  43  71 101 144 187 240 300 359 433
#     4  12  28  46  77 106 150 190 253 303 371 434
#     4  11  27  46  74 107 144 193 242 302 364 433
#
# _framework density 24.361013
#
# number of rings (size 3 to 8) (size 9 to 14) (size 15 to 20)
#    0.000    1.000    1.250    3.000   14.000    1.000 
#    4.500    0.000    0.000    0.000    0.000    0.000 
#    0.000    0.000    0.000    0.000    0.000    0.000 
#
# Total GULP energy -89463.948560 kJ/mol
# GULP energy per Si atom -5591.496785 kJ/mol
# Density = 2.430557 g / cm^3
# Si number density = 24.361013 Si / 1000 Ang^3
#
#
#
# Elastic Constant Matrix: (Units=GPa)
#
#
# Indices 1 2 3 4 5 6 
#
# 1 89.6346 10.8282 28.7888 -7.7782 0.6285 2.2153
# 2 10.8282 62.9533 30.5056 -3.3278 -0.9038 0.1636
# 3 28.7888 30.5056 169.5330 -21.3944 6.2606 -3.0763
# 4 -7.7782 -3.3278 -21.3944 30.3894 5.5761 1.6879
# 5 0.6285 -0.9038 6.2606 5.5761 44.3094 2.9726
# 6 2.2153 0.1636 -3.0763 1.6879 2.9726 37.6405
#
#
#
# Elastic Compliance Matrix: (Units=1/GPa)
#
#
# Indices 1 2 3 4 5 6 
#
# 1 0.012001 -0.001191 -0.001595 0.001895 -0.000147 -0.000905
# 2 -0.001191 0.017562 -0.003086 -0.000707 0.000920 -0.000300
# 3 -0.001595 -0.003086 0.007399 0.004744 -0.001725 0.000636
# 4 0.001895 -0.000707 0.004744 0.037697 -0.005389 -0.000986
# 5 -0.000147 0.000920 -0.001725 -0.005389 0.023630 -0.001761
# 6 -0.000905 -0.000300 0.000636 -0.000986 -0.001761 0.026857
#
#
# Mechanical properties :
#
#
# Convention : Reuss Voigt Hill
#
# Bulk Modulus (GPa) = 39.65728 51.37402 45.51565
# Shear Modulus (GPa) = 34.41273 39.26776 36.84025
#
# Velocity S-wave (km/s) = 3.76255 4.01922 3.89300
# Velocity P-wave (km/s) = 5.93212 6.53247 6.23952
#
# Compressibility (1/GPa) = 0.02521605
#
# Stress axis : x y z
#
# Youngs Moduli (GPa) = 83.32980 56.94164 135.15800
#
# Poissons Ratio (x) = 0.06779 0.21564
# Poissons Ratio (y) = 0.09921 0.41716
# Poissons Ratio (z) = 0.13295 0.17575
#
# Static dielectric constant tensor:
#      x y z
#    x 1.998130 -0.005270 0.048060 
#    y -0.005270 1.988150 0.019670 
#    z 0.048060 0.019670 1.943720 
# 
# From -- ./inp_files/473407.got.cif
#   From: 2010.05.17/outbox.cif.g08.bks.cpg/sg2_237_cif.got.tgz:473407.got - 2010.06.03 11:33:40.
