data_PCOD9048226
_publ_section_title
;
Structure prediction by ZEFSAII (Michael W. Deem and Ramdas Pophale) SiO2 
 PCOD9048226
Probable space group: P -1
;
_chemical_formula_sum "Si O2"
_cell_formula_units_Z 15
_cell_length_a 11.846930
_cell_length_b 10.579195
_cell_length_c 5.533146
_cell_angle_alpha 120.257495
_cell_angle_beta 92.666021
_cell_angle_gamma 100.932701
_cell_volume 579.818930
_symmetry_space_group_name_H-M "P -1"
_symmetry_group_IT_number 2
_symmetry_cell_setting 'triclinic'
loop_
_space_group_symop_operation_xyz
x,y,z
-x,-y,-z
loop_
_atom_site_type_symbol
_atom_site_label
_atom_site_fract_x
_atom_site_fract_y
_atom_site_fract_z
Si Si1 0.500000 0.500000 0.500000
Si Si2 0.685345 0.801427 0.631711
Si Si3 0.366102 0.791059 0.184362
Si Si4 0.851369 0.329683 0.251215
Si Si5 0.920205 0.606288 0.184196
Si Si6 0.277081 0.543381 0.262763
Si Si7 0.377309 0.070295 0.764985
Si Si8 0.043575 0.172296 0.252467
O O1 0.574889 0.658749 0.519798
O O2 0.374497 0.526098 0.436672
O O3 0.672545 0.863211 0.417166
O O4 0.815817 0.780514 0.667725
O O5 0.677117 0.911254 0.964655
O O6 0.347683 0.622330 0.114577
O O7 0.487244 0.841708 0.109282
O O8 0.375551 0.902155 0.519682
O O9 0.250814 0.783110 0.012592
O O10 0.870342 0.498191 0.305816
O O11 0.801244 0.352036 0.531707
O O12 0.966699 0.267811 0.191399
O O13 0.984361 0.774551 0.428925
O O14 0.814851 0.602304 0.987192
O O15 0.000000 0.500000 0.000000
O O16 0.000000 0.000000 0.000000
#
# Coordination Sequence:
#
# PCOD9048226 Si02
#       8
#     1   2   2   2   2   2   2   2
#     4  12  26  48  78 110 160 198 272 332 406 476
#     4  12  29  49  78 115 165 212 260 342 411 487
#     4  10  24  44  78 107 150 207 272 330 399 490
#     4  11  24  47  74 108 151 213 268 328 401 496
#     4  11  25  46  78 107 150 212 276 332 398 496
#     4  11  24  46  78 111 151 203 271 334 406 480
#     4  11  26  48  75 114 159 209 270 332 415 489
#     4  12  28  48  77 116 164 209 270 338 417 483
#
# _framework density 25.870146999999999
#
# number of rings (size 3 to 8) (size 9 to 14) (size 15 to 20)
#    0.000    0.800    2.667    2.800    7.467    2.667 
#    0.000    2.000    0.000    0.000    0.000    0.000 
#    0.000    0.000    0.000    0.000    0.000    0.000 
#
# Total GULP energy -83574.700574 kJ/mol
# GULP energy per Si atom -5571.646705 kJ/mol
# Density = 2.581127 g / cm^3
# Si number density = 25.870147 Si / 1000 Ang^3
#
#
#
# Elastic Constant Matrix: (Units=GPa)
#
#
# Indices 1 2 3 4 5 6 
#
# 1 170.4234 27.4369 60.6368 -0.7620 27.7519 -31.4571
# 2 27.4369 70.6199 21.7335 5.6608 3.0713 -5.3928
# 3 60.6368 21.7335 135.1712 13.2327 15.4123 -4.7822
# 4 -0.7620 5.6608 13.2327 22.1908 -0.9765 -2.9391
# 5 27.7519 3.0713 15.4123 -0.9765 35.6764 0.1448
# 6 -31.4571 -5.3928 -4.7822 -2.9391 0.1448 33.3929
#
#
#
# Elastic Compliance Matrix: (Units=1/GPa)
#
#
# Indices 1 2 3 4 5 6 
#
# 1 0.010198 -0.002215 -0.003589 0.003993 -0.006119 0.009113
# 2 -0.002215 0.015643 -0.001300 -0.003259 0.000849 -0.000038
# 3 -0.003589 -0.001300 0.009894 -0.006117 -0.001527 -0.002706
# 4 0.003993 -0.003259 -0.006117 0.050634 0.001175 0.006811
# 5 -0.006119 0.000849 -0.001527 0.001175 0.033432 -0.005887
# 6 0.009113 -0.000038 -0.002706 0.006811 -0.005887 0.038762
#
#
# Mechanical properties :
#
#
# Convention : Reuss Voigt Hill
#
# Bulk Modulus (GPa) = 46.45857 66.20320 56.33089
# Shear Modulus (GPa) = 27.78569 36.01252 31.89911
#
# Velocity S-wave (km/s) = 3.28082 3.73507 3.51529
# Velocity P-wave (km/s) = 5.68762 6.65185 6.18854
#
# Compressibility (1/GPa) = 0.02152455
#
# Stress axis : x y z
#
# Youngs Moduli (GPa) = 98.05972 63.92770 101.06649
#
# Poissons Ratio (x) = 0.14163 0.36276
# Poissons Ratio (y) = 0.21725 0.13143
# Poissons Ratio (z) = 0.35197 0.08313
#
# Static dielectric constant tensor:
#      x y z
#    x 2.037460 0.036720 -0.067470 
#    y 0.036720 2.109110 -0.056740 
#    z -0.067470 -0.056740 2.153550 
# 
# From -- ./inp_files/72608.got.cif
#   From: 2010.05.17/outbox.cif.g08.bks.cpg/sg2_37_cif.got.tgz:72608.got - 2010.06.03 11:33:40.
