data_PCOD9048277
_publ_section_title
;
Structure prediction by ZEFSAII (Michael W. Deem and Ramdas Pophale) SiO2 
 PCOD9048277
Probable space group: P -1
;
_chemical_formula_sum "Si O2"
_cell_formula_units_Z 14
_cell_length_a 10.691320
_cell_length_b 9.457967
_cell_length_c 9.325984
_cell_angle_alpha 99.935332
_cell_angle_beta 45.880064
_cell_angle_gamma 123.152270
_cell_volume 531.701520
_symmetry_space_group_name_H-M "P -1"
_symmetry_group_IT_number 2
_symmetry_cell_setting 'triclinic'
loop_
_space_group_symop_operation_xyz
x,y,z
-x,-y,-z
loop_
_atom_site_type_symbol
_atom_site_label
_atom_site_fract_x
_atom_site_fract_y
_atom_site_fract_z
Si Si1 0.338307 0.212046 0.512579
Si Si2 0.368870 0.746143 0.481899
Si Si3 0.908050 0.293731 0.066530
Si Si4 0.497394 0.310084 0.899659
Si Si5 0.040069 0.326447 0.670766
Si Si6 0.976707 0.866208 0.613568
Si Si7 0.657024 0.492211 0.085583
O O1 0.439269 0.247355 0.592823
O O2 0.208611 0.293557 0.598854
O O3 0.537112 0.327281 0.262826
O O4 0.179847 0.998937 0.576315
O O5 0.292111 0.816487 0.681727
O O6 0.450487 0.798239 0.262735
O O7 0.154974 0.537639 0.608460
O O8 0.000000 0.500000 0.000000
O O9 0.864906 0.226783 0.923867
O O10 0.119211 0.338411 0.994360
O O11 0.502716 0.456217 0.822428
O O12 0.667659 0.412269 0.912122
O O13 0.252481 0.208818 0.140986
O O14 0.995748 0.258644 0.530556
O O15 0.000000 0.000000 0.500000
#
# Coordination Sequence:
#
# PCOD9048277 Si02
#       7
#     2   2   2   2   2   2   2
#     4  11  19  36  63  89 114 153 198 240 289 353
#     4  11  21  35  60  89 118 154 199 234 291 344
#     4  10  21  34  59  91 119 153 200 236 280 352
#     4  11  21  35  60  92 120 145 192 257 293 333
#     4  10  17  34  58  86 114 151 194 242 276 346
#     4  10  21  36  58  89 119 149 194 245 302 340
#     4  11  19  36  62  94 113 149 200 246 289 335
#
# _framework density 26.330563000000001
#
# number of rings (size 3 to 8) (size 9 to 14) (size 15 to 20)
#    0.000    1.429    7.143    2.143    0.000    1.143 
#    0.000    0.714    0.000    7.714    0.000    0.000 
#    0.000    0.000    0.000    0.000    0.000    0.000 
#
# Total GULP energy -78108.088011 kJ/mol
# GULP energy per Si atom -5579.149144 kJ/mol
# Density = 2.627063 g / cm^3
# Si number density = 26.330563 Si / 1000 Ang^3
#
#
#
# Elastic Constant Matrix: (Units=GPa)
#
#
# Indices 1 2 3 4 5 6 
#
# 1 63.6227 -2.9508 13.7534 -4.4854 4.2487 9.7690
# 2 -2.9508 52.5503 49.2780 3.6569 10.8564 31.4838
# 3 13.7534 49.2780 212.9894 26.6396 11.5033 26.5046
# 4 -4.4854 3.6569 26.6396 36.2882 7.5739 4.1993
# 5 4.2487 10.8564 11.5033 7.5739 35.7460 6.8334
# 6 9.7690 31.4838 26.5046 4.1993 6.8334 32.9568
#
#
#
# Elastic Compliance Matrix: (Units=1/GPa)
#
#
# Indices 1 2 3 4 5 6 
#
# 1 0.020680 0.015611 -0.003229 0.006316 -0.003976 -0.018426
# 2 0.015611 0.065462 -0.009729 0.011314 -0.009771 -0.058754
# 3 -0.003229 -0.009729 0.007162 -0.005510 0.001258 0.004933
# 4 0.006316 0.011314 -0.005510 0.034090 -0.007528 -0.011032
# 5 -0.003976 -0.009771 0.001258 -0.007528 0.031869 0.003852
# 6 -0.018426 -0.058754 0.004933 -0.011032 0.003852 0.088572
#
#
# Mechanical properties :
#
#
# Convention : Reuss Voigt Hill
#
# Bulk Modulus (GPa) = 10.14121 49.92484 30.03302
# Shear Modulus (GPa) = 18.15542 38.93698 28.54620
#
# Velocity S-wave (km/s) = 2.62872 3.84966 3.29621
# Velocity P-wave (km/s) = 3.61572 6.22589 5.09093
#
# Compressibility (1/GPa) = 0.09860761
#
# Stress axis : x y z
#
# Youngs Moduli (GPa) = 48.35627 15.27614 139.62732
#
# Poissons Ratio (x) = -0.23847 0.45091
# Poissons Ratio (y) = -0.75489 1.35849
# Poissons Ratio (z) = 0.15616 0.14863
#
# Static dielectric constant tensor:
#      x y z
#    x 2.082940 0.011020 -0.041160 
#    y 0.011020 2.245040 0.117910 
#    z -0.041160 0.117910 2.212960 
# 
# From -- ./inp_files/200810.got.cif
#   From: 2010.05.17/outbox.cif.g08.bks.cpg/sg2_101_cif.got.tgz:200810.got - 2010.06.03 11:33:40.
