data_PCOD9048351
_publ_section_title
;
Structure prediction by ZEFSAII (Michael W. Deem and Ramdas Pophale) SiO2 
 PCOD9048351
Probable space group: P -1
;
_chemical_formula_sum "Si O2"
_cell_formula_units_Z 14
_cell_length_a 22.411830
_cell_length_b 14.980302
_cell_length_c 9.237768
_cell_angle_alpha 148.160467
_cell_angle_beta 48.636451
_cell_angle_gamma 154.219407
_cell_volume 634.085112
_symmetry_space_group_name_H-M "P -1"
_symmetry_group_IT_number 2
_symmetry_cell_setting 'triclinic'
loop_
_space_group_symop_operation_xyz
x,y,z
-x,-y,-z
loop_
_atom_site_type_symbol
_atom_site_label
_atom_site_fract_x
_atom_site_fract_y
_atom_site_fract_z
Si Si1 0.846350 0.060415 0.731807
Si Si2 0.475070 0.772535 0.294573
Si Si3 0.569900 0.559900 0.319236
Si Si4 0.177889 0.584413 0.821839
Si Si5 0.856768 0.783537 0.831861
Si Si6 0.673867 0.071986 0.672994
Si Si7 0.017407 0.689386 0.840851
O O1 0.003211 0.252214 0.700964
O O2 0.716824 0.733311 0.393261
O O3 0.824566 0.218898 0.939815
O O4 0.857089 0.094307 0.933726
O O5 0.293229 0.412319 0.119945
O O6 0.500000 0.000000 0.500000
O O7 0.563732 0.916540 0.502885
O O8 0.528402 0.741338 0.039857
O O9 0.500000 0.500000 0.500000
O O10 0.618875 0.796042 0.453631
O O11 0.198958 0.491961 0.532563
O O12 0.302451 0.771953 0.005470
O O13 0.000000 0.000000 0.000000
O O14 0.927862 0.046213 0.967699
O O15 0.847579 0.385020 0.764317
O O16 0.000000 0.500000 0.500000
#
# Coordination Sequence:
#
# PCOD9048351 Si02
#       7
#     2   2   2   2   2   2   2
#     4   9  20  39  65  94 128 166 224 266 323 397
#     4  12  28  44  66 100 139 175 222 283 331 397
#     4  11  25  42  71  96 135 181 222 269 333 404
#     4   9  20  41  66  95 129 173 214 278 327 393
#     4  12  25  41  68  95 135 175 226 274 341 393
#     4  10  24  45  67  97 137 172 225 274 330 402
#     4  11  23  39  69  96 129 174 222 277 328 395
#
# _framework density 22.079055
#
# number of rings (size 3 to 8) (size 9 to 14) (size 15 to 20)
#    0.000    1.429    0.000    4.714    8.000    4.000 
#    0.000    0.000    0.000    0.000    0.000    0.000 
#    0.000    0.000    0.000    0.000    0.000    0.000 
#
# Total GULP energy -78061.173934 kJ/mol
# GULP energy per Si atom -5575.798138 kJ/mol
# Density = 2.202880 g / cm^3
# Si number density = 22.079055 Si / 1000 Ang^3
#
#
#
# Elastic Constant Matrix: (Units=GPa)
#
#
# Indices 1 2 3 4 5 6 
#
# 1 158.9143 32.3077 44.0237 8.5252 49.2894 -16.2730
# 2 32.3077 80.2682 12.8227 4.3509 1.5090 -10.4218
# 3 44.0237 12.8227 92.5682 -12.4131 32.6495 -1.6671
# 4 8.5252 4.3509 -12.4131 33.2459 -3.1968 -1.7362
# 5 49.2894 1.5090 32.6495 -3.1968 51.6798 8.8139
# 6 -16.2730 -10.4218 -1.6671 -1.7362 8.8139 30.6293
#
#
#
# Elastic Compliance Matrix: (Units=1/GPa)
#
#
# Indices 1 2 3 4 5 6 
#
# 1 0.012311 -0.003143 -0.001383 -0.004008 -0.012520 0.008772
# 2 -0.003143 0.014286 -0.001773 -0.001303 0.003265 0.002081
# 3 -0.001383 -0.001773 0.015487 0.005675 -0.008447 0.002257
# 4 -0.004008 -0.001303 0.005675 0.033583 0.002539 -0.001091
# 5 -0.012520 0.003265 -0.008447 0.002539 0.039634 -0.017262
# 6 0.008772 0.002081 0.002257 -0.001091 -0.017262 0.043046
#
#
# Mechanical properties :
#
#
# Convention : Reuss Voigt Hill
#
# Bulk Modulus (GPa) = 33.91372 56.67322 45.29347
# Shear Modulus (GPa) = 27.65884 39.28409 33.47147
#
# Velocity S-wave (km/s) = 3.54322 4.22269 3.89779
# Velocity P-wave (km/s) = 5.66857 7.03554 6.38872
#
# Compressibility (1/GPa) = 0.02948659
#
# Stress axis : x y z
#
# Youngs Moduli (GPa) = 81.22518 69.99898 64.56885
#
# Poissons Ratio (x) = 0.21999 0.08931
# Poissons Ratio (y) = 0.25527 0.11448
# Poissons Ratio (z) = 0.11235 0.12411
#
# Static dielectric constant tensor:
#      x y z
#    x 1.859930 0.000280 -0.062450 
#    y 0.000280 1.961530 0.018040 
#    z -0.062450 0.018040 2.012940 
# 
# From -- ./inp_files/347727.got.cif
#   From: 2010.05.17/outbox.cif.g08.bks.cpg/sg2_174_cif.got.tgz:347727.got - 2010.06.03 11:33:40.
