data_PCOD9048003
_publ_section_title
;
Structure prediction by ZEFSAII (Michael W. Deem and Ramdas Pophale) SiO2 
 PCOD9048003
Probable space group: P -1
;
_chemical_formula_sum "Si O2"
_cell_formula_units_Z 13
_cell_length_a 7.803416
_cell_length_b 25.831541
_cell_length_c 25.403530
_cell_angle_alpha 10.917229
_cell_angle_beta 147.337131
_cell_angle_gamma 147.748474
_cell_volume 514.194171
_symmetry_space_group_name_H-M "P -1"
_symmetry_group_IT_number 2
_symmetry_cell_setting 'triclinic'
loop_
_space_group_symop_operation_xyz
x,y,z
-x,-y,-z
loop_
_atom_site_type_symbol
_atom_site_label
_atom_site_fract_x
_atom_site_fract_y
_atom_site_fract_z
Si Si1 0.000000 0.000000 0.000000
Si Si2 0.461875 0.142592 0.144378
Si Si3 0.873399 0.677443 0.476363
Si Si4 0.859022 0.443074 0.591125
Si Si5 0.207310 0.295735 0.372652
Si Si6 0.590993 0.067219 0.371345
Si Si7 0.834870 0.500557 0.165099
O O1 0.931937 0.775788 0.156362
O O2 0.947908 0.733007 0.293970
O O3 0.625790 0.971037 0.315003
O O4 0.103205 0.973637 0.230118
O O5 0.640447 0.113705 0.275449
O O6 0.537376 0.463530 0.829407
O O7 0.858037 0.505745 0.589975
O O8 0.510300 0.703472 0.372149
O O9 0.021998 0.528427 0.711330
O O10 0.891822 0.209388 0.341116
O O11 0.090032 0.421134 0.269761
O O12 0.484816 0.741006 0.680810
O O13 0.283265 0.210949 0.162071
#
# Coordination Sequence:
#
# PCOD9048003 Si02
#       7
#     1   2   2   2   2   2   2
#     4  10  24  44  72 106 116 162 214 268 308 380
#     4  11  24  39  62  93 130 167 221 266 319 381
#     4  10  25  45  65  96 132 178 206 258 325 391
#     4  10  24  46  73  95 134 166 210 258 326 386
#     4  12  23  40  64  94 128 172 219 276 317 371
#     4  11  22  42  63  90 128 176 218 268 329 380
#     4  11  24  40  64  93 130 169 223 267 318 382
#
# _framework density 25.282278000000002
#
# number of rings (size 3 to 8) (size 9 to 14) (size 15 to 20)
#    0.000    1.231    0.000    5.538    0.000   13.538 
#    0.000    0.000    0.000    0.000    0.000    0.000 
#    0.000    0.000    0.000    0.000    0.000    0.000 
#
# Total GULP energy -72671.162171 kJ/mol
# GULP energy per Si atom -5590.089398 kJ/mol
# Density = 2.522473 g / cm^3
# Si number density = 25.282278 Si / 1000 Ang^3
#
#
#
# Elastic Constant Matrix: (Units=GPa)
#
#
# Indices 1 2 3 4 5 6 
#
# 1 100.0075 25.7355 11.2958 -3.8290 7.9920 -19.0162
# 2 25.7355 118.6332 19.8655 -5.4698 -12.5712 5.6831
# 3 11.2958 19.8655 94.2215 -11.6594 -4.7279 -3.9448
# 4 -3.8290 -5.4698 -11.6594 24.3446 1.7460 10.5044
# 5 7.9920 -12.5712 -4.7279 1.7460 30.4424 -11.1787
# 6 -19.0162 5.6831 -3.9448 10.5044 -11.1787 26.7283
#
#
#
# Elastic Compliance Matrix: (Units=1/GPa)
#
#
# Indices 1 2 3 4 5 6 
#
# 1 0.013005 -0.003457 -0.000881 -0.003897 -0.000677 0.011106
# 2 -0.003457 0.010086 -0.001406 0.002863 0.002965 -0.004696
# 3 -0.000881 -0.001406 0.011700 0.005135 0.001118 -0.000152
# 4 -0.003897 0.002863 0.005135 0.057235 -0.011228 -0.029813
# 5 -0.000677 0.002965 0.001118 -0.011228 0.042935 0.021422
# 6 0.011106 -0.004696 -0.000152 -0.029813 0.021422 0.066967
#
#
# Mechanical properties :
#
#
# Convention : Reuss Voigt Hill
#
# Bulk Modulus (GPa) = 42.91257 47.40619 45.15938
# Shear Modulus (GPa) = 22.60546 33.36744 27.98645
#
# Velocity S-wave (km/s) = 2.99343 3.63684 3.33071
# Velocity P-wave (km/s) = 5.38124 6.03547 5.71772
#
# Compressibility (1/GPa) = 0.02330319
#
# Stress axis : x y z
#
# Youngs Moduli (GPa) = 76.89275 99.14834 85.46689
#
# Poissons Ratio (x) = 0.34276 0.07534
# Poissons Ratio (y) = 0.26582 0.12013
# Poissons Ratio (z) = 0.06778 0.13936
#
# Static dielectric constant tensor:
#      x y z
#    x 2.041020 0.019910 0.059360 
#    y 0.019910 1.966610 0.031770 
#    z 0.059360 0.031770 1.922460 
# 
# From -- ./inp_files/617640.got.cif
#   From: 2010.05.17/outbox.cif.g08.bks.cpg/sg2_309_cif.got.tgz:617640.got - 2010.06.03 11:33:40.
