data_PCOD9048505
_publ_section_title
;
Structure prediction by ZEFSAII (Michael W. Deem and Ramdas Pophale) SiO2 
 PCOD9048505
Probable space group: P -1
;
_chemical_formula_sum "Si O2"
_cell_formula_units_Z 12
_cell_length_a 13.041794
_cell_length_b 14.170452
_cell_length_c 5.485416
_cell_angle_alpha 118.651087
_cell_angle_beta 59.366105
_cell_angle_gamma 144.501587
_cell_volume 502.255014
_symmetry_space_group_name_H-M "P -1"
_symmetry_group_IT_number 2
_symmetry_cell_setting 'triclinic'
loop_
_space_group_symop_operation_xyz
x,y,z
-x,-y,-z
loop_
_atom_site_type_symbol
_atom_site_label
_atom_site_fract_x
_atom_site_fract_y
_atom_site_fract_z
Si Si1 0.157031 0.091145 0.228201
Si Si2 0.279310 0.535334 0.362074
Si Si3 0.974185 0.165034 0.315943
Si Si4 0.310036 0.803079 0.511876
Si Si5 0.459084 0.594981 0.721049
Si Si6 0.720077 0.136055 0.877318
O O1 0.350683 0.214053 0.268133
O O2 0.130397 0.185701 0.231876
O O3 0.000000 0.000000 0.500000
O O4 0.122851 0.966383 0.943530
O O5 0.314922 0.684090 0.444745
O O6 0.340500 0.557157 0.593593
O O7 0.081827 0.346766 0.349075
O O8 0.384375 0.550590 0.030455
O O9 0.817540 0.093833 0.609524
O O10 0.236490 0.754269 0.264269
O O11 0.500000 0.000000 0.500000
O O12 0.209848 0.791119 0.846929
O O13 0.500000 0.500000 0.500000
O O14 0.500000 0.000000 0.000000
#
# Coordination Sequence:
#
# PCOD9048505 Si02
#       6
#     2   2   2   2   2   2
#     4  11  27  45  75 111 153 197 248 309 381 458
#     4  12  27  47  76 109 154 198 248 317 375 446
#     4  11  27  46  73 112 152 196 251 315 377 449
#     4  10  24  45  69 107 140 195 253 304 371 439
#     4  12  26  47  77 111 151 196 251 304 384 457
#     4  10  24  45  74 105 147 194 257 308 372 444
#
# _framework density 23.892246
#
# number of rings (size 3 to 8) (size 9 to 14) (size 15 to 20)
#    0.000    1.000    1.667    2.500   11.667    2.667 
#    0.000    0.000    0.000    0.000    0.000    0.000 
#    0.000    0.000    0.000    0.000    0.000    0.000 
#
# Total GULP energy -66989.133292 kJ/mol
# GULP energy per Si atom -5582.427774 kJ/mol
# Density = 2.383787 g / cm^3
# Si number density = 23.892246 Si / 1000 Ang^3
#
#
#
# Elastic Constant Matrix: (Units=GPa)
#
#
# Indices 1 2 3 4 5 6 
#
# 1 64.2863 18.9032 0.9821 16.6563 8.0592 -4.5169
# 2 18.9032 126.8872 37.0733 13.1875 -8.5617 1.3475
# 3 0.9821 37.0733 182.7149 0.0705 -1.6563 17.1326
# 4 16.6563 13.1875 0.0705 38.9535 -3.7150 -4.9693
# 5 8.0592 -8.5617 -1.6563 -3.7150 47.5016 0.7831
# 6 -4.5169 1.3475 17.1326 -4.9693 0.7831 40.2935
#
#
#
# Elastic Compliance Matrix: (Units=1/GPa)
#
#
# Indices 1 2 3 4 5 6 
#
# 1 0.018809 -0.002391 0.000231 -0.007477 -0.004219 0.001250
# 2 -0.002391 0.009085 -0.001807 -0.001885 0.001834 -0.000072
# 3 0.000231 -0.001807 0.006069 0.000177 -0.000099 -0.002470
# 4 -0.007477 -0.001885 0.000177 0.030174 0.003249 0.002808
# 5 -0.004219 0.001834 -0.000099 0.003249 0.022358 -0.000526
# 6 0.001250 -0.000072 -0.002470 0.002808 -0.000526 0.026367
#
#
# Mechanical properties :
#
#
# Convention : Reuss Voigt Hill
#
# Bulk Modulus (GPa) = 38.41478 54.20060 46.30769
# Shear Modulus (GPa) = 38.61873 46.47837 42.54855
#
# Velocity S-wave (km/s) = 4.02477 4.41538 4.22459
# Velocity P-wave (km/s) = 6.14098 6.98060 6.57421
#
# Compressibility (1/GPa) = 0.02603165
#
# Stress axis : x y z
#
# Youngs Moduli (GPa) = 53.16684 110.06736 164.77208
#
# Poissons Ratio (x) = 0.26313 -0.03813
# Poissons Ratio (y) = 0.12710 0.29766
# Poissons Ratio (z) = -0.01230 0.19884
#
# Static dielectric constant tensor:
#      x y z
#    x 2.042880 -0.079750 -0.048450 
#    y -0.079750 1.730950 -0.299730 
#    z -0.048450 -0.299730 1.585910 
# 
# From -- ./inp_files/76876.got.cif
#   From: 2010.05.17/outbox.cif.g08.bks.cpg/sg2_39_cif.got.tgz:76876.got - 2010.06.03 11:33:40.
