data_PCOD9048326
_publ_section_title
;
Structure prediction by ZEFSAII (Michael W. Deem and Ramdas Pophale) SiO2 
 PCOD9048326
Probable space group: P -1
;
_chemical_formula_sum "Si O2"
_cell_formula_units_Z 15
_cell_length_a 9.985046
_cell_length_b 9.219994
_cell_length_c 22.005401
_cell_angle_alpha 126.068400
_cell_angle_beta 24.760281
_cell_angle_gamma 135.319554
_cell_volume 585.358107
_symmetry_space_group_name_H-M "P -1"
_symmetry_group_IT_number 2
_symmetry_cell_setting 'triclinic'
loop_
_space_group_symop_operation_xyz
x,y,z
-x,-y,-z
loop_
_atom_site_type_symbol
_atom_site_label
_atom_site_fract_x
_atom_site_fract_y
_atom_site_fract_z
Si Si1 0.373978 0.424661 0.613469
Si Si2 0.395913 0.694067 0.864987
Si Si3 0.621121 0.677602 0.279241
Si Si4 0.886368 0.786959 0.025669
Si Si5 0.432805 0.781176 0.617235
Si Si6 0.809158 0.860645 0.863068
Si Si7 0.234660 0.765719 0.369741
Si Si8 0.500000 0.500000 0.000000
O O1 0.273279 0.317143 0.692946
O O2 0.198764 0.564965 0.699941
O O3 0.326682 0.265453 0.540610
O O4 0.816469 0.604019 0.481091
O O5 0.531158 0.559874 0.738788
O O6 0.604372 0.797332 0.866967
O O7 0.000000 0.500000 0.000000
O O8 0.265800 0.813121 0.903484
O O9 0.301801 0.723128 0.401067
O O10 0.991521 0.886564 0.151167
O O11 0.534526 0.732511 0.201284
O O12 0.714250 0.613520 0.001885
O O13 0.000000 0.000000 0.000000
O O14 0.138947 0.809560 0.707245
O O15 0.646977 0.990941 0.620780
O O16 0.625055 0.736046 0.970721
#
# Coordination Sequence:
#
# PCOD9048326 Si02
#       8
#     2   2   2   2   2   2   2   1
#     4  11  24  43  72 103 139 191 241 300 359 425
#     4  12  25  48  69 107 147 188 238 297 357 432
#     4  11  25  43  71 107 143 188 242 292 369 426
#     4  12  27  46  73 109 146 192 240 290 364 431
#     4  10  24  45  67 102 143 187 243 296 360 423
#     4  11  26  47  71 103 149 188 238 301 355 433
#     4  11  23  46  69 103 146 187 241 296 355 432
#     4  12  24  42  74 100 144 188 232 290 356 416
#
# _framework density 25.625340999999999
#
# number of rings (size 3 to 8) (size 9 to 14) (size 15 to 20)
#    0.000    0.800    2.667    4.000    3.733    4.800 
#    4.800    0.000    0.000    0.000    0.000    0.000 
#    0.000    0.000    0.000    0.000    0.000    0.000 
#
# Total GULP energy -83623.210070 kJ/mol
# GULP energy per Si atom -5574.880671 kJ/mol
# Density = 2.556702 g / cm^3
# Si number density = 25.625341 Si / 1000 Ang^3
#
#
#
# Elastic Constant Matrix: (Units=GPa)
#
#
# Indices 1 2 3 4 5 6 
#
# 1 188.4781 53.4208 26.8897 7.2088 -11.2082 -7.5578
# 2 53.4208 119.0920 44.3675 17.9219 -2.6717 -7.1351
# 3 26.8897 44.3675 49.1501 5.6985 2.1329 -3.1165
# 4 7.2088 17.9219 5.6985 37.6482 -1.7092 -0.1874
# 5 -11.2082 -2.6717 2.1329 -1.7092 44.6938 -0.9393
# 6 -7.5578 -7.1351 -3.1165 -0.1874 -0.9393 65.3642
#
#
#
# Elastic Compliance Matrix: (Units=1/GPa)
#
#
# Indices 1 2 3 4 5 6 
#
# 1 0.006246 -0.002216 -0.001473 0.000153 0.001519 0.000432
# 2 -0.002216 0.014304 -0.011139 -0.004665 0.000669 0.000770
# 3 -0.001473 -0.011139 0.031233 0.000744 -0.002496 0.000069
# 4 0.000153 -0.004665 0.000744 0.028675 0.000813 -0.000362
# 5 0.001519 0.000669 -0.002496 0.000813 0.022955 0.000462
# 6 0.000432 0.000770 0.000069 -0.000362 0.000462 0.015442
#
#
# Mechanical properties :
#
#
# Convention : Reuss Voigt Hill
#
# Bulk Modulus (GPa) = 45.19367 67.34181 56.26774
# Shear Modulus (GPa) = 32.07463 45.01073 38.54268
#
# Velocity S-wave (km/s) = 3.54174 4.19560 3.88246
# Velocity P-wave (km/s) = 5.86514 7.05742 6.48872
#
# Compressibility (1/GPa) = 0.02212699
#
# Stress axis : x y z
#
# Youngs Moduli (GPa) = 160.11083 69.91152 32.01724
#
# Poissons Ratio (x) = 0.15492 0.04716
# Poissons Ratio (y) = 0.35479 0.35664
# Poissons Ratio (z) = 0.23583 0.77874
#
# Static dielectric constant tensor:
#      x y z
#    x 2.093680 0.081550 0.208080 
#    y 0.081550 2.064120 0.060030 
#    z 0.208080 0.060030 2.201390 
# 
# From -- ./inp_files/588012.got.cif
#   From: 2010.05.17/outbox.cif.g08.bks.cpg/sg2_295_cif.got.tgz:588012.got - 2010.06.03 11:33:40.
