data_PCOD9048537
_publ_section_title
;
Structure prediction by ZEFSAII (Michael W. Deem and Ramdas Pophale) SiO2 
 PCOD9048537
Probable space group: P -1
;
_chemical_formula_sum "Si O2"
_cell_formula_units_Z 13
_cell_length_a 8.973189
_cell_length_b 9.443627
_cell_length_c 12.630085
_cell_angle_alpha 142.195024
_cell_angle_beta 109.634359
_cell_angle_gamma 89.404842
_cell_volume 554.310839
_symmetry_space_group_name_H-M "P -1"
_symmetry_group_IT_number 2
_symmetry_cell_setting 'triclinic'
loop_
_space_group_symop_operation_xyz
x,y,z
-x,-y,-z
loop_
_atom_site_type_symbol
_atom_site_label
_atom_site_fract_x
_atom_site_fract_y
_atom_site_fract_z
Si Si1 0.182738 0.575893 0.147560
Si Si2 0.994947 0.341372 0.651712
Si Si3 0.379070 0.647103 0.036926
Si Si4 0.880367 0.741383 0.756919
Si Si5 0.500000 0.500000 0.500000
Si Si6 0.594522 0.093854 0.187471
Si Si7 0.926179 0.012990 0.245624
O O1 0.334231 0.727966 0.189038
O O2 0.157910 0.709141 0.326284
O O3 0.000000 0.500000 0.000000
O O4 0.170418 0.290052 0.983699
O O5 0.962642 0.544750 0.689203
O O6 0.968217 0.096931 0.428295
O O7 0.189856 0.474340 0.831209
O O8 0.487870 0.891867 0.134783
O O9 0.500000 0.500000 0.000000
O O10 0.683870 0.662111 0.704584
O O11 0.902798 0.840742 0.699177
O O12 0.000000 0.000000 0.000000
O O13 0.602680 0.362121 0.381056
O O14 0.787422 0.115242 0.239258
O O15 0.500000 0.000000 0.000000
#
# Coordination Sequence:
#
# PCOD9048537 Si02
#       7
#     2   2   2   2   1   2   2
#     4  10  24  45  69  97 145 192 238 299 377 437
#     4  11  24  45  71 101 145 194 242 304 373 438
#     4  11  24  47  74 107 146 194 248 307 374 446
#     4  12  24  46  75 110 151 197 243 313 375 438
#     4  12  28  44  72 114 150 188 256 298 370 450
#     4  12  27  47  74 108 149 193 246 312 371 443
#     4  12  24  45  72 105 145 192 246 300 376 444
#
# _framework density 23.452545000000001
#
# number of rings (size 3 to 8) (size 9 to 14) (size 15 to 20)
#    0.000    0.615    4.615    3.231    4.308    2.462 
#    0.000    2.308    0.000    0.000    0.000    0.000 
#    0.000    0.000    0.000    0.000    0.000    0.000 
#
# Total GULP energy -72416.440951 kJ/mol
# GULP energy per Si atom -5570.495458 kJ/mol
# Density = 2.339917 g / cm^3
# Si number density = 23.452545 Si / 1000 Ang^3
#
#
#
# Elastic Constant Matrix: (Units=GPa)
#
#
# Indices 1 2 3 4 5 6 
#
# 1 86.2110 19.5045 -6.6315 -6.2294 -0.5836 -3.8468
# 2 19.5045 71.4197 7.4622 -11.5631 -7.5027 33.5175
# 3 -6.6315 7.4622 45.2876 -11.8883 -5.2722 4.3315
# 4 -6.2294 -11.5631 -11.8883 30.7146 2.0209 -1.3005
# 5 -0.5836 -7.5027 -5.2722 2.0209 51.4607 -11.7008
# 6 -3.8468 33.5175 4.3315 -1.3005 -11.7008 54.2371
#
#
#
# Elastic Compliance Matrix: (Units=1/GPa)
#
#
# Indices 1 2 3 4 5 6 
#
# 1 0.013460 -0.005686 0.003057 0.001922 0.000560 0.004391
# 2 -0.005686 0.023715 -0.001652 0.006533 -0.000411 -0.014859
# 3 0.003057 -0.001652 0.025613 0.009774 0.002002 -0.000142
# 4 0.001922 0.006533 0.009774 0.039056 -0.000431 -0.003838
# 5 0.000560 -0.000411 0.002002 -0.000431 0.020641 0.004577
# 6 0.004391 -0.014859 -0.000142 -0.003838 0.004577 0.028838
#
#
# Mechanical properties :
#
#
# Convention : Reuss Voigt Hill
#
# Bulk Modulus (GPa) = 18.44101 27.06542 22.75321
# Shear Modulus (GPa) = 28.09610 39.45467 33.77539
#
# Velocity S-wave (km/s) = 3.46497 4.10606 3.79906
# Velocity P-wave (km/s) = 4.88755 5.83482 5.38207
#
# Compressibility (1/GPa) = 0.05422697
#
# Stress axis : x y z
#
# Youngs Moduli (GPa) = 74.29614 42.16725 39.04204
#
# Poissons Ratio (x) = 0.23977 -0.11937
# Poissons Ratio (y) = 0.42246 0.06449
# Poissons Ratio (z) = -0.22716 0.06966
#
# Static dielectric constant tensor:
#      x y z
#    x -0.998700 1.152760 -4.649030 
#    y 1.152760 1.466260 1.754510 
#    z -4.649030 1.754510 -5.537720 
# 
# From -- ./inp_files/176346.got.cif
#   From: 2010.05.17/outbox.cif.g08.bks.cpg/sg2_89_cif.got.tgz:176346.got - 2010.06.03 11:33:40.
