data_PCOD9048033
_publ_section_title
;
Structure prediction by ZEFSAII (Michael W. Deem and Ramdas Pophale) SiO2 
 PCOD9048033
Probable space group: P -1
;
_chemical_formula_sum "Si O2"
_cell_formula_units_Z 16
_cell_length_a 20.161113
_cell_length_b 10.818931
_cell_length_c 5.627283
_cell_angle_alpha 92.422283
_cell_angle_beta 91.963802
_cell_angle_gamma 31.870166
_cell_volume 647.497538
_symmetry_space_group_name_H-M "P -1"
_symmetry_group_IT_number 2
_symmetry_cell_setting 'triclinic'
loop_
_space_group_symop_operation_xyz
x,y,z
-x,-y,-z
loop_
_atom_site_type_symbol
_atom_site_label
_atom_site_fract_x
_atom_site_fract_y
_atom_site_fract_z
Si Si1 0.450760 0.219426 0.502670
Si Si2 0.373225 0.281884 0.003992
Si Si3 0.078402 0.954553 0.693997
Si Si4 0.009731 0.589822 0.708804
Si Si5 0.788670 0.881232 0.029760
Si Si6 0.696614 0.232618 0.388862
Si Si7 0.105775 0.661355 0.928359
Si Si8 0.565005 0.263096 0.719436
O O1 0.376583 0.350922 0.257795
O O2 0.552196 0.168982 0.524518
O O3 0.500000 0.000000 0.500000
O O4 0.380394 0.339382 0.756629
O O5 0.246694 0.402215 0.997505
O O6 0.500000 0.000000 0.000000
O O7 0.197967 0.830402 0.580419
O O8 0.118815 0.785124 0.873759
O O9 0.000000 0.000000 0.500000
O O10 0.992143 0.186703 0.853070
O O11 0.118540 0.370753 0.884097
O O12 0.054270 0.661607 0.700500
O O13 0.000000 0.500000 0.500000
O O14 0.873489 0.807665 0.828703
O O15 0.766122 0.011691 0.248160
O O16 0.651044 0.072874 0.923388
O O17 0.633985 0.273286 0.617989
O O18 0.577460 0.466332 0.235650
#
# Coordination Sequence:
#
# PCOD9048033 Si02
#       8
#     2   2   2   2   2   2   2   2
#     4  10  24  45  72 111 156 198 252 317 391 470
#     4  10  24  44  72 111 154 196 248 319 386 472
#     4  11  27  47  80 105 149 204 257 323 384 474
#     4  11  26  46  74 106 148 197 253 316 390 472
#     4  11  25  45  70 105 147 194 249 316 384 465
#     4  11  25  49  69 110 148 199 261 314 397 466
#     4  11  26  47  75 111 144 203 257 322 395 463
#     4  11  26  43  78 108 150 204 248 330 387 467
#
# _framework density 24.710516999999999
#
# number of rings (size 3 to 8) (size 9 to 14) (size 15 to 20)
#    0.000    1.250    1.250    1.875   12.250    3.000 
#    2.250    0.000    0.000    0.000    0.000    0.000 
#    0.000    0.000    0.000    0.000    0.000    0.000 
#
# Total GULP energy -89364.609794 kJ/mol
# GULP energy per Si atom -5585.288112 kJ/mol
# Density = 2.465427 g / cm^3
# Si number density = 24.710517 Si / 1000 Ang^3
#
#
#
# Elastic Constant Matrix: (Units=GPa)
#
#
# Indices 1 2 3 4 5 6 
#
# 1 144.8679 29.7738 37.5114 4.2271 13.1868 -26.2378
# 2 29.7738 134.0099 6.3038 -3.3275 -5.0932 -22.1412
# 3 37.5114 6.3038 119.9430 -5.6176 7.2603 -19.8886
# 4 4.2271 -3.3275 -5.6176 34.6463 -9.1677 7.4559
# 5 13.1868 -5.0932 7.2603 -9.1677 31.1058 -2.3112
# 6 -26.2378 -22.1412 -19.8886 7.4559 -2.3112 34.3617
#
#
#
# Elastic Compliance Matrix: (Units=1/GPa)
#
#
# Indices 1 2 3 4 5 6 
#
# 1 0.009176 -0.001277 -0.001772 -0.003928 -0.004419 0.005713
# 2 -0.001277 0.008646 0.000661 0.000643 0.002364 0.004998
# 3 -0.001772 0.000661 0.009683 0.000655 -0.000875 0.004476
# 4 -0.003928 0.000643 0.000655 0.034362 0.011083 -0.008917
# 5 -0.004419 0.002364 -0.000875 0.011083 0.037714 -0.002225
# 6 0.005713 0.004998 0.004476 -0.008917 -0.002225 0.041061
#
#
# Mechanical properties :
#
#
# Convention : Reuss Voigt Hill
#
# Bulk Modulus (GPa) = 43.99664 60.66656 52.33160
# Shear Modulus (GPa) = 32.68125 41.70488 37.19307
#
# Velocity S-wave (km/s) = 3.64065 4.11267 3.88384
# Velocity P-wave (km/s) = 5.95953 6.86704 6.42931
#
# Compressibility (1/GPa) = 0.02272901
#
# Stress axis : x y z
#
# Youngs Moduli (GPa) = 108.98498 115.65578 103.27884
#
# Poissons Ratio (x) = 0.14767 0.18297
# Poissons Ratio (y) = 0.13915 -0.06824
# Poissons Ratio (z) = 0.19308 -0.07642
#
# Static dielectric constant tensor:
#      x y z
#    x 2.174800 0.178050 0.039160 
#    y 0.178050 2.111790 0.033100 
#    z 0.039160 0.033100 2.020590 
# 
# From -- ./inp_files/118749.got.cif
#   From: 2010.05.17/outbox.cif.g08.bks.cpg/sg2_60_cif.got.tgz:118749.got - 2010.06.03 11:33:40.
