data_PCOD9048456
_publ_section_title
;
Structure prediction by ZEFSAII (Michael W. Deem and Ramdas Pophale) SiO2 
 PCOD9048456
Probable space group: P -1
;
_chemical_formula_sum "Si O2"
_cell_formula_units_Z 16
_cell_length_a 14.974682
_cell_length_b 8.601381
_cell_length_c 7.920935
_cell_angle_alpha 127.063025
_cell_angle_beta 92.376338
_cell_angle_gamma 109.348655
_cell_volume 727.676908
_symmetry_space_group_name_H-M "P -1"
_symmetry_group_IT_number 2
_symmetry_cell_setting 'triclinic'
loop_
_space_group_symop_operation_xyz
x,y,z
-x,-y,-z
loop_
_atom_site_type_symbol
_atom_site_label
_atom_site_fract_x
_atom_site_fract_y
_atom_site_fract_z
Si Si1 0.261627 0.373330 0.507224
Si Si2 0.265670 0.562426 0.285646
Si Si3 0.267626 0.957629 0.078722
Si Si4 0.575824 0.945481 0.355353
Si Si5 0.575030 0.204487 0.031302
Si Si6 0.286252 0.189038 0.883398
Si Si7 0.883349 0.339201 0.889092
Si Si8 0.116530 0.071683 0.559806
O O1 0.222089 0.440169 0.378714
O O2 0.359725 0.578961 0.717473
O O3 0.178399 0.281952 0.585937
O O4 0.284206 0.175353 0.320723
O O5 0.342564 0.805028 0.504184
O O6 0.184412 0.569025 0.153930
O O7 0.320858 0.430940 0.117463
O O8 0.162317 0.760219 0.995973
O O9 0.347128 0.875017 0.090048
O O10 0.284238 0.030114 0.931804
O O11 0.500000 0.000000 0.500000
O O12 0.652054 0.832842 0.287046
O O13 0.498481 0.785128 0.106896
O O14 0.500000 0.000000 0.000000
O O15 0.172312 0.117938 0.772571
O O16 0.869999 0.128153 0.646699
O O17 0.000000 0.500000 0.000000
O O18 0.000000 0.000000 0.500000
#
# Coordination Sequence:
#
# PCOD9048456 Si02
#       8
#     2   2   2   2   2   2   2   2
#     4  10  25  44  69  99 142 181 228 288 340 409
#     4  11  23  46  68  99 140 178 231 288 340 416
#     4  10  24  45  68  99 141 181 226 290 339 418
#     4  12  26  43  65 103 141 181 233 284 340 410
#     4  12  23  42  71  98 138 183 235 274 348 406
#     4  11  24  45  68  98 139 182 230 282 347 413
#     4  11  24  44  71 103 135 178 232 295 352 407
#     4  11  25  45  69 102 139 180 232 287 353 417
#
# _framework density 21.987781999999999
#
# number of rings (size 3 to 8) (size 9 to 14) (size 15 to 20)
#    0.000    1.000    3.750    1.500    7.000    3.000 
#    0.000    5.000    0.000    0.000    0.000    0.000 
#    0.000    0.000    0.000    0.000    0.000    0.000 
#
# Total GULP energy -89234.199827 kJ/mol
# GULP energy per Si atom -5577.137489 kJ/mol
# Density = 2.193774 g / cm^3
# Si number density = 21.987782 Si / 1000 Ang^3
#
#
#
# Elastic Constant Matrix: (Units=GPa)
#
#
# Indices 1 2 3 4 5 6 
#
# 1 117.6453 40.6450 33.4805 6.2987 6.3908 2.2753
# 2 40.6450 87.6945 43.9515 10.7541 10.6616 4.5732
# 3 33.4805 43.9515 100.4366 15.9109 6.4988 2.7090
# 4 6.2987 10.7541 15.9109 34.9250 -4.7125 5.7018
# 5 6.3908 10.6616 6.4988 -4.7125 38.5689 5.4035
# 6 2.2753 4.5732 2.7090 5.7018 5.4035 34.7851
#
#
#
# Elastic Compliance Matrix: (Units=1/GPa)
#
#
# Indices 1 2 3 4 5 6 
#
# 1 0.010355 -0.003898 -0.001737 0.000077 -0.000338 0.000010
# 2 -0.003898 0.016614 -0.005381 -0.002294 -0.003232 -0.000632
# 3 -0.001737 -0.005381 0.013665 -0.004525 -0.001175 0.000681
# 4 0.000077 -0.002294 -0.004525 0.033169 0.006243 -0.005758
# 5 -0.000338 -0.003232 -0.001175 0.006243 0.028527 -0.004916
# 6 0.000010 -0.000632 0.000681 -0.005758 -0.004916 0.030485
#
#
# Mechanical properties :
#
#
# Convention : Reuss Voigt Hill
#
# Bulk Modulus (GPa) = 53.75753 60.21449 56.98601
# Shear Modulus (GPa) = 31.04675 34.16911 32.60793
#
# Velocity S-wave (km/s) = 3.76174 3.94636 3.85515
# Velocity P-wave (km/s) = 6.58555 6.94334 6.76681
#
# Compressibility (1/GPa) = 0.01860204
#
# Stress axis : x y z
#
# Youngs Moduli (GPa) = 96.57095 60.18968 73.17998
#
# Poissons Ratio (x) = 0.23461 0.12709
# Poissons Ratio (y) = 0.37642 0.39382
# Poissons Ratio (z) = 0.16772 0.32391
#
# Static dielectric constant tensor:
#      x y z
#    x 1.833950 0.023920 -0.049920 
#    y 0.023920 1.889970 -0.040760 
#    z -0.049920 -0.040760 1.798040 
# 
# From -- ./inp_files/299743.got.cif
#   From: 2010.05.17/outbox.cif.g08.bks.cpg/sg2_150_cif.got.tgz:299743.got - 2010.06.03 11:33:40.
