data_PCOD9048040
_publ_section_title
;
Structure prediction by ZEFSAII (Michael W. Deem and Ramdas Pophale) SiO2 
 PCOD9048040
Probable space group: P -1
;
_chemical_formula_sum "Si O2"
_cell_formula_units_Z 16
_cell_length_a 9.819061
_cell_length_b 11.016234
_cell_length_c 10.949994
_cell_angle_alpha 46.083596
_cell_angle_beta 115.017940
_cell_angle_gamma 81.614354
_cell_volume 572.027924
_symmetry_space_group_name_H-M "P -1"
_symmetry_group_IT_number 2
_symmetry_cell_setting 'triclinic'
loop_
_space_group_symop_operation_xyz
x,y,z
-x,-y,-z
loop_
_atom_site_type_symbol
_atom_site_label
_atom_site_fract_x
_atom_site_fract_y
_atom_site_fract_z
Si Si1 0.062212 0.666580 0.851382
Si Si2 0.497348 0.220760 0.379565
Si Si3 0.309135 0.304688 0.639928
Si Si4 0.662840 0.923024 0.868879
Si Si5 0.552216 0.414126 0.719255
Si Si6 0.958963 0.384345 0.380550
Si Si7 0.949690 0.245996 0.944114
Si Si8 0.727532 0.263836 0.280653
O O1 0.996973 0.713155 0.933027
O O2 0.145940 0.789961 0.756242
O O3 0.270582 0.399585 0.117294
O O4 0.945335 0.696093 0.665211
O O5 0.493406 0.392990 0.345446
O O6 0.674465 0.125083 0.414978
O O7 0.544821 0.032953 0.619119
O O8 0.417986 0.351744 0.740928
O O9 0.136028 0.295021 0.605465
O O10 0.497670 0.078257 0.800942
O O11 0.181303 0.523698 0.346854
O O12 0.789003 0.658254 0.121781
O O13 0.838409 0.935266 0.917632
O O14 0.500000 0.500000 0.500000
O O15 0.796597 0.212120 0.945104
O O16 0.842246 0.294968 0.400780
O O17 0.500000 0.500000 0.000000
#
# Coordination Sequence:
#
# PCOD9048040 Si02
#       8
#     2   2   2   2   2   2   2   2
#     4   8  16  36  51  71 111 142 169 216 267 313
#     4  10  17  34  58  82 102 141 188 216 260 320
#     4  10  19  35  50  81 115 140 174 220 279 310
#     4  11  20  31  55  87 108 134 184 224 264 315
#     4   9  16  33  55  77 112 143 168 228 267 312
#     4   9  21  36  54  77 114 144 169 223 271 316
#     4   9  18  33  50  81 108 139 177 220 269 306
#     4   8  17  36  58  73 104 152 179 208 265 325
#
# _framework density 27.970662000000001
#
# number of rings (size 3 to 8) (size 9 to 14) (size 15 to 20)
#    0.750    2.000    3.750    0.000    0.000    3.000 
#    4.500    1.250    8.250    0.750    0.000    0.000 
#    0.000    0.000    0.000    0.000    0.000    0.000 
#
# Total GULP energy -89376.168208 kJ/mol
# GULP energy per Si atom -5586.010513 kJ/mol
# Density = 2.790700 g / cm^3
# Si number density = 27.970662 Si / 1000 Ang^3
#
#
#
# Elastic Constant Matrix: (Units=GPa)
#
#
# Indices 1 2 3 4 5 6 
#
# 1 134.1066 42.5858 27.2083 12.0087 13.1036 20.2202
# 2 42.5858 106.3830 18.1484 2.7689 17.2943 2.3477
# 3 27.2083 18.1484 103.2672 -15.1721 18.7813 17.2920
# 4 12.0087 2.7689 -15.1721 37.0458 5.5183 11.0962
# 5 13.1036 17.2943 18.7813 5.5183 39.9344 13.4803
# 6 20.2202 2.3477 17.2920 11.0962 13.4803 54.9368
#
#
#
# Elastic Compliance Matrix: (Units=1/GPa)
#
#
# Indices 1 2 3 4 5 6 
#
# 1 0.009523 -0.003409 -0.002090 -0.003105 0.000505 -0.002198
# 2 -0.003409 0.011527 -0.000701 -0.000021 -0.004224 0.002023
# 3 -0.002090 -0.000701 0.013047 0.007920 -0.004998 -0.003681
# 4 -0.003105 -0.000021 0.007920 0.034093 -0.005046 -0.006997
# 5 0.000505 -0.004224 -0.004998 -0.005046 0.031487 -0.005139
# 6 -0.002198 0.002023 -0.003681 -0.006997 -0.005139 0.022758
#
#
# Mechanical properties :
#
#
# Convention : Reuss Voigt Hill
#
# Bulk Modulus (GPa) = 46.09034 57.73795 51.91414
# Shear Modulus (GPa) = 35.19467 43.43769 39.31618
#
# Velocity S-wave (km/s) = 3.55106 3.94505 3.75323
# Velocity P-wave (km/s) = 5.77297 6.43727 6.11415
#
# Compressibility (1/GPa) = 0.02169652
#
# Stress axis : x y z
#
# Youngs Moduli (GPa) = 105.00518 86.75577 76.64863
#
# Poissons Ratio (x) = 0.29571 0.16021
# Poissons Ratio (y) = 0.35791 0.05376
# Poissons Ratio (z) = 0.21947 0.06085
#
# Static dielectric constant tensor:
#      x y z
#    x 2.262480 0.052980 -0.013280 
#    y 0.052980 2.213230 -0.011460 
#    z -0.013280 -0.011460 2.170970 
# 
# From -- ./inp_files/531035.got.cif
#   From: 2010.05.17/outbox.cif.g08.bks.cpg/sg2_266_cif.got.tgz:531035.got - 2010.06.03 11:33:40.
