data_PCOD9048948
_publ_section_title
;
Structure prediction by ZEFSAII (Michael W. Deem and Ramdas Pophale) SiO2 
 PCOD9048948
Probable space group: P -1
;
_chemical_formula_sum "Si O2"
_cell_formula_units_Z 14
_cell_length_a 16.709188
_cell_length_b 22.752527
_cell_length_c 8.905915
_cell_angle_alpha 31.203345
_cell_angle_beta 146.958395
_cell_angle_gamma 159.486454
_cell_volume 601.665188
_symmetry_space_group_name_H-M "P -1"
_symmetry_group_IT_number 2
_symmetry_cell_setting 'triclinic'
loop_
_space_group_symop_operation_xyz
x,y,z
-x,-y,-z
loop_
_atom_site_type_symbol
_atom_site_label
_atom_site_fract_x
_atom_site_fract_y
_atom_site_fract_z
Si Si1 0.953205 0.925824 0.895584
Si Si2 0.844802 0.200834 0.046079
Si Si3 0.298577 0.327554 0.463186
Si Si4 0.291875 0.047054 0.362735
Si Si5 0.333976 0.843067 0.455727
Si Si6 0.453232 0.354700 0.329545
Si Si7 0.899194 0.464493 0.749930
O O1 0.763574 0.865837 0.840798
O O2 0.811416 0.830896 0.729280
O O3 0.158196 0.137960 0.725991
O O4 0.075284 0.894795 0.239671
O O5 0.099031 0.302827 0.185342
O O6 0.722717 0.047250 0.314288
O O7 0.714561 0.118633 0.859615
O O8 0.868345 0.335859 0.873817
O O9 0.500000 0.500000 0.500000
O O10 0.434259 0.366089 0.448212
O O11 0.522213 0.176172 0.345435
O O12 0.092878 0.660217 0.548660
O O13 0.500000 0.000000 0.500000
O O14 0.651372 0.380888 0.551249
O O15 0.500000 0.500000 0.000000
O O16 0.000000 0.500000 0.000000
#
# Coordination Sequence:
#
# PCOD9048948 Si02
#       7
#     2   2   2   2   2   2   2
#     4  10  25  46  76 105 147 193 247 301 376 436
#     4  11  25  49  72 108 148 191 250 306 376 440
#     4  11  26  46  77 108 147 192 244 305 374 448
#     4  10  24  45  77 103 143 188 250 299 375 434
#     4  12  27  44  74 104 148 192 245 304 373 440
#     4  12  28  46  75 107 154 194 252 302 366 445
#     4  12  28  48  74 112 150 198 248 307 374 442
#
# _framework density 23.268757000000001
#
# number of rings (size 3 to 8) (size 9 to 14) (size 15 to 20)
#    0.000    0.857    0.000    4.714   16.000    3.429 
#    0.000    0.000    0.000    0.000    0.000    0.000 
#    0.000    0.000    0.000    0.000    0.000    0.000 
#
# Total GULP energy -78264.878958 kJ/mol
# GULP energy per Si atom -5590.348497 kJ/mol
# Density = 2.321580 g / cm^3
# Si number density = 23.268757 Si / 1000 Ang^3
#
#
#
# Elastic Constant Matrix: (Units=GPa)
#
#
# Indices 1 2 3 4 5 6 
#
# 1 105.9375 23.9709 38.5207 -3.5377 -15.4061 12.6079
# 2 23.9709 105.2354 36.0797 12.6536 -29.2350 -16.4107
# 3 38.5207 36.0797 111.7216 22.7165 -18.6051 -10.2128
# 4 -3.5377 12.6536 22.7165 38.0320 -2.9547 0.2758
# 5 -15.4061 -29.2350 -18.6051 -2.9547 38.6860 15.3802
# 6 12.6079 -16.4107 -10.2128 0.2758 15.3802 37.4672
#
#
#
# Elastic Compliance Matrix: (Units=1/GPa)
#
#
# Indices 1 2 3 4 5 6 
#
# 1 0.013886 -0.001914 -0.005198 0.005544 0.005710 -0.009312
# 2 -0.001914 0.013296 -0.001526 -0.003166 0.007044 0.003183
# 3 -0.005198 -0.001526 0.013398 -0.007945 0.000847 0.004443
# 4 0.005544 -0.003166 -0.007945 0.032721 0.000888 -0.006023
# 5 0.005710 0.007044 0.000847 0.000888 0.039878 -0.014981
# 6 -0.009312 0.003183 0.004443 -0.006023 -0.014981 0.038623
#
#
# Mechanical properties :
#
#
# Convention : Reuss Voigt Hill
#
# Bulk Modulus (GPa) = 42.90803 57.78190 50.34497
# Shear Modulus (GPa) = 28.27328 37.79191 33.03259
#
# Velocity S-wave (km/s) = 3.48957 4.03444 3.77186
# Velocity P-wave (km/s) = 5.89206 6.82559 6.37593
#
# Compressibility (1/GPa) = 0.02330566
#
# Stress axis : x y z
#
# Youngs Moduli (GPa) = 72.01359 75.21284 74.63539
#
# Poissons Ratio (x) = 0.14393 0.38792
# Poissons Ratio (y) = 0.13781 0.11390
# Poissons Ratio (z) = 0.37429 0.11479
#
# Static dielectric constant tensor:
#      x y z
#    x 1.928700 -0.041900 0.035910 
#    y -0.041900 1.912550 0.049890 
#    z 0.035910 0.049890 1.964230 
# 
# From -- ./inp_files/338653.got.cif
#   From: 2010.05.17/outbox.cif.g08.bks.cpg/sg2_170_cif.got.tgz:338653.got - 2010.06.03 11:33:40.
