data_PCOD9048847
_publ_section_title
;
Structure prediction by ZEFSAII (Michael W. Deem and Ramdas Pophale) SiO2 
 PCOD9048847
Probable space group: P -1
;
_chemical_formula_sum "Si O2"
_cell_formula_units_Z 14
_cell_length_a 8.012295
_cell_length_b 19.843315
_cell_length_c 9.288814
_cell_angle_alpha 49.368435
_cell_angle_beta 146.625780
_cell_angle_gamma 143.801408
_cell_volume 478.626316
_symmetry_space_group_name_H-M "P -1"
_symmetry_group_IT_number 2
_symmetry_cell_setting 'triclinic'
loop_
_space_group_symop_operation_xyz
x,y,z
-x,-y,-z
loop_
_atom_site_type_symbol
_atom_site_label
_atom_site_fract_x
_atom_site_fract_y
_atom_site_fract_z
Si Si1 0.610816 0.390375 0.943551
Si Si2 0.199398 0.023803 0.258593
Si Si3 0.697490 0.720829 0.420824
Si Si4 0.971305 0.322475 0.822977
Si Si5 0.571492 0.759854 0.740128
Si Si6 0.209619 0.120597 0.574459
Si Si7 0.340259 0.529107 0.647227
O O1 0.362412 0.296924 0.768475
O O2 0.334999 0.416751 0.776238
O O3 0.723174 0.355955 0.216156
O O4 0.000000 0.500000 0.000000
O O5 0.432659 0.153096 0.293371
O O6 0.500000 0.000000 0.500000
O O7 0.853623 0.946171 0.229812
O O8 0.000000 0.000000 0.000000
O O9 0.017710 0.828139 0.604057
O O10 0.570870 0.603544 0.561082
O O11 0.389373 0.740046 0.230590
O O12 0.936810 0.426776 0.611036
O O13 0.036240 0.225549 0.978217
O O14 0.339538 0.395570 0.102067
O O15 0.515025 0.781956 0.503213
O O16 0.000000 0.000000 0.500000
#
# Coordination Sequence:
#
# PCOD9048847 Si02
#       7
#     2   2   2   2   2   2   2
#     4  11  24  38  64 104 141 185 237 305 368 432
#     4  12  30  50  78 110 147 189 243 311 378 433
#     4   9  20  39  63  96 140 180 234 300 360 425
#     4   8  21  39  68  94 136 179 239 284 363 427
#     4  11  25  45  70 102 141 187 243 296 364 452
#     4  10  24  45  73  98 135 190 238 296 363 441
#     4   9  18  39  60  92 133 188 233 286 351 438
#
# _framework density 29.250374999999998
#
# number of rings (size 3 to 8) (size 9 to 14) (size 15 to 20)
#    0.857    1.143    0.000    1.714    6.000    2.857 
#    0.000    3.571    0.000    0.000    0.000    0.000 
#    0.000    0.000    0.000    0.000    0.000    0.000 
#
# Total GULP energy -77954.890669 kJ/mol
# GULP energy per Si atom -5568.206476 kJ/mol
# Density = 2.918380 g / cm^3
# Si number density = 29.250375 Si / 1000 Ang^3
#
#
#
# Elastic Constant Matrix: (Units=GPa)
#
#
# Indices 1 2 3 4 5 6 
#
# 1 157.4552 43.4343 108.5742 3.7881 -26.0850 -43.0576
# 2 43.4343 166.2799 38.4755 -20.3428 -7.1975 -8.9683
# 3 108.5742 38.4755 210.0733 -5.2730 -14.4572 -7.7924
# 4 3.7881 -20.3428 -5.2730 43.2818 -5.9051 -8.4371
# 5 -26.0850 -7.1975 -14.4572 -5.9051 83.4131 -6.2615
# 6 -43.0576 -8.9683 -7.7924 -8.4371 -6.2615 87.5530
#
#
#
# Elastic Compliance Matrix: (Units=1/GPa)
#
#
# Indices 1 2 3 4 5 6 
#
# 1 0.013219 -0.001715 -0.006100 -0.001104 0.003294 0.005912
# 2 -0.001715 0.006974 -0.000277 0.003471 0.000278 0.000201
# 3 -0.006100 -0.000277 0.007852 0.000818 -0.000685 -0.002300
# 4 -0.001104 0.003471 0.000818 0.025709 0.002105 0.002513
# 5 0.003294 0.000278 -0.000685 0.002105 0.013279 0.002740
# 6 0.005912 0.000201 -0.002300 0.002513 0.002740 0.014583
#
#
# Mechanical properties :
#
#
# Convention : Reuss Voigt Hill
#
# Bulk Modulus (GPa) = 84.31441 101.64184 92.97812
# Shear Modulus (GPa) = 49.13860 65.73786 57.43823
#
# Velocity S-wave (km/s) = 4.10314 4.74584 4.43614
# Velocity P-wave (km/s) = 7.16487 8.05326 7.62202
#
# Compressibility (1/GPa) = 0.01186037
#
# Stress axis : x y z
#
# Youngs Moduli (GPa) = 75.64737 143.39785 127.36131
#
# Poissons Ratio (x) = 0.24597 0.77688
# Poissons Ratio (y) = 0.12976 0.03528
# Poissons Ratio (z) = 0.46143 0.03972
#
# Static dielectric constant tensor:
#      x y z
#    x 2.480310 0.192980 -0.162990 
#    y 0.192980 2.608190 -0.131720 
#    z -0.162990 -0.131720 2.503590 
# 
# From -- ./inp_files/221901.got.cif
#   From: 2010.05.17/outbox.cif.g08.bks.cpg/sg2_111_cif.got.tgz:221901.got - 2010.06.03 11:33:40.
