data_PCOD9048065
_publ_section_title
;
Structure prediction by ZEFSAII (Michael W. Deem and Ramdas Pophale) SiO2 
 PCOD9048065
Probable space group: P -1
;
_chemical_formula_sum "Si O2"
_cell_formula_units_Z 16
_cell_length_a 9.707180
_cell_length_b 5.459445
_cell_length_c 12.558609
_cell_angle_alpha 94.922904
_cell_angle_beta 113.916877
_cell_angle_gamma 93.123637
_cell_volume 603.241763
_symmetry_space_group_name_H-M "P -1"
_symmetry_group_IT_number 2
_symmetry_cell_setting 'triclinic'
loop_
_space_group_symop_operation_xyz
x,y,z
-x,-y,-z
loop_
_atom_site_type_symbol
_atom_site_label
_atom_site_fract_x
_atom_site_fract_y
_atom_site_fract_z
Si Si1 0.787253 0.167238 0.022483
Si Si2 0.323660 0.495510 0.825955
Si Si3 0.167013 0.612502 0.181579
Si Si4 0.617081 0.733245 0.838397
Si Si5 0.820047 0.914752 0.537780
Si Si6 0.822765 0.405851 0.426254
Si Si7 0.397777 0.003794 0.363571
Si Si8 0.071293 0.103075 0.764176
O O1 0.707597 0.375485 0.068031
O O2 0.910752 0.073760 0.137361
O O3 0.856420 0.260351 0.935111
O O4 0.661047 0.945910 0.945215
O O5 0.230830 0.631661 0.712084
O O6 0.238772 0.223829 0.794591
O O7 0.504367 0.470173 0.157017
O O8 0.223349 0.355043 0.153286
O O9 0.031692 0.678650 0.219580
O O10 0.321717 0.740958 0.289417
O O11 0.543100 0.845817 0.714915
O O12 0.759279 0.664340 0.450833
O O13 0.746831 0.878007 0.629884
O O14 0.782829 0.166544 0.477968
O O15 0.995365 0.978511 0.629570
O O16 0.000000 0.500000 0.500000
O O17 0.500000 0.000000 0.500000
#
# Coordination Sequence:
#
# PCOD9048065 Si02
#       8
#     2   2   2   2   2   2   2   2
#     4  11  25  46  70 100 142 190 253 302 370 432
#     4  12  27  42  74 104 144 196 241 305 374 443
#     4  10  25  46  70 105 138 187 242 310 365 441
#     4  11  26  47  70 105 147 185 245 307 369 447
#     4  11  26  45  73 109 150 191 247 308 368 440
#     4  12  25  45  71 110 154 191 245 304 373 446
#     4  10  24  44  73 101 141 190 239 298 366 446
#     4  11  25  44  74 105 141 191 247 302 376 437
#
# _framework density 26.523363
#
# number of rings (size 3 to 8) (size 9 to 14) (size 15 to 20)
#    0.000    1.000    1.250    3.375    7.000    8.500 
#    0.000    0.000    0.000    0.000    0.000    0.000 
#    0.000    0.000    0.000    0.000    0.000    0.000 
#
# Total GULP energy -89570.706251 kJ/mol
# GULP energy per Si atom -5598.169141 kJ/mol
# Density = 2.646299 g / cm^3
# Si number density = 26.523363 Si / 1000 Ang^3
#
#
#
# Elastic Constant Matrix: (Units=GPa)
#
#
# Indices 1 2 3 4 5 6 
#
# 1 95.0565 16.3495 16.8359 9.1008 -1.0589 19.5983
# 2 16.3495 91.5018 52.9022 5.2123 4.6364 10.3686
# 3 16.8359 52.9022 175.8175 -7.1282 9.6132 8.9441
# 4 9.1008 5.2123 -7.1282 46.4985 -13.2035 -5.0516
# 5 -1.0589 4.6364 9.6132 -13.2035 34.3883 0.5658
# 6 19.5983 10.3686 8.9441 -5.0516 0.5658 27.6095
#
#
#
# Elastic Compliance Matrix: (Units=1/GPa)
#
#
# Indices 1 2 3 4 5 6 
#
# 1 0.013066 -0.000600 -0.000707 -0.003808 -0.000625 -0.009504
# 2 -0.000600 0.014077 -0.003990 -0.003058 -0.001908 -0.004088
# 3 -0.000707 -0.003990 0.007064 0.001407 -0.000918 -0.000012
# 4 -0.003808 -0.003058 0.001407 0.026508 0.009947 0.008042
# 5 -0.000625 -0.001908 -0.000918 0.009947 0.033351 0.002594
# 6 -0.009504 -0.004088 -0.000012 0.008042 0.002594 0.045923
#
#
# Mechanical properties :
#
#
# Convention : Reuss Voigt Hill
#
# Bulk Modulus (GPa) = 42.35153 59.39456 50.87305
# Shear Modulus (GPa) = 31.55487 40.11846 35.83667
#
# Velocity S-wave (km/s) = 3.45295 3.89340 3.67977
# Velocity P-wave (km/s) = 5.64796 6.53095 6.10544
#
# Compressibility (1/GPa) = 0.02361190
#
# Stress axis : x y z
#
# Youngs Moduli (GPa) = 76.53622 71.03839 141.56693
#
# Poissons Ratio (x) = 0.04263 0.10014
# Poissons Ratio (y) = 0.04593 0.56483
# Poissons Ratio (z) = 0.05414 0.28343
#
# Static dielectric constant tensor:
#      x y z
#    x 2.211970 -0.053710 0.063340 
#    y -0.053710 2.129940 0.022660 
#    z 0.063340 0.022660 2.047110 
# 
# From -- ./inp_files/77414.got.cif
#   From: 2010.05.17/outbox.cif.g08.bks.cpg/sg2_39_cif.got.tgz:77414.got - 2010.06.03 11:33:40.
