data_PCOD9048311
_publ_section_title
;
Structure prediction by ZEFSAII (Michael W. Deem and Ramdas Pophale) SiO2 
 PCOD9048311
Probable space group: P -1
;
_chemical_formula_sum "Si O2"
_cell_formula_units_Z 16
_cell_length_a 11.501039
_cell_length_b 11.287548
_cell_length_c 14.683518
_cell_angle_alpha 31.972474
_cell_angle_beta 56.912693
_cell_angle_gamma 78.733408
_cell_volume 674.327670
_symmetry_space_group_name_H-M "P -1"
_symmetry_group_IT_number 2
_symmetry_cell_setting 'triclinic'
loop_
_space_group_symop_operation_xyz
x,y,z
-x,-y,-z
loop_
_atom_site_type_symbol
_atom_site_label
_atom_site_fract_x
_atom_site_fract_y
_atom_site_fract_z
Si Si1 0.101818 0.041341 0.839129
Si Si2 0.845987 0.020584 0.531176
Si Si3 0.829532 0.551837 0.601752
Si Si4 0.608636 0.476309 0.891475
Si Si5 0.376023 0.044242 0.968686
Si Si6 0.447383 0.106398 0.694875
Si Si7 0.179960 0.081259 0.189319
Si Si8 0.825106 0.511661 0.178403
O O1 0.280639 0.081842 0.748966
O O2 0.144772 0.312793 0.593932
O O3 0.966894 0.775023 0.007714
O O4 0.000000 0.000000 0.000000
O O5 0.874645 0.298846 0.303854
O O6 0.763329 0.805992 0.624095
O O7 0.752834 0.930571 0.731462
O O8 0.000000 0.000000 0.500000
O O9 0.646923 0.475060 0.769138
O O10 0.793087 0.255597 0.800254
O O11 0.999014 0.774798 0.444754
O O12 0.500000 0.500000 0.000000
O O13 0.599251 0.203351 0.099823
O O14 0.303088 0.141614 0.011642
O O15 0.468663 0.191802 0.737405
O O16 0.500000 0.000000 0.000000
O O17 0.628728 0.327122 0.422521
O O18 0.166957 0.338944 0.016930
#
# Coordination Sequence:
#
# PCOD9048311 Si02
#       8
#     2   2   2   2   2   2   2   2
#     4  11  26  43  70 105 141 186 231 292 360 422
#     4  12  24  45  73  96 138 182 237 293 345 422
#     4  10  24  45  66  98 140 177 234 291 350 425
#     4  11  23  45  67  98 133 185 230 288 354 409
#     4  11  25  41  69 101 134 183 232 287 358 424
#     4  11  24  46  70  99 146 180 232 295 353 417
#     4  11  25  44  69 102 134 185 232 288 360 415
#     4  11  26  45  69 106 138 184 239 286 355 423
#
# _framework density 23.727336999999999
#
# number of rings (size 3 to 8) (size 9 to 14) (size 15 to 20)
#    0.000    1.000    2.500    3.375    8.750    1.500 
#    2.250    1.250    0.000    0.000    0.000    0.000 
#    0.000    0.000    0.000    0.000    0.000    0.000 
#
# Total GULP energy -89134.040244 kJ/mol
# GULP energy per Si atom -5570.877515 kJ/mol
# Density = 2.367333 g / cm^3
# Si number density = 23.727337 Si / 1000 Ang^3
#
#
#
# Elastic Constant Matrix: (Units=GPa)
#
#
# Indices 1 2 3 4 5 6 
#
# 1 71.9872 8.2892 4.4866 -5.6145 5.0595 -14.6313
# 2 8.2892 99.5536 7.2339 9.4357 8.5016 -15.1202
# 3 4.4866 7.2339 82.6070 -7.2086 13.0082 -7.0799
# 4 -5.6145 9.4357 -7.2086 30.1888 -6.6027 -8.7372
# 5 5.0595 8.5016 13.0082 -6.6027 35.0837 5.0430
# 6 -14.6313 -15.1202 -7.0799 -8.7372 5.0430 41.5875
#
#
#
# Elastic Compliance Matrix: (Units=1/GPa)
#
#
# Indices 1 2 3 4 5 6 
#
# 1 0.015826 -0.000570 0.000559 0.004670 -0.002441 0.006733
# 2 -0.000570 0.011308 -0.000380 -0.003508 -0.003688 0.003556
# 3 0.000559 -0.000380 0.013490 0.003441 -0.004870 0.003669
# 4 0.004670 -0.003508 0.003441 0.039527 0.005098 0.008639
# 5 -0.002441 -0.003688 -0.004870 0.005098 0.033377 -0.006005
# 6 0.006733 0.003556 0.003669 0.008639 -0.006005 0.030875
#
#
# Mechanical properties :
#
#
# Convention : Reuss Voigt Hill
#
# Bulk Modulus (GPa) = 25.09865 32.68524 28.89194
# Shear Modulus (GPa) = 31.55262 36.98119 34.26691
#
# Velocity S-wave (km/s) = 3.65060 3.95218 3.80438
# Velocity P-wave (km/s) = 5.32636 5.88486 5.61256
#
# Compressibility (1/GPa) = 0.03984279
#
# Stress axis : x y z
#
# Youngs Moduli (GPa) = 63.18562 88.43673 74.12918
#
# Poissons Ratio (x) = 0.05041 -0.04146
# Poissons Ratio (y) = 0.03601 0.02815
# Poissons Ratio (z) = -0.03534 0.03359
#
# Static dielectric constant tensor:
#      x y z
#    x 2.024270 -0.013920 -0.192700 
#    y -0.013920 1.811620 0.127260 
#    z -0.192700 0.127260 2.050830 
# 
# From -- ./inp_files/519484.got.cif
#   From: 2010.05.17/outbox.cif.g08.bks.cpg/sg2_260_cif.got.tgz:519484.got - 2010.06.03 11:33:40.
