data_PCOD9048698
_publ_section_title
;
Structure prediction by ZEFSAII (Michael W. Deem and Ramdas Pophale) SiO2 
 PCOD9048698
Probable space group: P -1
;
_chemical_formula_sum "Si O2"
_cell_formula_units_Z 14
_cell_length_a 15.866367
_cell_length_b 10.189459
_cell_length_c 5.400390
_cell_angle_alpha 112.962788
_cell_angle_beta 120.111468
_cell_angle_gamma 45.042266
_cell_volume 533.534867
_symmetry_space_group_name_H-M "P -1"
_symmetry_group_IT_number 2
_symmetry_cell_setting 'triclinic'
loop_
_space_group_symop_operation_xyz
x,y,z
-x,-y,-z
loop_
_atom_site_type_symbol
_atom_site_label
_atom_site_fract_x
_atom_site_fract_y
_atom_site_fract_z
Si Si1 0.149283 0.376162 0.574142
Si Si2 0.470331 0.859530 0.365539
Si Si3 0.678758 0.525063 0.197586
Si Si4 0.984839 0.884117 0.201636
Si Si5 0.799177 0.202642 0.797944
Si Si6 0.789591 0.841622 0.008917
Si Si7 0.434874 0.710720 0.653188
O O1 0.205636 0.479999 0.691122
O O2 0.185504 0.264127 0.289669
O O3 0.000000 0.500000 0.500000
O O4 0.214888 0.251022 0.823511
O O5 0.606811 0.645164 0.425401
O O6 0.411144 0.855955 0.526940
O O7 0.500000 0.000000 0.500000
O O8 0.347120 0.954538 0.073510
O O9 0.724722 0.329921 0.024562
O O10 0.546949 0.668003 0.956414
O O11 0.125252 0.741513 0.188223
O O12 0.913357 0.826368 0.194519
O O13 0.000000 0.000000 0.500000
O O14 0.898313 0.001465 0.920277
O O15 0.707549 0.217665 0.473550
O O16 0.500000 0.500000 0.500000
#
# Coordination Sequence:
#
# PCOD9048698 Si02
#       7
#     2   2   2   2   2   2   2
#     4  12  28  51  77 111 151 202 249 321 380 469
#     4  12  25  45  73 108 149 198 256 314 388 453
#     4  11  26  44  74 102 151 195 255 309 385 455
#     4  11  26  43  74 104 146 196 250 318 376 458
#     4  10  24  46  68 106 144 195 255 308 385 450
#     4  12  28  48  79 110 152 196 260 308 394 452
#     4  10  24  45  71 105 148 196 254 318 382 459
#
# _framework density 26.240084
#
# number of rings (size 3 to 8) (size 9 to 14) (size 15 to 20)
#    0.000    0.857    2.857    2.143   10.000    5.714 
#    0.000    0.000    0.000    0.000    0.000    0.000 
#    0.000    0.000    0.000    0.000    0.000    0.000 
#
# Total GULP energy -78137.397063 kJ/mol
# GULP energy per Si atom -5581.242647 kJ/mol
# Density = 2.618036 g / cm^3
# Si number density = 26.240084 Si / 1000 Ang^3
#
#
#
# Elastic Constant Matrix: (Units=GPa)
#
#
# Indices 1 2 3 4 5 6 
#
# 1 99.2567 16.1540 32.7559 0.4242 22.1223 -11.1121
# 2 16.1540 58.0979 28.7786 -6.0333 -0.3989 -22.5473
# 3 32.7559 28.7786 68.8746 4.4061 27.1865 -24.9632
# 4 0.4242 -6.0333 4.4061 45.1817 -7.0777 3.0212
# 5 22.1223 -0.3989 27.1865 -7.0777 56.3825 -3.9841
# 6 -11.1121 -22.5473 -24.9632 3.0212 -3.9841 41.4609
#
#
#
# Elastic Compliance Matrix: (Units=1/GPa)
#
#
# Indices 1 2 3 4 5 6 
#
# 1 0.012311 -0.001537 -0.004147 -0.000352 -0.002906 -0.000287
# 2 -0.001537 0.026584 -0.010648 0.005190 0.007138 0.007942
# 3 -0.004147 -0.010648 0.030546 -0.007166 -0.013318 0.010731
# 4 -0.000352 0.005190 -0.007166 0.024737 0.006540 -0.002760
# 5 -0.002906 0.007138 -0.013318 0.006540 0.025965 -0.002897
# 6 -0.000287 0.007942 0.010731 -0.002760 -0.002897 0.034745
#
#
# Mechanical properties :
#
#
# Convention : Reuss Voigt Hill
#
# Bulk Modulus (GPa) = 27.19125 42.40068 34.79597
# Shear Modulus (GPa) = 25.02378 38.50773 31.76575
#
# Velocity S-wave (km/s) = 3.09147 3.83497 3.48312
# Velocity P-wave (km/s) = 4.80915 5.98358 5.42822
#
# Compressibility (1/GPa) = 0.03677654
#
# Stress axis : x y z
#
# Youngs Moduli (GPa) = 81.23061 37.61622 32.73803
#
# Poissons Ratio (x) = 0.05780 0.13577
# Poissons Ratio (y) = 0.12481 0.34861
# Poissons Ratio (z) = 0.33687 0.40055
#
# Static dielectric constant tensor:
#      x y z
#    x 2.242570 -0.224050 -0.362710 
#    y -0.224050 2.451560 0.555370 
#    z -0.362710 0.555370 2.845420 
# 
# From -- ./inp_files/81167.got.cif
#   From: 2010.05.17/outbox.cif.g08.bks.cpg/sg2_41_cif.got.tgz:81167.got - 2010.06.03 11:33:40.
