data_PCOD9048023
_publ_section_title
;
Structure prediction by ZEFSAII (Michael W. Deem and Ramdas Pophale) SiO2 
 PCOD9048023
Probable space group: P -1
;
_chemical_formula_sum "Si O2"
_cell_formula_units_Z 13
_cell_length_a 9.028190
_cell_length_b 11.539929
_cell_length_c 9.001903
_cell_angle_alpha 141.198934
_cell_angle_beta 100.854846
_cell_angle_gamma 68.444179
_cell_volume 538.793652
_symmetry_space_group_name_H-M "P -1"
_symmetry_group_IT_number 2
_symmetry_cell_setting 'triclinic'
loop_
_space_group_symop_operation_xyz
x,y,z
-x,-y,-z
loop_
_atom_site_type_symbol
_atom_site_label
_atom_site_fract_x
_atom_site_fract_y
_atom_site_fract_z
Si Si1 0.586689 0.065460 0.443754
Si Si2 0.140456 0.824749 0.267337
Si Si3 0.724865 0.668878 0.912821
Si Si4 0.586517 0.369557 0.244290
Si Si5 0.000000 0.500000 0.000000
Si Si6 0.292265 0.306902 0.420728
Si Si7 0.852415 0.993382 0.870676
O O1 0.688551 0.196972 0.646789
O O2 0.455935 0.169020 0.396394
O O3 0.500000 0.000000 0.500000
O O4 0.712411 0.863360 0.197481
O O5 0.148564 0.912553 0.194977
O O6 0.092469 0.632504 0.065898
O O7 0.000000 0.000000 0.500000
O O8 0.562723 0.625902 0.880794
O O9 0.713482 0.706866 0.772956
O O10 0.887786 0.505884 0.836095
O O11 0.500000 0.500000 0.500000
O O12 0.709438 0.475639 0.323149
O O13 0.689647 0.141337 0.067447
O O14 0.157857 0.222182 0.363825
O O15 0.000000 0.000000 0.000000
#
# Coordination Sequence:
#
# PCOD9048023 Si02
#       7
#     2   2   2   2   1   2   2
#     4  12  23  45  73 107 143 194 244 302 368 437
#     4  12  27  46  71 107 149 197 240 303 381 437
#     4  11  23  44  73 105 143 195 240 299 372 435
#     4  10  24  44  72 110 141 193 251 300 369 436
#     4  12  26  46  70 104 152 184 248 304 366 438
#     4  11  24  45  76 102 145 191 250 303 368 441
#     4  12  27  46  74 108 149 192 249 312 369 447
#
# _framework density 24.127974999999999
#
# number of rings (size 3 to 8) (size 9 to 14) (size 15 to 20)
#    0.000    0.615    4.615    2.308    2.154    5.538 
#    0.000    3.077    0.000    0.000    0.000    0.000 
#    0.000    0.000    0.000    0.000    0.000    0.000 
#
# Total GULP energy -72447.606949 kJ/mol
# GULP energy per Si atom -5572.892842 kJ/mol
# Density = 2.407306 g / cm^3
# Si number density = 24.127975 Si / 1000 Ang^3
#
#
#
# Elastic Constant Matrix: (Units=GPa)
#
#
# Indices 1 2 3 4 5 6 
#
# 1 136.1712 51.0591 38.6241 -14.1111 63.8494 -14.1830
# 2 51.0591 114.0233 21.3086 -33.3024 11.7299 12.4553
# 3 38.6241 21.3086 58.5044 -7.6803 17.5871 -0.1292
# 4 -14.1111 -33.3024 -7.6803 32.2792 6.3783 15.3971
# 5 63.8494 11.7299 17.5871 6.3783 69.2581 5.2421
# 6 -14.1830 12.4553 -0.1292 15.3971 5.2421 41.2742
#
#
#
# Elastic Compliance Matrix: (Units=1/GPa)
#
#
# Indices 1 2 3 4 5 6 
#
# 1 0.022511 -0.010719 -0.006431 -0.006718 -0.017876 0.015726
# 2 -0.010719 0.024589 0.000830 0.031106 0.004403 -0.023264
# 3 -0.006431 0.000830 0.021678 0.005263 0.000129 -0.004372
# 4 -0.006718 0.031106 0.005263 0.082256 -0.004827 -0.041751
# 5 -0.017876 0.004403 0.000129 -0.004827 0.031315 -0.009648
# 6 0.015726 -0.023264 -0.004372 -0.041751 -0.009648 0.053439
#
#
# Mechanical properties :
#
#
# Convention : Reuss Voigt Hill
#
# Bulk Modulus (GPa) = 27.67244 58.96473 43.31859
# Shear Modulus (GPa) = 17.82691 41.74276 29.78483
#
# Velocity S-wave (km/s) = 2.72112 4.16391 3.51729
# Velocity P-wave (km/s) = 4.62240 6.89992 5.87263
#
# Compressibility (1/GPa) = 0.03613703
#
# Stress axis : x y z
#
# Youngs Moduli (GPa) = 44.42306 40.66932 46.12896
#
# Poissons Ratio (x) = 0.43595 0.29664
# Poissons Ratio (y) = 0.47619 -0.03827
# Poissons Ratio (z) = 0.28567 -0.03374
#
# Static dielectric constant tensor:
#      x y z
#    x 2.011740 0.013050 -0.061560 
#    y 0.013050 1.934550 0.047630 
#    z -0.061560 0.047630 1.940740 
# 
# From -- ./inp_files/183584.got.cif
#   From: 2010.05.17/outbox.cif.g08.bks.cpg/sg2_92_cif.got.tgz:183584.got - 2010.06.03 11:33:40.
