data_PCOD9048445
_publ_section_title
;
Structure prediction by ZEFSAII (Michael W. Deem and Ramdas Pophale) SiO2 
 PCOD9048445
Probable space group: P -1
;
_chemical_formula_sum "Si O2"
_cell_formula_units_Z 16
_cell_length_a 15.025730
_cell_length_b 9.794208
_cell_length_c 9.298489
_cell_angle_alpha 108.211569
_cell_angle_beta 54.146563
_cell_angle_gamma 67.904109
_cell_volume 724.172939
_symmetry_space_group_name_H-M "P -1"
_symmetry_group_IT_number 2
_symmetry_cell_setting 'triclinic'
loop_
_space_group_symop_operation_xyz
x,y,z
-x,-y,-z
loop_
_atom_site_type_symbol
_atom_site_label
_atom_site_fract_x
_atom_site_fract_y
_atom_site_fract_z
Si Si1 0.172846 0.393341 0.659817
Si Si2 0.564011 0.338085 0.698983
Si Si3 0.190383 0.639505 0.190090
Si Si4 0.185080 0.339049 0.954161
Si Si5 0.091341 0.012539 0.248721
Si Si6 0.666425 0.088899 0.225927
Si Si7 0.426579 0.338594 0.268378
Si Si8 0.702263 0.025305 0.712986
O O1 0.259891 0.425336 0.489349
O O2 0.982948 0.581361 0.888561
O O3 0.221960 0.189562 0.491417
O O4 0.231652 0.349233 0.754366
O O5 0.606488 0.221600 0.470580
O O6 0.585698 0.486141 0.709992
O O7 0.674264 0.164353 0.658594
O O8 0.379408 0.486141 0.964262
O O9 0.164875 0.498253 0.124223
O O10 0.090696 0.773338 0.471830
O O11 0.122015 0.815611 0.191522
O O12 0.299804 0.110470 0.838003
O O13 0.189666 0.005697 0.276922
O O14 0.174159 0.985722 0.014714
O O15 0.532781 0.232659 0.277666
O O16 0.530409 0.157820 0.990803
#
# Coordination Sequence:
#
# PCOD9048445 Si02
#       8
#     2   2   2   2   2   2   2   2
#     4  11  24  45  64  97 138 173 218 270 336 393
#     4  12  24  42  71 100 133 174 223 274 331 390
#     4  11  23  43  70  96 133 175 221 274 327 389
#     4  11  25  43  68  96 133 182 215 272 333 395
#     4  10  24  45  68  98 135 176 220 275 324 395
#     4  11  24  44  65 104 132 172 228 271 326 394
#     4  11  25  42  67  97 135 172 220 276 328 391
#     4  11  22  46  65  99 134 174 218 271 335 397
#
# _framework density 22.094170999999999
#
# number of rings (size 3 to 8) (size 9 to 14) (size 15 to 20)
#    0.000    1.000    5.000    1.875    3.500    2.500 
#    2.250    0.625    0.000    0.000    0.000    0.000 
#    0.000    0.000    0.000    0.000    0.000    0.000 
#
# Total GULP energy -89580.263921 kJ/mol
# GULP energy per Si atom -5598.766495 kJ/mol
# Density = 2.204388 g / cm^3
# Si number density = 22.094171 Si / 1000 Ang^3
#
#
#
# Elastic Constant Matrix: (Units=GPa)
#
#
# Indices 1 2 3 4 5 6 
#
# 1 20.6464 78.6806 -40.8633 47.5877 0.9247 -41.5266
# 2 78.6806 -105.1478 241.7832 -160.4944 -17.3565 115.6507
# 3 -40.8633 241.7832 -165.1501 201.6903 11.6327 -154.8801
# 4 47.5877 -160.4944 201.6903 -123.2852 3.4146 117.8740
# 5 0.9247 -17.3565 11.6327 3.4146 34.2689 -1.4752
# 6 -41.5266 115.6507 -154.8801 117.8740 -1.4752 -61.7707
#
#
#
# Elastic Compliance Matrix: (Units=1/GPa)
#
#
# Indices 1 2 3 4 5 6 
#
# 1 0.039041 -0.010581 -0.008609 0.010503 -0.004723 -0.004316
# 2 -0.010581 0.019179 0.000202 -0.014537 0.012003 0.014487
# 3 -0.008609 0.000202 0.009919 0.006381 -0.003945 -0.006432
# 4 0.010503 -0.014537 0.006381 0.027683 -0.012448 0.002846
# 5 -0.004723 0.012003 -0.003945 -0.012448 0.038435 0.010866
# 6 -0.004316 0.014487 -0.006432 0.002846 0.010866 0.035136
#
#
# Mechanical properties :
#
#
# Convention : Reuss Voigt Hill
#
# Bulk Modulus (GPa) = 33.15222 34.39437 33.77330
# Shear Modulus (GPa) = 22.99670 -65.44087 -21.22209
#
# Velocity S-wave (km/s) = 3.22972 -5.44824 -3.10260
# Velocity P-wave (km/s) = 5.38012 4.89662 1.57620
#
# Compressibility (1/GPa) = 0.03016389
#
# Stress axis : x y z
#
# Youngs Moduli (GPa) = 25.61417 52.14035 100.81813
#
# Poissons Ratio (x) = 0.55170 0.86791
# Poissons Ratio (y) = 0.27102 -0.02040
# Poissons Ratio (z) = 0.22050 -0.01055
#
# Static dielectric constant tensor:
#      x y z
#    x 1.794320 -0.015420 -0.026680 
#    y -0.015420 1.768720 -0.011120 
#    z -0.026680 -0.011120 1.825960 
# 
# From -- ./inp_files/206961.got.cif
#   From: 2010.05.17/outbox.cif.g08.bks.cpg/sg2_104_cif.got.tgz:206961.got - 2010.06.03 11:33:40.
