data_PCOD9048380
_publ_section_title
;
Structure prediction by ZEFSAII (Michael W. Deem and Ramdas Pophale) SiO2 
 PCOD9048380
Probable space group: P -1
;
_chemical_formula_sum "Si O2"
_cell_formula_units_Z 14
_cell_length_a 9.216733
_cell_length_b 5.304952
_cell_length_c 17.273855
_cell_angle_alpha 44.658209
_cell_angle_beta 104.449304
_cell_angle_gamma 105.367007
_cell_volume 570.095545
_symmetry_space_group_name_H-M "P -1"
_symmetry_group_IT_number 2
_symmetry_cell_setting 'triclinic'
loop_
_space_group_symop_operation_xyz
x,y,z
-x,-y,-z
loop_
_atom_site_type_symbol
_atom_site_label
_atom_site_fract_x
_atom_site_fract_y
_atom_site_fract_z
Si Si1 0.187313 0.714413 0.502870
Si Si2 0.009738 0.242418 0.128856
Si Si3 0.756283 0.649517 0.255272
Si Si4 0.255014 0.834487 0.216238
Si Si5 0.033034 0.772477 0.694101
Si Si6 0.483085 0.065138 0.074637
Si Si7 0.646686 0.558087 0.558659
O O1 0.197348 0.406455 0.636866
O O2 0.234382 0.590430 0.451566
O O3 0.031670 0.884528 0.429731
O O4 0.303726 0.049071 0.482098
O O5 0.963940 0.300816 0.197754
O O6 0.182929 0.171203 0.166567
O O7 0.882439 0.907741 0.168054
O O8 0.000000 0.500000 0.000000
O O9 0.802145 0.275940 0.307406
O O10 0.605533 0.830174 0.181728
O O11 0.115677 0.521106 0.279545
O O12 0.382331 0.719563 0.313347
O O13 0.320867 0.910791 0.123567
O O14 0.500000 0.500000 0.000000
O O15 0.500000 0.000000 0.000000
O O16 0.500000 0.500000 0.500000
#
# Coordination Sequence:
#
# PCOD9048380 Si02
#       7
#     2   2   2   2   2   2   2
#     4  11  24  44  70 110 143 185 238 299 362 422
#     4  11  24  43  73  99 141 190 248 289 354 426
#     4  11  27  44  71 110 142 190 237 303 360 426
#     4  10  24  45  68 101 139 189 239 294 353 425
#     4  10  24  45  73 105 142 192 237 296 362 429
#     4  12  30  48  72 103 147 189 241 300 358 419
#     4  11  23  42  71 103 145 192 234 288 360 437
#
# _framework density 24.557286000000001
#
# number of rings (size 3 to 8) (size 9 to 14) (size 15 to 20)
#    0.000    1.143    1.429    2.571   10.000    4.000 
#    0.000    0.000    0.000    0.000    0.000    0.000 
#    0.000    0.000    0.000    0.000    0.000    0.000 
#
# Total GULP energy -78026.197722 kJ/mol
# GULP energy per Si atom -5573.299837 kJ/mol
# Density = 2.450139 g / cm^3
# Si number density = 24.557286 Si / 1000 Ang^3
#
#
#
# Elastic Constant Matrix: (Units=GPa)
#
#
# Indices 1 2 3 4 5 6 
#
# 1 96.8868 16.5950 23.8527 -2.1260 -2.0145 -23.9450
# 2 16.5950 108.8977 43.1733 7.6474 -6.3009 -24.1211
# 3 23.8527 43.1733 169.2430 17.8818 -2.1439 -12.6191
# 4 -2.1260 7.6474 17.8818 37.1875 -8.6546 -4.1347
# 5 -2.0145 -6.3009 -2.1439 -8.6546 45.2141 14.7484
# 6 -23.9450 -24.1211 -12.6191 -4.1347 14.7484 37.6672
#
#
#
# Elastic Compliance Matrix: (Units=1/GPa)
#
#
# Indices 1 2 3 4 5 6 
#
# 1 0.012810 0.000340 -0.001456 0.001887 -0.001978 0.008855
# 2 0.000340 0.011676 -0.002437 -0.000630 -0.000934 0.007173
# 3 -0.001456 -0.002437 0.007041 -0.003132 -0.000592 -0.000239
# 4 0.001887 -0.000630 -0.003132 0.029968 0.005266 0.000975
# 5 -0.001978 -0.000934 -0.000592 0.005266 0.026780 -0.011961
# 6 0.008855 0.007173 -0.000239 0.000975 -0.011961 0.041481
#
#
# Mechanical properties :
#
#
# Convention : Reuss Voigt Hill
#
# Bulk Modulus (GPa) = 40.94898 60.25217 50.60057
# Shear Modulus (GPa) = 34.48158 43.44086 38.96122
#
# Velocity S-wave (km/s) = 3.75124 4.21046 3.98747
# Velocity P-wave (km/s) = 5.95596 6.94449 6.46913
#
# Compressibility (1/GPa) = 0.02442063
#
# Stress axis : x y z
#
# Youngs Moduli (GPa) = 78.06178 85.64293 142.02208
#
# Poissons Ratio (x) = -0.02908 0.20682
# Poissons Ratio (y) = -0.02651 0.34610
# Poissons Ratio (z) = 0.11368 0.20870
#
# Static dielectric constant tensor:
#      x y z
#    x 1.992780 0.050350 -0.000390 
#    y 0.050350 2.212550 -0.155620 
#    z -0.000390 -0.155620 1.902350 
# 
# From -- ./inp_files/78525.got.cif
#   From: 2010.05.17/outbox.cif.g08.bks.cpg/sg2_40_cif.got.tgz:78525.got - 2010.06.03 11:33:40.
