data_PCOD9048213
_publ_section_title
;
Structure prediction by ZEFSAII (Michael W. Deem and Ramdas Pophale) SiO2 
 PCOD9048213
Probable space group: P -1
;
_chemical_formula_sum "Si O2"
_cell_formula_units_Z 16
_cell_length_a 5.355483
_cell_length_b 10.385820
_cell_length_c 11.939764
_cell_angle_alpha 84.862820
_cell_angle_beta 114.804614
_cell_angle_gamma 104.103975
_cell_volume 584.601812
_symmetry_space_group_name_H-M "P -1"
_symmetry_group_IT_number 2
_symmetry_cell_setting 'triclinic'
loop_
_space_group_symop_operation_xyz
x,y,z
-x,-y,-z
loop_
_atom_site_type_symbol
_atom_site_label
_atom_site_fract_x
_atom_site_fract_y
_atom_site_fract_z
Si Si1 0.517025 0.361485 0.957577
Si Si2 0.671469 0.156366 0.139750
Si Si3 0.301273 0.512776 0.236410
Si Si4 0.215562 0.053920 0.436162
Si Si5 0.768798 0.692775 0.453973
Si Si6 0.805789 0.367010 0.303074
Si Si7 0.980674 0.834552 0.256716
Si Si8 0.791049 0.097354 0.933844
O O1 0.734698 0.416886 0.892902
O O2 0.292148 0.259301 0.844965
O O3 0.500000 0.500000 0.000000
O O4 0.488128 0.263564 0.066868
O O5 0.764539 0.210794 0.275135
O O6 0.513611 0.004429 0.118189
O O7 0.838038 0.181772 0.050361
O O8 0.475327 0.612997 0.353473
O O9 0.523336 0.417323 0.268814
O O10 0.995088 0.442747 0.230515
O O11 0.301678 0.208981 0.470991
O O12 0.500000 0.000000 0.500000
O O13 0.000000 0.000000 0.500000
O O14 0.061383 0.991879 0.296779
O O15 0.955881 0.766538 0.379050
O O16 0.969802 0.610726 0.556514
O O17 0.186092 0.837440 0.188833
O O18 0.000000 0.000000 0.000000
#
# Coordination Sequence:
#
# PCOD9048213 Si02
#       8
#     2   2   2   2   2   2   2   2
#     4  11  23  46  71 111 150 197 257 306 377 453
#     4  11  27  44  74 111 145 204 250 316 382 454
#     4  11  27  47  75 109 154 202 255 312 380 453
#     4  10  24  45  71 107 145 189 249 309 372 439
#     4  10  25  47  76 110 151 197 257 313 384 454
#     4  12  27  47  76 109 157 199 255 310 383 456
#     4  10  24  44  77 105 149 195 251 311 380 447
#     4  11  25  46  73 102 151 189 253 310 379 447
#
# _framework density 27.369056
#
# number of rings (size 3 to 8) (size 9 to 14) (size 15 to 20)
#    0.000    1.250    2.500    0.750    5.250   12.500 
#    0.000    0.000    0.000    0.000    0.000    0.000 
#    0.000    0.000    0.000    0.000    0.000    0.000 
#
# Total GULP energy -89235.034482 kJ/mol
# GULP energy per Si atom -5577.189655 kJ/mol
# Density = 2.730676 g / cm^3
# Si number density = 27.369056 Si / 1000 Ang^3
#
#
#
# Elastic Constant Matrix: (Units=GPa)
#
#
# Indices 1 2 3 4 5 6 
#
# 1 115.2221 32.8256 34.3547 12.2252 -2.9717 -3.8974
# 2 32.8256 91.3558 27.7900 35.3397 -22.4440 -9.2640
# 3 34.3547 27.7900 112.0290 28.0087 -8.0162 -8.0580
# 4 12.2252 35.3397 28.0087 64.3985 0.1539 -19.0860
# 5 -2.9717 -22.4440 -8.0162 0.1539 41.9971 4.1060
# 6 -3.8974 -9.2640 -8.0580 -19.0860 4.1060 49.8773
#
#
#
# Elastic Compliance Matrix: (Units=1/GPa)
#
#
# Indices 1 2 3 4 5 6 
#
# 1 0.010406 -0.003916 -0.002695 0.001459 -0.001912 0.000366
# 2 -0.003916 0.018436 -0.000367 -0.009662 0.009681 -0.001435
# 3 -0.002695 -0.000367 0.010987 -0.004138 0.001748 -0.000231
# 4 0.001459 -0.009662 -0.004138 0.024630 -0.006686 0.007626
# 5 -0.001912 0.009681 0.001748 -0.006686 0.029506 -0.003056
# 6 0.000366 -0.001435 -0.000231 0.007626 -0.003056 0.022944
#
#
# Mechanical properties :
#
#
# Convention : Reuss Voigt Hill
#
# Bulk Modulus (GPa) = 38.65155 56.50528 47.57842
# Shear Modulus (GPa) = 35.84507 46.16371 41.00439
#
# Velocity S-wave (km/s) = 3.62289 4.11142 3.87486
# Velocity P-wave (km/s) = 5.62614 6.57486 6.11892
#
# Compressibility (1/GPa) = 0.02587218
#
# Stress axis : x y z
#
# Youngs Moduli (GPa) = 96.09442 54.24287 91.01852
#
# Poissons Ratio (x) = 0.21244 0.24529
# Poissons Ratio (y) = 0.37634 0.03340
# Poissons Ratio (z) = 0.25897 0.01991
#
# Static dielectric constant tensor:
#      x y z
#    x 2.414160 -0.369380 0.105970 
#    y -0.369380 2.748260 -0.045770 
#    z 0.105970 -0.045770 2.248820 
# 
# From -- ./inp_files/364622.got.cif
#   From: 2010.05.17/outbox.cif.g08.bks.cpg/sg2_183_cif.got.tgz:364622.got - 2010.06.03 11:33:40.
