data_PCOD9048052
_publ_section_title
;
Structure prediction by ZEFSAII (Michael W. Deem and Ramdas Pophale) SiO2 
 PCOD9048052
Probable space group: P -1
;
_chemical_formula_sum "Si O2"
_cell_formula_units_Z 12
_cell_length_a 9.243423
_cell_length_b 5.326673
_cell_length_c 18.451341
_cell_angle_alpha 121.559525
_cell_angle_beta 40.065852
_cell_angle_gamma 100.746218
_cell_volume 458.745216
_symmetry_space_group_name_H-M "P -1"
_symmetry_group_IT_number 2
_symmetry_cell_setting 'triclinic'
loop_
_space_group_symop_operation_xyz
x,y,z
-x,-y,-z
loop_
_atom_site_type_symbol
_atom_site_label
_atom_site_fract_x
_atom_site_fract_y
_atom_site_fract_z
Si Si1 0.239665 0.180409 0.870988
Si Si2 0.279351 0.735458 0.534392
Si Si3 0.170715 0.691699 0.721943
Si Si4 0.450345 0.960104 0.129824
Si Si5 0.758244 0.951382 0.558643
Si Si6 0.726284 0.520789 0.830560
O O1 0.328751 0.119120 0.910766
O O2 0.488340 0.147394 0.727024
O O3 0.163958 0.906538 0.825411
O O4 0.000000 0.500000 0.000000
O O5 0.155885 0.881493 0.680595
O O6 0.567447 0.591866 0.418867
O O7 0.252205 0.939453 0.504031
O O8 0.214364 0.419325 0.499427
O O9 0.958874 0.566000 0.778821
O O10 0.266429 0.833111 0.221222
O O11 0.340423 0.321164 0.199064
O O12 0.515567 0.750771 0.999681
O O13 0.000000 0.000000 0.500000
#
# Coordination Sequence:
#
# PCOD9048052 Si02
#       6
#     2   2   2   2   2   2
#     4  11  28  47  75 115 156 194 246 314 381 442
#     4  10  25  47  75 107 143 197 259 301 364 450
#     4  10  25  46  77 107 147 200 249 311 371 442
#     4  10  25  45  66 104 142 194 241 295 365 447
#     4  11  26  49  77 110 148 198 249 310 371 439
#     4  10  24  44  72  97 144 193 244 293 367 437
#
# _framework density 26.15831
#
# number of rings (size 3 to 8) (size 9 to 14) (size 15 to 20)
#    0.000    1.667    0.000    0.500   14.000   10.667 
#    0.000    0.000    0.000    0.000    0.000    0.000 
#    0.000    0.000    0.000    0.000    0.000    0.000 
#
# Total GULP energy -67213.753064 kJ/mol
# GULP energy per Si atom -5601.146089 kJ/mol
# Density = 2.609877 g / cm^3
# Si number density = 26.158310 Si / 1000 Ang^3
#
#
#
# Elastic Constant Matrix: (Units=GPa)
#
#
# Indices 1 2 3 4 5 6 
#
# 1 164.1856 82.9222 3.4234 -3.4251 -24.9909 -3.6483
# 2 82.9222 181.7716 31.0527 -21.7150 -3.7462 -4.6543
# 3 3.4234 31.0527 102.5527 -9.3117 -16.6053 2.9001
# 4 -3.4251 -21.7150 -9.3117 32.1939 6.4576 -1.1836
# 5 -24.9909 -3.7462 -16.6053 6.4576 41.5128 -12.9260
# 6 -3.6483 -4.6543 2.9001 -1.1836 -12.9260 44.3125
#
#
#
# Elastic Compliance Matrix: (Units=1/GPa)
#
#
# Indices 1 2 3 4 5 6 
#
# 1 0.009616 -0.004890 0.002002 -0.003082 0.007312 0.002198
# 2 -0.004890 0.008739 -0.002656 0.005431 -0.004183 -0.000386
# 3 0.002002 -0.002656 0.011445 0.000618 0.005701 0.000816
# 4 -0.003082 0.005431 0.000618 0.035942 -0.006956 -0.000793
# 5 0.007312 -0.004183 0.005701 -0.006956 0.034485 0.009663
# 6 0.002198 -0.000386 0.000816 -0.000793 0.009663 0.025452
#
#
# Mechanical properties :
#
#
# Convention : Reuss Voigt Hill
#
# Bulk Modulus (GPa) = 53.44536 75.92295 64.68415
# Shear Modulus (GPa) = 34.96428 45.67795 40.32112
#
# Velocity S-wave (km/s) = 3.65998 4.18330 3.93036
# Velocity P-wave (km/s) = 6.19164 7.24022 6.73636
#
# Compressibility (1/GPa) = 0.01871070
#
# Stress axis : x y z
#
# Youngs Moduli (GPa) = 103.99179 114.43541 87.37676
#
# Poissons Ratio (x) = 0.55958 -0.17490
# Poissons Ratio (y) = 0.50852 0.23207
# Poissons Ratio (z) = -0.20815 0.30394
#
# Static dielectric constant tensor:
#      x y z
#    x 2.033260 -0.014690 0.029520 
#    y -0.014690 2.088920 -0.004300 
#    z 0.029520 -0.004300 2.132060 
# 
# From -- ./inp_files/553689.got.cif
#   From: 2010.05.17/outbox.cif.g08.bks.cpg/sg2_277_cif.got.tgz:553689.got - 2010.06.03 11:33:40.
