data_PCOD9048492
_publ_section_title
;
Structure prediction by ZEFSAII (Michael W. Deem and Ramdas Pophale) SiO2 
 PCOD9048492
Probable space group: P -1
;
_chemical_formula_sum "Si O2"
_cell_formula_units_Z 14
_cell_length_a 8.365962
_cell_length_b 5.146594
_cell_length_c 14.801819
_cell_angle_alpha 86.164271
_cell_angle_beta 64.644236
_cell_angle_gamma 66.885233
_cell_volume 525.738636
_symmetry_space_group_name_H-M "P -1"
_symmetry_group_IT_number 2
_symmetry_cell_setting 'triclinic'
loop_
_space_group_symop_operation_xyz
x,y,z
-x,-y,-z
loop_
_atom_site_type_symbol
_atom_site_label
_atom_site_fract_x
_atom_site_fract_y
_atom_site_fract_z
Si Si1 0.346606 0.191622 0.102056
Si Si2 0.461623 0.830209 0.781723
Si Si3 0.278708 0.556322 0.685445
Si Si4 0.914500 0.678760 0.107188
Si Si5 0.318900 0.944032 0.408227
Si Si6 0.968593 0.910837 0.386802
Si Si7 0.140638 0.778011 0.165095
O O1 0.427496 0.350134 0.154236
O O2 0.197212 0.492486 0.094626
O O3 0.246336 0.982035 0.158259
O O4 0.500000 0.000000 0.000000
O O5 0.375620 0.705310 0.727662
O O6 0.312874 0.104483 0.864245
O O7 0.623584 0.898737 0.689269
O O8 0.148377 0.458698 0.785581
O O9 0.472424 0.295615 0.608108
O O10 0.149152 0.770006 0.634415
O O11 0.979427 0.931504 0.123652
O O12 0.000000 0.500000 0.000000
O O13 0.156238 0.851455 0.405305
O O14 0.196910 0.137135 0.515565
O O15 0.048839 0.734528 0.281301
#
# Coordination Sequence:
#
# PCOD9048492 Si02
#       7
#     2   2   2   2   2   2   2
#     4  12  27  45  74 104 147 197 246 314 381 444
#     4  11  24  43  67 101 143 184 251 303 370 449
#     4  11  24  46  69 105 146 194 247 311 372 456
#     4  11  26  44  69 100 143 192 242 307 376 440
#     4  10  24  45  69 104 144 193 248 309 375 449
#     4  11  22  47  72 103 145 193 249 306 381 442
#     4  12  25  48  71 107 144 191 254 303 374 461
#
# _framework density 26.629203
#
# number of rings (size 3 to 8) (size 9 to 14) (size 15 to 20)
#    0.000    0.857    2.857    3.429    4.000    1.143 
#    5.143    2.143    0.000    0.000    0.000    0.000 
#    0.000    0.000    0.000    0.000    0.000    0.000 
#
# Total GULP energy -77975.284654 kJ/mol
# GULP energy per Si atom -5569.663190 kJ/mol
# Density = 2.656859 g / cm^3
# Si number density = 26.629203 Si / 1000 Ang^3
#
#
#
# Elastic Constant Matrix: (Units=GPa)
#
#
# Indices 1 2 3 4 5 6 
#
# 1 85.7419 16.8439 46.2668 1.1313 0.4280 8.1410
# 2 16.8439 93.0759 -14.4390 -4.2614 -7.1340 -39.7329
# 3 46.2668 -14.4390 131.2272 52.9467 -13.5551 43.3855
# 4 1.1313 -4.2614 52.9467 59.1964 -8.3265 47.4040
# 5 0.4280 -7.1340 -13.5551 -8.3265 46.1172 1.6182
# 6 8.1410 -39.7329 43.3855 47.4040 1.6182 111.8747
#
#
#
# Elastic Compliance Matrix: (Units=1/GPa)
#
#
# Indices 1 2 3 4 5 6 
#
# 1 0.019587 -0.007022 -0.011554 0.013142 -0.002117 -0.004976
# 2 -0.007022 0.016170 0.005896 -0.010332 0.002142 0.008314
# 3 -0.011554 0.005896 0.019092 -0.018732 0.003129 0.003423
# 4 0.013142 -0.010332 -0.018732 0.046638 0.001796 -0.017149
# 5 -0.002117 0.002142 0.003129 0.001796 0.023328 -0.001397
# 6 -0.004976 0.008314 0.003423 -0.017149 -0.001397 0.018213
#
#
# Mechanical properties :
#
#
# Convention : Reuss Voigt Hill
#
# Bulk Modulus (GPa) = 33.91106 45.26536 39.58821
# Shear Modulus (GPa) = 28.05588 60.86254 44.45921
#
# Velocity S-wave (km/s) = 3.24940 4.78594 4.09047
# Velocity P-wave (km/s) = 5.18077 6.89750 6.09983
#
# Compressibility (1/GPa) = 0.02948890
#
# Stress axis : x y z
#
# Youngs Moduli (GPa) = 51.05544 61.84426 52.37748
#
# Poissons Ratio (x) = 0.43426 0.60517
# Poissons Ratio (y) = 0.35850 -0.30882
# Poissons Ratio (z) = 0.58989 -0.36463
#
# Static dielectric constant tensor:
#      x y z
#    x 2.105800 0.226660 0.080230 
#    y 0.226660 1.832570 -0.063950 
#    z 0.080230 -0.063950 2.080610 
# 
# From -- ./inp_files/46746.got.cif
#   From: 2010.05.17/outbox.cif.g08.bks.cpg/sg2_24_cif.got.tgz:46746.got - 2010.06.03 11:33:40.
