data_PCOD9048803
_publ_section_title
;
Structure prediction by ZEFSAII (Michael W. Deem and Ramdas Pophale) SiO2 
 PCOD9048803
Probable space group: P -1
;
_chemical_formula_sum "Si O2"
_cell_formula_units_Z 16
_cell_length_a 12.316384
_cell_length_b 12.452658
_cell_length_c 4.885334
_cell_angle_alpha 99.140517
_cell_angle_beta 90.194019
_cell_angle_gamma 56.900391
_cell_volume 616.555597
_symmetry_space_group_name_H-M "P -1"
_symmetry_group_IT_number 2
_symmetry_cell_setting 'triclinic'
loop_
_space_group_symop_operation_xyz
x,y,z
-x,-y,-z
loop_
_atom_site_type_symbol
_atom_site_label
_atom_site_fract_x
_atom_site_fract_y
_atom_site_fract_z
Si Si1 0.296913 0.388574 0.904054
Si Si2 0.145516 0.139409 0.851721
Si Si3 0.235725 0.854021 0.760801
Si Si4 0.314770 0.102367 0.303036
Si Si5 0.883244 0.273894 0.568627
Si Si6 0.868718 0.509704 0.517340
Si Si7 0.348068 0.592027 0.994296
Si Si8 0.478910 0.842231 0.835470
O O1 0.189441 0.455920 0.166255
O O2 0.324625 0.490022 0.808531
O O3 0.227280 0.372534 0.640955
O O4 0.424116 0.277562 0.014688
O O5 0.244925 0.105586 0.583549
O O6 0.999490 0.225238 0.767270
O O7 0.162317 0.005287 0.903678
O O8 0.199335 0.187303 0.112641
O O9 0.130493 0.841507 0.585912
O O10 0.289826 0.732992 0.920582
O O11 0.377635 0.824255 0.653651
O O12 0.392955 0.962198 0.090954
O O13 0.428083 0.130681 0.329554
O O14 0.902300 0.363811 0.399229
O O15 0.736282 0.370438 0.717641
O O16 0.000000 0.500000 0.500000
O O17 0.500000 0.500000 0.000000
#
# Coordination Sequence:
#
# PCOD9048803 Si02
#       8
#     2   2   2   2   2   2   2   2
#     4  11  24  43  70 101 133 182 231 288 349 412
#     4  11  27  46  75 102 140 188 236 292 358 411
#     4  11  24  45  70 102 140 190 231 292 350 422
#     4  10  26  47  70 108 137 183 239 297 347 419
#     4  11  27  44  70 103 145 184 236 292 348 429
#     4  11  26  44  67 100 140 184 233 284 350 418
#     4  11  24  45  66 104 140 182 231 286 347 417
#     4  10  24  45  73 102 142 182 239 292 356 413
#
# _framework density 25.950619
#
# number of rings (size 3 to 8) (size 9 to 14) (size 15 to 20)
#    0.000    1.250    2.500    0.750    8.750    8.500 
#    0.000    0.000    0.000    0.000    0.000    0.000 
#    0.000    0.000    0.000    0.000    0.000    0.000 
#
# Total GULP energy -89338.717928 kJ/mol
# GULP energy per Si atom -5583.669870 kJ/mol
# Density = 2.589155 g / cm^3
# Si number density = 25.950619 Si / 1000 Ang^3
#
#
#
# Elastic Constant Matrix: (Units=GPa)
#
#
# Indices 1 2 3 4 5 6 
#
# 1 170.4508 30.1515 40.3847 -11.7306 2.2818 -2.8614
# 2 30.1515 97.7223 6.3448 -28.7024 -6.9599 -8.9801
# 3 40.3847 6.3448 93.6561 -11.6831 -13.8744 -8.6741
# 4 -11.7306 -28.7024 -11.6831 38.0300 -9.8676 2.9653
# 5 2.2818 -6.9599 -13.8744 -9.8676 33.2771 -5.3804
# 6 -2.8614 -8.9801 -8.6741 2.9653 -5.3804 46.4439
#
#
#
# Elastic Compliance Matrix: (Units=1/GPa)
#
#
# Indices 1 2 3 4 5 6 
#
# 1 0.007153 -0.002859 -0.003726 -0.001888 -0.003376 -0.001079
# 2 -0.002859 0.016388 0.003903 0.015065 0.010358 0.003960
# 3 -0.003726 0.003903 0.015073 0.008874 0.010636 0.004006
# 4 -0.001888 0.015065 0.008874 0.044932 0.020953 0.004012
# 5 -0.003376 0.010358 0.010636 0.020953 0.044321 0.007578
# 6 -0.001079 0.003960 0.004006 0.004012 0.007578 0.023600
#
#
# Mechanical properties :
#
#
# Convention : Reuss Voigt Hill
#
# Bulk Modulus (GPa) = 30.07550 57.28789 43.68170
# Shear Modulus (GPa) = 29.77690 42.54675 36.16183
#
# Velocity S-wave (km/s) = 3.39107 4.05350 3.73699
# Velocity P-wave (km/s) = 5.19106 6.63562 5.95729
#
# Compressibility (1/GPa) = 0.03324966
#
# Stress axis : x y z
#
# Youngs Moduli (GPa) = 139.81102 61.01977 66.34274
#
# Poissons Ratio (x) = 0.17446 0.24720
# Poissons Ratio (y) = 0.39974 -0.25894
# Poissons Ratio (z) = 0.52095 -0.23817
#
# Static dielectric constant tensor:
#      x y z
#    x 2.013560 0.169190 0.024660 
#    y 0.169190 2.075920 0.095070 
#    z 0.024660 0.095070 2.025340 
# 
# From -- ./inp_files/69783.got.cif
#   From: 2010.05.17/outbox.cif.g08.bks.cpg/sg2_35_cif.got.tgz:69783.got - 2010.06.03 11:33:40.
