data_PCOD9048158
_publ_section_title
;
Structure prediction by ZEFSAII (Michael W. Deem and Ramdas Pophale) SiO2 
 PCOD9048158
Probable space group: P -1
;
_chemical_formula_sum "Si O2"
_cell_formula_units_Z 12
_cell_length_a 14.699479
_cell_length_b 17.453006
_cell_length_c 11.687359
_cell_angle_alpha 149.563591
_cell_angle_beta 20.371391
_cell_angle_gamma 150.566865
_cell_volume 494.237325
_symmetry_space_group_name_H-M "P -1"
_symmetry_group_IT_number 2
_symmetry_cell_setting 'triclinic'
loop_
_space_group_symop_operation_xyz
x,y,z
-x,-y,-z
loop_
_atom_site_type_symbol
_atom_site_label
_atom_site_fract_x
_atom_site_fract_y
_atom_site_fract_z
Si Si1 0.993768 0.256935 0.515551
Si Si2 0.486234 0.071108 0.323909
Si Si3 0.538093 0.832426 0.276095
Si Si4 0.679178 0.666082 0.562390
Si Si5 0.207740 0.556891 0.162114
Si Si6 0.148422 0.197766 0.707355
O O1 0.031968 0.411758 0.589563
O O2 0.048765 0.312614 0.654433
O O3 0.693231 0.116356 0.689289
O O4 0.186415 0.170994 0.116607
O O5 0.431951 0.163453 0.618010
O O6 0.349101 0.125902 0.447123
O O7 0.815324 0.101559 0.977613
O O8 0.280601 0.668287 0.332343
O O9 0.500000 0.000000 0.500000
O O10 0.500000 0.500000 0.500000
O O11 0.764882 0.782225 0.502355
O O12 0.475683 0.654271 0.893460
O O13 0.183442 0.372260 0.948223
#
# Coordination Sequence:
#
# PCOD9048158 Si02
#       6
#     2   2   2   2   2   2
#     4  11  24  43  76  97 130 189 243 273 340 418
#     4  12  27  44  68 105 147 178 224 292 353 400
#     4  11  23  45  72 100 136 183 238 282 336 418
#     4   9  23  45  70  98 137 183 235 280 338 416
#     4  10  24  44  74  99 129 191 239 275 336 422
#     4  11  28  45  67 105 147 179 223 293 354 398
#
# _framework density 24.279833
#
# number of rings (size 3 to 8) (size 9 to 14) (size 15 to 20)
#    0.000    1.333    1.667    1.500   14.000    4.000 
#    0.000    0.000    0.000    0.000    0.000    0.000 
#    0.000    0.000    0.000    0.000    0.000    0.000 
#
# Total GULP energy -66970.204859 kJ/mol
# GULP energy per Si atom -5580.850405 kJ/mol
# Density = 2.422457 g / cm^3
# Si number density = 24.279833 Si / 1000 Ang^3
#
#
#
# Elastic Constant Matrix: (Units=GPa)
#
#
# Indices 1 2 3 4 5 6 
#
# 1 126.3601 15.5206 -13.3009 -14.6672 4.9821 31.6028
# 2 15.5206 77.6556 7.7690 2.8254 1.8890 26.0443
# 3 -13.3009 7.7690 33.1015 -18.3843 7.3466 6.3861
# 4 -14.6672 2.8254 -18.3843 38.5159 -6.5707 0.7457
# 5 4.9821 1.8890 7.3466 -6.5707 28.1565 6.7042
# 6 31.6028 26.0443 6.3861 0.7457 6.7042 36.0175
#
#
#
# Elastic Compliance Matrix: (Units=1/GPa)
#
#
# Indices 1 2 3 4 5 6 
#
# 1 0.015985 0.000447 0.018102 0.015076 0.000201 -0.017908
# 2 0.000447 0.017396 -0.002968 -0.001911 0.002130 -0.012802
# 3 0.018102 -0.002968 0.065187 0.037824 -0.005207 -0.025109
# 4 0.015076 -0.001911 0.037824 0.051039 0.004365 -0.020421
# 5 0.000201 0.002130 -0.005207 0.004365 0.039684 -0.008270
# 6 -0.017908 -0.012802 -0.025109 -0.020421 -0.008270 0.059148
#
#
# Mechanical properties :
#
#
# Convention : Reuss Voigt Hill
#
# Bulk Modulus (GPa) = 7.70835 28.56607 18.13721
# Shear Modulus (GPa) = 19.19224 35.67988 27.43606
#
# Velocity S-wave (km/s) = 2.81456 3.83760 3.36518
# Velocity P-wave (km/s) = 3.70729 5.60599 4.75243
#
# Compressibility (1/GPa) = 0.12972950
#
# Stress axis : x y z
#
# Youngs Moduli (GPa) = 62.55779 57.48351 15.34040
#
# Poissons Ratio (x) = -0.02568 -0.27769
# Poissons Ratio (y) = -0.02795 0.04553
# Poissons Ratio (z) = -1.13240 0.17062
#
# Static dielectric constant tensor:
#      x y z
#    x 1.697900 -0.102650 -0.069160 
#    y -0.102650 1.878500 -0.006490 
#    z -0.069160 -0.006490 2.130010 
# 
# From -- ./inp_files/18871.got.cif
#   From: 2010.05.17/outbox.cif.g08.bks.cpg/sg2_10_cif.got.tgz:18871.got - 2010.06.03 11:33:40.
