data_PCOD9048536
_publ_section_title
;
Structure prediction by ZEFSAII (Michael W. Deem and Ramdas Pophale) SiO2 
 PCOD9048536
Probable space group: P -1
;
_chemical_formula_sum "Si O2"
_cell_formula_units_Z 14
_cell_length_a 10.009976
_cell_length_b 18.640976
_cell_length_c 13.349829
_cell_angle_alpha 29.275891
_cell_angle_beta 35.506205
_cell_angle_gamma 30.365921
_cell_volume 596.476054
_symmetry_space_group_name_H-M "P -1"
_symmetry_group_IT_number 2
_symmetry_cell_setting 'triclinic'
loop_
_space_group_symop_operation_xyz
x,y,z
-x,-y,-z
loop_
_atom_site_type_symbol
_atom_site_label
_atom_site_fract_x
_atom_site_fract_y
_atom_site_fract_z
Si Si1 0.232053 0.921586 0.723713
Si Si2 0.769585 0.668798 0.229988
Si Si3 0.346205 0.401696 0.247172
Si Si4 0.732141 0.889581 0.795188
Si Si5 0.776431 0.174921 0.540247
Si Si6 0.206036 0.062136 0.770697
Si Si7 0.923351 0.321120 0.787244
O O1 0.459893 0.799563 0.651278
O O2 0.248510 0.041970 0.650487
O O3 0.962450 0.044046 0.675095
O O4 0.229106 0.775453 0.971239
O O5 0.502389 0.674248 0.422446
O O6 0.850335 0.744042 0.183872
O O7 0.060791 0.490907 0.252929
O O8 0.708894 0.787147 0.026671
O O9 0.263595 0.473371 0.324888
O O10 0.500000 0.500000 0.000000
O O11 0.026752 0.780939 0.692675
O O12 0.718570 0.058937 0.642059
O O13 0.488919 0.942077 0.802696
O O14 0.055801 0.252099 0.683174
O O15 0.000000 0.000000 0.000000
#
# Coordination Sequence:
#
# PCOD9048536 Si02
#       7
#     2   2   2   2   2   2   2
#     4  10  18  32  51  86 114 138 182 237 285 322
#     4  10  17  34  59  77 110 144 189 234 269 324
#     4   8  15  30  55  79 107 150 182 223 282 332
#     4  11  20  33  54  85 110 143 196 231 270 332
#     4  11  21  32  58  84 109 147 192 233 273 327
#     4  10  19  31  53  84 116 143 181 234 283 333
#     4   8  15  29  54  78 105 141 185 218 272 330
#
# _framework density 23.471184999999998
#
# number of rings (size 3 to 8) (size 9 to 14) (size 15 to 20)
#    0.857    1.429    2.857    2.143    0.000    0.571 
#    0.000    0.714    0.000   21.429    0.000    0.000 
#    0.000    0.000    0.000    0.000    0.000    0.000 
#
# Total GULP energy -78121.902746 kJ/mol
# GULP energy per Si atom -5580.135910 kJ/mol
# Density = 2.341776 g / cm^3
# Si number density = 23.471185 Si / 1000 Ang^3
#
#
#
# Elastic Constant Matrix: (Units=GPa)
#
#
# Indices 1 2 3 4 5 6 
#
# 1 126.0818 46.8228 24.2016 9.3895 4.6674 1.7090
# 2 46.8228 125.2687 27.8524 31.3392 5.2980 2.0626
# 3 24.2016 27.8524 103.6612 25.8955 5.6853 -4.6710
# 4 9.3895 31.3392 25.8955 40.8436 2.8969 -8.6966
# 5 4.6674 5.2980 5.6853 2.8969 28.1815 9.1794
# 6 1.7090 2.0626 -4.6710 -8.6966 9.1794 45.5365
#
#
#
# Elastic Compliance Matrix: (Units=1/GPa)
#
#
# Indices 1 2 3 4 5 6 
#
# 1 0.009470 -0.003565 -0.001621 0.001666 -0.000780 0.000115
# 2 -0.003565 0.011468 -0.000284 -0.008221 -0.000018 -0.001981
# 3 -0.001621 -0.000284 0.011890 -0.006780 -0.001476 0.000296
# 4 0.001666 -0.008221 -0.006780 0.036507 -0.003490 0.007290
# 5 -0.000780 -0.000018 -0.001476 -0.003490 0.039097 -0.008669
# 6 0.000115 -0.001981 0.000296 0.007290 -0.008669 0.025216
#
#
# Mechanical properties :
#
#
# Convention : Reuss Voigt Hill
#
# Bulk Modulus (GPa) = 45.68738 61.41837 53.55287
# Shear Modulus (GPa) = 32.92003 39.98798 36.45401
#
# Velocity S-wave (km/s) = 3.74916 4.13207 3.94526
# Velocity P-wave (km/s) = 6.18459 6.99927 6.60450
#
# Compressibility (1/GPa) = 0.02188788
#
# Stress axis : x y z
#
# Youngs Moduli (GPa) = 105.60042 87.19600 84.10732
#
# Poissons Ratio (x) = 0.31084 0.13636
# Poissons Ratio (y) = 0.37644 0.02387
# Poissons Ratio (z) = 0.17121 0.02475
#
# Static dielectric constant tensor:
#      x y z
#    x 1.860640 0.015510 -0.048120 
#    y 0.015510 1.981230 0.068330 
#    z -0.048120 0.068330 1.964900 
# 
# From -- ./inp_files/304208.got.cif
#   From: 2010.05.17/outbox.cif.g08.bks.cpg/sg2_153_cif.got.tgz:304208.got - 2010.06.03 11:33:40.
