data_PCOD9048367
_publ_section_title
;
Structure prediction by ZEFSAII (Michael W. Deem and Ramdas Pophale) SiO2 
 PCOD9048367
Probable space group: P -1
;
_chemical_formula_sum "Si O2"
_cell_formula_units_Z 16
_cell_length_a 12.003599
_cell_length_b 6.750144
_cell_length_c 12.548632
_cell_angle_alpha 82.308363
_cell_angle_beta 48.585786
_cell_angle_gamma 84.929902
_cell_volume 755.659788
_symmetry_space_group_name_H-M "P -1"
_symmetry_group_IT_number 2
_symmetry_cell_setting 'triclinic'
loop_
_space_group_symop_operation_xyz
x,y,z
-x,-y,-z
loop_
_atom_site_type_symbol
_atom_site_label
_atom_site_fract_x
_atom_site_fract_y
_atom_site_fract_z
Si Si1 0.406213 0.229872 0.323952
Si Si2 0.482449 0.400049 0.902070
Si Si3 0.906519 0.383273 0.161211
Si Si4 0.183299 0.266018 0.651146
Si Si5 0.067110 0.621361 0.350814
Si Si6 0.297799 0.949441 0.230216
Si Si7 0.172325 0.290694 0.136581
Si Si8 0.358147 0.931878 0.673302
O O1 0.439322 0.440605 0.234079
O O2 0.319040 0.284107 0.482107
O O3 0.554028 0.106260 0.270278
O O4 0.314875 0.086505 0.313510
O O5 0.553678 0.179735 0.874537
O O6 0.500000 0.500000 0.000000
O O7 0.310952 0.384012 0.978977
O O8 0.856386 0.544319 0.268056
O O9 0.753070 0.261499 0.247672
O O10 0.031612 0.252426 0.153370
O O11 0.000000 0.500000 0.000000
O O12 0.044787 0.245585 0.659515
O O13 0.237159 0.101336 0.713042
O O14 0.180144 0.772360 0.322910
O O15 0.133916 0.455872 0.239691
O O16 0.000000 0.500000 0.500000
O O17 0.239570 0.096519 0.164810
O O18 0.500000 0.000000 0.500000
#
# Coordination Sequence:
#
# PCOD9048367 Si02
#       8
#     2   2   2   2   2   2   2   2
#     4  11  25  41  67 100 135 178 228 278 337 409
#     4  12  23  42  63  98 141 172 225 276 336 408
#     4  11  25  47  72  98 136 184 231 285 346 398
#     4  10  24  45  67  99 138 177 231 283 336 406
#     4  11  23  40  64  95 136 172 218 281 336 409
#     4  12  23  40  67  95 133 177 216 272 347 404
#     4  11  24  41  65  99 133 173 224 279 339 406
#     4  10  24  45  68 100 135 178 235 283 333 403
#
# _framework density 21.173546999999999
#
# number of rings (size 3 to 8) (size 9 to 14) (size 15 to 20)
#    0.000    1.000    2.500    3.375    0.000   12.500 
#    0.000    0.000    0.000    0.000    0.000    0.000 
#    0.000    0.000    0.000    0.000    0.000    0.000 
#
# Total GULP energy -89145.525973 kJ/mol
# GULP energy per Si atom -5571.595373 kJ/mol
# Density = 2.112536 g / cm^3
# Si number density = 21.173547 Si / 1000 Ang^3
#
#
#
# Elastic Constant Matrix: (Units=GPa)
#
#
# Indices 1 2 3 4 5 6 
#
# 1 129.7782 26.9527 23.9065 -13.9348 -10.8106 -4.5550
# 2 26.9527 78.7612 43.2520 -13.5010 -3.8359 -16.6036
# 3 23.9065 43.2520 77.2968 -5.2158 -5.5572 6.4743
# 4 -13.9348 -13.5010 -5.2158 26.1892 -0.8097 -7.6562
# 5 -10.8106 -3.8359 -5.5572 -0.8097 30.0337 -10.4400
# 6 -4.5550 -16.6036 6.4743 -7.6562 -10.4400 49.0734
#
#
#
# Elastic Compliance Matrix: (Units=1/GPa)
#
#
# Indices 1 2 3 4 5 6 
#
# 1 0.009159 -0.000193 -0.002318 0.005237 0.003939 0.002746
# 2 -0.000193 0.026890 -0.014743 0.015320 0.006170 0.014728
# 3 -0.002318 -0.014743 0.022064 -0.007354 -0.002217 -0.009733
# 4 0.005237 0.015320 -0.007354 0.052657 0.009788 0.016937
# 5 0.003939 0.006170 -0.002217 0.009788 0.039783 0.012736
# 6 0.002746 0.014728 -0.009733 0.016937 0.012736 0.032252
#
#
# Mechanical properties :
#
#
# Convention : Reuss Voigt Hill
#
# Bulk Modulus (GPa) = 42.36543 52.67318 47.51931
# Shear Modulus (GPa) = 22.20424 33.84092 28.02258
#
# Velocity S-wave (km/s) = 3.24184 4.00217 3.64190
# Velocity P-wave (km/s) = 5.83651 6.80348 6.33846
#
# Compressibility (1/GPa) = 0.02360415
#
# Stress axis : x y z
#
# Youngs Moduli (GPa) = 109.17788 37.18798 45.32353
#
# Poissons Ratio (x) = 0.00718 0.10507
# Poissons Ratio (y) = 0.02107 0.66822
# Poissons Ratio (z) = 0.25310 0.54828
#
# Static dielectric constant tensor:
#      x y z
#    x 1.832100 -0.024290 -0.053300 
#    y -0.024290 1.752700 -0.016570 
#    z -0.053300 -0.016570 1.775240 
# 
# From -- ./inp_files/371030.got.cif
#   From: 2010.05.17/outbox.cif.g08.bks.cpg/sg2_186_cif.got.tgz:371030.got - 2010.06.03 11:33:40.
