data_PCOD9048142
_publ_section_title
;
Structure prediction by ZEFSAII (Michael W. Deem and Ramdas Pophale) SiO2 
 PCOD9048142
Probable space group: P -1
;
_chemical_formula_sum "Si O2"
_cell_formula_units_Z 13
_cell_length_a 7.352445
_cell_length_b 13.972858
_cell_length_c 7.735301
_cell_angle_alpha 141.742888
_cell_angle_beta 103.858386
_cell_angle_gamma 85.596369
_cell_volume 469.478548
_symmetry_space_group_name_H-M "P -1"
_symmetry_group_IT_number 2
_symmetry_cell_setting 'triclinic'
loop_
_space_group_symop_operation_xyz
x,y,z
-x,-y,-z
loop_
_atom_site_type_symbol
_atom_site_label
_atom_site_fract_x
_atom_site_fract_y
_atom_site_fract_z
Si Si1 0.608790 0.765441 0.485053
Si Si2 0.904815 0.943188 0.216285
Si Si3 0.080223 0.453076 0.200167
Si Si4 0.551407 0.835201 0.204811
Si Si5 0.000000 0.000000 0.000000
Si Si6 0.703919 0.497376 0.359650
Si Si7 0.828157 0.251263 0.597122
O O1 0.651997 0.761258 0.284213
O O2 0.602982 0.604995 0.363855
O O3 0.394247 0.799768 0.488940
O O4 0.774346 0.897200 0.782162
O O5 0.906077 0.104236 0.321237
O O6 0.691943 0.876843 0.133429
O O7 0.000000 0.000000 0.500000
O O8 0.025946 0.874868 0.005409
O O9 0.251023 0.436936 0.344000
O O10 0.154310 0.590948 0.280626
O O11 0.909429 0.511491 0.340712
O O12 0.965933 0.300316 0.861338
O O13 0.500000 0.000000 0.500000
O O14 0.387106 0.687107 0.913659
#
# Coordination Sequence:
#
# PCOD9048142 Si02
#       7
#     2   2   2   2   1   2   2
#     4  12  26  47  76 113 157 202 267 324 390 470
#     4  12  27  48  76 110 157 207 262 326 392 472
#     4  10  24  44  74 107 152 199 257 321 394 467
#     4  12  25  48  78 114 159 208 257 325 399 462
#     4  12  30  48  74 114 152 208 264 322 392 468
#     4  11  25  46  75 111 155 203 261 323 389 474
#     4  11  25  47  73 109 152 206 256 330 394 462
#
# _framework density 27.690294999999999
#
# number of rings (size 3 to 8) (size 9 to 14) (size 15 to 20)
#    0.000    0.615    4.615    1.385    4.308    6.154 
#    0.000    0.000    0.000    0.000    0.000    0.000 
#    0.000    0.000    0.000    0.000    0.000    0.000 
#
# Total GULP energy -72614.100719 kJ/mol
# GULP energy per Si atom -5585.700055 kJ/mol
# Density = 2.762727 g / cm^3
# Si number density = 27.690295 Si / 1000 Ang^3
#
#
#
# Elastic Constant Matrix: (Units=GPa)
#
#
# Indices 1 2 3 4 5 6 
#
# 1 123.5989 51.5162 72.7610 19.7891 24.3966 19.7363
# 2 51.5162 190.2481 80.1215 5.3947 2.4938 17.4557
# 3 72.7610 80.1215 186.8681 5.4870 18.8751 -4.7892
# 4 19.7891 5.3947 5.4870 58.6651 1.0930 -2.6584
# 5 24.3966 2.4938 18.8751 1.0930 48.0901 10.3361
# 6 19.7363 17.4557 -4.7892 -2.6584 10.3361 57.1854
#
#
#
# Elastic Compliance Matrix: (Units=1/GPa)
#
#
# Indices 1 2 3 4 5 6 
#
# 1 0.013133 -0.001284 -0.004139 -0.004029 -0.004032 -0.003946
# 2 -0.001284 0.006929 -0.002712 -0.000086 0.001839 -0.002235
# 3 -0.004139 -0.002712 0.008360 0.001047 -0.001780 0.003327
# 4 -0.004029 -0.000086 0.001047 0.018402 0.000740 0.002226
# 5 -0.004032 0.001839 -0.001780 0.000740 0.024213 -0.003661
# 6 -0.003946 -0.002235 0.003327 0.002226 -0.003661 0.020575
#
#
# Mechanical properties :
#
#
# Convention : Reuss Voigt Hill
#
# Bulk Modulus (GPa) = 82.28015 101.05694 91.66855
# Shear Modulus (GPa) = 44.66994 52.54253 48.60624
#
# Velocity S-wave (km/s) = 4.02082 4.36076 4.19424
# Velocity P-wave (km/s) = 7.16484 7.86954 7.52544
#
# Compressibility (1/GPa) = 0.01215360
#
# Stress axis : x y z
#
# Youngs Moduli (GPa) = 76.14258 144.31241 119.62144
#
# Poissons Ratio (x) = 0.18532 0.49507
# Poissons Ratio (y) = 0.09778 0.32436
# Poissons Ratio (z) = 0.31513 0.39131
#
# Static dielectric constant tensor:
#      x y z
#    x 2.189560 0.103360 -0.140960 
#    y 0.103360 2.580080 -0.231090 
#    z -0.140960 -0.231090 2.360270 
# 
# From -- ./inp_files/198750.got.cif
#   From: 2010.05.17/outbox.cif.g08.bks.cpg/sg2_100_cif.got.tgz:198750.got - 2010.06.03 11:33:40.
