data_PCOD9048953
_publ_section_title
;
Structure prediction by ZEFSAII (Michael W. Deem and Ramdas Pophale) SiO2 
 PCOD9048953
Probable space group: P -1
;
_chemical_formula_sum "Si O2"
_cell_formula_units_Z 14
_cell_length_a 7.200000
_cell_length_b 9.802306
_cell_length_c 18.029426
_cell_angle_alpha 146.332205
_cell_angle_beta 86.937441
_cell_angle_gamma 113.555500
_cell_volume 540.320264
_symmetry_space_group_name_H-M "P -1"
_symmetry_group_IT_number 2
_symmetry_cell_setting 'triclinic'
loop_
_space_group_symop_operation_xyz
x,y,z
-x,-y,-z
loop_
_atom_site_type_symbol
_atom_site_label
_atom_site_fract_x
_atom_site_fract_y
_atom_site_fract_z
Si Si1 0.660113 0.181819 0.151393
Si Si2 0.238516 0.625447 0.507673
Si Si3 0.071755 0.791665 0.335033
Si Si4 0.667958 0.865149 0.379244
Si Si5 0.257783 0.288906 0.029951
Si Si6 0.755571 0.893867 0.804877
Si Si7 0.277295 0.776576 0.170177
O O1 0.919676 0.483268 0.252371
O O2 0.512064 0.270903 0.235248
O O3 0.500000 0.000000 0.000000
O O4 0.673361 0.937222 0.084258
O O5 0.228708 0.339359 0.348985
O O6 0.000000 0.500000 0.500000
O O7 0.277259 0.849195 0.541116
O O8 0.466630 0.864825 0.663974
O O9 0.889088 0.863363 0.359308
O O10 0.136980 0.738071 0.230472
O O11 0.307001 0.057808 0.499248
O O12 0.418719 0.534059 0.204987
O O13 0.034586 0.946737 0.065111
O O14 0.319580 0.521740 0.065031
O O15 0.824246 0.189538 0.886829
#
# Coordination Sequence:
#
# PCOD9048953 Si02
#       7
#     2   2   2   2   2   2   2
#     4  12  27  48  77 116 160 201 252 320 386 456
#     4  11  26  48  76 114 154 200 265 318 383 460
#     4  11  24  47  76 112 155 196 259 325 379 457
#     4  10  24  45  77 107 152 199 251 322 384 440
#     4  11  26  49  73 114 154 199 255 309 385 461
#     4  12  28  49  80 112 156 207 254 315 390 457
#     4  11  27  48  78 112 150 206 263 309 393 453
#
# _framework density 25.91056
#
# number of rings (size 3 to 8) (size 9 to 14) (size 15 to 20)
#    0.000    0.857    1.429    3.429    8.000    6.286 
#    2.571    0.000    0.000    0.000    0.000    0.000 
#    0.000    0.000    0.000    0.000    0.000    0.000 
#
# Total GULP energy -78519.609707 kJ/mol
# GULP energy per Si atom -5608.543550 kJ/mol
# Density = 2.585159 g / cm^3
# Si number density = 25.910560 Si / 1000 Ang^3
#
#
#
# Elastic Constant Matrix: (Units=GPa)
#
#
# Indices 1 2 3 4 5 6 
#
# 1 163.4043 68.8937 79.7510 -7.8689 -5.5898 -4.4493
# 2 68.8937 113.7030 55.0689 10.8211 -16.2996 -3.6982
# 3 79.7510 55.0689 101.6349 7.2462 -1.3809 -1.4728
# 4 -7.8689 10.8211 7.2462 44.7131 -10.2467 -3.9662
# 5 -5.5898 -16.2996 -1.3809 -10.2467 61.4253 -5.2954
# 6 -4.4493 -3.6982 -1.4728 -3.9662 -5.2954 62.5958
#
#
#
# Elastic Compliance Matrix: (Units=1/GPa)
#
#
# Indices 1 2 3 4 5 6 
#
# 1 0.011505 -0.003727 -0.007297 0.004333 0.000682 0.000758
# 2 -0.003727 0.013824 -0.004334 -0.002601 0.002843 0.000526
# 3 -0.007297 -0.004334 0.018140 -0.003722 -0.002093 -0.000761
# 4 0.004333 -0.002601 -0.003722 0.025466 0.004043 0.002022
# 5 0.000682 0.002843 -0.002093 0.004043 0.017891 0.001937
# 6 0.000758 0.000526 -0.000761 0.002022 0.001937 0.016335
#
#
# Mechanical properties :
#
#
# Convention : Reuss Voigt Hill
#
# Bulk Modulus (GPa) = 78.41803 87.35217 82.88510
# Shear Modulus (GPa) = 36.19822 45.41541 40.80681
#
# Velocity S-wave (km/s) = 3.74176 4.19116 3.97282
# Velocity P-wave (km/s) = 6.99988 7.56355 7.28716
#
# Compressibility (1/GPa) = 0.01275217
#
# Stress axis : x y z
#
# Youngs Moduli (GPa) = 86.91718 72.33572 55.12786
#
# Poissons Ratio (x) = 0.26958 0.40228
# Poissons Ratio (y) = 0.32392 0.23895
# Poissons Ratio (z) = 0.63426 0.31354
#
# Static dielectric constant tensor:
#      x y z
#    x 2.095380 0.032750 0.033220 
#    y 0.032750 2.032950 0.036980 
#    z 0.033220 0.036980 2.058800 
# 
# From -- ./inp_files/447825.got.cif
#   From: 2010.05.17/outbox.cif.g08.bks.cpg/sg2_224_cif.got.tgz:447825.got - 2010.06.03 11:33:40.
