data_PCOD9048302
_publ_section_title
;
Structure prediction by ZEFSAII (Michael W. Deem and Ramdas Pophale) SiO2 
 PCOD9048302
Probable space group: P -1
;
_chemical_formula_sum "Si O2"
_cell_formula_units_Z 16
_cell_length_a 18.389436
_cell_length_b 20.816402
_cell_length_c 8.882642
_cell_angle_alpha 142.550956
_cell_angle_beta 142.377360
_cell_angle_gamma 20.816349
_cell_volume 714.837919
_symmetry_space_group_name_H-M "P -1"
_symmetry_group_IT_number 2
_symmetry_cell_setting 'triclinic'
loop_
_space_group_symop_operation_xyz
x,y,z
-x,-y,-z
loop_
_atom_site_type_symbol
_atom_site_label
_atom_site_fract_x
_atom_site_fract_y
_atom_site_fract_z
Si Si1 0.580027 0.559171 0.783668
Si Si2 0.927050 0.297831 0.110742
Si Si3 0.806500 0.060933 0.273521
Si Si4 0.974776 0.599402 0.309349
Si Si5 0.338058 0.212244 0.099189
Si Si6 0.263817 0.706719 0.957622
Si Si7 0.892152 0.334279 0.607748
Si Si8 0.299583 0.901478 0.502697
O O1 0.500000 0.500000 0.500000
O O2 0.367488 0.782098 0.842173
O O3 0.749735 0.468882 0.766039
O O4 0.707878 0.471492 0.985542
O O5 0.014725 0.339123 0.409345
O O6 0.885927 0.240704 0.067372
O O7 0.091873 0.125184 0.945613
O O8 0.691652 0.150191 0.410992
O O9 0.000000 0.000000 0.500000
O O10 0.123217 0.387665 0.167312
O O11 0.080298 0.598662 0.352680
O O12 0.750631 0.734375 0.118040
O O13 0.475858 0.212772 0.370409
O O14 0.500000 0.000000 0.000000
O O15 0.243533 0.847083 0.199095
O O16 0.500000 0.500000 0.000000
O O17 0.214966 0.690673 0.688562
O O18 0.124445 0.120822 0.627167
#
# Coordination Sequence:
#
# PCOD9048302 Si02
#       8
#     2   2   2   2   2   2   2   2
#     4  12  22  37  61  89 130 174 205 248 316 382
#     4  11  23  41  62  94 133 167 207 259 316 386
#     4  12  22  39  62  94 132 170 208 253 315 394
#     4  10  24  45  66  95 127 164 214 272 318 367
#     4  11  23  43  70  93 124 166 219 269 317 370
#     4  11  22  37  57  94 132 161 206 261 319 384
#     4  11  22  39  63  93 128 167 207 259 322 385
#     4  12  21  39  65  93 126 168 213 260 320 379
#
# _framework density 22.382697
#
# number of rings (size 3 to 8) (size 9 to 14) (size 15 to 20)
#    0.000    0.750    5.000    4.125    0.000    1.000 
#    4.500    0.625    0.000    7.500    0.000    0.000 
#    0.000    0.000    0.000    0.000    0.000    0.000 
#
# Total GULP energy -89421.053948 kJ/mol
# GULP energy per Si atom -5588.815872 kJ/mol
# Density = 2.233175 g / cm^3
# Si number density = 22.382697 Si / 1000 Ang^3
#
#
#
# Elastic Constant Matrix: (Units=GPa)
#
#
# Indices 1 2 3 4 5 6 
#
# 1 29.7785 -8.4301 -10.8168 1.9750 -5.9776 -0.1599
# 2 -8.4301 150.2478 29.0853 -9.0575 0.6091 21.5956
# 3 -10.8168 29.0853 137.7583 -8.1754 -11.0301 7.6070
# 4 1.9750 -9.0575 -8.1754 39.6020 2.6314 -0.3727
# 5 -5.9776 0.6091 -11.0301 2.6314 22.7096 -1.0143
# 6 -0.1599 21.5956 7.6070 -0.3727 -1.0143 27.3010
#
#
#
# Elastic Compliance Matrix: (Units=1/GPa)
#
#
# Indices 1 2 3 4 5 6 
#
# 1 0.037765 0.001505 0.003580 -0.001596 0.011754 -0.001552
# 2 0.001505 0.007919 -0.001205 0.001487 -0.000839 -0.005930
# 3 0.003580 -0.001205 0.008301 0.000927 0.004848 -0.001146
# 4 -0.001596 0.001487 0.000927 0.026056 -0.003083 -0.001203
# 5 0.011754 -0.000839 0.004848 -0.003083 0.049916 0.001194
# 6 -0.001552 -0.005930 -0.001146 -0.001203 0.001194 0.041658
#
#
# Mechanical properties :
#
#
# Convention : Reuss Voigt Hill
#
# Bulk Modulus (GPa) = 16.19599 37.49571 26.84585
# Shear Modulus (GPa) = 27.10969 38.45226 32.78098
#
# Velocity S-wave (km/s) = 3.48399 4.14931 3.83112
# Velocity P-wave (km/s) = 4.84106 6.30430 5.62050
#
# Compressibility (1/GPa) = 0.06174369
#
# Stress axis : x y z
#
# Youngs Moduli (GPa) = 26.47981 126.28105 120.46683
#
# Poissons Ratio (x) = -0.19007 -0.43122
# Poissons Ratio (y) = -0.03986 0.14518
# Poissons Ratio (z) = -0.09479 0.15219
#
# Static dielectric constant tensor:
#      x y z
#    x 1.884610 0.027930 0.057540 
#    y 0.027930 1.879140 -0.016380 
#    z 0.057540 -0.016380 1.900460 
# 
# From -- ./inp_files/338212.got.cif
#   From: 2010.05.17/outbox.cif.g08.bks.cpg/sg2_170_cif.got.tgz:338212.got - 2010.06.03 11:33:40.
