data_PCOD9048197
_publ_section_title
;
Structure prediction by ZEFSAII (Michael W. Deem and Ramdas Pophale) SiO2 
 PCOD9048197
Probable space group: P -1
;
_chemical_formula_sum "Si O2"
_cell_formula_units_Z 12
_cell_length_a 13.108855
_cell_length_b 9.706379
_cell_length_c 9.375340
_cell_angle_alpha 76.228365
_cell_angle_beta 124.202513
_cell_angle_gamma 143.948317
_cell_volume 520.082758
_symmetry_space_group_name_H-M "P -1"
_symmetry_group_IT_number 2
_symmetry_cell_setting 'triclinic'
loop_
_space_group_symop_operation_xyz
x,y,z
-x,-y,-z
loop_
_atom_site_type_symbol
_atom_site_label
_atom_site_fract_x
_atom_site_fract_y
_atom_site_fract_z
Si Si1 0.110948 0.488456 0.995824
Si Si2 0.837753 0.942770 0.977909
Si Si3 0.479963 0.610905 0.564252
Si Si4 0.561214 0.967316 0.415134
Si Si5 0.743501 0.201142 0.218686
Si Si6 0.964320 0.106326 0.348359
O O1 0.108879 0.544123 0.818787
O O2 0.952651 0.203576 0.970578
O O3 0.358255 0.718902 0.208348
O O4 0.000000 0.500000 0.000000
O O5 0.587785 0.681355 0.783960
O O6 0.846413 0.934824 0.154938
O O7 0.000000 0.000000 0.000000
O O8 0.500000 0.500000 0.500000
O O9 0.632615 0.884944 0.553394
O O10 0.219081 0.401212 0.432210
O O11 0.500000 0.000000 0.500000
O O12 0.718090 0.201294 0.367873
O O13 0.830024 0.120612 0.287506
O O14 0.500000 0.000000 0.000000
O O15 0.000000 0.000000 0.500000
#
# Coordination Sequence:
#
# PCOD9048197 Si02
#       6
#     2   2   2   2   2   2
#     4  11  20  45  71 102 150 193 247 307 373 450
#     4  12  25  45  77 108 149 207 248 307 386 448
#     4  12  24  46  74 106 150 198 248 308 380 451
#     4  11  23  42  71 106 142 192 250 312 373 440
#     4  10  24  44  76 109 151 198 252 313 376 448
#     4  12  26  49  75 112 154 195 256 316 377 459
#
# _framework density 23.073250999999999
#
# number of rings (size 3 to 8) (size 9 to 14) (size 15 to 20)
#    0.000    0.667    5.000    2.000    2.333    2.000 
#    3.000    4.167    0.000    0.000    0.000    0.000 
#    0.000    0.000    0.000    0.000    0.000    0.000 
#
# Total GULP energy -66971.729173 kJ/mol
# GULP energy per Si atom -5580.977431 kJ/mol
# Density = 2.302074 g / cm^3
# Si number density = 23.073251 Si / 1000 Ang^3
#
#
#
# Elastic Constant Matrix: (Units=GPa)
#
#
# Indices 1 2 3 4 5 6 
#
# 1 137.1574 30.4362 43.5063 -17.7338 -8.8477 -15.4989
# 2 30.4362 91.5152 29.8309 -37.1872 -15.6171 -9.8849
# 3 43.5063 29.8309 185.2129 -15.0917 -23.5019 5.3671
# 4 -17.7338 -37.1872 -15.0917 53.9093 11.5953 -1.4288
# 5 -8.8477 -15.6171 -23.5019 11.5953 48.1227 -3.7254
# 6 -15.4989 -9.8849 5.3671 -1.4288 -3.7254 46.1297
#
#
#
# Elastic Compliance Matrix: (Units=1/GPa)
#
#
# Indices 1 2 3 4 5 6 
#
# 1 0.008680 -0.001386 -0.001761 0.001449 0.000160 0.002882
# 2 -0.001386 0.016868 -0.001357 0.010396 0.002347 0.003818
# 3 -0.001761 -0.001357 0.006341 -0.000270 0.002286 -0.001444
# 4 0.001449 0.010396 -0.000270 0.026789 -0.002687 0.003359
# 5 0.000160 0.002347 0.002286 -0.002687 0.023498 0.002105
# 6 0.002882 0.003818 -0.001444 0.003359 0.002105 0.023907
#
#
# Mechanical properties :
#
#
# Convention : Reuss Voigt Hill
#
# Bulk Modulus (GPa) = 43.70182 69.04804 56.37493
# Shear Modulus (GPa) = 40.74390 50.30647 45.52519
#
# Velocity S-wave (km/s) = 4.20676 4.67443 4.44675
# Velocity P-wave (km/s) = 6.52513 7.68923 7.13098
#
# Compressibility (1/GPa) = 0.02288234
#
# Stress axis : x y z
#
# Youngs Moduli (GPa) = 115.20372 59.28450 157.69584
#
# Poissons Ratio (x) = 0.08214 0.27770
# Poissons Ratio (y) = 0.15962 0.21399
# Poissons Ratio (z) = 0.20287 0.08045
#
# Static dielectric constant tensor:
#      x y z
#    x 1.803810 0.046080 0.033550 
#    y 0.046080 1.936480 0.014900 
#    z 0.033550 0.014900 1.975750 
# 
# From -- ./inp_files/189270.got.cif
#   From: 2010.05.17/outbox.cif.g08.bks.cpg/sg2_95_cif.got.tgz:189270.got - 2010.06.03 11:33:40.
