data_PCOD9048496
_publ_section_title
;
Structure prediction by ZEFSAII (Michael W. Deem and Ramdas Pophale) SiO2 
 PCOD9048496
Probable space group: P -1
;
_chemical_formula_sum "Si O2"
_cell_formula_units_Z 14
_cell_length_a 4.941989
_cell_length_b 10.726681
_cell_length_c 14.395868
_cell_angle_alpha 104.871643
_cell_angle_beta 108.064158
_cell_angle_gamma 118.572341
_cell_volume 557.204364
_symmetry_space_group_name_H-M "P -1"
_symmetry_group_IT_number 2
_symmetry_cell_setting 'triclinic'
loop_
_space_group_symop_operation_xyz
x,y,z
-x,-y,-z
loop_
_atom_site_type_symbol
_atom_site_label
_atom_site_fract_x
_atom_site_fract_y
_atom_site_fract_z
Si Si1 0.678539 0.830997 0.816029
Si Si2 0.357901 0.636977 0.933888
Si Si3 0.072910 0.285568 0.330675
Si Si4 0.706994 0.110190 0.952319
Si Si5 0.986740 0.269250 0.844289
Si Si6 0.367326 0.336421 0.573104
Si Si7 0.269431 0.825471 0.394683
O O1 0.544365 0.712710 0.868293
O O2 0.926624 0.819864 0.771111
O O3 0.325202 0.771736 0.710360
O O4 0.842401 0.008528 0.906223
O O5 0.080980 0.443774 0.866973
O O6 0.165734 0.717280 0.956792
O O7 0.672308 0.686487 0.050274
O O8 0.235517 0.279955 0.442688
O O9 0.318410 0.472171 0.359360
O O10 0.640881 0.153489 0.850889
O O11 0.500000 0.000000 0.000000
O O12 0.910834 0.181530 0.722049
O O13 0.488930 0.233770 0.607594
O O14 0.042198 0.301200 0.591988
O O15 0.500000 0.000000 0.500000
#
# Coordination Sequence:
#
# PCOD9048496 Si02
#       7
#     2   2   2   2   2   2   2
#     4  11  25  42  74 106 146 183 238 298 367 423
#     4  10  24  45  69 105 140 193 239 288 355 439
#     4  11  24  44  75 104 139 192 234 304 356 420
#     4  10  25  42  67 102 139 184 234 296 355 423
#     4  11  25  44  73  99 146 191 238 291 359 430
#     4  11  25  47  71 103 143 185 253 290 353 424
#     4  12  28  47  72 107 146 190 240 296 353 426
#
# _framework density 25.125432
#
# number of rings (size 3 to 8) (size 9 to 14) (size 15 to 20)
#    0.000    1.143    0.000    4.286   12.000    3.429 
#    0.000    0.000    0.000    0.000    0.000    0.000 
#    0.000    0.000    0.000    0.000    0.000    0.000 
#
# Total GULP energy -78238.462465 kJ/mol
# GULP energy per Si atom -5588.461605 kJ/mol
# Density = 2.506825 g / cm^3
# Si number density = 25.125432 Si / 1000 Ang^3
#
#
#
# Elastic Constant Matrix: (Units=GPa)
#
#
# Indices 1 2 3 4 5 6 
#
# 1 57.3444 7.7825 27.2180 -2.7692 -7.7726 -13.1330
# 2 7.7825 136.1061 41.2869 2.1164 -8.9928 5.4676
# 3 27.2180 41.2869 137.8461 6.7277 -12.6899 1.8312
# 4 -2.7692 2.1164 6.7277 26.1040 9.1185 -3.3342
# 5 -7.7726 -8.9928 -12.6899 9.1185 47.6403 -4.0284
# 6 -13.1330 5.4676 1.8312 -3.3342 -4.0284 32.6608
#
#
#
# Elastic Compliance Matrix: (Units=1/GPa)
#
#
# Indices 1 2 3 4 5 6 
#
# 1 0.022405 -0.000229 -0.004449 0.003940 0.002520 0.010010
# 2 -0.000229 0.008170 -0.002274 -0.000579 0.000902 -0.001280
# 3 -0.004449 -0.002274 0.009179 -0.003544 0.001794 -0.002063
# 4 0.003940 -0.000579 -0.003544 0.043239 -0.008240 0.005278
# 5 0.002520 0.000902 0.001794 -0.008240 0.023869 0.002864
# 6 0.010010 -0.001280 -0.002063 0.005278 0.002864 0.035865
#
#
# Mechanical properties :
#
#
# Convention : Reuss Voigt Hill
#
# Bulk Modulus (GPa) = 38.68059 53.76349 46.22204
# Shear Modulus (GPa) = 30.25765 38.28163 34.26964
#
# Velocity S-wave (km/s) = 3.47402 3.90759 3.69717
# Velocity P-wave (km/s) = 5.61428 6.46557 6.05490
#
# Compressibility (1/GPa) = 0.02585276
#
# Stress axis : x y z
#
# Youngs Moduli (GPa) = 44.63203 122.39939 108.93981
#
# Poissons Ratio (x) = 0.02797 0.48466
# Poissons Ratio (y) = 0.01020 0.24769
# Poissons Ratio (z) = 0.19856 0.27829
#
# Static dielectric constant tensor:
#      x y z
#    x 2.109590 0.120140 0.108560 
#    y 0.120140 2.000090 0.040260 
#    z 0.108560 0.040260 1.992130 
# 
# From -- ./inp_files/481663.got.cif
#   From: 2010.05.17/outbox.cif.g08.bks.cpg/sg2_241_cif.got.tgz:481663.got - 2010.06.03 11:33:40.
