data_PCOD9048422
_publ_section_title
;
Structure prediction by ZEFSAII (Michael W. Deem and Ramdas Pophale) SiO2 
 PCOD9048422
Probable space group: P -1
;
_chemical_formula_sum "Si O2"
_cell_formula_units_Z 16
_cell_length_a 11.719698
_cell_length_b 9.598326
_cell_length_c 7.693450
_cell_angle_alpha 110.750350
_cell_angle_beta 96.335127
_cell_angle_gamma 121.193151
_cell_volume 643.893259
_symmetry_space_group_name_H-M "P -1"
_symmetry_group_IT_number 2
_symmetry_cell_setting 'triclinic'
loop_
_space_group_symop_operation_xyz
x,y,z
-x,-y,-z
loop_
_atom_site_type_symbol
_atom_site_label
_atom_site_fract_x
_atom_site_fract_y
_atom_site_fract_z
Si Si1 0.843348 0.851216 0.990948
Si Si2 0.843591 0.942466 0.414001
Si Si3 0.551021 0.693056 0.685776
Si Si4 0.162548 0.465443 0.250678
Si Si5 0.722505 0.150266 0.458313
Si Si6 0.743540 0.564426 0.363934
Si Si7 0.155300 0.655923 0.817280
Si Si8 0.439129 0.966675 0.172794
O O1 0.709600 0.796366 0.829184
O O2 0.825177 0.660280 0.936859
O O3 0.828718 0.930643 0.199526
O O4 0.000000 0.000000 0.000000
O O5 0.748368 0.739608 0.391391
O O6 0.807331 0.079723 0.525416
O O7 0.000000 0.000000 0.500000
O O8 0.500000 0.500000 0.500000
O O9 0.421130 0.612630 0.766387
O O10 0.551123 0.856462 0.674204
O O11 0.261765 0.687473 0.355294
O O12 0.205422 0.420431 0.421715
O O13 0.999935 0.397128 0.198562
O O14 0.794514 0.253781 0.329287
O O15 0.559544 0.977167 0.311434
O O16 0.842627 0.522427 0.263204
O O17 0.274167 0.798257 0.038621
O O18 0.500000 0.000000 0.000000
#
# Coordination Sequence:
#
# PCOD9048422 Si02
#       8
#     2   2   2   2   2   2   2   2
#     4  12  25  42  67 101 133 173 220 267 329 395
#     4  12  26  42  65  98 139 172 213 276 334 382
#     4  12  22  40  70 100 131 166 218 282 320 383
#     4  11  20  41  68  94 123 172 226 263 311 394
#     4  10  19  37  62  87 123 170 216 258 313 390
#     4  11  22  41  66 101 130 168 219 270 336 375
#     4  10  19  35  67  92 124 167 226 261 309 390
#     4  10  17  34  58  92 119 160 220 264 302 378
#
# _framework density 24.848838000000001
#
# number of rings (size 3 to 8) (size 9 to 14) (size 15 to 20)
#    0.000    1.000    5.000    6.750    0.000    0.500 
#    0.000    2.500    0.000    1.500    0.000    0.000 
#    0.000    0.000    0.000    0.000    0.000    0.000 
#
# Total GULP energy -89474.572846 kJ/mol
# GULP energy per Si atom -5592.160803 kJ/mol
# Density = 2.479228 g / cm^3
# Si number density = 24.848838 Si / 1000 Ang^3
#
#
#
# Elastic Constant Matrix: (Units=GPa)
#
#
# Indices 1 2 3 4 5 6 
#
# 1 119.9717 13.5171 26.2853 2.2138 34.4799 -16.3291
# 2 13.5171 73.7959 28.4612 0.6329 3.1631 -22.3245
# 3 26.2853 28.4612 69.9404 15.1286 18.3432 3.2308
# 4 2.2138 0.6329 15.1286 34.8303 0.2970 -7.0443
# 5 34.4799 3.1631 18.3432 0.2970 58.8330 16.2922
# 6 -16.3291 -22.3245 3.2308 -7.0443 16.2922 51.2403
#
#
#
# Elastic Compliance Matrix: (Units=1/GPa)
#
#
# Indices 1 2 3 4 5 6 
#
# 1 0.012553 0.002269 -0.004433 0.002844 -0.008419 0.008336
# 2 0.002269 0.021060 -0.010763 0.006658 -0.002546 0.012302
# 3 -0.004433 -0.010763 0.023704 -0.011547 -0.001768 -0.008622
# 4 0.002844 0.006658 -0.011547 0.035423 -0.001325 0.009826
# 5 -0.008419 -0.002546 -0.001768 -0.001325 0.025984 -0.012125
# 6 0.008336 0.012302 -0.008622 0.009826 -0.012125 0.033282
#
#
# Mechanical properties :
#
#
# Convention : Reuss Voigt Hill
#
# Bulk Modulus (GPa) = 31.78512 44.47059 38.12785
# Shear Modulus (GPa) = 26.54659 42.01035 34.27847
#
# Velocity S-wave (km/s) = 3.27207 4.11620 3.71816
# Velocity P-wave (km/s) = 5.20523 6.36601 5.81466
#
# Compressibility (1/GPa) = 0.03146127
#
# Stress axis : x y z
#
# Youngs Moduli (GPa) = 79.66317 47.48302 42.18773
#
# Poissons Ratio (x) = -0.10773 0.18702
# Poissons Ratio (y) = -0.18074 0.45408
# Poissons Ratio (z) = 0.35315 0.51108
#
# Static dielectric constant tensor:
#      x y z
#    x 1.978340 0.057960 -0.043050 
#    y 0.057960 2.033070 0.018590 
#    z -0.043050 0.018590 1.992570 
# 
# From -- ./inp_files/245145.got.cif
#   From: 2010.05.17/outbox.cif.g08.bks.cpg/sg2_123_cif.got.tgz:245145.got - 2010.06.03 11:33:40.
