data_PCOD9048516
_publ_section_title
;
Structure prediction by ZEFSAII (Michael W. Deem and Ramdas Pophale) SiO2 
 PCOD9048516
Probable space group: P -1
;
_chemical_formula_sum "Si O2"
_cell_formula_units_Z 16
_cell_length_a 17.845369
_cell_length_b 21.052392
_cell_length_c 11.945113
_cell_angle_alpha 40.285002
_cell_angle_beta 148.833089
_cell_angle_gamma 160.102877
_cell_volume 767.897797
_symmetry_space_group_name_H-M "P -1"
_symmetry_group_IT_number 2
_symmetry_cell_setting 'triclinic'
loop_
_space_group_symop_operation_xyz
x,y,z
-x,-y,-z
loop_
_atom_site_type_symbol
_atom_site_label
_atom_site_fract_x
_atom_site_fract_y
_atom_site_fract_z
Si Si1 0.712688 0.882451 0.839148
Si Si2 0.923681 0.492414 0.540813
Si Si3 0.096229 0.607755 0.098380
Si Si4 0.513957 0.479530 0.212845
Si Si5 0.396594 0.551704 0.312580
Si Si6 0.724847 0.769646 0.230586
Si Si7 0.973660 0.738516 0.257799
Si Si8 0.630231 0.805451 0.481545
O O1 0.419068 0.697674 0.648008
O O2 0.668905 0.805374 0.005235
O O3 0.786637 0.040136 0.731426
O O4 0.000000 0.000000 0.000000
O O5 0.977022 0.476183 0.755487
O O6 0.068916 0.683829 0.471273
O O7 0.000000 0.500000 0.500000
O O8 0.430566 0.782095 0.282484
O O9 0.000000 0.500000 0.000000
O O10 0.938378 0.620846 0.874242
O O11 0.659521 0.619494 0.313598
O O12 0.745349 0.627015 0.213487
O O13 0.435260 0.320924 0.345071
O O14 0.220882 0.362955 0.964737
O O15 0.500000 0.500000 0.500000
O O16 0.512392 0.671195 0.188892
O O17 0.547681 0.700009 0.404912
O O18 0.047532 0.974109 0.401720
#
# Coordination Sequence:
#
# PCOD9048516 Si02
#       8
#     2   2   2   2   2   2   2   2
#     4  12  22  38  68 103 130 171 224 268 330 410
#     4  12  25  42  67  98 141 177 217 284 346 388
#     4  10  24  45  69  92 136 184 220 273 343 401
#     4  11  20  36  66  98 130 172 220 272 329 396
#     4  11  24  43  70  95 128 178 230 278 338 398
#     4  12  22  38  69 101 133 170 225 279 331 394
#     4  11  22  37  64  99 135 173 221 271 331 402
#     4  11  22  42  69  97 132 178 227 275 328 404
#
# _framework density 20.836106000000001
#
# number of rings (size 3 to 8) (size 9 to 14) (size 15 to 20)
#    0.000    0.750    6.250    2.625    0.000    0.500 
#    0.000    0.625    8.250    0.000    0.000    0.000 
#    0.000    0.000    0.000    0.000    0.000    0.000 
#
# Total GULP energy -89127.351000 kJ/mol
# GULP energy per Si atom -5570.459438 kJ/mol
# Density = 2.078868 g / cm^3
# Si number density = 20.836106 Si / 1000 Ang^3
#
#
#
# Elastic Constant Matrix: (Units=GPa)
#
#
# Indices 1 2 3 4 5 6 
#
# 1 119.9208 31.0282 47.4290 -3.6877 -9.4709 2.5600
# 2 31.0282 57.4081 -3.1151 4.0120 14.9996 -3.7481
# 3 47.4290 -3.1151 84.7735 4.3487 13.1268 2.2888
# 4 -3.6877 4.0120 4.3487 26.5208 2.7110 0.8638
# 5 -9.4709 14.9996 13.1268 2.7110 34.4837 -7.6605
# 6 2.5600 -3.7481 2.2888 0.8638 -7.6605 28.0900
#
#
#
# Elastic Compliance Matrix: (Units=1/GPa)
#
#
# Indices 1 2 3 4 5 6 
#
# 1 0.020496 -0.017142 -0.015392 0.005963 0.018938 0.002080
# 2 -0.017142 0.034532 0.015210 -0.007456 -0.025320 -0.001745
# 3 -0.015392 0.015210 0.024584 -0.006236 -0.020599 -0.003997
# 4 0.005963 -0.007456 -0.006236 0.040337 0.003810 -0.001231
# 5 0.018938 -0.025320 -0.020599 0.003810 0.055321 0.011543
# 6 0.002080 -0.001745 -0.003997 -0.001231 0.011543 0.038689
#
#
# Mechanical properties :
#
#
# Convention : Reuss Voigt Hill
#
# Bulk Modulus (GPa) = 22.23960 45.86518 34.05239
# Shear Modulus (GPa) = 18.96849 30.26960 24.61904
#
# Velocity S-wave (km/s) = 3.02050 3.81563 3.44111
# Velocity P-wave (km/s) = 4.78135 6.43989 5.67157
#
# Compressibility (1/GPa) = 0.04496483
#
# Stress axis : x y z
#
# Youngs Moduli (GPa) = 48.78921 28.95824 40.67693
#
# Poissons Ratio (x) = 0.49641 0.62609
# Poissons Ratio (y) = 0.83636 -0.61870
# Poissons Ratio (z) = 0.75095 -0.44046
#
# Static dielectric constant tensor:
#      x y z
#    x 1.932720 0.037640 -0.096110 
#    y 0.037640 1.707950 -0.049570 
#    z -0.096110 -0.049570 1.859980 
# 
# From -- ./inp_files/283397.got.cif
#   From: 2010.05.17/outbox.cif.g08.bks.cpg/sg2_142_cif.got.tgz:283397.got - 2010.06.03 11:33:40.
