data_PCOD9048089
_publ_section_title
;
Structure prediction by ZEFSAII (Michael W. Deem and Ramdas Pophale) SiO2 
 PCOD9048089
Probable space group: P -1
;
_chemical_formula_sum "Si O2"
_cell_formula_units_Z 16
_cell_length_a 9.730892
_cell_length_b 11.634758
_cell_length_c 22.215666
_cell_angle_alpha 140.516128
_cell_angle_beta 152.520957
_cell_angle_gamma 49.634077
_cell_volume 732.047236
_symmetry_space_group_name_H-M "P -1"
_symmetry_group_IT_number 2
_symmetry_cell_setting 'triclinic'
loop_
_space_group_symop_operation_xyz
x,y,z
-x,-y,-z
loop_
_atom_site_type_symbol
_atom_site_label
_atom_site_fract_x
_atom_site_fract_y
_atom_site_fract_z
Si Si1 0.545236 0.970339 0.202136
Si Si2 0.316542 0.613792 0.151306
Si Si3 0.346988 0.998025 0.374777
Si Si4 0.749182 0.406910 0.023648
Si Si5 0.129159 0.528636 0.627608
Si Si6 0.318276 0.944020 0.847165
Si Si7 0.684448 0.346532 0.479729
Si Si8 0.109771 0.742399 0.352001
O O1 0.529988 0.021209 0.145539
O O2 0.540528 0.152508 0.315108
O O3 0.863496 0.881724 0.298013
O O4 0.289868 0.803674 0.054557
O O5 0.360327 0.828000 0.267765
O O6 0.573176 0.549821 0.267027
O O7 0.332229 0.585956 0.074918
O O8 0.000000 0.500000 0.000000
O O9 0.500000 0.000000 0.500000
O O10 0.547865 0.168897 0.491201
O O11 0.996284 0.977685 0.245033
O O12 0.040513 0.550729 0.211303
O O13 0.500000 0.500000 0.000000
O O14 0.217909 0.739542 0.743857
O O15 0.000000 0.500000 0.500000
O O16 0.875588 0.450253 0.543336
O O17 0.500000 0.000000 0.000000
O O18 0.500000 0.500000 0.500000
O O19 0.903314 0.296710 0.597954
#
# Coordination Sequence:
#
# PCOD9048089 Si02
#       8
#     2   2   2   2   2   2   2   2
#     4  11  23  48  72 105 144 195 247 301 366 442
#     4  12  26  44  76 108 146 191 250 306 367 438
#     4  12  23  45  72 109 143 188 250 308 358 440
#     4  10  24  44  73 106 144 188 242 304 363 430
#     4  12  25  47  70 105 149 193 239 299 375 433
#     4  12  27  44  73 105 150 194 238 302 376 441
#     4  12  26  46  72 110 149 192 243 307 372 443
#     4  11  23  44  78 103 144 190 254 301 364 432
#
# _framework density 21.856513
#
# number of rings (size 3 to 8) (size 9 to 14) (size 15 to 20)
#    0.000    0.500    2.500    6.375    7.000    1.000 
#    2.250    0.625    0.000    0.000    0.000    0.000 
#    0.000    0.000    0.000    0.000    0.000    0.000 
#
# Total GULP energy -89268.875983 kJ/mol
# GULP energy per Si atom -5579.304749 kJ/mol
# Density = 2.180677 g / cm^3
# Si number density = 21.856513 Si / 1000 Ang^3
#
#
#
# Elastic Constant Matrix: (Units=GPa)
#
#
# Indices 1 2 3 4 5 6 
#
# 1 142.3091 37.2142 74.0159 3.3663 -20.7913 21.5334
# 2 37.2142 69.8549 55.2642 26.4537 -5.7414 5.5467
# 3 74.0159 55.2642 195.2735 30.5842 -23.8757 0.3878
# 4 3.3663 26.4537 30.5842 44.8962 1.6023 1.4183
# 5 -20.7913 -5.7414 -23.8757 1.6023 48.0993 2.1563
# 6 21.5334 5.5467 0.3878 1.4183 2.1563 35.9095
#
#
#
# Elastic Compliance Matrix: (Units=1/GPa)
#
#
# Indices 1 2 3 4 5 6 
#
# 1 0.011075 -0.004022 -0.003313 0.003895 0.002816 -0.006307
# 2 -0.004022 0.023388 -0.003373 -0.011151 -0.000218 -0.000711
# 3 -0.003313 -0.003373 0.008140 -0.003464 0.002212 0.002424
# 4 0.003895 -0.011151 -0.003464 0.031048 -0.002327 -0.001662
# 5 0.002816 -0.000218 0.002212 -0.002327 0.023291 -0.002985
# 6 -0.006307 -0.000711 0.002424 -0.001662 -0.002985 0.031959
#
#
# Mechanical properties :
#
#
# Convention : Reuss Voigt Hill
#
# Bulk Modulus (GPa) = 47.19942 82.26954 64.73448
# Shear Modulus (GPa) = 31.77032 41.84390 36.80711
#
# Velocity S-wave (km/s) = 3.81673 4.38023 4.10815
# Velocity P-wave (km/s) = 6.40822 7.95640 7.22390
#
# Compressibility (1/GPa) = 0.02118670
#
# Stress axis : x y z
#
# Youngs Moduli (GPa) = 90.28938 42.75669 122.85400
#
# Poissons Ratio (x) = 0.17197 0.40701
# Poissons Ratio (y) = 0.36315 0.41442
# Poissons Ratio (z) = 0.29913 0.14423
#
# Static dielectric constant tensor:
#      x y z
#    x 1.788790 -0.050760 0.048650 
#    y -0.050760 1.781380 0.012550 
#    z 0.048650 0.012550 1.768240 
# 
# From -- ./inp_files/589671.got.cif
#   From: 2010.05.17/outbox.cif.g08.bks.cpg/sg2_295_cif.got.tgz:589671.got - 2010.06.03 11:33:40.
