data_PCOD9048805
_publ_section_title
;
Structure prediction by ZEFSAII (Michael W. Deem and Ramdas Pophale) SiO2 
 PCOD9048805
Probable space group: P -1
;
_chemical_formula_sum "Si O2"
_cell_formula_units_Z 13
_cell_length_a 9.679633
_cell_length_b 12.615745
_cell_length_c 16.564009
_cell_angle_alpha 21.226272
_cell_angle_beta 49.885894
_cell_angle_gamma 43.989259
_cell_volume 505.822225
_symmetry_space_group_name_H-M "P -1"
_symmetry_group_IT_number 2
_symmetry_cell_setting 'triclinic'
loop_
_space_group_symop_operation_xyz
x,y,z
-x,-y,-z
loop_
_atom_site_type_symbol
_atom_site_label
_atom_site_fract_x
_atom_site_fract_y
_atom_site_fract_z
Si Si1 0.064903 0.778265 0.373971
Si Si2 0.755267 0.593891 0.206014
Si Si3 0.284966 0.132056 0.446386
Si Si4 0.157007 0.444292 0.112797
Si Si5 0.837687 0.118295 0.907114
Si Si6 0.500000 0.500000 0.500000
Si Si7 0.608603 0.587764 0.103663
O O1 0.107117 0.711421 0.309923
O O2 0.277578 0.621287 0.450158
O O3 0.898595 0.706624 0.536325
O O4 0.955785 0.172944 0.135607
O O5 0.617806 0.460304 0.397846
O O6 0.639241 0.760324 0.049431
O O7 0.973959 0.353282 0.262345
O O8 0.801211 0.828994 0.082435
O O9 0.281775 0.798377 0.652364
O O10 0.500000 0.000000 0.500000
O O11 0.272302 0.359520 0.214119
O O12 0.301793 0.300534 0.084911
O O13 0.622897 0.323407 0.881821
O O14 0.000000 0.000000 0.000000
#
# Coordination Sequence:
#
# PCOD9048805 Si02
#       7
#     2   2   2   2   2   1   2
#     4  10  24  46  73 106 145 188 242 298 361 429
#     4  11  24  47  70 103 146 184 240 301 356 431
#     4  11  26  46  71 106 150 191 241 295 360 436
#     4  10  24  45  73 102 143 191 236 295 361 421
#     4  11  26  46  74 105 142 190 243 298 368 428
#     4  12  22  44  76 108 142 188 240 298 362 426
#     4  11  25  44  72 107 140 190 243 293 360 432
#
# _framework density 25.700728999999999
#
# number of rings (size 3 to 8) (size 9 to 14) (size 15 to 20)
#    0.000    1.231    3.077    0.923    8.615    3.077 
#    0.000    1.538    0.000    0.000    0.000    0.000 
#    0.000    0.000    0.000    0.000    0.000    0.000 
#
# Total GULP energy -72489.281962 kJ/mol
# GULP energy per Si atom -5576.098612 kJ/mol
# Density = 2.564223 g / cm^3
# Si number density = 25.700729 Si / 1000 Ang^3
#
#
#
# Elastic Constant Matrix: (Units=GPa)
#
#
# Indices 1 2 3 4 5 6 
#
# 1 194.4311 95.7587 57.9590 17.0415 56.5432 -18.3079
# 2 95.7587 213.0850 74.6364 69.8492 21.3462 -29.0670
# 3 57.9590 74.6364 104.2875 26.7580 14.5019 -6.3380
# 4 17.0415 69.8492 26.7580 61.5953 14.4276 -7.7497
# 5 56.5432 21.3462 14.5019 14.4276 56.3192 -3.9222
# 6 -18.3079 -29.0670 -6.3380 -7.7497 -3.9222 52.3200
#
#
#
# Elastic Compliance Matrix: (Units=1/GPa)
#
#
# Indices 1 2 3 4 5 6 
#
# 1 0.010621 -0.004677 -0.002671 0.005905 -0.009649 0.000946
# 2 -0.004677 0.011515 -0.003226 -0.010957 0.004182 0.003060
# 3 -0.002671 -0.003226 0.013681 -0.001890 0.000776 -0.001291
# 4 0.005905 -0.010957 -0.001890 0.029889 -0.008980 -0.000496
# 5 -0.009649 0.004182 0.000776 -0.008980 0.027946 -0.000194
# 6 0.000946 0.003060 -0.001291 -0.000496 -0.000194 0.020900
#
#
# Mechanical properties :
#
#
# Convention : Reuss Voigt Hill
#
# Bulk Modulus (GPa) = 68.17511 107.61243 87.89377
# Shear Modulus (GPa) = 35.56481 52.94353 44.25417
#
# Velocity S-wave (km/s) = 3.72399 4.54365 4.15408
# Velocity P-wave (km/s) = 6.71379 8.33598 7.56847
#
# Compressibility (1/GPa) = 0.01466811
#
# Stress axis : x y z
#
# Youngs Moduli (GPa) = 94.15637 86.84198 73.09662
#
# Poissons Ratio (x) = 0.40620 0.19523
# Poissons Ratio (y) = 0.44041 0.23579
# Poissons Ratio (z) = 0.25148 0.28013
#
# Static dielectric constant tensor:
#      x y z
#    x 2.039500 0.045810 -0.083510 
#    y 0.045810 2.116520 -0.189560 
#    z -0.083510 -0.189560 2.533310 
# 
# From -- ./inp_files/495978.got.cif
#   From: 2010.05.17/outbox.cif.g08.bks.cpg/sg2_248_cif.got.tgz:495978.got - 2010.06.03 11:33:40.
