data_PCOD9048810
_publ_section_title
;
Structure prediction by ZEFSAII (Michael W. Deem and Ramdas Pophale) SiO2 
 PCOD9048810
Probable space group: P -1
;
_chemical_formula_sum "Si O2"
_cell_formula_units_Z 16
_cell_length_a 13.769801
_cell_length_b 9.673122
_cell_length_c 5.630777
_cell_angle_alpha 66.408198
_cell_angle_beta 88.537801
_cell_angle_gamma 74.968541
_cell_volume 661.198318
_symmetry_space_group_name_H-M "P -1"
_symmetry_group_IT_number 2
_symmetry_cell_setting 'triclinic'
loop_
_space_group_symop_operation_xyz
x,y,z
-x,-y,-z
loop_
_atom_site_type_symbol
_atom_site_label
_atom_site_fract_x
_atom_site_fract_y
_atom_site_fract_z
Si Si1 0.207930 0.109599 0.708442
Si Si2 0.047453 0.381241 0.372084
Si Si3 0.857092 0.405340 0.037983
Si Si4 0.887038 0.112331 0.897161
Si Si5 0.356396 0.323170 0.568769
Si Si6 0.550213 0.817101 0.852656
Si Si7 0.361824 0.914528 0.494459
Si Si8 0.269905 0.653179 0.530856
O O1 0.095915 0.211941 0.586973
O O2 0.273232 0.227764 0.688796
O O3 0.256194 0.016786 0.535479
O O4 0.192399 0.989702 0.988560
O O5 0.000000 0.500000 0.500000
O O6 0.959598 0.382515 0.196114
O O7 0.137769 0.443007 0.215714
O O8 0.756416 0.433460 0.176346
O O9 0.871178 0.246082 0.004829
O O10 0.839327 0.224130 0.602718
O O11 0.000000 0.000000 0.000000
O O12 0.403364 0.268579 0.342151
O O13 0.310832 0.511270 0.444432
O O14 0.426717 0.274039 0.835812
O O15 0.432519 0.872954 0.753180
O O16 0.590562 0.973556 0.746384
O O17 0.347157 0.756322 0.494181
#
# Coordination Sequence:
#
# PCOD9048810 Si02
#       8
#     2   2   2   2   2   2   2   2
#     4  11  23  43  71 101 135 192 237 296 354 435
#     4  11  24  44  67  98 137 186 238 287 358 414
#     4  11  24  42  66  95 142 180 232 296 345 429
#     4  12  26  41  66 101 143 184 238 295 362 419
#     4  11  26  45  78 103 145 188 246 296 368 439
#     4  10  25  49  74 108 142 194 236 304 372 438
#     4  10  24  45  73 103 145 184 241 301 366 438
#     4  12  26  43  69 105 140 189 237 301 356 436
#
# _framework density 24.198487
#
# number of rings (size 3 to 8) (size 9 to 14) (size 15 to 20)
#    0.000    1.000    1.250    4.500    7.000    8.500 
#    0.000    0.000    0.000    0.000    0.000    0.000 
#    0.000    0.000    0.000    0.000    0.000    0.000 
#
# Total GULP energy -89460.059695 kJ/mol
# GULP energy per Si atom -5591.253731 kJ/mol
# Density = 2.414341 g / cm^3
# Si number density = 24.198487 Si / 1000 Ang^3
#
#
#
# Elastic Constant Matrix: (Units=GPa)
#
#
# Indices 1 2 3 4 5 6 
#
# 1 55.9923 42.0188 16.0416 4.2736 -0.3408 11.5603
# 2 42.0188 129.3055 25.3567 -7.6770 -10.5373 25.4597
# 3 16.0416 25.3567 97.5234 -6.0282 10.2374 -1.6027
# 4 4.2736 -7.6770 -6.0282 30.2609 0.7984 6.7536
# 5 -0.3408 -10.5373 10.2374 0.7984 37.2964 0.6558
# 6 11.5603 25.4597 -1.6027 6.7536 0.6558 20.5803
#
#
#
# Elastic Compliance Matrix: (Units=1/GPa)
#
#
# Indices 1 2 3 4 5 6 
#
# 1 0.025244 -0.007417 -0.002493 -0.005140 -0.001009 -0.003481
# 2 -0.007417 0.015094 -0.003038 0.008052 0.005167 -0.017550
# 3 -0.002493 -0.003038 0.012052 0.000760 -0.004311 0.005985
# 4 -0.005140 0.008052 0.000760 0.040466 0.001511 -0.020342
# 5 -0.001009 0.005167 -0.004311 0.001511 0.029547 -0.007598
# 6 -0.003481 -0.017550 0.005985 -0.020342 -0.007598 0.079640
#
#
# Mechanical properties :
#
#
# Convention : Reuss Voigt Hill
#
# Bulk Modulus (GPa) = 37.74228 49.96171 43.85199
# Shear Modulus (GPa) = 21.11752 30.92112 26.01932
#
# Velocity S-wave (km/s) = 2.95732 3.57853 3.28265
# Velocity P-wave (km/s) = 5.22416 6.14540 5.70341
#
# Compressibility (1/GPa) = 0.02649548
#
# Stress axis : x y z
#
# Youngs Moduli (GPa) = 39.61302 66.25127 82.97591
#
# Poissons Ratio (x) = 0.49135 0.20686
# Poissons Ratio (y) = 0.29379 0.25205
# Poissons Ratio (z) = 0.09876 0.20125
#
# Static dielectric constant tensor:
#      x y z
#    x 1.803860 0.051190 -0.172710 
#    y 0.051190 1.836700 0.107540 
#    z -0.172710 0.107540 1.753740 
# 
# From -- ./inp_files/89921.got.cif
#   From: 2010.05.17/outbox.cif.g08.bks.cpg/sg2_45_cif.got.tgz:89921.got - 2010.06.03 11:33:40.
