data_PCOD9048714
_publ_section_title
;
Structure prediction by ZEFSAII (Michael W. Deem and Ramdas Pophale) SiO2 
 PCOD9048714
Probable space group: P -1
;
_chemical_formula_sum "Si O2"
_cell_formula_units_Z 16
_cell_length_a 18.840748
_cell_length_b 9.219247
_cell_length_c 15.403235
_cell_angle_alpha 140.161476
_cell_angle_beta 140.882504
_cell_angle_gamma 28.320179
_cell_volume 767.927656
_symmetry_space_group_name_H-M "P -1"
_symmetry_group_IT_number 2
_symmetry_cell_setting 'triclinic'
loop_
_space_group_symop_operation_xyz
x,y,z
-x,-y,-z
loop_
_atom_site_type_symbol
_atom_site_label
_atom_site_fract_x
_atom_site_fract_y
_atom_site_fract_z
Si Si1 0.782880 0.363017 0.026809
Si Si2 0.679249 0.161439 0.506884
Si Si3 0.819247 0.752079 0.971395
Si Si4 0.104773 0.468642 0.508081
Si Si5 0.180970 0.165507 0.698019
Si Si6 0.774072 0.223852 0.277505
Si Si7 0.562255 0.318927 0.883984
Si Si8 0.132121 0.794651 0.160419
O O1 0.755525 0.673426 0.144514
O O2 0.639962 0.422722 0.957737
O O3 0.812782 0.231448 0.897261
O O4 0.940994 0.085862 0.106842
O O5 0.500000 0.500000 0.500000
O O6 0.793725 0.163553 0.672525
O O7 0.719838 0.868285 0.459408
O O8 0.733195 0.047871 0.406130
O O9 0.794352 0.002370 0.123255
O O10 0.802846 0.547271 0.915713
O O11 0.000000 0.500000 0.000000
O O12 0.698439 0.946015 0.865711
O O13 0.117854 0.718450 0.622023
O O14 0.000000 0.500000 0.500000
O O15 0.006005 0.528029 0.358333
O O16 0.191778 0.955389 0.683300
O O17 0.589499 0.555947 0.253622
O O18 0.500000 0.500000 0.000000
#
# Coordination Sequence:
#
# PCOD9048714 Si02
#       8
#     2   2   2   2   2   2   2   2
#     4  11  23  45  73 104 139 184 239 283 347 408
#     4  11  27  42  68 103 139 182 227 286 353 407
#     4  11  23  40  69  98 138 180 225 285 342 410
#     4  10  24  45  71  90 133 185 229 274 332 428
#     4  11  24  45  72  97 135 191 230 282 336 430
#     4  11  25  45  64 107 132 180 236 283 349 404
#     4  10  25  39  65 102 139 173 225 294 343 406
#     4  11  24  44  71 106 140 179 237 292 341 413
#
# _framework density 20.835297000000001
#
# number of rings (size 3 to 8) (size 9 to 14) (size 15 to 20)
#    0.000    1.250    3.750    0.375   14.000    1.500 
#    0.000    0.625    0.000    0.000    0.000    0.000 
#    0.000    0.000    0.000    0.000    0.000    0.000 
#
# Total GULP energy -89238.476084 kJ/mol
# GULP energy per Si atom -5577.404755 kJ/mol
# Density = 2.078788 g / cm^3
# Si number density = 20.835297 Si / 1000 Ang^3
#
#
#
# Elastic Constant Matrix: (Units=GPa)
#
#
# Indices 1 2 3 4 5 6 
#
# 1 113.6256 38.5467 38.9847 -1.5002 13.8542 10.7537
# 2 38.5467 124.8477 6.8745 -11.7444 -3.8674 10.1684
# 3 38.9847 6.8745 71.7957 5.7840 6.5031 -5.3897
# 4 -1.5002 -11.7444 5.7840 32.6059 7.3313 -0.9886
# 5 13.8542 -3.8674 6.5031 7.3313 33.8005 10.1043
# 6 10.7537 10.1684 -5.3897 -0.9886 10.1043 32.5668
#
#
#
# Elastic Compliance Matrix: (Units=1/GPa)
#
#
# Indices 1 2 3 4 5 6 
#
# 1 0.013049 -0.003391 -0.006762 0.001333 -0.003781 -0.003155
# 2 -0.003391 0.009573 0.000286 0.002570 0.002639 -0.002563
# 3 -0.006762 0.000286 0.018394 -0.002895 -0.001798 0.005658
# 4 0.001333 0.002570 -0.002895 0.033916 -0.007544 0.001648
# 5 -0.003781 0.002639 -0.001798 -0.007544 0.036869 -0.011541
# 6 -0.003155 -0.002563 0.005658 0.001648 -0.011541 0.037115
#
#
# Mechanical properties :
#
#
# Convention : Reuss Voigt Hill
#
# Bulk Modulus (GPa) = 46.99017 53.23120 50.11068
# Shear Modulus (GPa) = 28.45026 34.85218 31.65122
#
# Velocity S-wave (km/s) = 3.69925 4.09436 3.90181
# Velocity P-wave (km/s) = 6.39125 6.92501 6.66348
#
# Compressibility (1/GPa) = 0.02128105
#
# Stress axis : x y z
#
# Youngs Moduli (GPa) = 76.63584 104.45749 54.36624
#
# Poissons Ratio (x) = 0.35423 0.36765
# Poissons Ratio (y) = 0.25988 -0.01556
# Poissons Ratio (z) = 0.51825 -0.02990
#
# Static dielectric constant tensor:
#      x y z
#    x 1.777470 0.012600 0.022200 
#    y 0.012600 1.845630 0.000430 
#    z 0.022200 0.000430 1.789280 
# 
# From -- ./inp_files/537684.got.cif
#   From: 2010.05.17/outbox.cif.g08.bks.cpg/sg2_269_cif.got.tgz:537684.got - 2010.06.03 11:33:40.
