data_PCOD9048475
_publ_section_title
;
Structure prediction by ZEFSAII (Michael W. Deem and Ramdas Pophale) SiO2 
 PCOD9048475
Probable space group: P -1
;
_chemical_formula_sum "Si O2"
_cell_formula_units_Z 16
_cell_length_a 11.854146
_cell_length_b 12.345445
_cell_length_c 11.198248
_cell_angle_alpha 80.418462
_cell_angle_beta 134.885114
_cell_angle_gamma 62.890818
_cell_volume 654.693023
_symmetry_space_group_name_H-M "P -1"
_symmetry_group_IT_number 2
_symmetry_cell_setting 'triclinic'
loop_
_space_group_symop_operation_xyz
x,y,z
-x,-y,-z
loop_
_atom_site_type_symbol
_atom_site_label
_atom_site_fract_x
_atom_site_fract_y
_atom_site_fract_z
Si Si1 0.578681 0.047963 0.956837
Si Si2 0.855449 0.099513 0.248450
Si Si3 0.867800 0.307723 0.713385
Si Si4 0.992418 0.413578 0.406669
Si Si5 0.178326 0.150454 0.206781
Si Si6 0.395909 0.516612 0.751529
Si Si7 0.293163 0.845046 0.406239
Si Si8 0.733064 0.531298 0.953995
O O1 0.310031 0.213216 0.643396
O O2 0.639069 0.124371 0.059178
O O3 0.500000 0.000000 0.000000
O O4 0.857379 0.865834 0.128474
O O5 0.667039 0.312112 0.051560
O O6 0.000000 0.000000 0.500000
O O7 0.077247 0.974107 0.331064
O O8 0.662595 0.482945 0.431795
O O9 0.735738 0.261423 0.650902
O O10 0.994461 0.291014 0.928438
O O11 0.856204 0.383538 0.373566
O O12 0.000000 0.500000 0.500000
O O13 0.825608 0.540219 0.140800
O O14 0.500000 0.000000 0.500000
O O15 0.207677 0.001036 0.240402
O O16 0.983027 0.310872 0.136356
O O17 0.472743 0.600246 0.783290
O O18 0.602817 0.678493 0.724589
#
# Coordination Sequence:
#
# PCOD9048475 Si02
#       8
#     2   2   2   2   2   2   2   2
#     4  11  23  40  64 102 140 180 221 283 352 404
#     4  11  23  40  67  99 138 186 228 279 345 412
#     4  10  24  45  69 102 138 180 237 277 350 418
#     4  12  24  41  65 101 143 178 223 289 351 414
#     4  12  26  48  72 100 138 184 231 296 344 412
#     4  11  22  43  67 102 134 182 230 285 344 413
#     4  10  24  46  68 100 136 181 236 284 342 414
#     4  11  26  46  70 101 136 185 236 282 352 415
#
# _framework density 24.438935000000001
#
# number of rings (size 3 to 8) (size 9 to 14) (size 15 to 20)
#    0.000    1.000    3.750    2.250    1.750    4.500 
#    4.500    0.000    0.000    0.000    0.000    0.000 
#    0.000    0.000    0.000    0.000    0.000    0.000 
#
# Total GULP energy -89437.481767 kJ/mol
# GULP energy per Si atom -5589.842610 kJ/mol
# Density = 2.438331 g / cm^3
# Si number density = 24.438935 Si / 1000 Ang^3
#
#
#
# Elastic Constant Matrix: (Units=GPa)
#
#
# Indices 1 2 3 4 5 6 
#
# 1 40.8794 3.9256 25.8468 6.7923 -4.7681 -1.2068
# 2 3.9256 36.7925 12.4807 4.8062 -4.4711 -5.5699
# 3 25.8468 12.4807 168.1580 13.1243 -21.0578 -9.1570
# 4 6.7923 4.8062 13.1243 45.0272 -7.4558 -9.0104
# 5 -4.7681 -4.4711 -21.0578 -7.4558 44.8711 -0.6496
# 6 -1.2068 -5.5699 -9.1570 -9.0104 -0.6496 24.7037
#
#
#
# Elastic Compliance Matrix: (Units=1/GPa)
#
#
# Indices 1 2 3 4 5 6 
#
# 1 0.027599 -0.001390 -0.003929 -0.003111 0.000411 -0.001545
# 2 -0.001390 0.029009 -0.001294 -0.001037 0.002046 0.005669
# 3 -0.003929 -0.001294 0.007141 -0.000482 0.002755 0.002060
# 4 -0.003111 -0.001037 -0.000482 0.025289 0.003669 0.008756
# 5 0.000411 0.002046 0.002755 0.003669 0.024486 0.003484
# 6 -0.001545 0.005669 0.002060 0.008756 0.003484 0.045731
#
#
# Mechanical properties :
#
#
# Convention : Reuss Voigt Hill
#
# Bulk Modulus (GPa) = 19.79218 36.70403 28.24810
# Shear Modulus (GPa) = 26.41013 36.49220 31.45116
#
# Velocity S-wave (km/s) = 3.29090 3.86839 3.59127
# Velocity P-wave (km/s) = 4.74934 5.91640 5.36470
#
# Compressibility (1/GPa) = 0.05052502
#
# Stress axis : x y z
#
# Youngs Moduli (GPa) = 36.23323 34.47244 140.02678
#
# Poissons Ratio (x) = 0.04790 0.55014
# Poissons Ratio (y) = 0.05035 0.18115
# Poissons Ratio (z) = 0.14235 0.04460
#
# Static dielectric constant tensor:
#      x y z
#    x 1.665890 -0.585790 0.180640 
#    y -0.585790 0.770100 0.414360 
#    z 0.180640 0.414360 1.830990 
# 
# From -- ./inp_files/428244.got.cif
#   From: 2010.05.17/outbox.cif.g08.bks.cpg/sg2_215_cif.got.tgz:428244.got - 2010.06.03 11:33:40.
