data_PCOD9048062
_publ_section_title
;
Structure prediction by ZEFSAII (Michael W. Deem and Ramdas Pophale) SiO2 
 PCOD9048062
Probable space group: P -1
;
_chemical_formula_sum "Si O2"
_cell_formula_units_Z 14
_cell_length_a 5.946565
_cell_length_b 11.896781
_cell_length_c 13.366215
_cell_angle_alpha 130.731363
_cell_angle_beta 64.639921
_cell_angle_gamma 127.857208
_cell_volume 565.131942
_symmetry_space_group_name_H-M "P -1"
_symmetry_group_IT_number 2
_symmetry_cell_setting 'triclinic'
loop_
_space_group_symop_operation_xyz
x,y,z
-x,-y,-z
loop_
_atom_site_type_symbol
_atom_site_label
_atom_site_fract_x
_atom_site_fract_y
_atom_site_fract_z
Si Si1 0.150646 0.378562 0.912160
Si Si2 0.803082 0.223433 0.492174
Si Si3 0.359440 0.519426 0.637348
Si Si4 0.355362 0.372703 0.152551
Si Si5 0.732815 0.203136 0.262958
Si Si6 0.382368 0.874830 0.043156
Si Si7 0.825569 0.912100 0.383169
O O1 0.490307 0.503354 0.899784
O O2 0.098961 0.227417 0.755377
O O3 0.958086 0.252832 0.965302
O O4 0.000000 0.500000 0.000000
O O5 0.796544 0.266968 0.402196
O O6 0.502987 0.169162 0.569094
O O7 0.032718 0.378781 0.604619
O O8 0.875246 0.068101 0.391220
O O9 0.500000 0.500000 0.500000
O O10 0.494774 0.510935 0.710224
O O11 0.404578 0.706139 0.722557
O O12 0.028919 0.265531 0.184848
O O13 0.468881 0.239565 0.046642
O O14 0.510735 0.004028 0.187381
O O15 0.500000 0.000000 0.000000
O O16 0.000000 0.000000 0.500000
#
# Coordination Sequence:
#
# PCOD9048062 Si02
#       7
#     2   2   2   2   2   2   2
#     4  10  24  44  72  99 138 188 232 293 361 421
#     4  11  26  40  69 115 136 192 235 291 368 425
#     4  12  25  40  68 102 146 180 232 291 355 422
#     4  11  24  46  70 102 142 185 234 293 362 421
#     4  12  25  43  72 104 141 181 245 292 355 432
#     4  11  24  46  72  99 134 190 239 293 358 423
#     4  11  24  45  73 101 152 184 238 297 359 433
#
# _framework density 24.772974999999999
#
# number of rings (size 3 to 8) (size 9 to 14) (size 15 to 20)
#    0.000    0.857    2.857    3.429    8.000    1.143 
#    0.000    0.714    0.000    0.000    0.000    0.000 
#    0.000    0.000    0.000    0.000    0.000    0.000 
#
# Total GULP energy -78209.122066 kJ/mol
# GULP energy per Si atom -5586.365862 kJ/mol
# Density = 2.471659 g / cm^3
# Si number density = 24.772975 Si / 1000 Ang^3
#
#
#
# Elastic Constant Matrix: (Units=GPa)
#
#
# Indices 1 2 3 4 5 6 
#
# 1 34.8471 20.6897 10.9241 -3.7802 8.1447 12.1576
# 2 20.6897 157.0924 29.8325 -16.5955 3.0059 12.9129
# 3 10.9241 29.8325 101.7528 21.1639 -15.2515 -3.1168
# 4 -3.7802 -16.5955 21.1639 46.9560 -0.1099 0.5440
# 5 8.1447 3.0059 -15.2515 -0.1099 34.7734 -4.1978
# 6 12.1576 12.9129 -3.1168 0.5440 -4.1978 54.5082
#
#
#
# Elastic Compliance Matrix: (Units=1/GPa)
#
#
# Indices 1 2 3 4 5 6 
#
# 1 0.039310 -0.002191 -0.007037 0.005644 -0.013261 -0.009729
# 2 -0.002191 0.007880 -0.003247 0.004088 -0.001790 -0.001742
# 3 -0.007037 -0.003247 0.014722 -0.008375 0.008836 0.003945
# 4 0.005644 0.004088 -0.008375 0.026997 -0.005675 -0.003413
# 5 -0.013261 -0.001790 0.008836 -0.005675 0.036693 0.006769
# 6 -0.009729 -0.001742 0.003945 -0.003413 0.006769 0.021709
#
#
# Mechanical properties :
#
#
# Convention : Reuss Voigt Hill
#
# Bulk Modulus (GPa) = 27.05542 46.28721 36.67131
# Shear Modulus (GPa) = 27.08806 42.73059 34.90933
#
# Velocity S-wave (km/s) = 3.31033 4.15768 3.75796
# Velocity P-wave (km/s) = 5.05530 6.46325 5.80214
#
# Compressibility (1/GPa) = 0.03696118
#
# Stress axis : x y z
#
# Youngs Moduli (GPa) = 25.43899 126.89963 67.92369
#
# Poissons Ratio (x) = 0.27806 0.47800
# Poissons Ratio (y) = 0.05574 0.22055
# Poissons Ratio (z) = 0.17902 0.41205
#
# Static dielectric constant tensor:
#      x y z
#    x 1.970940 -0.024730 0.008510 
#    y -0.024730 1.977330 -0.059960 
#    z 0.008510 -0.059960 2.024430 
# 
# From -- ./inp_files/81559.got.cif
#   From: 2010.05.17/outbox.cif.g08.bks.cpg/sg2_41_cif.got.tgz:81559.got - 2010.06.03 11:33:40.
