data_PCOD9048915
_publ_section_title
;
Structure prediction by ZEFSAII (Michael W. Deem and Ramdas Pophale) SiO2 
 PCOD9048915
Probable space group: P -1
;
_chemical_formula_sum "Si O2"
_cell_formula_units_Z 13
_cell_length_a 11.388732
_cell_length_b 8.749544
_cell_length_c 5.217263
_cell_angle_alpha 79.368949
_cell_angle_beta 102.929618
_cell_angle_gamma 108.279279
_cell_volume 477.446857
_symmetry_space_group_name_H-M "P -1"
_symmetry_group_IT_number 2
_symmetry_cell_setting 'triclinic'
loop_
_space_group_symop_operation_xyz
x,y,z
-x,-y,-z
loop_
_atom_site_type_symbol
_atom_site_label
_atom_site_fract_x
_atom_site_fract_y
_atom_site_fract_z
Si Si1 0.201219 0.416487 0.034996
Si Si2 0.388577 0.854118 0.603641
Si Si3 0.438101 0.341211 0.176593
Si Si4 0.883980 0.185791 0.737974
Si Si5 0.878364 0.774268 0.462619
Si Si6 0.000000 0.500000 0.000000
Si Si7 0.723629 0.966624 0.128420
O O1 0.326363 0.398425 0.233976
O O2 0.101656 0.326087 0.242167
O O3 0.190770 0.336232 0.777118
O O4 0.150175 0.569579 0.937469
O O5 0.444610 0.704152 0.632004
O O6 0.253650 0.819602 0.420814
O O7 0.500000 0.000000 0.500000
O O8 0.355755 0.916359 0.845916
O O9 0.500000 0.500000 0.000000
O O10 0.369316 0.178589 0.033568
O O11 0.983719 0.141740 0.608907
O O12 0.959498 0.369437 0.786970
O O13 0.845123 0.057593 0.991586
O O14 0.783197 0.885218 0.414807
#
# Coordination Sequence:
#
# PCOD9048915 Si02
#       7
#     2   2   2   2   2   1   2
#     4  10  24  47  73 110 152 195 253 322 386 458
#     4  12  26  46  77 109 153 208 263 312 389 470
#     4  11  26  47  76 111 157 206 259 317 387 468
#     4  11  26  45  77 108 149 202 255 326 386 468
#     4  10  24  45  75 108 147 194 255 322 392 453
#     4  10  26  48  74 108 152 192 260 312 400 444
#     4  11  25  47  75 107 154 196 261 319 390 460
#
# _framework density 27.228159999999999
#
# number of rings (size 3 to 8) (size 9 to 14) (size 15 to 20)
#    0.000    1.231    1.538    1.846    8.615    5.538 
#    0.000    4.615    0.000    0.000    0.000    0.000 
#    0.000    0.000    0.000    0.000    0.000    0.000 
#
# Total GULP energy -72385.208381 kJ/mol
# GULP energy per Si atom -5568.092952 kJ/mol
# Density = 2.716619 g / cm^3
# Si number density = 27.228160 Si / 1000 Ang^3
#
#
#
# Elastic Constant Matrix: (Units=GPa)
#
#
# Indices 1 2 3 4 5 6 
#
# 1 189.6547 27.0954 6.2050 10.4186 8.4173 -20.7143
# 2 27.0954 90.3943 13.9398 -1.4531 0.2867 15.6122
# 3 6.2050 13.9398 76.8210 0.2405 -3.8670 18.8433
# 4 10.4186 -1.4531 0.2405 34.0933 8.1086 -16.7814
# 5 8.4173 0.2867 -3.8670 8.1086 53.2399 -11.6390
# 6 -20.7143 15.6122 18.8433 -16.7814 -11.6390 50.0542
#
#
#
# Elastic Compliance Matrix: (Units=1/GPa)
#
#
# Indices 1 2 3 4 5 6 
#
# 1 0.006020 -0.002256 -0.000929 -0.000187 -0.000229 0.003429
# 2 -0.002256 0.012745 -0.000912 -0.001100 -0.000726 -0.005103
# 3 -0.000929 -0.000912 0.014937 -0.003244 0.000255 -0.006751
# 4 -0.000187 -0.001100 -0.003244 0.036474 -0.002904 0.013040
# 5 -0.000229 -0.000726 0.000255 -0.002904 0.020101 0.003736
# 6 0.003429 -0.005103 -0.006751 0.013040 0.003736 0.030771
#
#
# Mechanical properties :
#
#
# Convention : Reuss Voigt Hill
#
# Bulk Modulus (GPa) = 39.20116 50.15006 44.67561
# Shear Modulus (GPa) = 36.29903 48.11947 42.20925
#
# Velocity S-wave (km/s) = 3.65518 4.20845 3.94154
# Velocity P-wave (km/s) = 5.67824 6.48638 6.09572
#
# Compressibility (1/GPa) = 0.02550945
#
# Stress axis : x y z
#
# Youngs Moduli (GPa) = 166.10330 78.45923 66.94866
#
# Poissons Ratio (x) = 0.17699 0.06219
# Poissons Ratio (y) = 0.37470 0.06105
# Poissons Ratio (z) = 0.15430 0.07155
#
# Static dielectric constant tensor:
#      x y z
#    x 1.991790 0.362650 -0.160560 
#    y 0.362650 1.991740 0.087200 
#    z -0.160560 0.087200 2.132230 
# 
# From -- ./inp_files/59236.got.cif
#   From: 2010.05.17/outbox.cif.g08.bks.cpg/sg2_30_cif.got.tgz:59236.got - 2010.06.03 11:33:40.
