data_PCOD9048970
_publ_section_title
;
Structure prediction by ZEFSAII (Michael W. Deem and Ramdas Pophale) SiO2 
 PCOD9048970
Probable space group: P -1
;
_chemical_formula_sum "Si O2"
_cell_formula_units_Z 12
_cell_length_a 5.865634
_cell_length_b 13.329508
_cell_length_c 15.003670
_cell_angle_alpha 29.963157
_cell_angle_beta 76.886939
_cell_angle_gamma 88.374127
_cell_volume 535.417253
_symmetry_space_group_name_H-M "P -1"
_symmetry_group_IT_number 2
_symmetry_cell_setting 'triclinic'
loop_
_space_group_symop_operation_xyz
x,y,z
-x,-y,-z
loop_
_atom_site_type_symbol
_atom_site_label
_atom_site_fract_x
_atom_site_fract_y
_atom_site_fract_z
Si Si1 0.188191 0.386744 0.611589
Si Si2 0.964927 0.669808 0.725959
Si Si3 0.480190 0.685613 0.041394
Si Si4 0.680371 0.933763 0.268248
Si Si5 0.715801 0.488970 0.307335
Si Si6 0.016994 0.094004 0.282580
O O1 0.500000 0.500000 0.500000
O O2 0.157289 0.175676 0.718969
O O3 0.131263 0.366591 0.737373
O O4 0.000000 0.500000 0.500000
O O5 0.688162 0.509475 0.854250
O O6 0.013993 0.740545 0.768961
O O7 0.132233 0.545750 0.763778
O O8 0.015624 0.885734 0.497972
O O9 0.521975 0.587459 0.206996
O O10 0.732254 0.802404 0.875129
O O11 0.361806 0.867847 0.927358
O O12 0.422333 0.743768 0.459053
O O13 0.799992 0.017555 0.288487
#
# Coordination Sequence:
#
# PCOD9048970 Si02
#       6
#     2   2   2   2   2   2
#     4  10  24  45  79 107 147 195 242 306 367 435
#     4  11  24  44  71 102 143 191 241 300 366 435
#     4  12  25  43  70 106 144 187 239 302 364 440
#     4  11  24  45  72 103 145 187 244 299 369 432
#     4  11  24  45  72 103 145 187 244 299 369 432
#     4  11  24  44  71 102 143 191 241 300 366 435
#
# _framework density 22.412427999999998
#
# number of rings (size 3 to 8) (size 9 to 14) (size 15 to 20)
#    0.000    1.000    3.333    2.500    4.667    5.333 
#    0.000    3.333    0.000    0.000    0.000    0.000 
#    0.000    0.000    0.000    0.000    0.000    0.000 
#
# Total GULP energy -67047.987415 kJ/mol
# GULP energy per Si atom -5587.332285 kJ/mol
# Density = 2.236142 g / cm^3
# Si number density = 22.412428 Si / 1000 Ang^3
#
#
#
# Elastic Constant Matrix: (Units=GPa)
#
#
# Indices 1 2 3 4 5 6 
#
# 1 10.1441 -46.8454 -38.7852 44.5200 32.4653 4.9967
# 2 -46.8454 -83.8974 -67.8519 92.7956 68.8150 21.9778
# 3 -38.7852 -67.8519 38.2542 37.2495 20.1428 1.7252
# 4 44.5200 92.7956 37.2495 -49.4578 -25.7034 -8.4946
# 5 32.4653 68.8150 20.1428 -25.7034 45.7695 -0.6758
# 6 4.9967 21.9778 1.7252 -8.4946 -0.6758 39.2821
#
#
#
# Elastic Compliance Matrix: (Units=1/GPa)
#
#
# Indices 1 2 3 4 5 6 
#
# 1 0.029463 -0.012163 0.003008 0.005628 -0.000714 0.004130
# 2 -0.012163 0.017156 -0.001669 0.022520 -0.003832 -0.003174
# 3 0.003008 -0.001669 0.015532 0.011013 -0.000241 0.002247
# 4 0.005628 0.022520 0.011013 0.045177 -0.017391 -0.004329
# 5 -0.000714 -0.003832 -0.000241 -0.017391 0.018439 -0.001198
# 6 0.004130 -0.003174 0.002247 -0.004329 -0.001198 0.025652
#
#
# Mechanical properties :
#
#
# Convention : Reuss Voigt Hill
#
# Bulk Modulus (GPa) = 24.69004 -38.05157 -6.68077
# Shear Modulus (GPa) = 26.79982 14.98432 20.89207
#
# Velocity S-wave (km/s) = 3.46172 2.58848 3.05645
# Velocity P-wave (km/s) = 5.19790 2.84273 3.07710
#
# Compressibility (1/GPa) = 0.04050217
#
# Stress axis : x y z
#
# Youngs Moduli (GPa) = 33.94062 58.28763 64.38425
#
# Poissons Ratio (x) = 0.70896 -0.19367
# Poissons Ratio (y) = 0.41282 0.10749
# Poissons Ratio (z) = -0.10210 0.09731
#
# Static dielectric constant tensor:
#      x y z
#    x 1.893410 -0.028720 -0.012560 
#    y -0.028720 1.820830 0.004140 
#    z -0.012560 0.004140 1.809200 
# 
# From -- ./inp_files/94994.got.cif
#   From: 2010.05.17/outbox.cif.g08.bks.cpg/sg2_48_cif.got.tgz:94994.got - 2010.06.03 11:33:40.
