data_PCOD9048942
_publ_section_title
;
Structure prediction by ZEFSAII (Michael W. Deem and Ramdas Pophale) SiO2 
 PCOD9048942
Probable space group: P -1
;
_chemical_formula_sum "Si O2"
_cell_formula_units_Z 10
_cell_length_a 15.771444
_cell_length_b 5.339202
_cell_length_c 11.463384
_cell_angle_alpha 52.545157
_cell_angle_beta 32.614390
_cell_angle_gamma 70.077440
_cell_volume 378.386041
_symmetry_space_group_name_H-M "P -1"
_symmetry_group_IT_number 2
_symmetry_cell_setting 'triclinic'
loop_
_space_group_symop_operation_xyz
x,y,z
-x,-y,-z
loop_
_atom_site_type_symbol
_atom_site_label
_atom_site_fract_x
_atom_site_fract_y
_atom_site_fract_z
Si Si1 0.656741 0.294829 0.666463
Si Si2 0.956326 0.842696 0.962301
Si Si3 0.683742 0.131601 0.185544
Si Si4 0.472669 0.230176 0.212849
Si Si5 0.006389 0.808705 0.665205
O O1 0.636310 0.647339 0.607030
O O2 0.835034 0.303115 0.500855
O O3 0.627988 0.148636 0.611197
O O4 0.500000 0.000000 0.000000
O O5 0.040135 0.015328 0.690497
O O6 0.000000 0.500000 0.000000
O O7 0.770227 0.859050 0.155270
O O8 0.000000 0.000000 0.000000
O O9 0.643078 0.243768 0.072874
O O10 0.500000 0.000000 0.500000
O O11 0.827004 0.476513 0.976882
O O12 0.500000 0.500000 0.000000
O O13 0.000000 0.000000 0.500000
#
# Coordination Sequence:
#
# PCOD9048942 Si02
#       5
#     2   2   2   2   2
#     4  10  24  45  76 115 163 208 267 346 429 485
#     4  12  30  58  83 125 178 234 285 357 440 522
#     4  12  31  53  85 124 174 228 291 351 437 522
#     4  10  24  47  78 115 161 211 275 347 420 497
#     4  12  29  53  90 127 169 224 299 361 426 512
#
# _framework density 26.428035000000001
#
# number of rings (size 3 to 8) (size 9 to 14) (size 15 to 20)
#    0.000    0.800    2.000    2.400   16.800    1.600 
#    0.000    0.000    0.000    0.000    0.000    0.000 
#    0.000    0.000    0.000    0.000    0.000    0.000 
#
# Total GULP energy -55900.242471 kJ/mol
# GULP energy per Si atom -5590.024247 kJ/mol
# Density = 2.636788 g / cm^3
# Si number density = 26.428035 Si / 1000 Ang^3
#
#
#
# Elastic Constant Matrix: (Units=GPa)
#
#
# Indices 1 2 3 4 5 6 
#
# 1 226.3410 106.5443 48.8265 20.2010 -12.5823 -14.6380
# 2 106.5443 228.6911 51.9233 44.3007 -8.5118 22.2812
# 3 48.8265 51.9233 165.6851 16.8466 -4.7042 -9.6070
# 4 20.2010 44.3007 16.8466 43.5467 -8.8418 -10.4236
# 5 -12.5823 -8.5118 -4.7042 -8.8418 63.8995 4.4585
# 6 -14.6380 22.2812 -9.6070 -10.4236 4.4585 54.2700
#
#
#
# Elastic Compliance Matrix: (Units=1/GPa)
#
#
# Indices 1 2 3 4 5 6 
#
# 1 0.006260 -0.003364 -0.000759 0.001731 0.000744 0.003206
# 2 -0.003364 0.008324 -0.001166 -0.007966 -0.000321 -0.006035
# 3 -0.000759 -0.001166 0.006780 -0.000767 -0.000005 0.001327
# 4 0.001731 -0.007966 -0.000767 0.033550 0.003183 0.009784
# 5 0.000744 -0.000321 -0.000005 0.003183 0.016221 -0.000390
# 6 0.003206 -0.006035 0.001327 0.009784 -0.000390 0.023915
#
#
# Mechanical properties :
#
#
# Convention : Reuss Voigt Hill
#
# Bulk Modulus (GPa) = 92.72976 115.03391 103.88183
# Shear Modulus (GPa) = 45.77811 59.90479 52.84145
#
# Velocity S-wave (km/s) = 4.16646 4.76617 4.47637
# Velocity P-wave (km/s) = 7.63608 8.59710 8.13080
#
# Compressibility (1/GPa) = 0.01078402
#
# Stress axis : x y z
#
# Youngs Moduli (GPa) = 159.75399 120.13727 147.49914
#
# Poissons Ratio (x) = 0.40411 0.11202
# Poissons Ratio (y) = 0.53738 0.17203
# Poissons Ratio (z) = 0.12132 0.14012
#
# Static dielectric constant tensor:
#      x y z
#    x 2.101190 0.077340 -0.084320 
#    y 0.077340 2.153730 -0.128540 
#    z -0.084320 -0.128540 2.012710 
# 
# From -- ./inp_files/439796.got.cif
#   From: 2010.05.17/outbox.cif.g08.bks.cpg/sg2_220_cif.got.tgz:439796.got - 2010.06.03 11:33:40.
