data_PCOD9048706
_publ_section_title
;
Structure prediction by ZEFSAII (Michael W. Deem and Ramdas Pophale) SiO2 
 PCOD9048706
Probable space group: P -1
;
_chemical_formula_sum "Si O2"
_cell_formula_units_Z 16
_cell_length_a 8.525191
_cell_length_b 11.974471
_cell_length_c 15.236505
_cell_angle_alpha 29.444011
_cell_angle_beta 99.361494
_cell_angle_gamma 109.127826
_cell_volume 696.723089
_symmetry_space_group_name_H-M "P -1"
_symmetry_group_IT_number 2
_symmetry_cell_setting 'triclinic'
loop_
_space_group_symop_operation_xyz
x,y,z
-x,-y,-z
loop_
_atom_site_type_symbol
_atom_site_label
_atom_site_fract_x
_atom_site_fract_y
_atom_site_fract_z
Si Si1 0.413643 0.897055 0.790901
Si Si2 0.113833 0.051288 0.736757
Si Si3 0.154124 0.274491 0.325242
Si Si4 0.847558 0.772083 0.183663
Si Si5 0.615057 0.181395 0.456501
Si Si6 0.532915 0.611710 0.146096
Si Si7 0.023119 0.627053 0.613363
Si Si8 0.847393 0.577869 0.967564
O O1 0.268823 0.976999 0.767308
O O2 0.541299 0.115579 0.593515
O O3 0.501258 0.789268 0.948960
O O4 0.315279 0.677199 0.862766
O O5 0.152037 0.174592 0.750314
O O6 0.086778 0.249864 0.533780
O O7 0.936616 0.805203 0.885134
O O8 0.348261 0.391211 0.303740
O O9 0.198408 0.322884 0.194902
O O10 0.071793 0.448376 0.249700
O O11 0.000000 0.000000 0.500000
O O12 0.661193 0.748164 0.143938
O O13 0.913279 0.553007 0.314383
O O14 0.000000 0.000000 0.000000
O O15 0.639110 0.448502 0.238378
O O16 0.797126 0.163436 0.488312
O O17 0.500000 0.000000 0.500000
O O18 0.000000 0.500000 0.000000
#
# Coordination Sequence:
#
# PCOD9048706 Si02
#       8
#     2   2   2   2   2   2   2   2
#     4  10  24  45  71 107 141 182 237 303 352 433
#     4  11  23  46  69  99 137 188 240 285 354 429
#     4  11  20  41  74 103 135 177 226 295 354 422
#     4  11  28  47  69  98 144 194 237 297 357 419
#     4  11  25  41  68 106 149 184 225 294 376 425
#     4  10  25  47  68 106 140 188 247 284 360 424
#     4  11  25  43  70 103 141 184 238 294 360 429
#     4   9  21  35  68 100 131 169 233 280 355 409
#
# _framework density 22.964646999999999
#
# number of rings (size 3 to 8) (size 9 to 14) (size 15 to 20)
#    0.000    1.500    1.250    1.875   14.000    2.000 
#    0.000    3.125    0.000    0.000    0.000    0.000 
#    0.000    0.000    0.000    0.000    0.000    0.000 
#
# Total GULP energy -89101.451364 kJ/mol
# GULP energy per Si atom -5568.840710 kJ/mol
# Density = 2.291238 g / cm^3
# Si number density = 22.964647 Si / 1000 Ang^3
#
#
#
# Elastic Constant Matrix: (Units=GPa)
#
#
# Indices 1 2 3 4 5 6 
#
# 1 105.1425 57.0398 51.1922 14.4494 15.6748 6.3903
# 2 57.0398 144.1462 24.7184 3.0195 19.6150 9.9683
# 3 51.1922 24.7184 89.4105 7.2138 25.7174 4.3029
# 4 14.4494 3.0195 7.2138 26.8326 4.3714 1.0133
# 5 15.6748 19.6150 25.7174 4.3714 39.2136 -3.1561
# 6 6.3903 9.9683 4.3029 1.0133 -3.1561 44.6333
#
#
#
# Elastic Compliance Matrix: (Units=1/GPa)
#
#
# Indices 1 2 3 4 5 6 
#
# 1 0.017196 -0.005506 -0.008384 -0.006727 0.002119 -0.000121
# 2 -0.005506 0.009462 0.001587 0.002187 -0.003962 -0.001808
# 3 -0.008384 0.001587 0.018334 0.001052 -0.009715 -0.001632
# 4 -0.006727 0.002187 0.001052 0.041001 -0.003732 -0.000822
# 5 0.002119 -0.003962 -0.009715 -0.003732 0.033744 0.003989
# 6 -0.000121 -0.001808 -0.001632 -0.000822 0.003989 0.023284
#
#
# Mechanical properties :
#
#
# Convention : Reuss Voigt Hill
#
# Bulk Modulus (GPa) = 49.05494 67.17777 58.11636
# Shear Modulus (GPa) = 28.66572 35.85250 32.25911
#
# Velocity S-wave (km/s) = 3.53690 3.95549 3.75204
# Velocity P-wave (km/s) = 6.17146 7.08360 6.64321
#
# Compressibility (1/GPa) = 0.02038531
#
# Stress axis : x y z
#
# Youngs Moduli (GPa) = 58.15300 105.68127 54.54264
#
# Poissons Ratio (x) = 0.58187 0.45731
# Poissons Ratio (y) = 0.32018 -0.08654
# Poissons Ratio (z) = 0.48758 -0.16768
#
# Static dielectric constant tensor:
#      x y z
#    x 1.992080 0.103030 0.080870 
#    y 0.103030 2.204390 0.265300 
#    z 0.080870 0.265300 2.206910 
# 
# From -- ./inp_files/499761.got.cif
#   From: 2010.05.17/outbox.cif.g08.bks.cpg/sg2_250_cif.got.tgz:499761.got - 2010.06.03 11:33:40.
