data_PCOD9048872
_publ_section_title
;
Structure prediction by ZEFSAII (Michael W. Deem and Ramdas Pophale) SiO2 
 PCOD9048872
Probable space group: P -1
;
_chemical_formula_sum "Si O2"
_cell_formula_units_Z 12
_cell_length_a 9.677203
_cell_length_b 7.202724
_cell_length_c 14.375287
_cell_angle_alpha 55.925661
_cell_angle_beta 149.464294
_cell_angle_gamma 117.609157
_cell_volume 421.245914
_symmetry_space_group_name_H-M "P -1"
_symmetry_group_IT_number 2
_symmetry_cell_setting 'triclinic'
loop_
_space_group_symop_operation_xyz
x,y,z
-x,-y,-z
loop_
_atom_site_type_symbol
_atom_site_label
_atom_site_fract_x
_atom_site_fract_y
_atom_site_fract_z
Si Si1 0.828302 0.322413 0.011224
Si Si2 0.255262 0.818796 0.188939
Si Si3 0.341191 0.282747 0.410853
Si Si4 0.468613 0.226707 0.980883
Si Si5 0.846390 0.335442 0.560363
Si Si6 0.126095 0.761896 0.614664
O O1 0.753247 0.447875 0.705355
O O2 0.609647 0.395906 0.940868
O O3 0.000000 0.500000 0.000000
O O4 0.064571 0.185328 0.241943
O O5 0.854562 0.741020 0.206298
O O6 0.520636 0.869053 0.386375
O O7 0.305189 0.810343 0.111249
O O8 0.000000 0.000000 0.000000
O O9 0.572047 0.270303 0.469439
O O10 0.122132 0.404214 0.468727
O O11 0.630075 0.260739 0.161070
O O12 0.500000 0.000000 0.000000
O O13 0.175221 0.715672 0.546763
O O14 0.000000 0.000000 0.500000
#
# Coordination Sequence:
#
# PCOD9048872 Si02
#       6
#     2   2   2   2   2   2
#     4  10  26  47  74 109 153 200 256 321 388 468
#     4  10  24  45  74 106 150 199 247 313 391 463
#     4  10  25  50  72 112 152 196 259 323 394 459
#     4  12  27  50  77 115 156 206 262 317 393 479
#     4  11  27  49  77 112 158 202 257 333 389 460
#     4  11  26  47  76 110 154 207 261 316 396 472
#
# _framework density 28.486923000000001
#
# number of rings (size 3 to 8) (size 9 to 14) (size 15 to 20)
#    0.000    1.333    1.667    0.500   18.667    2.000 
#    3.000    0.000    0.000    0.000    0.000    0.000 
#    0.000    0.000    0.000    0.000    0.000    0.000 
#
# Total GULP energy -67111.950697 kJ/mol
# GULP energy per Si atom -5592.662558 kJ/mol
# Density = 2.842209 g / cm^3
# Si number density = 28.486923 Si / 1000 Ang^3
#
#
#
# Elastic Constant Matrix: (Units=GPa)
#
#
# Indices 1 2 3 4 5 6 
#
# 1 173.3603 56.9544 107.6418 -1.9610 -8.0135 -19.7052
# 2 56.9544 127.0226 52.4936 22.5370 2.3825 -9.2738
# 3 107.6418 52.4936 318.7737 11.7489 -9.7927 -25.2244
# 4 -1.9610 22.5370 11.7489 45.0408 -7.6911 1.3854
# 5 -8.0135 2.3825 -9.7927 -7.6911 70.2045 3.6421
# 6 -19.7052 -9.2738 -25.2244 1.3854 3.6421 40.3693
#
#
#
# Elastic Compliance Matrix: (Units=1/GPa)
#
#
# Indices 1 2 3 4 5 6 
#
# 1 0.008527 -0.003250 -0.002270 0.002699 0.000968 0.001817
# 2 -0.003250 0.010589 -0.000412 -0.005608 -0.001449 0.000912
# 3 -0.002270 -0.000412 0.004123 -0.000985 0.000150 0.001393
# 4 0.002699 -0.005608 -0.000985 0.026001 0.003302 -0.001777
# 5 0.000968 -0.001449 0.000150 0.003302 0.014850 -0.001220
# 6 0.001817 0.000912 0.001393 -0.001777 -0.001220 0.026910
#
#
# Mechanical properties :
#
#
# Convention : Reuss Voigt Hill
#
# Bulk Modulus (GPa) = 87.91294 117.03735 102.47515
# Shear Modulus (GPa) = 46.88021 57.92738 52.40379
#
# Velocity S-wave (km/s) = 4.06109 4.51430 4.29368
# Velocity P-wave (km/s) = 7.27446 8.26714 7.78664
#
# Compressibility (1/GPa) = 0.01137489
#
# Stress axis : x y z
#
# Youngs Moduli (GPa) = 117.26798 94.44017 242.56096
#
# Poissons Ratio (x) = 0.30690 0.55069
# Poissons Ratio (y) = 0.38108 0.09994
# Poissons Ratio (z) = 0.26623 0.03891
#
# Static dielectric constant tensor:
#      x y z
#    x 2.194490 0.008440 -0.064390 
#    y 0.008440 2.973960 -0.140940 
#    z -0.064390 -0.140940 2.321050 
# 
# From -- ./inp_files/567289.got.cif
#   From: 2010.05.17/outbox.cif.g08.bks.cpg/sg2_284_cif.got.tgz:567289.got - 2010.06.03 11:33:40.
