data_PCOD9048330
_publ_section_title
;
Structure prediction by ZEFSAII (Michael W. Deem and Ramdas Pophale) SiO2 
 PCOD9048330
Probable space group: P -1
;
_chemical_formula_sum "Si O2"
_cell_formula_units_Z 14
_cell_length_a 7.961880
_cell_length_b 16.709122
_cell_length_c 6.333840
_cell_angle_alpha 123.279203
_cell_angle_beta 65.592994
_cell_angle_gamma 128.371783
_cell_volume 548.885266
_symmetry_space_group_name_H-M "P -1"
_symmetry_group_IT_number 2
_symmetry_cell_setting 'triclinic'
loop_
_space_group_symop_operation_xyz
x,y,z
-x,-y,-z
loop_
_atom_site_type_symbol
_atom_site_label
_atom_site_fract_x
_atom_site_fract_y
_atom_site_fract_z
Si Si1 0.648926 0.087398 0.873313
Si Si2 0.084122 0.382918 0.786376
Si Si3 0.336909 0.235175 0.979480
Si Si4 0.752875 0.996506 0.322628
Si Si5 0.477938 0.388053 0.747779
Si Si6 0.742929 0.396509 0.243124
Si Si7 0.926083 0.221039 0.286708
O O1 0.493528 0.078026 0.748962
O O2 0.781049 0.042697 0.612374
O O3 0.790708 0.193259 0.101396
O O4 0.500000 0.000000 0.000000
O O5 0.243408 0.338009 0.687383
O O6 0.227363 0.503566 0.779661
O O7 0.913314 0.301089 0.581299
O O8 0.953328 0.392068 0.063473
O O9 0.193724 0.100859 0.852000
O O10 0.450007 0.293661 0.787520
O O11 0.524692 0.284036 0.125160
O O12 0.173613 0.277329 0.173510
O O13 0.858944 0.105211 0.276341
O O14 0.680470 0.419262 0.537845
O O15 0.500000 0.500000 0.000000
#
# Coordination Sequence:
#
# PCOD9048330 Si02
#       7
#     2   2   2   2   2   2   2
#     4   9  22  43  68  98 139 189 238 298 354 422
#     4  11  25  50  73 105 150 186 243 295 365 429
#     4  12  26  44  72 107 145 187 242 299 359 430
#     4  10  24  45  67 105 144 186 242 296 358 428
#     4  12  25  48  75 105 145 192 237 299 364 420
#     4  11  26  49  73 107 145 187 241 307 351 435
#     4  11  24  45  73 102 143 196 233 297 364 425
#
# _framework density 25.506242
#
# number of rings (size 3 to 8) (size 9 to 14) (size 15 to 20)
#    0.000    1.143    2.857    1.714    8.000    3.429 
#    2.571    0.000    0.000    0.000    0.000    0.000 
#    0.000    0.000    0.000    0.000    0.000    0.000 
#
# Total GULP energy -78234.196133 kJ/mol
# GULP energy per Si atom -5588.156867 kJ/mol
# Density = 2.544819 g / cm^3
# Si number density = 25.506242 Si / 1000 Ang^3
#
#
#
# Elastic Constant Matrix: (Units=GPa)
#
#
# Indices 1 2 3 4 5 6 
#
# 1 67.8791 -8.2283 41.9429 -5.3702 3.3182 15.4736
# 2 -8.2283 100.7903 26.4520 -4.3850 -4.0163 -7.8070
# 3 41.9429 26.4520 164.3962 -7.5699 -2.3449 14.0922
# 4 -5.3702 -4.3850 -7.5699 48.1185 15.2362 -1.3051
# 5 3.3182 -4.0163 -2.3449 15.2362 41.3684 -1.2483
# 6 15.4736 -7.8070 14.0922 -1.3051 -1.2483 38.2769
#
#
#
# Elastic Compliance Matrix: (Units=1/GPa)
#
#
# Indices 1 2 3 4 5 6 
#
# 1 0.019623 0.002431 -0.004843 0.002333 -0.002643 -0.005661
# 2 0.002431 0.011015 -0.002542 0.000774 0.000513 0.002243
# 3 -0.004843 -0.002542 0.007870 0.000288 0.000438 -0.001434
# 4 0.002333 0.000774 0.000288 0.023978 -0.008938 -0.000365
# 5 -0.002643 0.000513 0.000438 -0.008938 0.027800 0.001613
# 6 -0.005661 0.002243 -0.001434 -0.000365 0.001613 0.029439
#
#
# Mechanical properties :
#
#
# Convention : Reuss Voigt Hill
#
# Bulk Modulus (GPa) = 34.96463 50.37764 42.67113
# Shear Modulus (GPa) = 35.92799 43.74601 39.83700
#
# Velocity S-wave (km/s) = 3.75720 4.14588 3.95632
# Velocity P-wave (km/s) = 5.70614 6.53542 6.13481
#
# Compressibility (1/GPa) = 0.02860034
#
# Stress axis : x y z
#
# Youngs Moduli (GPa) = 50.96015 90.78571 127.06754
#
# Poissons Ratio (x) = -0.22067 0.61534
# Poissons Ratio (y) = -0.12387 0.32298
# Poissons Ratio (z) = 0.24678 0.23076
#
# Static dielectric constant tensor:
#      x y z
#    x 2.123620 -0.007430 0.003990 
#    y -0.007430 1.978010 0.059100 
#    z 0.003990 0.059100 2.078630 
# 
# From -- ./inp_files/48914.got.cif
#   From: 2010.05.17/outbox.cif.g08.bks.cpg/sg2_25_cif.got.tgz:48914.got - 2010.06.03 11:33:40.
