data_PCOD9048242
_publ_section_title
;
Structure prediction by ZEFSAII (Michael W. Deem and Ramdas Pophale) SiO2 
 PCOD9048242
Probable space group: P -1
;
_chemical_formula_sum "Si O2"
_cell_formula_units_Z 14
_cell_length_a 4.867954
_cell_length_b 14.343638
_cell_length_c 9.352590
_cell_angle_alpha 120.737827
_cell_angle_beta 69.939037
_cell_angle_gamma 95.258298
_cell_volume 524.400946
_symmetry_space_group_name_H-M "P -1"
_symmetry_group_IT_number 2
_symmetry_cell_setting 'triclinic'
loop_
_space_group_symop_operation_xyz
x,y,z
-x,-y,-z
loop_
_atom_site_type_symbol
_atom_site_label
_atom_site_fract_x
_atom_site_fract_y
_atom_site_fract_z
Si Si1 0.304960 0.347826 0.687335
Si Si2 0.080284 0.833330 0.283159
Si Si3 0.500000 0.500000 0.000000
Si Si4 0.310117 0.116422 0.132159
Si Si5 0.152786 0.767580 0.902786
Si Si6 0.500000 0.000000 0.500000
Si Si7 0.013008 0.474384 0.310012
Si Si8 0.732202 0.146529 0.436016
O O1 0.052059 0.266892 0.692054
O O2 0.212385 0.434373 0.652184
O O3 0.595046 0.268948 0.539783
O O4 0.326140 0.407828 0.881791
O O5 0.293409 0.876437 0.400640
O O6 0.827593 0.925284 0.362449
O O7 0.207977 0.787434 0.076319
O O8 0.314494 0.485812 0.176272
O O9 0.544948 0.200825 0.194089
O O10 0.121196 0.154791 0.053623
O O11 0.048491 0.124510 0.299344
O O12 0.500000 0.000000 0.000000
O O13 0.084533 0.645388 0.791514
O O14 0.525199 0.054414 0.368138
O O15 0.000000 0.500000 0.500000
#
# Coordination Sequence:
#
# PCOD9048242 Si02
#       8
#     2   2   1   2   2   1   2   2
#     4  11  27  49  83 116 170 219 280 356 429 506
#     4  11  25  46  79 117 159 215 276 348 415 509
#     4  12  26  52  84 116 170 224 280 356 430 496
#     4  12  31  56  83 120 175 218 279 361 438 514
#     4  12  31  52  84 124 166 222 287 350 430 523
#     4  10  24  44  82 114 156 204 284 330 420 502
#     4  12  31  53  84 127 174 229 294 359 434 527
#     4  11  27  49  83 119 160 223 276 346 431 509
#
# _framework density 26.697127999999999
#
# number of rings (size 3 to 8) (size 9 to 14) (size 15 to 20)
#    0.000    0.571    1.429    3.000   18.000    0.571 
#    0.000    0.714    0.000    0.000    0.000    0.000 
#    0.000    0.000    0.000    0.000    0.000    0.000 
#
# Total GULP energy -78157.173741 kJ/mol
# GULP energy per Si atom -5582.655267 kJ/mol
# Density = 2.663636 g / cm^3
# Si number density = 26.697128 Si / 1000 Ang^3
#
#
#
# Elastic Constant Matrix: (Units=GPa)
#
#
# Indices 1 2 3 4 5 6 
#
# 1 126.1688 56.4840 74.7513 0.2166 -2.0971 6.9347
# 2 56.4840 176.7263 83.0124 4.4882 -7.2970 -5.3961
# 3 74.7513 83.0124 201.8776 -19.1597 14.9657 -3.1508
# 4 0.2166 4.4882 -19.1597 22.2434 6.6388 -2.5746
# 5 -2.0971 -7.2970 14.9657 6.6388 54.5881 -6.0744
# 6 6.9347 -5.3961 -3.1508 -2.5746 -6.0744 66.6906
#
#
#
# Elastic Compliance Matrix: (Units=1/GPa)
#
#
# Indices 1 2 3 4 5 6 
#
# 1 0.011094 -0.001557 -0.003978 -0.003873 0.001616 -0.001470
# 2 -0.001557 0.008021 -0.003407 -0.005252 0.002662 0.000690
# 3 -0.003978 -0.003407 0.009088 0.009885 -0.004239 0.000563
# 4 -0.003873 -0.005252 0.009885 0.057875 -0.010407 0.001731
# 5 0.001616 0.002662 -0.004239 -0.010407 0.021319 0.001387
# 6 -0.001470 0.000690 0.000563 0.001731 0.001387 0.015423
#
#
# Mechanical properties :
#
#
# Convention : Reuss Voigt Hill
#
# Bulk Modulus (GPa) = 96.89926 103.69643 100.29785
# Shear Modulus (GPa) = 34.68757 48.07277 41.38017
#
# Velocity S-wave (km/s) = 3.60849 4.24804 3.94126
# Velocity P-wave (km/s) = 7.33050 7.93645 7.63948
#
# Compressibility (1/GPa) = 0.01032000
#
# Stress axis : x y z
#
# Youngs Moduli (GPa) = 90.13812 124.67897 110.02990
#
# Poissons Ratio (x) = 0.19414 0.43769
# Poissons Ratio (y) = 0.14035 0.37482
# Poissons Ratio (z) = 0.35856 0.42472
#
# Static dielectric constant tensor:
#      x y z
#    x 2.210530 -0.025120 0.040920 
#    y -0.025120 2.243760 -0.029650 
#    z 0.040920 -0.029650 2.148570 
# 
# From -- ./inp_files/133423.got.cif
#   From: 2010.05.17/outbox.cif.g08.bks.cpg/sg2_67_cif.got.tgz:133423.got - 2010.06.03 11:33:40.
