data_PCOD9048214
_publ_section_title
;
Structure prediction by ZEFSAII (Michael W. Deem and Ramdas Pophale) SiO2 
 PCOD9048214
Probable space group: P -1
;
_chemical_formula_sum "Si O2"
_cell_formula_units_Z 13
_cell_length_a 11.357306
_cell_length_b 13.019868
_cell_length_c 8.422790
_cell_angle_alpha 55.723168
_cell_angle_beta 107.468482
_cell_angle_gamma 147.777937
_cell_volume 502.927471
_symmetry_space_group_name_H-M "P -1"
_symmetry_group_IT_number 2
_symmetry_cell_setting 'triclinic'
loop_
_space_group_symop_operation_xyz
x,y,z
-x,-y,-z
loop_
_atom_site_type_symbol
_atom_site_label
_atom_site_fract_x
_atom_site_fract_y
_atom_site_fract_z
Si Si1 0.500000 0.500000 0.500000
Si Si2 0.128351 0.388736 0.370505
Si Si3 0.086992 0.128674 0.091021
Si Si4 0.792918 0.033995 0.266045
Si Si5 0.480484 0.361400 0.282384
Si Si6 0.731343 0.195555 0.530838
Si Si7 0.806969 0.281971 0.838396
O O1 0.299941 0.438704 0.475258
O O2 0.467982 0.459205 0.324326
O O3 0.246760 0.627924 0.190861
O O4 0.022983 0.251820 0.281189
O O5 0.899754 0.222744 0.534917
O O6 0.264505 0.197518 0.210235
O O7 0.846303 0.960172 0.238661
O O8 0.257526 0.396179 0.899227
O O9 0.000000 0.000000 0.000000
O O10 0.580538 0.815607 0.490920
O O11 0.765837 0.132416 0.066518
O O12 0.911801 0.462260 0.320255
O O13 0.678509 0.152157 0.731961
O O14 0.500000 0.000000 0.500000
#
# Coordination Sequence:
#
# PCOD9048214 Si02
#       7
#     1   2   2   2   2   2   2
#     4  12  24  48  76 114 156 208 262 334 394 484
#     4  10  24  44  77 109 162 206 262 329 401 474
#     4  11  26  48  75 108 163 211 265 327 399 482
#     4  12  24  47  76 113 160 201 270 332 403 473
#     4  11  27  46  73 115 152 214 262 321 403 479
#     4   9  21  47  77 111 150 210 268 320 399 476
#     4   9  23  46  74 114 155 207 256 339 398 475
#
# _framework density 25.848655000000001
#
# number of rings (size 3 to 8) (size 9 to 14) (size 15 to 20)
#    0.923    0.615    1.538    1.846    4.308    2.462 
#    2.769    1.538    0.000    0.000    0.000    0.000 
#    0.000    0.000    0.000    0.000    0.000    0.000 
#
# Total GULP energy -72621.809058 kJ/mol
# GULP energy per Si atom -5586.293004 kJ/mol
# Density = 2.578982 g / cm^3
# Si number density = 25.848655 Si / 1000 Ang^3
#
#
#
# Elastic Constant Matrix: (Units=GPa)
#
#
# Indices 1 2 3 4 5 6 
#
# 1 107.3493 35.9428 38.9378 9.1300 19.9051 10.7927
# 2 35.9428 157.3988 63.3448 42.3358 9.4424 15.8453
# 3 38.9378 63.3448 166.9971 -3.0506 33.3712 8.9654
# 4 9.1300 42.3358 -3.0506 51.5935 -1.5217 -15.2884
# 5 19.9051 9.4424 33.3712 -1.5217 50.5550 2.2467
# 6 10.7927 15.8453 8.9654 -15.2884 2.2467 47.5384
#
#
#
# Elastic Compliance Matrix: (Units=1/GPa)
#
#
# Indices 1 2 3 4 5 6 
#
# 1 0.011203 -0.000923 -0.001532 -0.002146 -0.003181 -0.002486
# 2 -0.000923 0.012330 -0.004503 -0.012279 0.000976 -0.007046
# 3 -0.001532 -0.004503 0.008913 0.004946 -0.004378 0.001965
# 4 -0.002146 -0.012279 0.004946 0.034503 0.000257 0.014731
# 5 -0.003181 0.000976 -0.004378 0.000257 0.023740 0.000183
# 6 -0.002486 -0.007046 0.001965 0.014731 0.000183 0.028307
#
#
# Mechanical properties :
#
#
# Convention : Reuss Voigt Hill
#
# Bulk Modulus (GPa) = 53.96810 78.68844 66.32827
# Shear Modulus (GPa) = 35.94847 49.50538 42.72692
#
# Velocity S-wave (km/s) = 3.73329 4.38105 4.07008
# Velocity P-wave (km/s) = 6.28547 7.48996 6.91399
#
# Compressibility (1/GPa) = 0.01852947
#
# Stress axis : x y z
#
# Youngs Moduli (GPa) = 89.26557 81.10410 112.19673
#
# Poissons Ratio (x) = 0.07489 0.17186
# Poissons Ratio (y) = 0.08242 0.50520
# Poissons Ratio (z) = 0.13674 0.36519
#
# Static dielectric constant tensor:
#      x y z
#    x 1.976550 -0.008850 -0.060080 
#    y -0.008850 1.983320 -0.009870 
#    z -0.060080 -0.009870 1.984250 
# 
# From -- ./inp_files/176574.got.cif
#   From: 2010.05.17/outbox.cif.g08.bks.cpg/sg2_89_cif.got.tgz:176574.got - 2010.06.03 11:33:40.
