data_PCOD9048269
_publ_section_title
;
Structure prediction by ZEFSAII (Michael W. Deem and Ramdas Pophale) SiO2 
 PCOD9048269
Probable space group: P -1
;
_chemical_formula_sum "Si O2"
_cell_formula_units_Z 14
_cell_length_a 12.373738
_cell_length_b 14.567374
_cell_length_c 8.550122
_cell_angle_alpha 63.012727
_cell_angle_beta 125.704270
_cell_angle_gamma 150.447436
_cell_volume 611.656714
_symmetry_space_group_name_H-M "P -1"
_symmetry_group_IT_number 2
_symmetry_cell_setting 'triclinic'
loop_
_space_group_symop_operation_xyz
x,y,z
-x,-y,-z
loop_
_atom_site_type_symbol
_atom_site_label
_atom_site_fract_x
_atom_site_fract_y
_atom_site_fract_z
Si Si1 0.898995 0.295185 0.655787
Si Si2 0.475821 0.111515 0.240446
Si Si3 0.536721 0.370170 0.185096
Si Si4 0.498414 0.533841 0.231683
Si Si5 0.570942 0.925165 0.122109
Si Si6 0.123540 0.316059 0.345021
Si Si7 0.848577 0.432005 0.769975
O O1 0.712038 0.203414 0.430249
O O2 0.916212 0.403968 0.702924
O O3 0.168967 0.439268 0.722860
O O4 0.758147 0.112580 0.767506
O O5 0.453806 0.199196 0.258321
O O6 0.502231 0.161596 0.044297
O O7 0.446525 0.386878 0.231234
O O8 0.449945 0.362067 0.953777
O O9 0.272382 0.426459 0.224473
O O10 0.724542 0.664798 0.436439
O O11 0.424895 0.773447 0.251626
O O12 0.855641 0.103862 0.250954
O O13 0.500000 0.000000 0.000000
O O14 0.117735 0.425015 0.334730
O O15 0.000000 0.500000 0.000000
#
# Coordination Sequence:
#
# PCOD9048269 Si02
#       7
#     2   2   2   2   2   2   2
#     4  11  24  38  64  99 130 158 208 264 323 386
#     4  11  23  40  61  98 131 159 206 267 325 375
#     4  11  23  43  66  87 126 174 214 251 320 364
#     4  10  24  45  65  89 125 181 216 258 294 384
#     4  12  23  38  65  97 128 163 204 262 324 377
#     4  11  24  44  65  92 133 163 219 260 313 371
#     4  12  22  39  67  99 129 165 202 266 332 374
#
# _framework density 22.888656999999998
#
# number of rings (size 3 to 8) (size 9 to 14) (size 15 to 20)
#    0.000    0.857    2.857    4.714    2.000    0.000 
#    0.000   15.714    0.000    0.000    0.000    0.000 
#    0.000    0.000    0.000    0.000    0.000    0.000 
#
# Total GULP energy -78462.258516 kJ/mol
# GULP energy per Si atom -5604.447037 kJ/mol
# Density = 2.283656 g / cm^3
# Si number density = 22.888657 Si / 1000 Ang^3
#
#
#
# Elastic Constant Matrix: (Units=GPa)
#
#
# Indices 1 2 3 4 5 6 
#
# 1 102.6268 13.7171 -11.0544 2.2122 -4.2995 -3.9282
# 2 13.7171 71.4805 12.3569 15.1056 2.9133 4.0532
# 3 -11.0544 12.3569 78.0310 14.6533 -4.7969 12.5567
# 4 2.2122 15.1056 14.6533 26.6283 0.7548 4.6421
# 5 -4.2995 2.9133 -4.7969 0.7548 30.1650 -5.2571
# 6 -3.9282 4.0532 12.5567 4.6421 -5.2571 25.4407
#
#
#
# Elastic Compliance Matrix: (Units=1/GPa)
#
#
# Indices 1 2 3 4 5 6 
#
# 1 0.010442 -0.002321 0.001896 -0.000957 0.002335 0.001703
# 2 -0.002321 0.016556 -0.001341 -0.008175 -0.002163 -0.001290
# 3 0.001896 -0.001341 0.015643 -0.007109 0.002110 -0.005481
# 4 -0.000957 -0.008175 -0.007109 0.047022 -0.002424 -0.004417
# 5 0.002335 -0.002163 0.002110 -0.002424 0.035382 0.007417
# 6 0.001703 -0.001290 -0.005481 -0.004417 0.007417 0.044820
#
#
# Mechanical properties :
#
#
# Convention : Reuss Voigt Hill
#
# Bulk Modulus (GPa) = 25.56926 31.35306 28.46116
# Shear Modulus (GPa) = 26.81929 32.25470 29.53699
#
# Velocity S-wave (km/s) = 3.42677 3.75800 3.59620
# Velocity P-wave (km/s) = 5.18193 5.70596 5.45024
#
# Compressibility (1/GPa) = 0.03910946
#
# Stress axis : x y z
#
# Youngs Moduli (GPa) = 95.76555 60.40150 63.92560
#
# Poissons Ratio (x) = 0.14020 -0.12121
# Poissons Ratio (y) = 0.22228 0.08572
# Poissons Ratio (z) = -0.18158 0.08099
#
# Static dielectric constant tensor:
#      x y z
#    x 1.864210 -0.008440 -0.021630 
#    y -0.008440 1.822080 -0.012800 
#    z -0.021630 -0.012800 1.873910 
# 
# From -- ./inp_files/191061.got.cif
#   From: 2010.05.17/outbox.cif.g08.bks.cpg/sg2_96_cif.got.tgz:191061.got - 2010.06.03 11:33:40.
