data_PCOD9048546
_publ_section_title
;
Structure prediction by ZEFSAII (Michael W. Deem and Ramdas Pophale) SiO2 
 PCOD9048546
Probable space group: P -1
;
_chemical_formula_sum "Si O2"
_cell_formula_units_Z 14
_cell_length_a 6.916178
_cell_length_b 14.332497
_cell_length_c 12.386494
_cell_angle_alpha 127.037684
_cell_angle_beta 51.526207
_cell_angle_gamma 88.712836
_cell_volume 592.375033
_symmetry_space_group_name_H-M "P -1"
_symmetry_group_IT_number 2
_symmetry_cell_setting 'triclinic'
loop_
_space_group_symop_operation_xyz
x,y,z
-x,-y,-z
loop_
_atom_site_type_symbol
_atom_site_label
_atom_site_fract_x
_atom_site_fract_y
_atom_site_fract_z
Si Si1 0.477292 0.874777 0.465473
Si Si2 0.311432 0.017295 0.849582
Si Si3 0.003860 0.599424 0.201850
Si Si4 0.513046 0.205707 0.947893
Si Si5 0.694080 0.280356 0.727782
Si Si6 0.783193 0.508240 0.395217
Si Si7 0.375376 0.810685 0.856582
O O1 0.274354 0.841752 0.444906
O O2 0.825643 0.710589 0.240515
O O3 0.500000 0.000000 0.500000
O O4 0.370027 0.917143 0.656584
O O5 0.383215 0.931636 0.876697
O O6 0.510661 0.075044 0.812677
O O7 0.934595 0.157340 0.067066
O O8 0.058886 0.687327 0.331786
O O9 0.804749 0.558434 0.302788
O O10 0.349000 0.444879 0.943319
O O11 0.660150 0.168922 0.989322
O O12 0.139235 0.355164 0.188140
O O13 0.682383 0.235821 0.822956
O O14 0.500000 0.500000 0.500000
O O15 0.683409 0.642118 0.603586
#
# Coordination Sequence:
#
# PCOD9048546 Si02
#       7
#     2   2   2   2   2   2   2
#     4  12  24  42  71  98 138 179 221 276 336 401
#     4  11  24  44  63  99 137 176 220 275 338 398
#     4  10  24  47  67 101 135 175 230 275 337 397
#     4  11  23  42  71  97 132 177 224 276 336 400
#     4  10  24  45  69  99 135 175 225 281 331 400
#     4  11  22  46  71  98 134 173 230 284 331 398
#     4  11  24  44  65  96 135 176 222 277 336 399
#
# _framework density 23.633676000000001
#
# number of rings (size 3 to 8) (size 9 to 14) (size 15 to 20)
#    0.000    1.143    4.286    1.286    2.000    1.714 
#   15.429    0.000    0.000    0.000    0.000    0.000 
#    0.000    0.000    0.000    0.000    0.000    0.000 
#
# Total GULP energy -78332.972598 kJ/mol
# GULP energy per Si atom -5595.212328 kJ/mol
# Density = 2.357988 g / cm^3
# Si number density = 23.633676 Si / 1000 Ang^3
#
#
#
# Elastic Constant Matrix: (Units=GPa)
#
#
# Indices 1 2 3 4 5 6 
#
# 1 81.8814 53.6706 26.9863 12.2151 7.1531 6.4252
# 2 53.6706 130.2315 21.6058 3.5091 -8.1705 -7.3262
# 3 26.9863 21.6058 66.8550 4.1728 15.4859 -6.6981
# 4 12.2151 3.5091 4.1728 27.2881 8.0437 -1.9845
# 5 7.1531 -8.1705 15.4859 8.0437 35.5974 -6.5305
# 6 6.4252 -7.3262 -6.6981 -1.9845 -6.5305 43.2456
#
#
#
# Elastic Compliance Matrix: (Units=1/GPa)
#
#
# Indices 1 2 3 4 5 6 
#
# 1 0.021181 -0.008222 -0.005289 -0.007069 -0.003381 -0.006194
# 2 -0.008222 0.011842 -0.001454 0.001047 0.005477 0.003878
# 3 -0.005289 -0.001454 0.019479 0.002041 -0.007751 0.002480
# 4 -0.007069 0.001047 0.002041 0.041973 -0.008305 0.002216
# 5 -0.003381 0.005477 -0.007751 -0.008305 0.036254 0.005323
# 6 -0.006194 0.003878 0.002480 0.002216 0.005323 0.025990
#
#
# Mechanical properties :
#
#
# Convention : Reuss Voigt Hill
#
# Bulk Modulus (GPa) = 44.30094 53.72148 49.01121
# Shear Modulus (GPa) = 25.75048 33.00658 29.37853
#
# Velocity S-wave (km/s) = 3.30444 3.74115 3.52956
# Velocity P-wave (km/s) = 5.77448 6.43754 6.11500
#
# Compressibility (1/GPa) = 0.02257288
#
# Stress axis : x y z
#
# Youngs Moduli (GPa) = 47.21233 84.44761 51.33770
#
# Poissons Ratio (x) = 0.69430 0.27151
# Poissons Ratio (y) = 0.38817 0.07463
# Poissons Ratio (z) = 0.24970 0.12277
#
# Static dielectric constant tensor:
#      x y z
#    x 1.896330 0.005200 -0.026490 
#    y 0.005200 1.883320 0.049970 
#    z -0.026490 0.049970 1.953230 
# 
# From -- ./inp_files/53492.got.cif
#   From: 2010.05.17/outbox.cif.g08.bks.cpg/sg2_27_cif.got.tgz:53492.got - 2010.06.03 11:33:40.
