data_PCOD9048217
_publ_section_title
;
Structure prediction by ZEFSAII (Michael W. Deem and Ramdas Pophale) SiO2 
 PCOD9048217
Probable space group: P -1
;
_chemical_formula_sum "Si O2"
_cell_formula_units_Z 12
_cell_length_a 9.995677
_cell_length_b 7.384156
_cell_length_c 7.354702
_cell_angle_alpha 99.657760
_cell_angle_beta 116.938315
_cell_angle_gamma 64.789208
_cell_volume 437.634820
_symmetry_space_group_name_H-M "P -1"
_symmetry_group_IT_number 2
_symmetry_cell_setting 'triclinic'
loop_
_space_group_symop_operation_xyz
x,y,z
-x,-y,-z
loop_
_atom_site_type_symbol
_atom_site_label
_atom_site_fract_x
_atom_site_fract_y
_atom_site_fract_z
Si Si1 0.438160 0.610228 0.791544
Si Si2 0.003371 0.292666 0.395103
Si Si3 0.672715 0.025028 0.634128
Si Si4 0.800616 0.531814 0.986267
Si Si5 0.802090 0.343175 0.605483
Si Si6 0.681740 0.975713 0.057287
O O1 0.610235 0.594374 0.818448
O O2 0.341129 0.512490 0.592717
O O3 0.500000 0.500000 0.000000
O O4 0.316626 0.839887 0.793502
O O5 0.878606 0.358447 0.155565
O O6 0.000000 0.500000 0.500000
O O7 0.942021 0.219879 0.526901
O O8 0.180470 0.154053 0.405728
O O9 0.709057 0.214756 0.618206
O O10 0.698915 0.019966 0.865175
O O11 0.500000 0.000000 0.500000
O O12 0.874312 0.444210 0.819836
O O13 0.789269 0.740254 0.099209
O O14 0.500000 0.000000 0.000000
#
# Coordination Sequence:
#
# PCOD9048217 Si02
#       6
#     2   2   2   2   2   2
#     4  11  22  44  80 116 159 209 269 330 404 487
#     4  12  30  50  82 119 168 214 272 343 408 481
#     4  12  28  51  80 121 161 214 276 335 416 491
#     4  11  25  49  76 118 163 211 277 325 412 481
#     4  12  27  51  82 118 164 212 272 340 408 486
#     4  10  24  44  77 112 157 209 262 335 397 479
#
# _framework density 27.420121999999999
#
# number of rings (size 3 to 8) (size 9 to 14) (size 15 to 20)
#    0.000    0.667    1.667    5.000    7.000    6.000 
#    0.000    0.000    0.000    0.000    0.000    0.000 
#    0.000    0.000    0.000    0.000    0.000    0.000 
#
# Total GULP energy -67107.501070 kJ/mol
# GULP energy per Si atom -5592.291756 kJ/mol
# Density = 2.735771 g / cm^3
# Si number density = 27.420122 Si / 1000 Ang^3
#
#
#
# Elastic Constant Matrix: (Units=GPa)
#
#
# Indices 1 2 3 4 5 6 
#
# 1 166.7363 62.0643 41.3219 11.8909 -20.5237 -28.7803
# 2 62.0643 135.8827 49.8352 25.2745 -1.9770 -20.2051
# 3 41.3219 49.8352 153.7316 9.2083 -8.7102 -16.3162
# 4 11.8909 25.2745 9.2083 44.3939 1.6657 -11.6670
# 5 -20.5237 -1.9770 -8.7102 1.6657 64.8196 2.4521
# 6 -28.7803 -20.2051 -16.3162 -11.6670 2.4521 56.8526
#
#
#
# Elastic Compliance Matrix: (Units=1/GPa)
#
#
# Indices 1 2 3 4 5 6 
#
# 1 0.008036 -0.003007 -0.000788 0.000362 0.002233 0.002751
# 2 -0.003007 0.010499 -0.002304 -0.004488 -0.000851 0.000663
# 3 -0.000788 -0.002304 0.007593 0.000178 0.000659 0.000969
# 4 0.000362 -0.004488 0.000178 0.026033 -0.000819 0.004017
# 5 0.002233 -0.000851 0.000659 -0.000819 0.016213 0.000150
# 6 0.002751 0.000663 0.000969 0.004017 0.000150 0.020314
#
#
# Mechanical properties :
#
#
# Convention : Reuss Voigt Hill
#
# Bulk Modulus (GPa) = 71.79342 84.75484 78.27413
# Shear Modulus (GPa) = 47.37975 53.42182 50.40079
#
# Velocity S-wave (km/s) = 4.16133 4.41871 4.29195
# Velocity P-wave (km/s) = 7.02343 7.55051 7.29173
#
# Compressibility (1/GPa) = 0.01392885
#
# Stress axis : x y z
#
# Youngs Moduli (GPa) = 124.43684 95.24870 131.69593
#
# Poissons Ratio (x) = 0.28643 0.10383
# Poissons Ratio (y) = 0.37421 0.30344
# Poissons Ratio (z) = 0.09810 0.21946
#
# Static dielectric constant tensor:
#      x y z
#    x 2.276090 0.036360 -0.012220 
#    y 0.036360 2.146980 -0.040370 
#    z -0.012220 -0.040370 2.168390 
# 
# From -- ./inp_files/147934.got.cif
#   From: 2010.05.17/outbox.cif.g08.bks.cpg/sg2_74_cif.got.tgz:147934.got - 2010.06.03 11:33:40.
