data_PCOD9048273
_publ_section_title
;
Structure prediction by ZEFSAII (Michael W. Deem and Ramdas Pophale) SiO2 
 PCOD9048273
Probable space group: P -1
;
_chemical_formula_sum "Si O2"
_cell_formula_units_Z 16
_cell_length_a 10.061985
_cell_length_b 12.597401
_cell_length_c 22.732555
_cell_angle_alpha 154.453720
_cell_angle_beta 141.821522
_cell_angle_gamma 44.415689
_cell_volume 767.930990
_symmetry_space_group_name_H-M "P -1"
_symmetry_group_IT_number 2
_symmetry_cell_setting 'triclinic'
loop_
_space_group_symop_operation_xyz
x,y,z
-x,-y,-z
loop_
_atom_site_type_symbol
_atom_site_label
_atom_site_fract_x
_atom_site_fract_y
_atom_site_fract_z
Si Si1 0.591887 0.072222 0.305402
Si Si2 0.044634 0.346793 0.760825
Si Si3 0.197889 0.810661 0.974508
Si Si4 0.167846 0.786361 0.648545
Si Si5 0.864536 0.630898 0.067919
Si Si6 0.318332 0.387257 0.592154
Si Si7 0.606436 0.105309 0.457317
Si Si8 0.410451 0.447201 0.786515
O O1 0.711495 0.252616 0.391673
O O2 0.512967 0.150384 0.381805
O O3 0.775335 0.868300 0.282666
O O4 0.402012 0.949262 0.141226
O O5 0.137954 0.583947 0.881578
O O6 0.007620 0.403706 0.844591
O O7 0.826627 0.253990 0.610515
O O8 0.254215 0.674001 0.864391
O O9 0.000000 0.000000 0.000000
O O10 0.282553 0.630679 0.661928
O O11 0.918855 0.709896 0.522457
O O12 0.171445 0.077713 0.808174
O O13 0.633622 0.505130 0.925514
O O14 0.000000 0.500000 0.000000
O O15 0.447563 0.199167 0.500627
O O16 0.433499 0.432162 0.716774
O O17 0.659241 0.818770 0.346853
#
# Coordination Sequence:
#
# PCOD9048273 Si02
#       8
#     2   2   2   2   2   2   2   2
#     4  11  23  47  70  97 138 178 233 281 337 407
#     4  11  23  43  68 101 136 175 228 282 342 401
#     4  12  27  43  68 103 135 183 229 285 348 400
#     4  10  24  45  65  95 140 185 220 281 348 397
#     4  11  22  40  71  95 132 181 230 274 339 413
#     4  11  26  43  66 101 143 177 227 279 348 412
#     4  12  25  41  76 103 132 180 234 280 340 411
#     4  12  23  43  68  97 141 175 226 288 333 408
#
# _framework density 20.835204999999998
#
# number of rings (size 3 to 8) (size 9 to 14) (size 15 to 20)
#    0.000    0.750    3.750    4.875    3.500    4.000 
#    0.000    0.000    0.000    0.000    0.000    0.000 
#    0.000    0.000    0.000    0.000    0.000    0.000 
#
# Total GULP energy -89447.034876 kJ/mol
# GULP energy per Si atom -5590.439680 kJ/mol
# Density = 2.078778 g / cm^3
# Si number density = 20.835205 Si / 1000 Ang^3
#
#
#
# Elastic Constant Matrix: (Units=GPa)
#
#
# Indices 1 2 3 4 5 6 
#
# 1 123.2018 34.3066 40.0439 5.1421 -23.7834 8.9794
# 2 34.3066 45.0002 16.5297 -0.4566 -0.6128 10.6435
# 3 40.0439 16.5297 64.8822 -9.8443 -4.9589 4.0424
# 4 5.1421 -0.4566 -9.8443 18.9796 1.7303 -2.2252
# 5 -23.7834 -0.6128 -4.9589 1.7303 49.5097 0.6838
# 6 8.9794 10.6435 4.0424 -2.2252 0.6838 33.0329
#
#
#
# Elastic Compliance Matrix: (Units=1/GPa)
#
#
# Indices 1 2 3 4 5 6 
#
# 1 0.014549 -0.007979 -0.007726 -0.008865 0.006442 -0.001169
# 2 -0.007979 0.030970 -0.002633 0.001013 -0.003647 -0.007344
# 3 -0.007726 -0.002633 0.022777 0.014159 -0.001974 0.001156
# 4 -0.008865 0.001013 0.014159 0.063480 -0.005112 0.004733
# 5 0.006442 -0.003647 -0.001974 -0.005112 0.023245 -0.001160
# 6 -0.001169 -0.007344 0.001156 0.004733 -0.001160 0.033158
#
#
# Mechanical properties :
#
#
# Convention : Reuss Voigt Hill
#
# Bulk Modulus (GPa) = 31.62650 46.09383 38.86017
# Shear Modulus (GPa) = 21.24090 29.78472 25.51281
#
# Velocity S-wave (km/s) = 3.19638 3.78503 3.50309
# Velocity P-wave (km/s) = 5.36980 6.42440 5.92063
#
# Compressibility (1/GPa) = 0.03161906
#
# Stress axis : x y z
#
# Youngs Moduli (GPa) = 68.73455 32.28942 43.90335
#
# Poissons Ratio (x) = 0.25764 0.33921
# Poissons Ratio (y) = 0.54844 0.11560
# Poissons Ratio (z) = 0.53106 0.08502
#
# Static dielectric constant tensor:
#      x y z
#    x 1.834360 -0.019320 -0.048870 
#    y -0.019320 1.715910 0.009580 
#    z -0.048870 0.009580 1.757570 
# 
# From -- ./inp_files/239739.got.cif
#   From: 2010.05.17/outbox.cif.g08.bks.cpg/sg2_120_cif.got.tgz:239739.got - 2010.06.03 11:33:40.
