data_PCOD9048391
_publ_section_title
;
Structure prediction by ZEFSAII (Michael W. Deem and Ramdas Pophale) SiO2 
 PCOD9048391
Probable space group: P -1
;
_chemical_formula_sum "Si O2"
_cell_formula_units_Z 14
_cell_length_a 5.228663
_cell_length_b 9.459181
_cell_length_c 12.268129
_cell_angle_alpha 101.448561
_cell_angle_beta 101.539262
_cell_angle_gamma 90.555414
_cell_volume 581.903592
_symmetry_space_group_name_H-M "P -1"
_symmetry_group_IT_number 2
_symmetry_cell_setting 'triclinic'
loop_
_space_group_symop_operation_xyz
x,y,z
-x,-y,-z
loop_
_atom_site_type_symbol
_atom_site_label
_atom_site_fract_x
_atom_site_fract_y
_atom_site_fract_z
Si Si1 0.212526 0.013886 0.423390
Si Si2 0.502784 0.538379 0.382010
Si Si3 0.821986 0.750389 0.720929
Si Si4 0.209548 0.730421 0.249802
Si Si5 0.642909 0.287309 0.978053
Si Si6 0.822730 0.855465 0.961239
Si Si7 0.812365 0.469036 0.206963
O O1 0.144254 0.891450 0.304721
O O2 0.500000 0.000000 0.500000
O O3 0.198055 0.166802 0.381273
O O4 0.000000 0.000000 0.500000
O O5 0.500000 0.500000 0.500000
O O6 0.344967 0.398590 0.300297
O O7 0.359034 0.679892 0.362594
O O8 0.755509 0.543064 0.330190
O O9 0.732586 0.845478 0.827312
O O10 0.100577 0.687795 0.764721
O O11 0.390684 0.717288 0.156322
O O12 0.995088 0.599249 0.191903
O O13 0.426042 0.169349 0.986624
O O14 0.619425 0.418302 0.083755
O O15 0.954869 0.258504 0.010218
O O16 0.000000 0.000000 0.000000
#
# Coordination Sequence:
#
# PCOD9048391 Si02
#       7
#     2   2   2   2   2   2   2
#     4  12  30  48  72 103 148 191 244 298 357 420
#     4  11  24  43  73 100 143 189 248 288 356 427
#     4  10  24  45  68 102 139 190 238 295 354 425
#     4  11  27  44  72 110 144 193 235 306 360 428
#     4  11  24  44  71 108 144 181 241 297 363 425
#     4  11  23  42  70 104 142 192 232 290 361 436
#     4  10  24  45  74 106 143 192 238 297 364 431
#
# _framework density 24.058968
#
# number of rings (size 3 to 8) (size 9 to 14) (size 15 to 20)
#    0.000    1.143    1.429    2.571   10.000    2.857 
#    0.000    0.000    0.000    0.000    0.000    0.000 
#    0.000    0.000    0.000    0.000    0.000    0.000 
#
# Total GULP energy -77965.669537 kJ/mol
# GULP energy per Si atom -5568.976395 kJ/mol
# Density = 2.400421 g / cm^3
# Si number density = 24.058968 Si / 1000 Ang^3
#
#
#
# Elastic Constant Matrix: (Units=GPa)
#
#
# Indices 1 2 3 4 5 6 
#
# 1 88.4217 21.0468 35.2548 -22.2264 -22.0269 19.3969
# 2 21.0468 80.0875 10.8895 3.5898 -8.5309 15.1368
# 3 35.2548 10.8895 104.9124 -10.6753 -13.4183 12.8270
# 4 -22.2264 3.5898 -10.6753 53.5580 0.6819 1.2628
# 5 -22.0269 -8.5309 -13.4183 0.6819 39.0587 -12.5985
# 6 19.3969 15.1368 12.8270 1.2628 -12.5985 34.5021
#
#
#
# Elastic Compliance Matrix: (Units=1/GPa)
#
#
# Indices 1 2 3 4 5 6 
#
# 1 0.017938 -0.002835 -0.003539 0.006975 0.006404 -0.005442
# 2 -0.002835 0.014198 -0.000179 -0.002058 0.000031 -0.004482
# 3 -0.003539 -0.000179 0.011184 0.000796 0.001258 -0.001660
# 4 0.006975 -0.002058 0.000796 0.021910 0.002321 -0.003269
# 5 0.006404 0.000031 0.001258 0.002321 0.032042 0.007534
# 6 -0.005442 -0.004482 -0.001660 -0.003269 0.007534 0.037497
#
#
# Mechanical properties :
#
#
# Convention : Reuss Voigt Hill
#
# Bulk Modulus (GPa) = 33.09598 45.31152 39.20375
# Shear Modulus (GPa) = 31.65605 39.17247 35.41426
#
# Velocity S-wave (km/s) = 3.63129 4.03946 3.84080
# Velocity P-wave (km/s) = 5.60069 6.37422 5.99993
#
# Compressibility (1/GPa) = 0.03021515
#
# Stress axis : x y z
#
# Youngs Moduli (GPa) = 55.74809 70.43077 89.40974
#
# Poissons Ratio (x) = 0.19965 0.31646
# Poissons Ratio (y) = 0.15803 0.01597
# Poissons Ratio (z) = 0.19732 0.01258
#
# Static dielectric constant tensor:
#      x y z
#    x 2.500980 -0.174790 0.049050 
#    y -0.174790 1.922710 0.015950 
#    z 0.049050 0.015950 1.957180 
# 
# From -- ./inp_files/101079.got.cif
#   From: 2010.05.17/outbox.cif.g08.bks.cpg/sg2_51_cif.got.tgz:101079.got - 2010.06.03 11:33:40.
