data_PCOD9048200
_publ_section_title
;
Structure prediction by ZEFSAII (Michael W. Deem and Ramdas Pophale) SiO2 
 PCOD9048200
Probable space group: P -1
;
_chemical_formula_sum "Si O2"
_cell_formula_units_Z 15
_cell_length_a 15.558321
_cell_length_b 9.786644
_cell_length_c 22.264413
_cell_angle_alpha 148.149149
_cell_angle_beta 26.489812
_cell_angle_gamma 152.344441
_cell_volume 675.050198
_symmetry_space_group_name_H-M "P -1"
_symmetry_group_IT_number 2
_symmetry_cell_setting 'triclinic'
loop_
_space_group_symop_operation_xyz
x,y,z
-x,-y,-z
loop_
_atom_site_type_symbol
_atom_site_label
_atom_site_fract_x
_atom_site_fract_y
_atom_site_fract_z
Si Si1 0.711919 0.343584 0.449029
Si Si2 0.671607 0.747747 0.265879
Si Si3 0.100367 0.715374 0.888306
Si Si4 0.563229 0.342266 0.079247
Si Si5 0.484591 0.606713 0.116796
Si Si6 0.760177 0.663068 0.418926
Si Si7 0.933646 0.356297 0.554731
Si Si8 0.000000 0.500000 0.000000
O O1 0.459113 0.241527 0.589861
O O2 0.782595 0.601524 0.451560
O O3 0.863225 0.459118 0.456842
O O4 0.729935 0.056720 0.309599
O O5 0.503378 0.463094 0.221204
O O6 0.873812 0.699455 0.139882
O O7 0.141463 0.510464 0.741651
O O8 0.279037 0.072164 0.900344
O O9 0.136921 0.630786 0.900729
O O10 0.834119 0.585400 0.998131
O O11 0.458198 0.358229 0.088715
O O12 0.500000 0.000000 0.000000
O O13 0.280676 0.653163 0.281865
O O14 0.500000 0.500000 0.000000
O O15 0.500000 0.500000 0.500000
O O16 0.878410 0.013969 0.459080
O O17 0.000000 0.500000 0.500000
#
# Coordination Sequence:
#
# PCOD9048200 Si02
#       8
#     2   2   2   2   2   2   2   1
#     4  11  26  46  77 107 150 196 255 314 379 458
#     4  10  24  44  78 106 150 192 251 305 388 448
#     4  11  26  46  76 102 152 196 249 310 377 454
#     4  11  27  46  74 107 149 196 247 309 382 456
#     4  12  29  47  74 110 152 195 257 313 380 452
#     4  12  26  48  75 107 146 192 257 310 384 452
#     4  12  30  47  76 110 154 199 254 317 386 463
#     4  10  24  44  76 110 146 192 252 302 388 452
#
# _framework density 22.220569999999999
#
# number of rings (size 3 to 8) (size 9 to 14) (size 15 to 20)
#    0.000    0.800    1.333    3.200   18.667    0.000 
#    0.000    0.000    0.000    0.000    0.000    0.000 
#    0.000    0.000    0.000    0.000    0.000    0.000 
#
# Total GULP energy -83567.398703 kJ/mol
# GULP energy per Si atom -5571.159914 kJ/mol
# Density = 2.217000 g / cm^3
# Si number density = 22.220570 Si / 1000 Ang^3
#
#
#
# Elastic Constant Matrix: (Units=GPa)
#
#
# Indices 1 2 3 4 5 6 
#
# 1 102.2225 49.9615 37.8063 19.1335 -0.1494 -31.1843
# 2 49.9615 110.5577 39.6822 25.5248 5.9335 -13.0698
# 3 37.8063 39.6822 116.5329 11.3590 1.4364 0.0397
# 4 19.1335 25.5248 11.3590 47.4037 2.6945 -3.9647
# 5 -0.1494 5.9335 1.4364 2.6945 34.5805 -1.0894
# 6 -31.1843 -13.0698 0.0397 -3.9647 -1.0894 45.6124
#
#
#
# Elastic Compliance Matrix: (Units=1/GPa)
#
#
# Indices 1 2 3 4 5 6 
#
# 1 0.017003 -0.004612 -0.003702 -0.002735 0.001550 0.010105
# 2 -0.004612 0.013205 -0.002537 -0.004521 -0.001822 0.000196
# 3 -0.003702 -0.002537 0.010645 0.000044 -0.000129 -0.003266
# 4 -0.002735 -0.004521 0.000044 0.024602 -0.001188 -0.001055
# 5 0.001550 -0.001822 -0.000129 -0.001188 0.029371 0.001136
# 6 0.010105 0.000196 -0.003266 -0.001055 0.001136 0.028827
#
#
# Mechanical properties :
#
#
# Convention : Reuss Voigt Hill
#
# Bulk Modulus (GPa) = 52.21840 64.91258 58.56549
# Shear Modulus (GPa) = 32.95162 38.97687 35.96425
#
# Velocity S-wave (km/s) = 3.85507 4.19273 4.02744
# Velocity P-wave (km/s) = 6.58532 7.26050 6.93114
#
# Compressibility (1/GPa) = 0.01915034
#
# Stress axis : x y z
#
# Youngs Moduli (GPa) = 58.81384 75.73132 93.94479
#
# Poissons Ratio (x) = 0.34928 0.34774
# Poissons Ratio (y) = 0.27126 0.23835
# Poissons Ratio (z) = 0.21770 0.19214
#
# Static dielectric constant tensor:
#      x y z
#    x 1.882150 0.003960 -0.023980 
#    y 0.003960 1.834350 -0.012520 
#    z -0.023980 -0.012520 1.801040 
# 
# From -- ./inp_files/597469.got.cif
#   From: 2010.05.17/outbox.cif.g08.bks.cpg/sg2_299_cif.got.tgz:597469.got - 2010.06.03 11:33:40.
