data_PCOD9048749
_publ_section_title
;
Structure prediction by ZEFSAII (Michael W. Deem and Ramdas Pophale) SiO2 
 PCOD9048749
Probable space group: P -1
;
_chemical_formula_sum "Si O2"
_cell_formula_units_Z 16
_cell_length_a 20.106051
_cell_length_b 17.781665
_cell_length_c 6.996483
_cell_angle_alpha 126.197478
_cell_angle_beta 135.000702
_cell_angle_gamma 22.962617
_cell_volume 673.224238
_symmetry_space_group_name_H-M "P -1"
_symmetry_group_IT_number 2
_symmetry_cell_setting 'triclinic'
loop_
_space_group_symop_operation_xyz
x,y,z
-x,-y,-z
loop_
_atom_site_type_symbol
_atom_site_label
_atom_site_fract_x
_atom_site_fract_y
_atom_site_fract_z
Si Si1 0.986774 0.625899 0.969432
Si Si2 0.750632 0.064923 0.518391
Si Si3 0.530326 0.578665 0.243437
Si Si4 0.390186 0.842615 0.047559
Si Si5 0.300431 0.293828 0.551981
Si Si6 0.037976 0.293570 0.403250
Si Si7 0.309946 0.225646 0.907615
Si Si8 0.982970 0.200271 0.634980
O O1 0.821976 0.688152 0.755845
O O2 0.973963 0.677367 0.804712
O O3 0.217384 0.389069 0.092869
O O4 0.963815 0.738106 0.215937
O O5 0.632924 0.241492 0.668948
O O6 0.610751 0.162649 0.195591
O O7 0.823612 0.913736 0.568047
O O8 0.953698 0.915782 0.594882
O O9 0.753252 0.393824 0.504605
O O10 0.500000 0.500000 0.000000
O O11 0.503718 0.666435 0.134797
O O12 0.483965 0.861674 0.320882
O O13 0.153168 0.030262 0.881558
O O14 0.326766 0.241039 0.746361
O O15 0.180292 0.497182 0.636111
O O16 0.136581 0.302379 0.687445
O O17 0.500000 0.000000 0.000000
#
# Coordination Sequence:
#
# PCOD9048749 Si02
#       8
#     2   2   2   2   2   2   2   2
#     4   9  19  35  61  98 145 189 234 279 327 404
#     4  10  24  45  72 103 138 179 229 291 350 413
#     4  12  28  51  76 103 137 177 226 301 367 418
#     4  10  24  46  70 106 140 180 236 276 353 417
#     4   9  18  35  63  97 145 192 228 280 332 394
#     4   9  17  33  62  95 137 189 232 277 332 396
#     4   9  17  28  53  97 136 188 240 272 326 394
#     4  10  25  45  68 108 137 181 242 272 349 417
#
# _framework density 23.766226
#
# number of rings (size 3 to 8) (size 9 to 14) (size 15 to 20)
#    0.750    1.500    0.000    3.750    5.250    2.000 
#    2.250    5.625    0.000    0.000    0.000    0.000 
#    0.000    0.000    0.000    0.000    0.000    0.000 
#
# Total GULP energy -89156.432238 kJ/mol
# GULP energy per Si atom -5572.277015 kJ/mol
# Density = 2.371213 g / cm^3
# Si number density = 23.766226 Si / 1000 Ang^3
#
#
#
# Elastic Constant Matrix: (Units=GPa)
#
#
# Indices 1 2 3 4 5 6 
#
# 1 34.0372 22.7022 13.6254 0.1374 -9.0620 -6.2056
# 2 22.7022 129.7015 46.3695 5.5218 6.0388 -27.8952
# 3 13.6254 46.3695 75.5705 1.4389 -4.1582 -2.1784
# 4 0.1374 5.5218 1.4389 39.3911 2.3400 -7.8518
# 5 -9.0620 6.0388 -4.1582 2.3400 31.1656 -0.3611
# 6 -6.2056 -27.8952 -2.1784 -7.8518 -0.3611 23.0793
#
#
#
# Elastic Compliance Matrix: (Units=1/GPa)
#
#
# Indices 1 2 3 4 5 6 
#
# 1 0.037897 -0.005376 -0.002795 0.000804 0.011673 0.003884
# 2 -0.005376 0.015503 -0.008397 0.001886 -0.005632 0.017053
# 3 -0.002795 -0.008397 0.018826 -0.001617 0.003336 -0.009622
# 4 0.000804 0.001886 -0.001617 0.027649 -0.002288 0.011714
# 5 0.011673 -0.005632 0.003336 -0.002288 0.037148 -0.003550
# 6 0.003884 0.017053 -0.009622 0.011714 -0.003550 0.068006
#
#
# Mechanical properties :
#
#
# Convention : Reuss Voigt Hill
#
# Bulk Modulus (GPa) = 25.58291 44.96706 35.27499
# Shear Modulus (GPa) = 19.90485 29.16800 24.53643
#
# Velocity S-wave (km/s) = 2.89715 3.50707 3.21660
# Velocity P-wave (km/s) = 4.68818 5.94651 5.35444
#
# Compressibility (1/GPa) = 0.03908859
#
# Stress axis : x y z
#
# Youngs Moduli (GPa) = 26.38729 64.50523 53.11785
#
# Poissons Ratio (x) = 0.34681 0.14846
# Poissons Ratio (y) = 0.14187 0.44604
# Poissons Ratio (z) = 0.07375 0.54166
#
# Static dielectric constant tensor:
#      x y z
#    x 1.908780 -0.025350 -0.064250 
#    y -0.025350 1.860010 0.099560 
#    z -0.064250 0.099560 1.782230 
# 
# From -- ./inp_files/357808.got.cif
#   From: 2010.05.17/outbox.cif.g08.bks.cpg/sg2_179_cif.got.tgz:357808.got - 2010.06.03 11:33:40.
