data_PCOD9048528
_publ_section_title
;
Structure prediction by ZEFSAII (Michael W. Deem and Ramdas Pophale) SiO2 
 PCOD9048528
Probable space group: P -1
;
_chemical_formula_sum "Si O2"
_cell_formula_units_Z 16
_cell_length_a 9.390633
_cell_length_b 9.518801
_cell_length_c 15.533276
_cell_angle_alpha 75.900684
_cell_angle_beta 107.704276
_cell_angle_gamma 47.733237
_cell_volume 755.618128
_symmetry_space_group_name_H-M "P -1"
_symmetry_group_IT_number 2
_symmetry_cell_setting 'triclinic'
loop_
_space_group_symop_operation_xyz
x,y,z
-x,-y,-z
loop_
_atom_site_type_symbol
_atom_site_label
_atom_site_fract_x
_atom_site_fract_y
_atom_site_fract_z
Si Si1 0.459279 0.470791 0.402827
Si Si2 0.323239 0.869342 0.072726
Si Si3 0.343617 0.965575 0.684894
Si Si4 0.103364 0.715630 0.582429
Si Si5 0.328954 0.246457 0.377462
Si Si6 0.752144 0.691279 0.261027
Si Si7 0.005891 0.991602 0.147762
Si Si8 0.268882 0.704697 0.781175
O O1 0.500000 0.500000 0.500000
O O2 0.709593 0.312350 0.418858
O O3 0.399256 0.349655 0.410204
O O4 0.227350 0.735205 0.276343
O O5 0.519105 0.844943 0.130717
O O6 0.131933 0.996713 0.098531
O O7 0.495872 0.588683 0.140464
O O8 0.162001 0.993754 0.937477
O O9 0.592757 0.814028 0.699425
O O10 0.349130 0.803645 0.753657
O O11 0.275399 0.140602 0.715739
O O12 0.129666 0.126171 0.547019
O O13 0.250433 0.447134 0.655693
O O14 0.063714 0.803139 0.659640
O O15 0.029534 0.461661 0.303895
O O16 0.500000 0.000000 0.500000
O O17 0.841647 0.202811 0.157371
#
# Coordination Sequence:
#
# PCOD9048528 Si02
#       8
#     2   2   2   2   2   2   2   2
#     4  12  25  41  68 101 132 173 221 270 330 398
#     4  10  24  45  69  97 130 171 232 279 312 402
#     4  12  24  40  64  96 142 176 213 273 336 395
#     4  11  22  41  62  95 137 170 225 272 316 399
#     4  12  26  40  62  94 138 178 213 265 335 395
#     4  11  24  43  61  95 132 175 222 271 328 389
#     4  11  22  43  74  97 126 174 227 275 333 377
#     4  11  22  40  65  98 129 170 224 276 325 387
#
# _framework density 21.174716
#
# number of rings (size 3 to 8) (size 9 to 14) (size 15 to 20)
#    0.000    0.750    5.000    3.375    3.500    2.000 
#    0.000    2.500    0.000    4.500    0.000    0.000 
#    0.000    0.000    0.000    0.000    0.000    0.000 
#
# Total GULP energy -89524.324587 kJ/mol
# GULP energy per Si atom -5595.270287 kJ/mol
# Density = 2.112652 g / cm^3
# Si number density = 21.174716 Si / 1000 Ang^3
#
#
#
# Elastic Constant Matrix: (Units=GPa)
#
#
# Indices 1 2 3 4 5 6 
#
# 1 93.1323 42.0645 22.1382 14.6039 21.8013 -6.1281
# 2 42.0645 112.0241 26.4790 29.0074 -0.0042 -16.9275
# 3 22.1382 26.4790 108.2688 23.4062 24.3089 -12.2450
# 4 14.6039 29.0074 23.4062 23.7677 0.2123 -5.6037
# 5 21.8013 -0.0042 24.3089 0.2123 33.5323 -5.0563
# 6 -6.1281 -16.9275 -12.2450 -5.6037 -5.0563 41.9813
#
#
#
# Elastic Compliance Matrix: (Units=1/GPa)
#
#
# Indices 1 2 3 4 5 6 
#
# 1 0.016312 -0.005348 0.001662 -0.005368 -0.011996 -0.001452
# 2 -0.005348 0.015277 -0.000007 -0.014458 0.004171 0.003950
# 3 0.001662 -0.000007 0.014972 -0.015383 -0.011664 0.001149
# 4 -0.005368 -0.014458 -0.015383 0.078292 0.014306 0.001073
# 5 -0.011996 0.004171 -0.011664 0.014306 0.046598 0.004050
# 6 -0.001452 0.003950 0.001149 0.001073 0.004050 0.026167
#
#
# Mechanical properties :
#
#
# Convention : Reuss Voigt Hill
#
# Bulk Modulus (GPa) = 25.52533 54.97649 40.25091
# Shear Modulus (GPa) = 22.92925 34.70584 28.81755
#
# Velocity S-wave (km/s) = 3.29425 4.05288 3.69310
# Velocity P-wave (km/s) = 5.15270 6.92248 6.10209
#
# Compressibility (1/GPa) = 0.03917676
#
# Stress axis : x y z
#
# Youngs Moduli (GPa) = 61.30427 65.45714 66.78980
#
# Poissons Ratio (x) = 0.35005 -0.11102
# Poissons Ratio (y) = 0.32784 0.00046
# Poissons Ratio (z) = -0.10190 0.00045
#
# Static dielectric constant tensor:
#      x y z
#    x 1.786450 -0.034500 -0.001290 
#    y -0.034500 1.769390 -0.017230 
#    z -0.001290 -0.017230 1.785730 
# 
# From -- ./inp_files/494911.got.cif
#   From: 2010.05.17/outbox.cif.g08.bks.cpg/sg2_248_cif.got.tgz:494911.got - 2010.06.03 11:33:40.
