data_PCOD9048255
_publ_section_title
;
Structure prediction by ZEFSAII (Michael W. Deem and Ramdas Pophale) SiO2 
 PCOD9048255
Probable space group: P -1
;
_chemical_formula_sum "Si O2"
_cell_formula_units_Z 16
_cell_length_a 5.074584
_cell_length_b 29.187177
_cell_length_c 9.155777
_cell_angle_alpha 37.526554
_cell_angle_beta 56.491562
_cell_angle_gamma 70.949140
_cell_volume 671.973226
_symmetry_space_group_name_H-M "P -1"
_symmetry_group_IT_number 2
_symmetry_cell_setting 'triclinic'
loop_
_space_group_symop_operation_xyz
x,y,z
-x,-y,-z
loop_
_atom_site_type_symbol
_atom_site_label
_atom_site_fract_x
_atom_site_fract_y
_atom_site_fract_z
Si Si1 0.884645 0.157490 0.601277
Si Si2 0.616202 0.482815 0.665277
Si Si3 0.680907 0.775718 0.954518
Si Si4 0.060961 0.804254 0.194408
Si Si5 0.312893 0.357394 0.275172
Si Si6 0.404173 0.614687 0.577505
Si Si7 0.920592 0.083086 0.326575
Si Si8 0.397772 0.067495 0.762781
O O1 0.797922 0.189166 0.702418
O O2 0.048912 0.085622 0.783516
O O3 0.589277 0.137448 0.629220
O O4 0.161767 0.213605 0.280215
O O5 0.500000 0.500000 0.500000
O O6 0.487888 0.540115 0.668924
O O7 0.000000 0.500000 0.500000
O O8 0.464287 0.396600 0.982272
O O9 0.654671 0.691846 0.246405
O O10 0.309013 0.782101 0.057042
O O11 0.859754 0.850011 0.808608
O O12 0.753848 0.734700 0.470641
O O13 0.033260 0.884975 0.932549
O O14 0.549687 0.388658 0.255504
O O15 0.963455 0.378221 0.356301
O O16 0.573878 0.068740 0.549086
O O17 0.000000 0.000000 0.500000
O O18 0.500000 0.000000 0.000000
#
# Coordination Sequence:
#
# PCOD9048255 Si02
#       8
#     2   2   2   2   2   2   2   2
#     4  11  25  41  67  93 136 172 230 285 350 413
#     4  12  26  45  71 116 146 180 233 287 349 415
#     4  10  24  45  64 103 134 186 233 285 357 415
#     4  11  24  43  69 100 136 185 236 288 353 415
#     4  11  24  45  72 103 141 189 237 277 351 429
#     4  11  23  45  75  95 148 185 232 284 347 423
#     4  11  23  42  68  95 137 180 239 297 344 416
#     4  11  24  44  62  97 132 175 229 289 359 414
#
# _framework density 23.810472000000001
#
# number of rings (size 3 to 8) (size 9 to 14) (size 15 to 20)
#    0.000    1.000    2.500    3.375    5.250    1.500 
#    4.500    0.000    0.000    0.000    0.000    0.000 
#    0.000    0.000    0.000    0.000    0.000    0.000 
#
# Total GULP energy -89452.086381 kJ/mol
# GULP energy per Si atom -5590.755399 kJ/mol
# Density = 2.375628 g / cm^3
# Si number density = 23.810472 Si / 1000 Ang^3
#
#
#
# Elastic Constant Matrix: (Units=GPa)
#
#
# Indices 1 2 3 4 5 6 
#
# 1 85.9843 7.0324 5.4540 -0.7856 11.5708 -2.7884
# 2 7.0324 56.8516 12.5033 13.5777 5.7690 4.3183
# 3 5.4540 12.5033 143.5192 22.1219 24.0862 -2.3024
# 4 -0.7856 13.5777 22.1219 36.9025 6.4961 4.7773
# 5 11.5708 5.7690 24.0862 6.4961 33.2732 11.2371
# 6 -2.7884 4.3183 -2.3024 4.7773 11.2371 35.6987
#
#
#
# Elastic Compliance Matrix: (Units=1/GPa)
#
#
# Indices 1 2 3 4 5 6 
#
# 1 0.012590 -0.001589 0.000464 0.001200 -0.005623 0.002815
# 2 -0.001589 0.019669 -0.000537 -0.006642 -0.000689 -0.001432
# 3 0.000464 -0.000537 0.008859 -0.004349 -0.006776 0.003387
# 4 0.001200 -0.006642 -0.004349 0.032854 -0.001405 -0.003338
# 5 -0.005623 -0.000689 -0.006776 -0.001405 0.041975 -0.013818
# 6 0.002815 -0.001432 0.003387 -0.003338 -0.013818 0.033420
#
#
# Mechanical properties :
#
#
# Convention : Reuss Voigt Hill
#
# Bulk Modulus (GPa) = 26.45946 37.37046 31.91496
# Shear Modulus (GPa) = 30.25013 38.59925 34.42469
#
# Velocity S-wave (km/s) = 3.56821 4.03066 3.80647
# Velocity P-wave (km/s) = 5.30215 6.11479 5.72291
#
# Compressibility (1/GPa) = 0.03779367
#
# Stress axis : x y z
#
# Youngs Moduli (GPa) = 79.43100 50.84058 112.88349
#
# Poissons Ratio (x) = 0.08079 -0.05237
# Poissons Ratio (y) = 0.12623 0.06059
# Poissons Ratio (z) = -0.03685 0.02729
#
# Static dielectric constant tensor:
#      x y z
#    x 1.920380 -0.030960 0.006800 
#    y -0.030960 1.924120 -0.043610 
#    z 0.006800 -0.043610 1.946790 
# 
# From -- ./inp_files/143067.got.cif
#   From: 2010.05.17/outbox.cif.g08.bks.cpg/sg2_72_cif.got.tgz:143067.got - 2010.06.03 11:33:40.
