data_PCOD9048795
_publ_section_title
;
Structure prediction by ZEFSAII (Michael W. Deem and Ramdas Pophale) SiO2 
 PCOD9048795
Probable space group: P -1
;
_chemical_formula_sum "Si O2"
_cell_formula_units_Z 16
_cell_length_a 14.278809
_cell_length_b 6.966838
_cell_length_c 8.894044
_cell_angle_alpha 74.097127
_cell_angle_beta 69.945401
_cell_angle_gamma 99.031080
_cell_volume 767.855550
_symmetry_space_group_name_H-M "P -1"
_symmetry_group_IT_number 2
_symmetry_cell_setting 'triclinic'
loop_
_space_group_symop_operation_xyz
x,y,z
-x,-y,-z
loop_
_atom_site_type_symbol
_atom_site_label
_atom_site_fract_x
_atom_site_fract_y
_atom_site_fract_z
Si Si1 0.550147 0.031289 0.662271
Si Si2 0.093070 0.571022 0.313013
Si Si3 0.992529 0.289837 0.964333
Si Si4 0.346740 0.178866 0.823519
Si Si5 0.448207 0.627123 0.620482
Si Si6 0.269337 0.944556 0.219157
Si Si7 0.885402 0.845748 0.578939
Si Si8 0.847361 0.866316 0.250518
O O1 0.444038 0.088251 0.752234
O O2 0.604480 0.223157 0.478842
O O3 0.622648 0.036358 0.762706
O O4 0.522894 0.804960 0.645754
O O5 0.060525 0.700712 0.170278
O O6 0.198466 0.709802 0.296463
O O7 0.113043 0.360561 0.288967
O O8 0.000000 0.500000 0.500000
O O9 0.104459 0.262111 0.867881
O O10 0.000000 0.500000 0.000000
O O11 0.922747 0.098339 0.138215
O O12 0.379950 0.426478 0.789425
O O13 0.268871 0.147387 0.731805
O O14 0.288820 0.048838 0.023356
O O15 0.500000 0.500000 0.500000
O O16 0.200412 0.056511 0.330119
O O17 0.859024 0.797125 0.428519
O O18 0.000000 0.000000 0.500000
#
# Coordination Sequence:
#
# PCOD9048795 Si02
#       8
#     2   2   2   2   2   2   2   2
#     4  10  24  45  73 101 136 181 229 276 345 415
#     4  12  24  45  65 100 138 178 228 279 335 410
#     4  11  24  42  69  94 135 179 229 276 343 399
#     4  11  25  45  69 102 144 173 231 285 339 405
#     4   9  22  43  71  99 137 170 226 284 337 402
#     4  12  27  44  70 101 138 185 227 283 344 403
#     4  12  26  43  68  97 140 179 228 282 341 404
#     4  11  25  42  66 101 135 176 228 285 333 407
#
# _framework density 20.837253
#
# number of rings (size 3 to 8) (size 9 to 14) (size 15 to 20)
#    0.000    1.000    3.750    1.125   10.500    3.500 
#    0.000    0.000    0.000    0.000    0.000    0.000 
#    0.000    0.000    0.000    0.000    0.000    0.000 
#
# Total GULP energy -89369.097889 kJ/mol
# GULP energy per Si atom -5585.568618 kJ/mol
# Density = 2.078983 g / cm^3
# Si number density = 20.837253 Si / 1000 Ang^3
#
#
#
# Elastic Constant Matrix: (Units=GPa)
#
#
# Indices 1 2 3 4 5 6 
#
# 1 124.0527 20.6725 15.2602 6.6159 -2.4428 -0.9950
# 2 20.6725 122.1092 18.9925 -3.4854 -20.4137 -1.8629
# 3 15.2602 18.9925 61.6404 -16.0735 -2.4270 7.4083
# 4 6.6159 -3.4854 -16.0735 27.8196 -2.6804 1.0567
# 5 -2.4428 -20.4137 -2.4270 -2.6804 31.3537 4.8326
# 6 -0.9950 -1.8629 7.4083 1.0567 4.8326 26.3216
#
#
#
# Elastic Compliance Matrix: (Units=1/GPa)
#
#
# Indices 1 2 3 4 5 6 
#
# 1 0.008876 -0.001278 -0.003120 -0.004223 -0.000969 0.001471
# 2 -0.001278 0.009814 -0.002267 0.000813 0.006166 0.000120
# 3 -0.003120 -0.002267 0.022308 0.013860 0.002356 -0.007546
# 4 -0.004223 0.000813 0.013860 0.045931 0.006279 -0.007000
# 5 -0.000969 0.006166 0.002356 0.006279 0.037698 -0.007437
# 6 0.001471 0.000120 -0.007546 -0.007000 -0.007437 0.041826
#
#
# Mechanical properties :
#
#
# Convention : Reuss Voigt Hill
#
# Bulk Modulus (GPa) = 36.14186 46.40587 41.27386
# Shear Modulus (GPa) = 26.45432 33.95745 30.20589
#
# Velocity S-wave (km/s) = 3.56697 4.04127 3.81150
# Velocity P-wave (km/s) = 5.86062 6.64039 6.26265
#
# Compressibility (1/GPa) = 0.02766874
#
# Stress axis : x y z
#
# Youngs Moduli (GPa) = 112.66780 101.89409 44.82697
#
# Poissons Ratio (x) = 0.13017 0.13985
# Poissons Ratio (y) = 0.14394 0.10164
# Poissons Ratio (z) = 0.35149 0.23102
#
# Static dielectric constant tensor:
#      x y z
#    x 1.738630 -0.000430 -0.010960 
#    y -0.000430 1.735930 -0.003470 
#    z -0.010960 -0.003470 1.776770 
# 
# From -- ./inp_files/273141.got.cif
#   From: 2010.05.17/outbox.cif.g08.bks.cpg/sg2_137_cif.got.tgz:273141.got - 2010.06.03 11:33:40.
