data_PCOD9048463
_publ_section_title
;
Structure prediction by ZEFSAII (Michael W. Deem and Ramdas Pophale) SiO2 
 PCOD9048463
Probable space group: P -1
;
_chemical_formula_sum "Si O2"
_cell_formula_units_Z 16
_cell_length_a 10.926587
_cell_length_b 25.165405
_cell_length_c 6.516125
_cell_angle_alpha 49.465814
_cell_angle_beta 65.143404
_cell_angle_gamma 34.802382
_cell_volume 750.242639
_symmetry_space_group_name_H-M "P -1"
_symmetry_group_IT_number 2
_symmetry_cell_setting 'triclinic'
loop_
_space_group_symop_operation_xyz
x,y,z
-x,-y,-z
loop_
_atom_site_type_symbol
_atom_site_label
_atom_site_fract_x
_atom_site_fract_y
_atom_site_fract_z
Si Si1 0.533060 0.044143 0.691454
Si Si2 0.059216 0.183470 0.192257
Si Si3 0.131143 0.985234 0.260703
Si Si4 0.018928 0.438625 0.329358
Si Si5 0.814667 0.168910 0.669200
Si Si6 0.244482 0.587605 0.922570
Si Si7 0.312615 0.409474 0.470639
Si Si8 0.057692 0.265899 0.579137
O O1 0.276516 0.170576 0.517961
O O2 0.683725 0.947845 0.648518
O O3 0.677782 0.047199 0.684174
O O4 0.500000 0.000000 0.000000
O O5 0.928421 0.173381 0.412793
O O6 0.934354 0.301211 0.083844
O O7 0.047315 0.208904 0.897056
O O8 0.218588 0.890721 0.276919
O O9 0.000000 0.000000 0.500000
O O10 0.965747 0.097090 0.946495
O O11 0.788824 0.539672 0.361086
O O12 0.206261 0.387415 0.485416
O O13 0.068110 0.338928 0.484281
O O14 0.000000 0.500000 0.000000
O O15 0.575457 0.296995 0.572661
O O16 0.167915 0.644145 0.613569
O O17 0.500000 0.500000 0.000000
O O18 0.228712 0.511258 0.148389
#
# Coordination Sequence:
#
# PCOD9048463 Si02
#       8
#     2   2   2   2   2   2   2   2
#     4  10  24  45  69 101 136 182 233 289 348 413
#     4  11  24  44  67 105 133 182 229 285 349 410
#     4  11  24  48  70 102 139 178 239 283 349 420
#     4  11  23  45  67  96 138 182 233 282 347 410
#     4  11  25  44  72 100 139 181 226 292 354 408
#     4  12  25  44  68 102 137 179 230 282 347 417
#     4  11  24  43  67 103 137 178 230 284 344 419
#     4  11  25  46  69  99 140 184 235 286 347 415
#
# _framework density 21.326435
#
# number of rings (size 3 to 8) (size 9 to 14) (size 15 to 20)
#    0.000    1.000    5.000    0.750    3.500    3.000 
#    6.750    0.000    0.000    0.000    0.000    0.000 
#    0.000    0.000    0.000    0.000    0.000    0.000 
#
# Total GULP energy -89287.898384 kJ/mol
# GULP energy per Si atom -5580.493649 kJ/mol
# Density = 2.127789 g / cm^3
# Si number density = 21.326435 Si / 1000 Ang^3
#
#
#
# Elastic Constant Matrix: (Units=GPa)
#
#
# Indices 1 2 3 4 5 6 
#
# 1 74.5443 45.9754 24.5301 -14.3161 1.7424 -17.5797
# 2 45.9754 169.8585 49.3886 -7.5846 5.2216 -15.7186
# 3 24.5301 49.3886 111.3841 -4.5769 -5.4220 -18.4059
# 4 -14.3161 -7.5846 -4.5769 32.1743 -7.5711 -6.8581
# 5 1.7424 5.2216 -5.4220 -7.5711 25.9557 2.0573
# 6 -17.5797 -15.7186 -18.4059 -6.8581 2.0573 32.0061
#
#
#
# Elastic Compliance Matrix: (Units=1/GPa)
#
#
# Indices 1 2 3 4 5 6 
#
# 1 0.020830 -0.004020 -0.000361 0.011120 0.001664 0.011535
# 2 -0.004020 0.007791 -0.002702 -0.000827 -0.002105 0.000022
# 3 -0.000361 -0.002702 0.011428 0.002769 0.003333 0.005426
# 4 0.011120 -0.000827 0.002769 0.042158 0.011058 0.015616
# 5 0.001664 -0.002105 0.003333 0.011058 0.042648 0.001425
# 6 0.011535 0.000022 0.005426 0.015616 0.001425 0.043966
#
#
# Mechanical properties :
#
#
# Convention : Reuss Voigt Hill
#
# Bulk Modulus (GPa) = 38.63524 66.17501 52.40512
# Shear Modulus (GPa) = 26.09409 33.75339 29.92374
#
# Velocity S-wave (km/s) = 3.50173 3.98263 3.74990
# Velocity P-wave (km/s) = 5.87409 7.22810 6.58598
#
# Compressibility (1/GPa) = 0.02588311
#
# Stress axis : x y z
#
# Youngs Moduli (GPa) = 48.00761 128.35512 87.50363
#
# Poissons Ratio (x) = 0.51604 0.03156
# Poissons Ratio (y) = 0.19301 0.23643
# Poissons Ratio (z) = 0.01731 0.34681
#
# Static dielectric constant tensor:
#      x y z
#    x 1.677980 0.222090 0.136620 
#    y 0.222090 1.495080 -0.236320 
#    z 0.136620 -0.236320 1.573800 
# 
# From -- ./inp_files/84962.got.cif
#   From: 2010.05.17/outbox.cif.g08.bks.cpg/sg2_43_cif.got.tgz:84962.got - 2010.06.03 11:33:40.
