data_PCOD9048641
_publ_section_title
;
Structure prediction by ZEFSAII (Michael W. Deem and Ramdas Pophale) SiO2 
 PCOD9048641
Probable space group: P -1
;
_chemical_formula_sum "Si O2"
_cell_formula_units_Z 16
_cell_length_a 11.637127
_cell_length_b 8.704388
_cell_length_c 7.859748
_cell_angle_alpha 102.509471
_cell_angle_beta 65.476912
_cell_angle_gamma 113.034497
_cell_volume 665.179783
_symmetry_space_group_name_H-M "P -1"
_symmetry_group_IT_number 2
_symmetry_cell_setting 'triclinic'
loop_
_space_group_symop_operation_xyz
x,y,z
-x,-y,-z
loop_
_atom_site_type_symbol
_atom_site_label
_atom_site_fract_x
_atom_site_fract_y
_atom_site_fract_z
Si Si1 0.396241 0.885329 0.772321
Si Si2 0.950078 0.691424 0.189329
Si Si3 0.742002 0.636242 0.034231
Si Si4 0.883531 0.436997 0.696228
Si Si5 0.205768 0.163838 0.426389
Si Si6 0.503834 0.585930 0.701911
Si Si7 0.689235 0.109576 0.554501
Si Si8 0.825369 0.000656 0.945471
O O1 0.434248 0.727127 0.766579
O O2 0.319472 0.850975 0.629724
O O3 0.535723 0.036692 0.695795
O O4 0.300825 0.935618 0.972560
O O5 0.816578 0.597764 0.145385
O O6 0.896686 0.766542 0.401101
O O7 0.041624 0.594305 0.187876
O O8 0.045928 0.841166 0.049148
O O9 0.584103 0.549345 0.142801
O O10 0.805678 0.562939 0.824364
O O11 0.781146 0.835502 0.046775
O O12 0.777414 0.267880 0.645812
O O13 0.000000 0.500000 0.500000
O O14 0.341596 0.313853 0.329171
O O15 0.147032 0.060895 0.270021
O O16 0.250526 0.039708 0.492569
O O17 0.500000 0.500000 0.500000
#
# Coordination Sequence:
#
# PCOD9048641 Si02
#       8
#     2   2   2   2   2   2   2   2
#     4  10  25  45  74  97 133 188 226 281 343 417
#     4  12  25  48  70  96 145 188 231 277 351 420
#     4  12  28  45  70 107 140 181 236 287 349 408
#     4  12  28  44  71 106 142 183 228 295 348 407
#     4  11  24  45  73 100 136 185 234 284 344 413
#     4  11  25  46  73 103 141 179 230 294 350 402
#     4  10  24  45  70  97 137 176 238 270 347 415
#     4  12  26  44  73 101 136 185 235 284 339 420
#
# _framework density 24.053644999999999
#
# number of rings (size 3 to 8) (size 9 to 14) (size 15 to 20)
#    0.000    0.750    2.500    3.375   10.500    2.500 
#    0.000    0.000    0.000    0.000    0.000    0.000 
#    0.000    0.000    0.000    0.000    0.000    0.000 
#
# Total GULP energy -89668.816175 kJ/mol
# GULP energy per Si atom -5604.301011 kJ/mol
# Density = 2.399890 g / cm^3
# Si number density = 24.053645 Si / 1000 Ang^3
#
#
#
# Elastic Constant Matrix: (Units=GPa)
#
#
# Indices 1 2 3 4 5 6 
#
# 1 72.9185 24.6813 -11.7309 -0.5850 3.1202 -2.4064
# 2 24.6813 92.4957 15.7968 -21.2793 -15.7378 11.0340
# 3 -11.7309 15.7968 81.3514 4.2576 -24.8159 -3.6232
# 4 -0.5850 -21.2793 4.2576 41.7445 -2.9766 -5.8796
# 5 3.1202 -15.7378 -24.8159 -2.9766 45.0111 4.9513
# 6 -2.4064 11.0340 -3.6232 -5.8796 4.9513 39.3243
#
#
#
# Elastic Compliance Matrix: (Units=1/GPa)
#
#
# Indices 1 2 3 4 5 6 
#
# 1 0.016570 -0.006402 0.003284 -0.003106 -0.002103 0.002913
# 2 -0.006402 0.016484 -0.003067 0.008355 0.005592 -0.004755
# 3 0.003284 -0.003067 0.015697 -0.002439 0.007055 0.001255
# 4 -0.003106 0.008355 -0.002439 0.028830 0.003577 0.001101
# 5 -0.002103 0.005592 0.007055 0.003577 0.028900 -0.004152
# 6 0.002913 -0.004755 0.001255 0.001101 -0.004152 0.027745
#
#
# Mechanical properties :
#
#
# Convention : Reuss Voigt Hill
#
# Bulk Modulus (GPa) = 27.48798 33.80668 30.64733
# Shear Modulus (GPa) = 31.50100 39.75054 35.62577
#
# Velocity S-wave (km/s) = 3.62279 4.06960 3.85268
# Velocity P-wave (km/s) = 5.38071 6.01394 5.70611
#
# Compressibility (1/GPa) = 0.03637954
#
# Stress axis : x y z
#
# Youngs Moduli (GPa) = 60.34862 60.66401 63.70635
#
# Poissons Ratio (x) = 0.38838 -0.20918
# Poissons Ratio (y) = 0.38636 0.19541
# Poissons Ratio (z) = -0.19816 0.18608
#
# Static dielectric constant tensor:
#      x y z
#    x 1.873820 -0.022510 0.037900 
#    y -0.022510 1.912130 -0.018150 
#    z 0.037900 -0.018150 1.910050 
# 
# From -- ./inp_files/244910.got.cif
#   From: 2010.05.17/outbox.cif.g08.bks.cpg/sg2_123_cif.got.tgz:244910.got - 2010.06.03 11:33:40.
