data_PCOD9048524
_publ_section_title
;
Structure prediction by ZEFSAII (Michael W. Deem and Ramdas Pophale) SiO2 
 PCOD9048524
Probable space group: P -1
;
_chemical_formula_sum "Si O2"
_cell_formula_units_Z 16
_cell_length_a 11.819234
_cell_length_b 11.282334
_cell_length_c 12.086341
_cell_angle_alpha 64.418785
_cell_angle_beta 31.771450
_cell_angle_gamma 51.603618
_cell_volume 646.743283
_symmetry_space_group_name_H-M "P -1"
_symmetry_group_IT_number 2
_symmetry_cell_setting 'triclinic'
loop_
_space_group_symop_operation_xyz
x,y,z
-x,-y,-z
loop_
_atom_site_type_symbol
_atom_site_label
_atom_site_fract_x
_atom_site_fract_y
_atom_site_fract_z
Si Si1 0.232317 0.299964 0.723932
Si Si2 0.117352 0.242559 0.054369
Si Si3 0.997694 0.658065 0.446986
Si Si4 0.469582 0.853602 0.099508
Si Si5 0.331839 0.759850 0.457731
Si Si6 0.410735 0.890643 0.887009
Si Si7 0.849364 0.260492 0.936805
Si Si8 0.625403 0.494783 0.616708
O O1 0.052371 0.355224 0.960051
O O2 0.503871 0.223780 0.590929
O O3 0.249902 0.418835 0.580322
O O4 0.119534 0.213211 0.785196
O O5 0.259735 0.274510 0.020336
O O6 0.306164 0.070990 0.914523
O O7 0.911155 0.218751 0.290106
O O8 0.138087 0.670723 0.219037
O O9 0.156895 0.638792 0.432410
O O10 0.000000 0.500000 0.500000
O O11 0.702589 0.796374 0.642633
O O12 0.288578 0.868760 0.344330
O O13 0.413868 0.824693 0.034555
O O14 0.500000 0.000000 0.000000
O O15 0.452927 0.587608 0.375207
O O16 0.223616 0.865996 0.976647
O O17 0.615685 0.387681 0.155349
#
# Coordination Sequence:
#
# PCOD9048524 Si02
#       8
#     2   2   2   2   2   2   2   2
#     4  11  25  45  66  97 137 177 228 274 326 393
#     4  10  24  45  69  96 137 175 224 273 330 395
#     4  12  24  42  67  99 133 167 217 273 337 397
#     4   9  21  40  66  97 134 168 218 269 327 391
#     4  11  24  42  68  99 132 180 222 276 330 393
#     4  11  24  43  68 101 130 177 217 272 338 398
#     4  12  25  42  67  98 135 176 217 279 333 397
#     4  12  25  43  70 100 134 174 226 274 338 393
#
# _framework density 24.739338
#
# number of rings (size 3 to 8) (size 9 to 14) (size 15 to 20)
#    0.000    1.000    2.500    3.000    1.750    8.500 
#    0.000    3.125    0.000    0.000    0.000    0.000 
#    0.000    0.000    0.000    0.000    0.000    0.000 
#
# Total GULP energy -89395.715352 kJ/mol
# GULP energy per Si atom -5587.232210 kJ/mol
# Density = 2.468303 g / cm^3
# Si number density = 24.739338 Si / 1000 Ang^3
#
#
#
# Elastic Constant Matrix: (Units=GPa)
#
#
# Indices 1 2 3 4 5 6 
#
# 1 143.2302 6.3648 35.1209 -12.6196 -9.7137 -4.0002
# 2 6.3648 56.6406 51.4781 -1.3961 7.9183 6.6558
# 3 35.1209 51.4781 179.0796 -23.8841 10.7625 -13.2518
# 4 -12.6196 -1.3961 -23.8841 42.5688 -4.6892 7.6515
# 5 -9.7137 7.9183 10.7625 -4.6892 49.4801 -15.9346
# 6 -4.0002 6.6558 -13.2518 7.6515 -15.9346 25.5507
#
#
#
# Elastic Compliance Matrix: (Units=1/GPa)
#
#
# Indices 1 2 3 4 5 6 
#
# 1 0.007652 -0.000236 -0.001253 0.001525 0.002511 0.001719
# 2 -0.000236 0.029459 -0.009490 -0.002263 -0.008460 -0.017231
# 3 -0.001253 -0.009490 0.009454 0.003517 0.001905 0.007314
# 4 0.001525 -0.002263 0.003517 0.026807 0.000884 -0.004824
# 5 0.002511 -0.008460 0.001905 0.000884 0.028524 0.021109
# 6 0.001719 -0.017231 0.007314 -0.004824 0.021109 0.062298
#
#
# Mechanical properties :
#
#
# Convention : Reuss Voigt Hill
#
# Bulk Modulus (GPa) = 40.64197 62.76421 51.70309
# Shear Modulus (GPa) = 25.72601 42.58570 34.15585
#
# Velocity S-wave (km/s) = 3.22822 4.15345 3.71971
# Velocity P-wave (km/s) = 5.50990 6.95894 6.27637
#
# Compressibility (1/GPa) = 0.02460511
#
# Stress axis : x y z
#
# Youngs Moduli (GPa) = 130.68149 33.94563 105.77842
#
# Poissons Ratio (x) = 0.00802 0.13255
# Poissons Ratio (y) = 0.03089 1.00388
# Poissons Ratio (z) = 0.16375 0.32216
#
# Static dielectric constant tensor:
#      x y z
#    x 2.064770 -0.045400 -0.002390 
#    y -0.045400 1.963300 0.004000 
#    z -0.002390 0.004000 1.986200 
# 
# From -- ./inp_files/427940.got.cif
#   From: 2010.05.17/outbox.cif.g08.bks.cpg/sg2_214_cif.got.tgz:427940.got - 2010.06.03 11:33:40.
