data_PCOD9048938
_publ_section_title
;
Structure prediction by ZEFSAII (Michael W. Deem and Ramdas Pophale) SiO2 
 PCOD9048938
Probable space group: P -1
;
_chemical_formula_sum "Si O2"
_cell_formula_units_Z 13
_cell_length_a 16.511454
_cell_length_b 5.227210
_cell_length_c 11.010606
_cell_angle_alpha 89.881263
_cell_angle_beta 147.368430
_cell_angle_gamma 101.552148
_cell_volume 476.451731
_symmetry_space_group_name_H-M "P -1"
_symmetry_group_IT_number 2
_symmetry_cell_setting 'triclinic'
loop_
_space_group_symop_operation_xyz
x,y,z
-x,-y,-z
loop_
_atom_site_type_symbol
_atom_site_label
_atom_site_fract_x
_atom_site_fract_y
_atom_site_fract_z
Si Si1 0.231372 0.613625 0.223857
Si Si2 0.532178 0.649017 0.710031
Si Si3 0.454190 0.220840 0.014745
Si Si4 0.121989 0.040227 0.505439
Si Si5 0.255880 0.136041 0.401138
Si Si6 0.000000 0.500000 0.500000
Si Si7 0.176201 0.802653 0.898356
O O1 0.424964 0.684688 0.463643
O O2 0.177181 0.324485 0.226435
O O3 0.207371 0.845992 0.275263
O O4 0.170601 0.635345 0.013729
O O5 0.450232 0.318998 0.632594
O O6 0.471337 0.744743 0.758103
O O7 0.710615 0.881675 0.925069
O O8 0.263958 0.147952 0.780883
O O9 0.500000 0.500000 0.000000
O O10 0.500000 0.000000 0.000000
O O11 0.037715 0.727057 0.435548
O O12 0.194241 0.095956 0.461494
O O13 0.001679 0.205328 0.371440
O O14 0.197778 0.647436 0.805900
#
# Coordination Sequence:
#
# PCOD9048938 Si02
#       7
#     2   2   2   2   2   1   2
#     4  10  25  50  78 116 145 203 253 316 373 449
#     4  10  24  45  76 113 148 198 255 310 376 446
#     4  12  25  44  76 106 148 196 253 312 361 445
#     4  12  28  47  74 112 152 201 248 314 378 451
#     4  10  25  48  80 111 146 194 269 302 380 438
#     4  12  30  46  72 110 160 200 244 304 398 446
#     4  12  28  49  74 111 162 196 250 314 384 455
#
# _framework density 27.285032999999999
#
# number of rings (size 3 to 8) (size 9 to 14) (size 15 to 20)
#    0.923    0.000    3.077    1.846    6.462    3.077 
#    0.000    0.000    0.000    0.000    0.000    0.000 
#    0.000    0.000    0.000    0.000    0.000    0.000 
#
# Total GULP energy -72484.834549 kJ/mol
# GULP energy per Si atom -5575.756504 kJ/mol
# Density = 2.722293 g / cm^3
# Si number density = 27.285033 Si / 1000 Ang^3
#
#
#
# Elastic Constant Matrix: (Units=GPa)
#
#
# Indices 1 2 3 4 5 6 
#
# 1 128.2455 48.2860 13.8294 -19.0111 -23.5498 12.9395
# 2 48.2860 212.8206 26.5673 -25.1006 6.8590 19.6138
# 3 13.8294 26.5673 144.5337 -15.1051 -9.8799 14.6910
# 4 -19.0111 -25.1006 -15.1051 28.9496 19.1556 -3.1140
# 5 -23.5498 6.8590 -9.8799 19.1556 39.2594 -9.5611
# 6 12.9395 19.6138 14.6910 -3.1140 -9.5611 60.1431
#
#
#
# Elastic Compliance Matrix: (Units=1/GPa)
#
#
# Indices 1 2 3 4 5 6 
#
# 1 0.009896 -0.002357 -0.000020 0.000395 0.006060 -0.000372
# 2 -0.002357 0.006801 -0.000370 0.008959 -0.007644 -0.002372
# 3 -0.000020 -0.000370 0.007503 0.003515 -0.000152 -0.001550
# 4 0.000395 0.008959 0.003515 0.066474 -0.034310 -0.005878
# 5 0.006060 -0.007644 -0.000152 -0.034310 0.048904 0.007224
# 6 -0.000372 -0.002372 -0.001550 -0.005878 0.007224 0.018703
#
#
# Mechanical properties :
#
#
# Convention : Reuss Voigt Hill
#
# Bulk Modulus (GPa) = 53.45903 73.66279 63.56091
# Shear Modulus (GPa) = 29.40975 52.13155 40.77065
#
# Velocity S-wave (km/s) = 3.28666 4.37582 3.86975
# Velocity P-wave (km/s) = 5.83422 7.25165 6.58121
#
# Compressibility (1/GPa) = 0.01870591
#
# Stress axis : x y z
#
# Youngs Moduli (GPa) = 101.05063 147.02781 133.27633
#
# Poissons Ratio (x) = 0.34658 0.00271
# Poissons Ratio (y) = 0.23820 0.04928
# Poissons Ratio (z) = 0.00206 0.05437
#
# Static dielectric constant tensor:
#      x y z
#    x 1.469620 0.488910 0.176010 
#    y 0.488910 1.541700 -0.040580 
#    z 0.176010 -0.040580 2.210040 
# 
# From -- ./inp_files/459158.got.cif
#   From: 2010.05.17/outbox.cif.g08.bks.cpg/sg2_230_cif.got.tgz:459158.got - 2010.06.03 11:33:40.
