data_PCOD9048815
_publ_section_title
;
Structure prediction by ZEFSAII (Michael W. Deem and Ramdas Pophale) SiO2 
 PCOD9048815
Probable space group: P -1
;
_chemical_formula_sum "Si O2"
_cell_formula_units_Z 16
_cell_length_a 12.262172
_cell_length_b 11.800780
_cell_length_c 5.256082
_cell_angle_alpha 72.058594
_cell_angle_beta 82.172286
_cell_angle_gamma 62.253470
_cell_volume 640.362236
_symmetry_space_group_name_H-M "P -1"
_symmetry_group_IT_number 2
_symmetry_cell_setting 'triclinic'
loop_
_space_group_symop_operation_xyz
x,y,z
-x,-y,-z
loop_
_atom_site_type_symbol
_atom_site_label
_atom_site_fract_x
_atom_site_fract_y
_atom_site_fract_z
Si Si1 0.117394 0.465621 0.305276
Si Si2 0.511237 0.842689 0.823598
Si Si3 0.915203 0.038997 0.254123
Si Si4 0.124981 0.679065 0.803868
Si Si5 0.349227 0.149724 0.743077
Si Si6 0.551287 0.378562 0.869113
Si Si7 0.676781 0.504057 0.476173
Si Si8 0.114192 0.213698 0.512382
O O1 0.242126 0.443221 0.427927
O O2 0.139760 0.325024 0.267841
O O3 0.000000 0.500000 0.500000
O O4 0.078514 0.601017 0.066064
O O5 0.580056 0.834986 0.541866
O O6 0.409509 0.988804 0.836747
O O7 0.610541 0.803174 0.047376
O O8 0.445417 0.747902 0.905749
O O9 0.854266 0.199381 0.177550
O O10 0.845614 0.946591 0.387381
O O11 0.000000 0.000000 0.500000
O O12 0.000000 0.000000 0.000000
O O13 0.250497 0.559298 0.757155
O O14 0.030033 0.731098 0.557211
O O15 0.201666 0.210683 0.722031
O O16 0.670651 0.382987 0.714127
O O17 0.460559 0.401619 0.638682
O O18 0.500000 0.500000 0.000000
#
# Coordination Sequence:
#
# PCOD9048815 Si02
#       8
#     2   2   2   2   2   2   2   2
#     4  12  24  42  71 103 151 189 243 295 369 441
#     4  10  24  48  71 101 141 180 245 305 369 425
#     4  10  24  46  68  98 145 191 239 289 351 431
#     4  11  25  45  69 105 151 194 242 303 363 448
#     4  10  24  45  73 104 137 186 237 305 366 443
#     4  11  26  46  74 102 141 193 247 312 366 439
#     4  11  26  44  69 109 141 194 248 302 373 440
#     4  11  24  43  70 106 140 195 234 297 367 442
#
# _framework density 24.985855999999998
#
# number of rings (size 3 to 8) (size 9 to 14) (size 15 to 20)
#    0.000    1.250    1.250    2.625    8.750    5.000 
#    4.500    0.000    0.000    0.000    0.000    0.000 
#    0.000    0.000    0.000    0.000    0.000    0.000 
#
# Total GULP energy -89161.843875 kJ/mol
# GULP energy per Si atom -5572.615242 kJ/mol
# Density = 2.492899 g / cm^3
# Si number density = 24.985856 Si / 1000 Ang^3
#
#
#
# Elastic Constant Matrix: (Units=GPa)
#
#
# Indices 1 2 3 4 5 6 
#
# 1 129.5041 35.1774 26.9266 -8.6432 7.7483 34.9597
# 2 35.1774 118.6820 23.6824 -24.1968 -21.1077 54.9398
# 3 26.9266 23.6824 99.4216 -1.7462 3.7277 21.6132
# 4 -8.6432 -24.1968 -1.7462 44.7269 6.7518 -13.3625
# 5 7.7483 -21.1077 3.7277 6.7518 43.8675 -13.8073
# 6 34.9597 54.9398 21.6132 -13.3625 -13.8073 55.5579
#
#
#
# Elastic Compliance Matrix: (Units=1/GPa)
#
#
# Indices 1 2 3 4 5 6 
#
# 1 0.010043 -0.000454 -0.001077 0.000353 -0.003954 -0.006350
# 2 -0.000454 0.016649 -0.000824 0.004216 0.003081 -0.014078
# 3 -0.001077 -0.000824 0.011424 -0.000992 -0.002200 -0.003737
# 4 0.000353 0.004216 -0.000992 0.025396 -0.001298 0.001780
# 5 -0.003954 0.003081 -0.002200 -0.001298 0.027511 0.006822
# 6 -0.006350 -0.014078 -0.003737 0.001780 0.006822 0.039494
#
#
# Mechanical properties :
#
#
# Convention : Reuss Voigt Hill
#
# Bulk Modulus (GPa) = 29.93443 57.68675 43.81059
# Shear Modulus (GPa) = 34.16192 46.28524 40.22358
#
# Velocity S-wave (km/s) = 3.70165 4.30869 4.01665
# Velocity P-wave (km/s) = 5.50238 6.92033 6.25168
#
# Compressibility (1/GPa) = 0.03340635
#
# Stress axis : x y z
#
# Youngs Moduli (GPa) = 99.57045 60.06197 87.53789
#
# Poissons Ratio (x) = 0.02725 0.09429
# Poissons Ratio (y) = 0.04517 0.07214
# Poissons Ratio (z) = 0.10726 0.04950
#
# Static dielectric constant tensor:
#      x y z
#    x 1.831680 0.032020 0.238780 
#    y 0.032020 2.047180 -0.134100 
#    z 0.238780 -0.134100 1.625500 
# 
# From -- ./inp_files/69171.got.cif
#   From: 2010.05.17/outbox.cif.g08.bks.cpg/sg2_35_cif.got.tgz:69171.got - 2010.06.03 11:33:40.
