data_PCOD9048777
_publ_section_title
;
Structure prediction by ZEFSAII (Michael W. Deem and Ramdas Pophale) SiO2 
 PCOD9048777
Probable space group: P -1
;
_chemical_formula_sum "Si O2"
_cell_formula_units_Z 16
_cell_length_a 11.897663
_cell_length_b 4.962834
_cell_length_c 13.486280
_cell_angle_alpha 57.880663
_cell_angle_beta 67.763710
_cell_angle_gamma 95.361295
_cell_volume 578.506188
_symmetry_space_group_name_H-M "P -1"
_symmetry_group_IT_number 2
_symmetry_cell_setting 'triclinic'
loop_
_space_group_symop_operation_xyz
x,y,z
-x,-y,-z
loop_
_atom_site_type_symbol
_atom_site_label
_atom_site_fract_x
_atom_site_fract_y
_atom_site_fract_z
Si Si1 0.107915 0.991462 0.879913
Si Si2 0.610832 0.608632 0.026030
Si Si3 0.516072 0.872288 0.182261
Si Si4 0.243895 0.707068 0.358845
Si Si5 0.264536 0.999025 0.499230
Si Si6 0.115427 0.352206 0.120548
Si Si7 0.403336 0.533419 0.615182
Si Si8 0.976988 0.641186 0.633939
O O1 0.020703 0.915028 0.824547
O O2 0.253405 0.260687 0.747907
O O3 0.136485 0.673824 0.978467
O O4 0.000000 0.000000 0.000000
O O5 0.592545 0.869995 0.058356
O O6 0.579693 0.221107 0.154756
O O7 0.500000 0.500000 0.000000
O O8 0.758947 0.741751 0.916619
O O9 0.365715 0.807356 0.224854
O O10 0.519661 0.544933 0.303556
O O11 0.282805 0.991422 0.375465
O O12 0.107617 0.634855 0.364159
O O13 0.244204 0.342992 0.473141
O O14 0.367382 0.867472 0.543222
O O15 0.121175 0.690963 0.611859
O O16 0.103407 0.417416 0.226922
O O17 0.500000 0.500000 0.500000
O O18 0.000000 0.000000 0.500000
#
# Coordination Sequence:
#
# PCOD9048777 Si02
#       8
#     2   2   2   2   2   2   2   2
#     4  11  25  49  76 109 153 203 263 323 385 468
#     4  12  27  50  75 110 152 203 257 317 383 471
#     4  12  26  48  75 108 154 197 259 312 389 459
#     4  11  24  46  71 108 153 200 247 310 386 465
#     4  11  25  45  71 109 155 198 248 313 392 453
#     4  11  25  47  78 107 150 205 262 316 390 464
#     4  12  26  47  78 114 156 202 261 331 390 461
#     4  10  24  45  72 111 150 198 255 321 384 464
#
# _framework density 27.657437999999999
#
# number of rings (size 3 to 8) (size 9 to 14) (size 15 to 20)
#    0.000    0.750    2.500    3.750    3.500    3.500 
#    6.750    0.000    0.000    0.000    0.000    0.000 
#    0.000    0.000    0.000    0.000    0.000    0.000 
#
# Total GULP energy -89498.537458 kJ/mol
# GULP energy per Si atom -5593.658591 kJ/mol
# Density = 2.759449 g / cm^3
# Si number density = 27.657438 Si / 1000 Ang^3
#
#
#
# Elastic Constant Matrix: (Units=GPa)
#
#
# Indices 1 2 3 4 5 6 
#
# 1 168.4132 12.3253 26.0804 18.6262 -18.7558 -12.0575
# 2 12.3253 106.0838 32.7456 4.7000 -2.7142 -5.3726
# 3 26.0804 32.7456 141.8610 9.8504 -20.8325 -8.0595
# 4 18.6262 4.7000 9.8504 66.7955 -10.9081 2.0489
# 5 -18.7558 -2.7142 -20.8325 -10.9081 56.1789 5.5875
# 6 -12.0575 -5.3726 -8.0595 2.0489 5.5875 44.1102
#
#
#
# Elastic Compliance Matrix: (Units=1/GPa)
#
#
# Indices 1 2 3 4 5 6 
#
# 1 0.006508 -0.000357 -0.000712 -0.001493 0.001453 0.001491
# 2 -0.000357 0.010226 -0.002314 -0.000409 -0.000645 0.000826
# 3 -0.000712 -0.002314 0.008156 -0.000452 0.002516 0.000716
# 4 -0.001493 -0.000409 -0.000452 0.015952 0.002571 -0.001607
# 5 0.001453 -0.000645 0.002516 0.002571 0.019871 -0.001858
# 6 0.001491 0.000826 0.000716 -0.001607 -0.001858 0.023619
#
#
# Mechanical properties :
#
#
# Convention : Reuss Voigt Hill
#
# Bulk Modulus (GPa) = 55.18149 62.07339 58.62744
# Shear Modulus (GPa) = 51.47196 56.43070 53.95133
#
# Velocity S-wave (km/s) = 4.31867 4.52192 4.42146
# Velocity P-wave (km/s) = 6.69798 7.05380 6.87819
#
# Compressibility (1/GPa) = 0.01812202
#
# Stress axis : x y z
#
# Youngs Moduli (GPa) = 153.65933 97.79198 122.61257
#
# Poissons Ratio (x) = 0.03496 0.08732
# Poissons Ratio (y) = 0.05493 0.28373
# Poissons Ratio (z) = 0.10943 0.22630
#
# Static dielectric constant tensor:
#      x y z
#    x 2.167010 -0.034840 -0.017730 
#    y -0.034840 2.225570 -0.097290 
#    z -0.017730 -0.097290 2.255240 
# 
# From -- ./inp_files/510718.got.cif
#   From: 2010.05.17/outbox.cif.g08.bks.cpg/sg2_256_cif.got.tgz:510718.got - 2010.06.03 11:33:40.
