data_PCOD9048585
_publ_section_title
;
Structure prediction by ZEFSAII (Michael W. Deem and Ramdas Pophale) SiO2 
 PCOD9048585
Probable space group: P -1
;
_chemical_formula_sum "Si O2"
_cell_formula_units_Z 15
_cell_length_a 8.344160
_cell_length_b 9.129171
_cell_length_c 16.403446
_cell_angle_alpha 100.710528
_cell_angle_beta 59.967459
_cell_angle_gamma 136.882741
_cell_volume 704.550640
_symmetry_space_group_name_H-M "P -1"
_symmetry_group_IT_number 2
_symmetry_cell_setting 'triclinic'
loop_
_space_group_symop_operation_xyz
x,y,z
-x,-y,-z
loop_
_atom_site_type_symbol
_atom_site_label
_atom_site_fract_x
_atom_site_fract_y
_atom_site_fract_z
Si Si1 0.207880 0.411232 0.067951
Si Si2 0.866234 0.447327 0.738922
Si Si3 0.686661 0.746111 0.444075
Si Si4 0.566145 0.866420 0.957010
Si Si5 0.737158 0.027651 0.751324
Si Si6 0.496985 0.137649 0.374911
Si Si7 0.312137 0.688064 0.403553
Si Si8 0.000000 0.000000 0.000000
O O1 0.160804 0.444879 0.173840
O O2 0.500000 0.500000 0.000000
O O3 0.281315 0.599961 0.014735
O O4 0.991280 0.160761 0.063700
O O5 0.764393 0.223762 0.771961
O O6 0.700093 0.383525 0.692364
O O7 0.192010 0.634617 0.652939
O O8 0.500000 0.500000 0.500000
O O9 0.708725 0.879009 0.524984
O O10 0.518801 0.722725 0.411516
O O11 0.974461 0.857370 0.348196
O O12 0.798526 0.946125 0.970171
O O13 0.672974 0.916007 0.842371
O O14 0.500000 0.000000 0.000000
O O15 0.516419 0.856429 0.718737
O O16 0.416484 0.920626 0.394140
O O17 0.000000 0.500000 0.500000
#
# Coordination Sequence:
#
# PCOD9048585 Si02
#       8
#     2   2   2   2   2   2   2   1
#     4  10  24  45  70 102 139 175 233 290 346 421
#     4  11  23  44  73 101 133 184 228 278 351 412
#     4  12  23  45  67 100 139 179 226 283 339 406
#     4  11  24  46  72 102 139 183 232 292 352 415
#     4  11  25  43  69 104 135 177 232 283 345 413
#     4  11  24  44  69  96 139 181 223 278 344 409
#     4  11  24  44  70  99 138 179 230 280 339 414
#     4  10  26  46  70 100 142 178 234 290 356 410
#
# _framework density 21.290164999999998
#
# number of rings (size 3 to 8) (size 9 to 14) (size 15 to 20)
#    0.000    1.067    4.000    1.600    1.867    6.933 
#    4.800    0.000    0.000    0.000    0.000    0.000 
#    0.000    0.000    0.000    0.000    0.000    0.000 
#
# Total GULP energy -83580.317381 kJ/mol
# GULP energy per Si atom -5572.021159 kJ/mol
# Density = 2.124171 g / cm^3
# Si number density = 21.290165 Si / 1000 Ang^3
#
#
#
# Elastic Constant Matrix: (Units=GPa)
#
#
# Indices 1 2 3 4 5 6 
#
# 1 90.9172 25.3019 30.0175 17.0293 23.8651 -6.6915
# 2 25.3019 91.3785 47.3305 33.8280 21.5694 -19.5487
# 3 30.0175 47.3305 123.6636 30.2686 17.0792 -12.9778
# 4 17.0293 33.8280 30.2686 41.6834 2.0888 -1.8200
# 5 23.8651 21.5694 17.0792 2.0888 42.6383 5.1495
# 6 -6.6915 -19.5487 -12.9778 -1.8200 5.1495 30.2126
#
#
#
# Elastic Compliance Matrix: (Units=1/GPa)
#
#
# Indices 1 2 3 4 5 6 
#
# 1 0.014756 0.002117 -0.000996 -0.006322 -0.009275 0.005410
# 2 0.002117 0.025334 -0.001830 -0.018611 -0.014460 0.017419
# 3 -0.000996 -0.001830 0.011324 -0.006012 -0.003198 0.003643
# 4 -0.006322 -0.018611 -0.006012 0.044591 0.015099 -0.015912
# 5 -0.009275 -0.014460 -0.003198 0.015099 0.038732 -0.018476
# 6 0.005410 0.017419 0.003643 -0.015912 -0.018476 0.049323
#
#
# Mechanical properties :
#
#
# Convention : Reuss Voigt Hill
#
# Bulk Modulus (GPa) = 20.00116 56.80655 38.40385
# Shear Modulus (GPa) = 24.73503 36.46084 30.59793
#
# Velocity S-wave (km/s) = 3.41222 4.14281 3.79514
# Velocity P-wave (km/s) = 4.99393 7.04442 6.10586
#
# Compressibility (1/GPa) = 0.04999711
#
# Stress axis : x y z
#
# Youngs Moduli (GPa) = 67.77124 39.47194 88.30793
#
# Poissons Ratio (x) = -0.08358 0.08794
# Poissons Ratio (y) = -0.14349 0.16160
# Poissons Ratio (z) = 0.06749 0.07223
#
# Static dielectric constant tensor:
#      x y z
#    x 1.766970 0.014140 -0.006100 
#    y 0.014140 1.798850 -0.007070 
#    z -0.006100 -0.007070 1.769150 
# 
# From -- ./inp_files/322432.got.cif
#   From: 2010.05.17/outbox.cif.g08.bks.cpg/sg2_162_cif.got.tgz:322432.got - 2010.06.03 11:33:40.
