data_PCOD9048184
_publ_section_title
;
Structure prediction by ZEFSAII (Michael W. Deem and Ramdas Pophale) SiO2 
 PCOD9048184
Probable space group: P -1
;
_chemical_formula_sum "Si O2"
_cell_formula_units_Z 16
_cell_length_a 8.393912
_cell_length_b 15.809616
_cell_length_c 15.258136
_cell_angle_alpha 143.593034
_cell_angle_beta 32.666821
_cell_angle_gamma 137.400056
_cell_volume 637.719962
_symmetry_space_group_name_H-M "P -1"
_symmetry_group_IT_number 2
_symmetry_cell_setting 'triclinic'
loop_
_space_group_symop_operation_xyz
x,y,z
-x,-y,-z
loop_
_atom_site_type_symbol
_atom_site_label
_atom_site_fract_x
_atom_site_fract_y
_atom_site_fract_z
Si Si1 0.186054 0.769202 0.198172
Si Si2 0.818709 0.704039 0.493535
Si Si3 0.622847 0.921272 0.250118
Si Si4 0.381115 0.621206 0.210437
Si Si5 0.606023 0.798233 0.411018
Si Si6 0.739412 0.364850 0.409716
Si Si7 0.649609 0.641920 0.794531
Si Si8 0.761995 0.921002 0.847107
O O1 0.467637 0.887682 0.198925
O O2 0.975060 0.726961 0.345054
O O3 0.962040 0.823128 0.279343
O O4 0.329868 0.637913 0.985231
O O5 0.464346 0.657478 0.601838
O O6 0.873622 0.846023 0.646593
O O7 0.019348 0.598494 0.357594
O O8 0.511225 0.772637 0.228404
O O9 0.492372 0.058547 0.459958
O O10 0.977348 0.965521 0.132548
O O11 0.499284 0.657793 0.283457
O O12 0.500000 0.500000 0.000000
O O13 0.422199 0.762978 0.556598
O O14 0.680662 0.511292 0.606491
O O15 0.088948 0.353695 0.249423
O O16 0.682937 0.786426 0.839159
O O17 0.500000 0.000000 0.000000
#
# Coordination Sequence:
#
# PCOD9048184 Si02
#       8
#     2   2   2   2   2   2   2   2
#     4  10  26  40  77 102 138 176 251 288 364 408
#     4  10  24  48  69 108 137 190 239 298 360 422
#     4  11  24  46  64 103 141 187 235 296 354 423
#     4  11  25  40  72 104 143 186 238 297 358 423
#     4  11  22  45  72 101 141 187 233 305 356 418
#     4  10  24  44  75  95 155 182 242 293 363 420
#     4  11  25  47  67 110 137 200 233 299 349 436
#     4  12  28  46  72 101 150 193 240 290 365 433
#
# _framework density 25.089380999999999
#
# number of rings (size 3 to 8) (size 9 to 14) (size 15 to 20)
#    0.000    1.250    2.500    0.750   10.500    4.000 
#    0.000    0.000    0.000    0.000    0.000    0.000 
#    0.000    0.000    0.000    0.000    0.000    0.000 
#
# Total GULP energy -89549.490102 kJ/mol
# GULP energy per Si atom -5596.843131 kJ/mol
# Density = 2.503228 g / cm^3
# Si number density = 25.089381 Si / 1000 Ang^3
#
#
#
# Elastic Constant Matrix: (Units=GPa)
#
#
# Indices 1 2 3 4 5 6 
#
# 1 127.2962 27.7259 30.8692 -3.5493 -35.8528 29.4006
# 2 27.7259 96.6729 22.4431 9.1075 -16.1873 7.5493
# 3 30.8692 22.4431 140.7051 3.5509 -26.1577 -3.3209
# 4 -3.5493 9.1075 3.5509 32.2895 -2.4806 -6.6646
# 5 -35.8528 -16.1873 -26.1577 -2.4806 49.9735 -10.8359
# 6 29.4006 7.5493 -3.3209 -6.6646 -10.8359 45.0092
#
#
#
# Elastic Compliance Matrix: (Units=1/GPa)
#
#
# Indices 1 2 3 4 5 6 
#
# 1 0.011566 -0.001680 -0.001348 0.001147 0.005849 -0.005795
# 2 -0.001680 0.011774 -0.001151 -0.003482 0.001596 -0.001093
# 3 -0.001348 -0.001151 0.008308 0.000064 0.003566 0.002554
# 4 0.001147 -0.003482 0.000064 0.033382 0.002556 0.005398
# 5 0.005849 0.001596 0.003566 0.002556 0.027400 0.003150
# 6 -0.005795 -0.001093 0.002554 0.005398 0.003150 0.027933
#
#
# Mechanical properties :
#
#
# Convention : Reuss Voigt Hill
#
# Bulk Modulus (GPa) = 42.93662 58.52786 50.73224
# Shear Modulus (GPa) = 36.63455 44.36349 40.49902
#
# Velocity S-wave (km/s) = 3.82535 4.20958 4.02206
# Velocity P-wave (km/s) = 6.05489 6.85608 6.46790
#
# Compressibility (1/GPa) = 0.02329014
#
# Stress axis : x y z
#
# Youngs Moduli (GPa) = 86.45888 84.93357 120.36739
#
# Poissons Ratio (x) = 0.14273 0.16224
# Poissons Ratio (y) = 0.14529 0.13849
# Poissons Ratio (z) = 0.11654 0.09772
#
# Static dielectric constant tensor:
#      x y z
#    x 2.101940 -0.062880 -0.005230 
#    y -0.062880 2.019820 -0.022050 
#    z -0.005230 -0.022050 1.944590 
# 
# From -- ./inp_files/562047.got.cif
#   From: 2010.05.17/outbox.cif.g08.bks.cpg/sg2_282_cif.got.tgz:562047.got - 2010.06.03 11:33:40.
