data_PCOD9048625
_publ_section_title
;
Structure prediction by ZEFSAII (Michael W. Deem and Ramdas Pophale) SiO2 
 PCOD9048625
Probable space group: P -1
;
_chemical_formula_sum "Si O2"
_cell_formula_units_Z 16
_cell_length_a 19.504477
_cell_length_b 21.118942
_cell_length_c 11.725589
_cell_angle_alpha 23.777613
_cell_angle_beta 25.494905
_cell_angle_gamma 19.949985
_cell_volume 632.061504
_symmetry_space_group_name_H-M "P -1"
_symmetry_group_IT_number 2
_symmetry_cell_setting 'triclinic'
loop_
_space_group_symop_operation_xyz
x,y,z
-x,-y,-z
loop_
_atom_site_type_symbol
_atom_site_label
_atom_site_fract_x
_atom_site_fract_y
_atom_site_fract_z
Si Si1 0.724746 0.972628 0.833795
Si Si2 0.056631 0.594892 0.080231
Si Si3 0.649335 0.722444 0.231994
Si Si4 0.002395 0.892476 0.833934
Si Si5 0.694906 0.103350 0.339829
Si Si6 0.295629 0.666757 0.461514
Si Si7 0.175761 0.715730 0.308198
Si Si8 0.286496 0.113098 0.556391
O O1 0.739014 0.834334 0.939459
O O2 0.811580 0.806744 0.080834
O O3 0.480219 0.183474 0.846866
O O4 0.846093 0.054118 0.482770
O O5 0.148569 0.614777 0.796574
O O6 0.155633 0.361554 0.332837
O O7 0.118080 0.673126 0.961194
O O8 0.704288 0.319313 0.696629
O O9 0.815069 0.477089 0.395928
O O10 0.805790 0.106090 0.712552
O O11 0.885201 0.892303 0.117841
O O12 0.662157 0.000398 0.454939
O O13 0.933578 0.924920 0.320988
O O14 0.519156 0.205346 0.532788
O O15 0.701768 0.271685 0.995479
O O16 0.500000 0.500000 0.500000
O O17 0.500000 0.000000 0.500000
#
# Coordination Sequence:
#
# PCOD9048625 Si02
#       8
#     2   2   2   2   2   2   2   2
#     4  10  24  45  70 109 139 188 250 300 362 440
#     4  11  25  43  73 104 141 199 237 307 381 439
#     4  11  25  45  77 107 146 200 255 298 366 461
#     4  11  24  47  72 102 150 192 241 304 380 442
#     4  11  25  48  73 108 158 191 251 315 372 446
#     4  11  23  43  71 111 148 187 244 305 368 443
#     4  11  25  46  77 111 149 203 247 307 381 442
#     4  12  27  47  72 111 146 191 252 315 374 445
#
# _framework density 25.313991999999999
#
# number of rings (size 3 to 8) (size 9 to 14) (size 15 to 20)
#    0.000    1.000    1.250    5.250    7.000    2.000 
#    4.500    6.250    0.000    0.000    0.000    0.000 
#    0.000    0.000    0.000    0.000    0.000    0.000 
#
# Total GULP energy -89364.584641 kJ/mol
# GULP energy per Si atom -5585.286540 kJ/mol
# Density = 2.525638 g / cm^3
# Si number density = 25.313992 Si / 1000 Ang^3
#
#
#
# Elastic Constant Matrix: (Units=GPa)
#
#
# Indices 1 2 3 4 5 6 
#
# 1 91.4575 15.5594 3.8826 0.1615 6.8650 -21.1143
# 2 15.5594 52.7247 20.1822 -7.0909 11.0404 -0.4321
# 3 3.8826 20.1822 150.0804 -24.9351 17.6183 -3.4536
# 4 0.1615 -7.0909 -24.9351 55.9412 0.2294 5.6178
# 5 6.8650 11.0404 17.6183 0.2294 37.4524 1.9007
# 6 -21.1143 -0.4321 -3.4536 5.6178 1.9007 35.6885
#
#
#
# Elastic Compliance Matrix: (Units=1/GPa)
#
#
# Indices 1 2 3 4 5 6 
#
# 1 0.013654 -0.003858 0.000392 -0.001185 -0.001967 0.008360
# 2 -0.003858 0.022147 -0.002010 0.002173 -0.004773 -0.002297
# 3 0.000392 -0.002010 0.007846 0.003191 -0.003222 0.000636
# 4 -0.001185 0.002173 0.003191 0.019926 -0.001874 -0.003403
# 5 -0.001967 -0.004773 -0.003222 -0.001874 0.030139 -0.002843
# 6 0.008360 -0.002297 0.000636 -0.003403 -0.002843 0.033687
#
#
# Mechanical properties :
#
#
# Convention : Reuss Voigt Hill
#
# Bulk Modulus (GPa) = 30.58641 41.50123 36.04382
# Shear Modulus (GPa) = 33.50050 42.79232 38.14641
#
# Velocity S-wave (km/s) = 3.64180 4.11598 3.88613
# Velocity P-wave (km/s) = 5.45827 6.24649 5.86563
#
# Compressibility (1/GPa) = 0.03269425
#
# Stress axis : x y z
#
# Youngs Moduli (GPa) = 73.24037 45.15235 127.44868
#
# Poissons Ratio (x) = 0.17422 -0.04996
# Poissons Ratio (y) = 0.28259 0.25618
# Poissons Ratio (z) = -0.02871 0.09076
#
# Static dielectric constant tensor:
#      x y z
#    x 2.196120 -0.071840 -0.045470 
#    y -0.071840 2.156680 0.022930 
#    z -0.045470 0.022930 1.969050 
# 
# From -- ./inp_files/466410.got.cif
#   From: 2010.05.17/outbox.cif.g08.bks.cpg/sg2_234_cif.got.tgz:466410.got - 2010.06.03 11:33:40.
