data_PCOD9048826
_publ_section_title
;
Structure prediction by ZEFSAII (Michael W. Deem and Ramdas Pophale) SiO2 
 PCOD9048826
Probable space group: P -1
;
_chemical_formula_sum "Si O2"
_cell_formula_units_Z 12
_cell_length_a 15.004485
_cell_length_b 10.186099
_cell_length_c 11.542758
_cell_angle_alpha 154.314119
_cell_angle_beta 138.426483
_cell_angle_gamma 41.819479
_cell_volume 491.675033
_symmetry_space_group_name_H-M "P -1"
_symmetry_group_IT_number 2
_symmetry_cell_setting 'triclinic'
loop_
_space_group_symop_operation_xyz
x,y,z
-x,-y,-z
loop_
_atom_site_type_symbol
_atom_site_label
_atom_site_fract_x
_atom_site_fract_y
_atom_site_fract_z
Si Si1 0.318140 0.312546 0.116287
Si Si2 0.971325 0.510865 0.344313
Si Si3 0.127726 0.974580 0.517559
Si Si4 0.460543 0.673535 0.841410
Si Si5 0.720627 0.771183 0.608007
Si Si6 0.311541 0.537353 0.910818
O O1 0.215665 0.622624 0.309940
O O2 0.448894 0.384654 0.234324
O O3 0.230664 0.166725 0.822768
O O4 0.373565 0.031246 0.035703
O O5 0.000000 0.500000 0.500000
O O6 0.115599 0.327304 0.282304
O O7 0.929926 0.856224 0.523963
O O8 0.835650 0.377485 0.096931
O O9 0.000000 0.000000 0.500000
O O10 0.360859 0.442514 0.573449
O O11 0.569455 0.608229 0.999765
O O12 0.699606 0.689809 0.387099
O O13 0.666946 0.140227 0.862714
#
# Coordination Sequence:
#
# PCOD9048826 Si02
#       6
#     2   2   2   2   2   2
#     4  11  28  45  74 104 145 196 237 300 364 433
#     4  10  24  45  73 105 144 189 245 303 360 423
#     4  12  26  49  75 107 144 193 247 303 362 435
#     4  11  25  47  71 108 149 189 241 294 365 441
#     4  11  25  42  70 106 141 188 240 298 357 434
#     4  11  24  43  70 103 144 189 237 297 365 423
#
# _framework density 24.406362999999999
#
# number of rings (size 3 to 8) (size 9 to 14) (size 15 to 20)
#    0.000    1.000    1.667    3.000    4.667   10.667 
#    0.000    0.000    0.000    0.000    0.000    0.000 
#    0.000    0.000    0.000    0.000    0.000    0.000 
#
# Total GULP energy -67314.651280 kJ/mol
# GULP energy per Si atom -5609.554273 kJ/mol
# Density = 2.435081 g / cm^3
# Si number density = 24.406363 Si / 1000 Ang^3
#
#
#
# Elastic Constant Matrix: (Units=GPa)
#
#
# Indices 1 2 3 4 5 6 
#
# 1 135.0099 52.4723 59.9957 0.4681 36.7556 -0.3213
# 2 52.4723 224.4446 49.4286 30.3028 7.4454 5.2607
# 3 59.9957 49.4286 90.0308 7.5888 5.9626 -5.9180
# 4 0.4681 30.3028 7.5888 41.1344 -5.0320 6.1006
# 5 36.7556 7.4454 5.9626 -5.0320 52.5184 7.3490
# 6 -0.3213 5.2607 -5.9180 6.1006 7.3490 31.0316
#
#
#
# Elastic Compliance Matrix: (Units=1/GPa)
#
#
# Indices 1 2 3 4 5 6 
#
# 1 0.013778 -0.001367 -0.007922 0.001172 -0.008528 0.000653
# 2 -0.001367 0.005723 -0.001967 -0.003729 0.000102 -0.000651
# 3 -0.007922 -0.001967 0.017616 -0.001795 0.003203 0.003205
# 4 0.001172 -0.003729 -0.001795 0.028724 0.003529 -0.006181
# 5 -0.008528 0.000102 0.003203 0.003529 0.025853 -0.006311
# 6 0.000653 -0.000651 0.003205 -0.006181 -0.006311 0.035663
#
#
# Mechanical properties :
#
#
# Convention : Reuss Voigt Hill
#
# Bulk Modulus (GPa) = 68.46382 85.91985 77.19184
# Shear Modulus (GPa) = 32.31295 44.10947 38.21121
#
# Velocity S-wave (km/s) = 3.64257 4.25584 3.96109
# Velocity P-wave (km/s) = 6.76784 7.70908 7.25374
#
# Compressibility (1/GPa) = 0.01460625
#
# Stress axis : x y z
#
# Youngs Moduli (GPa) = 72.58045 174.72055 56.76689
#
# Poissons Ratio (x) = 0.23885 0.44970
# Poissons Ratio (y) = 0.09922 0.11163
# Poissons Ratio (z) = 0.57497 0.34359
#
# Static dielectric constant tensor:
#      x y z
#    x 1.979990 -0.000400 0.007670 
#    y -0.000400 1.876520 -0.019390 
#    z 0.007670 -0.019390 1.883400 
# 
# From -- ./inp_files/538508.got.cif
#   From: 2010.05.17/outbox.cif.g08.bks.cpg/sg2_270_cif.got.tgz:538508.got - 2010.06.03 11:33:40.
