data_PCOD9048990
_publ_section_title
;
Structure prediction by ZEFSAII (Michael W. Deem and Ramdas Pophale) SiO2 
 PCOD9048990
Probable space group: P -1
;
_chemical_formula_sum "Si O2"
_cell_formula_units_Z 14
_cell_length_a 15.422937
_cell_length_b 27.609243
_cell_length_c 15.694516
_cell_angle_alpha 17.417787
_cell_angle_beta 161.280485
_cell_angle_gamma 160.957402
_cell_volume 578.696406
_symmetry_space_group_name_H-M "P -1"
_symmetry_group_IT_number 2
_symmetry_cell_setting 'triclinic'
loop_
_space_group_symop_operation_xyz
x,y,z
-x,-y,-z
loop_
_atom_site_type_symbol
_atom_site_label
_atom_site_fract_x
_atom_site_fract_y
_atom_site_fract_z
Si Si1 0.722859 0.861064 0.789678
Si Si2 0.832032 0.335794 0.890726
Si Si3 0.500000 0.000000 0.500000
Si Si4 0.834066 0.794415 0.450007
Si Si5 0.500000 0.500000 0.500000
Si Si6 0.212104 0.821929 0.063989
Si Si7 0.880948 0.705000 0.362423
Si Si8 0.431565 0.291995 0.278060
O O1 0.549483 0.753464 0.726524
O O2 0.559879 0.962601 0.517710
O O3 0.774701 0.742215 0.110302
O O4 0.036576 0.009682 0.797639
O O5 0.477373 0.260701 0.699336
O O6 0.892735 0.311253 0.891123
O O7 0.967928 0.539311 0.709887
O O8 0.938379 0.223603 0.241102
O O9 0.854738 0.126858 0.631968
O O10 0.764705 0.652105 0.548354
O O11 0.601863 0.635849 0.283352
O O12 0.337959 0.745959 0.385171
O O13 0.908740 0.830523 0.798998
O O14 0.500000 0.000000 0.000000
O O15 0.500000 0.500000 0.000000
#
# Coordination Sequence:
#
# PCOD9048990 Si02
#       8
#     2   2   1   2   1   2   2   2
#     4  12  28  47  72 111 147 196 247 302 378 430
#     4  11  26  46  76 108 150 194 249 304 373 433
#     4  12  28  42  78 102 152 192 248 302 368 448
#     4  11  25  44  72 106 152 197 246 307 361 447
#     4  10  24  46  64 106 138 192 242 296 362 422
#     4  12  25  49  77 111 146 197 249 307 369 439
#     4  11  27  45  74 102 150 190 249 303 368 444
#     4  12  28  47  78 109 153 193 248 309 370 442
#
# _framework density 24.192305999999999
#
# number of rings (size 3 to 8) (size 9 to 14) (size 15 to 20)
#    0.000    0.571    1.429    4.714   10.000    3.429 
#    0.000    0.000    0.000    0.000    0.000    0.000 
#    0.000    0.000    0.000    0.000    0.000    0.000 
#
# Total GULP energy -77941.859109 kJ/mol
# GULP energy per Si atom -5567.275651 kJ/mol
# Density = 2.413724 g / cm^3
# Si number density = 24.192306 Si / 1000 Ang^3
#
#
#
# Elastic Constant Matrix: (Units=GPa)
#
#
# Indices 1 2 3 4 5 6 
#
# 1 -158.7902 -241.1506 -332.9843 -214.0460 68.1463 -23.0358
# 2 -241.1506 -208.3956 -350.9150 -218.7020 92.9104 -4.1032
# 3 -332.9843 -350.9150 -393.4172 -270.9190 95.2062 1.1626
# 4 -214.0460 -218.7020 -270.9190 -139.0950 74.5622 0.5772
# 5 68.1463 92.9104 95.2062 74.5622 9.2001 0.8860
# 6 -23.0358 -4.1032 1.1626 0.5772 0.8860 47.4320
#
#
#
# Elastic Compliance Matrix: (Units=1/GPa)
#
#
# Indices 1 2 3 4 5 6 
#
# 1 0.013460 -0.006949 -0.001791 -0.002333 0.007353 0.005871
# 2 -0.006949 0.014396 -0.005616 -0.003762 -0.005131 -0.001850
# 3 -0.001791 -0.005616 0.016195 -0.013509 0.012044 -0.001813
# 4 -0.002333 -0.003762 -0.013509 0.024934 -0.006881 -0.001303
# 5 0.007353 -0.005131 0.012044 -0.006881 0.036965 0.002225
# 6 0.005871 -0.001850 -0.001813 -0.001303 0.002225 0.023793
#
#
# Mechanical properties :
#
#
# Convention : Reuss Voigt Hill
#
# Bulk Modulus (GPa) = 65.18750 -290.07808 -112.44529
# Shear Modulus (GPa) = 30.56811 -5.52945 12.51933
#
# Velocity S-wave (km/s) = 3.55850 -1.51347 2.27731
# Velocity P-wave (km/s) = 6.62480 11.10043 6.29808
#
# Compressibility (1/GPa) = 0.01534036
#
# Stress axis : x y z
#
# Youngs Moduli (GPa) = 74.29207 69.46161 61.74787
#
# Poissons Ratio (x) = 0.48268 0.11059
# Poissons Ratio (y) = 0.51625 0.34676
# Poissons Ratio (z) = 0.13305 0.39008
#
# Static dielectric constant tensor:
#      x y z
#    x 1.910830 -0.001540 0.073120 
#    y -0.001540 1.904700 -0.067180 
#    z 0.073120 -0.067180 1.922440 
# 
# From -- ./inp_files/535725.got.cif
#   From: 2010.05.17/outbox.cif.g08.bks.cpg/sg2_268_cif.got.tgz:535725.got - 2010.06.03 11:33:40.
