data_PCOD9048561
_publ_section_title
;
Structure prediction by ZEFSAII (Michael W. Deem and Ramdas Pophale) SiO2 
 PCOD9048561
Probable space group: P -1
;
_chemical_formula_sum "Si O2"
_cell_formula_units_Z 16
_cell_length_a 8.642170
_cell_length_b 5.123508
_cell_length_c 14.347998
_cell_angle_alpha 83.296184
_cell_angle_beta 73.560621
_cell_angle_gamma 77.923238
_cell_volume 594.724968
_symmetry_space_group_name_H-M "P -1"
_symmetry_group_IT_number 2
_symmetry_cell_setting 'triclinic'
loop_
_space_group_symop_operation_xyz
x,y,z
-x,-y,-z
loop_
_atom_site_type_symbol
_atom_site_label
_atom_site_fract_x
_atom_site_fract_y
_atom_site_fract_z
Si Si1 0.834747 0.203349 0.032911
Si Si2 0.403848 0.407662 0.654408
Si Si3 0.899515 0.419312 0.196297
Si Si4 0.986457 0.873059 0.292629
Si Si5 0.419295 0.755315 0.062349
Si Si6 0.718401 0.575003 0.667502
Si Si7 0.472402 0.975388 0.801072
Si Si8 0.305852 0.152818 0.520515
O O1 0.878826 0.423407 0.088215
O O2 0.685127 0.096327 0.115773
O O3 0.765202 0.245407 0.938149
O O4 0.000000 0.000000 0.000000
O O5 0.281624 0.594527 0.735369
O O6 0.580267 0.472112 0.634510
O O7 0.418322 0.110752 0.706550
O O8 0.323297 0.416148 0.567410
O O9 0.935168 0.685251 0.227020
O O10 0.012483 0.152050 0.229656
O O11 0.839772 0.942561 0.391274
O O12 0.138633 0.670150 0.320943
O O13 0.459154 0.794352 0.161206
O O14 0.500000 0.500000 0.000000
O O15 0.500000 0.000000 0.000000
O O16 0.760786 0.789292 0.575569
O O17 0.623746 0.734378 0.765191
O O18 0.500000 0.000000 0.500000
#
# Coordination Sequence:
#
# PCOD9048561 Si02
#       8
#     2   2   2   2   2   2   2   2
#     4  11  24  46  73 103 139 180 242 300 355 421
#     4  11  23  44  78  98 145 191 240 292 355 437
#     4  11  24  49  69 104 142 192 236 297 358 427
#     4  11  28  45  74 105 152 187 240 294 357 424
#     4  10  24  45  70 100 138 182 232 292 358 426
#     4  12  25  43  72 104 148 190 239 294 355 433
#     4  11  24  46  72 105 143 191 238 293 372 427
#     4  11  22  45  71 110 142 190 243 290 355 422
#
# _framework density 26.903192000000001
#
# number of rings (size 3 to 8) (size 9 to 14) (size 15 to 20)
#    0.000    1.000    2.500    3.750    5.250    2.000 
#    0.000   11.250    0.000    0.000    0.000    0.000 
#    0.000    0.000    0.000    0.000    0.000    0.000 
#
# Total GULP energy -89435.051221 kJ/mol
# GULP energy per Si atom -5589.690701 kJ/mol
# Density = 2.684196 g / cm^3
# Si number density = 26.903192 Si / 1000 Ang^3
#
#
#
# Elastic Constant Matrix: (Units=GPa)
#
#
# Indices 1 2 3 4 5 6 
#
# 1 85.9069 21.4431 44.4816 3.9664 -5.3553 -38.0904
# 2 21.4431 126.0531 28.0993 13.1289 -10.2632 -15.6698
# 3 44.4816 28.0993 142.0867 13.2833 -7.6052 -0.2898
# 4 3.9664 13.1289 13.2833 40.5813 -2.0282 -0.9872
# 5 -5.3553 -10.2632 -7.6052 -2.0282 44.0412 0.9024
# 6 -38.0904 -15.6698 -0.2898 -0.9872 0.9024 52.8400
#
#
#
# Elastic Compliance Matrix: (Units=1/GPa)
#
#
# Indices 1 2 3 4 5 6 
#
# 1 0.022476 -0.000242 -0.006949 0.000606 0.001175 0.016083
# 2 -0.000242 0.008955 -0.001388 -0.002277 0.001664 0.002402
# 3 -0.006949 -0.001388 0.009706 -0.002155 0.000519 -0.005417
# 4 0.000606 -0.002277 -0.002155 0.026049 0.000366 0.000230
# 5 0.001175 0.001664 0.000519 0.000366 0.023324 0.000952
# 6 0.016083 0.002402 -0.005417 0.000230 0.000952 0.031189
#
#
# Mechanical properties :
#
#
# Convention : Reuss Voigt Hill
#
# Bulk Modulus (GPa) = 41.70644 60.23273 50.96958
# Shear Modulus (GPa) = 34.04816 44.82735 39.43775
#
# Velocity S-wave (km/s) = 3.56136 4.08640 3.83288
# Velocity P-wave (km/s) = 5.69624 6.68597 6.21085
#
# Compressibility (1/GPa) = 0.02397711
#
# Stress axis : x y z
#
# Youngs Moduli (GPa) = 44.49268 111.66750 103.02688
#
# Poissons Ratio (x) = 0.02707 0.71596
# Poissons Ratio (y) = 0.01079 0.14302
# Poissons Ratio (z) = 0.30919 0.15502
#
# Static dielectric constant tensor:
#      x y z
#    x 2.131410 -0.009620 -0.004470 
#    y -0.009620 2.156160 -0.079590 
#    z -0.004470 -0.079590 2.266800 
# 
# From -- ./inp_files/321248.got.cif
#   From: 2010.05.17/outbox.cif.g08.bks.cpg/sg2_161_cif.got.tgz:321248.got - 2010.06.03 11:33:40.
