data_PCOD9048853
_publ_section_title
;
Structure prediction by ZEFSAII (Michael W. Deem and Ramdas Pophale) SiO2 
 PCOD9048853
Probable space group: P -1
;
_chemical_formula_sum "Si O2"
_cell_formula_units_Z 16
_cell_length_a 9.197478
_cell_length_b 8.629703
_cell_length_c 20.857280
_cell_angle_alpha 147.974989
_cell_angle_beta 122.046769
_cell_angle_gamma 51.611994
_cell_volume 688.069082
_symmetry_space_group_name_H-M "P -1"
_symmetry_group_IT_number 2
_symmetry_cell_setting 'triclinic'
loop_
_space_group_symop_operation_xyz
x,y,z
-x,-y,-z
loop_
_atom_site_type_symbol
_atom_site_label
_atom_site_fract_x
_atom_site_fract_y
_atom_site_fract_z
Si Si1 0.577280 0.137051 0.126393
Si Si2 0.109412 0.128818 0.391824
Si Si3 0.896456 0.800046 0.438380
Si Si4 0.823439 0.775617 0.759372
Si Si5 0.981881 0.582234 0.190751
Si Si6 0.963038 0.797622 0.050303
Si Si7 0.497971 0.148403 0.622778
Si Si8 0.559292 0.793728 0.133466
O O1 0.491026 0.505873 0.253111
O O2 0.577144 0.940710 0.120595
O O3 0.500000 0.000000 0.000000
O O4 0.786348 0.075482 0.133696
O O5 0.146439 0.062171 0.452541
O O6 0.000000 0.500000 0.500000
O O7 0.300814 0.058396 0.374506
O O8 0.009061 0.885900 0.270857
O O9 0.691135 0.829929 0.378653
O O10 0.053429 0.448659 0.346735
O O11 0.000000 0.000000 0.500000
O O12 0.918670 0.561689 0.769463
O O13 0.601237 0.923232 0.766437
O O14 0.870375 0.087083 0.875793
O O15 0.760285 0.671411 0.171833
O O16 0.073328 0.300307 0.063120
O O17 0.000000 0.500000 0.000000
O O18 0.500000 0.000000 0.500000
O O19 0.500000 0.500000 0.000000
#
# Coordination Sequence:
#
# PCOD9048853 Si02
#       8
#     2   2   2   2   2   2   2   2
#     4  12  25  44  73 105 140 189 245 300 360 431
#     4  11  26  46  72 104 140 184 240 303 355 428
#     4  11  24  47  72 103 137 187 241 286 359 435
#     4  12  25  48  71 100 150 189 228 298 363 433
#     4  12  26  47  73 105 147 189 239 296 373 430
#     4  12  24  43  70 102 139 181 238 300 348 418
#     4  10  24  45  74 101 138 191 240 286 369 432
#     4  12  27  45  70 106 144 189 240 293 366 435
#
# _framework density 23.253478000000001
#
# number of rings (size 3 to 8) (size 9 to 14) (size 15 to 20)
#    0.000    0.500    5.000    2.625    8.750    0.000 
#    4.500    1.250    0.000    0.000    0.000    0.000 
#    0.000    0.000    0.000    0.000    0.000    0.000 
#
# Total GULP energy -89291.063766 kJ/mol
# GULP energy per Si atom -5580.691485 kJ/mol
# Density = 2.320055 g / cm^3
# Si number density = 23.253478 Si / 1000 Ang^3
#
#
#
# Elastic Constant Matrix: (Units=GPa)
#
#
# Indices 1 2 3 4 5 6 
#
# 1 143.0230 35.7450 30.3123 14.6759 0.5600 -32.2964
# 2 35.7450 73.4843 14.6434 18.8152 1.2415 -16.8976
# 3 30.3123 14.6434 119.9035 17.8279 -1.5958 -9.8252
# 4 14.6759 18.8152 17.8279 33.9163 2.8143 -12.8077
# 5 0.5600 1.2415 -1.5958 2.8143 53.2769 7.9790
# 6 -32.2964 -16.8976 -9.8252 -12.8077 7.9790 41.4316
#
#
#
# Elastic Compliance Matrix: (Units=1/GPa)
#
#
# Indices 1 2 3 4 5 6 
#
# 1 0.009409 -0.003040 -0.001649 0.000905 -0.001052 0.006186
# 2 -0.003040 0.017595 -0.000074 -0.007405 -0.000374 0.002572
# 3 -0.001649 -0.000074 0.009388 -0.004453 0.000623 -0.000586
# 4 0.000905 -0.007405 -0.004453 0.039410 -0.003472 0.009481
# 5 -0.001052 -0.000374 0.000623 -0.003472 0.019848 -0.005720
# 6 0.006186 0.002572 -0.000586 0.009481 -0.005720 0.033901
#
#
# Mechanical properties :
#
#
# Convention : Reuss Voigt Hill
#
# Bulk Modulus (GPa) = 37.21909 55.31247 46.26578
# Shear Modulus (GPa) = 33.77618 42.77230 38.27424
#
# Velocity S-wave (km/s) = 3.81533 4.29347 4.06144
# Velocity P-wave (km/s) = 5.95395 6.95822 6.47559
#
# Compressibility (1/GPa) = 0.02686793
#
# Stress axis : x y z
#
# Youngs Moduli (GPa) = 106.27806 56.83304 106.51448
#
# Poissons Ratio (x) = 0.17276 0.17566
# Poissons Ratio (y) = 0.32306 0.00784
# Poissons Ratio (z) = 0.17527 0.00418
#
# Static dielectric constant tensor:
#      x y z
#    x 1.936950 -0.045320 0.010350 
#    y -0.045320 1.943040 -0.068220 
#    z 0.010350 -0.068220 1.960660 
# 
# From -- ./inp_files/606935.got.cif
#   From: 2010.05.17/outbox.cif.g08.bks.cpg/sg2_304_cif.got.tgz:606935.got - 2010.06.03 11:33:40.
