data_PCOD9048710
_publ_section_title
;
Structure prediction by ZEFSAII (Michael W. Deem and Ramdas Pophale) SiO2 
 PCOD9048710
Probable space group: P -1
;
_chemical_formula_sum "Si O2"
_cell_formula_units_Z 14
_cell_length_a 9.199788
_cell_length_b 7.926381
_cell_length_c 19.670588
_cell_angle_alpha 131.161195
_cell_angle_beta 134.246272
_cell_angle_gamma 34.044809
_cell_volume 563.682405
_symmetry_space_group_name_H-M "P -1"
_symmetry_group_IT_number 2
_symmetry_cell_setting 'triclinic'
loop_
_space_group_symop_operation_xyz
x,y,z
-x,-y,-z
loop_
_atom_site_type_symbol
_atom_site_label
_atom_site_fract_x
_atom_site_fract_y
_atom_site_fract_z
Si Si1 0.843437 0.987126 0.567126
Si Si2 0.338830 0.639667 0.258842
Si Si3 0.734163 0.143896 0.992896
Si Si4 0.496989 0.921534 0.774483
Si Si5 0.909178 0.442087 0.665715
Si Si6 0.214955 0.399273 0.627886
Si Si7 0.173971 0.165810 0.934122
O O1 0.692733 0.912599 0.453526
O O2 0.089218 0.651300 0.593325
O O3 0.691508 0.193347 0.638669
O O4 0.884979 0.185165 0.588972
O O5 0.526164 0.285785 0.244667
O O6 0.519483 0.660467 0.273238
O O7 0.035214 0.765157 0.174791
O O8 0.645207 0.976424 0.888169
O O9 0.500000 0.500000 0.000000
O O10 0.813182 0.060062 0.074066
O O11 0.000000 0.000000 0.000000
O O12 0.667906 0.727062 0.710395
O O13 0.201135 0.249734 0.748728
O O14 0.976336 0.513222 0.635103
O O15 0.000000 0.500000 0.000000
O O16 0.500000 0.000000 0.000000
#
# Coordination Sequence:
#
# PCOD9048710 Si02
#       7
#     2   2   2   2   2   2   2
#     4  10  24  45  71 109 150 195 246 307 372 439
#     4  11  25  46  76 102 149 194 253 306 373 440
#     4  12  27  47  71 107 149 188 246 315 371 438
#     4  11  25  47  70 104 146 199 241 304 373 447
#     4  11  25  45  74 106 150 196 244 300 372 439
#     4  11  24  45  73 109 146 197 249 306 370 447
#     4  12  28  48  76 106 142 197 251 300 374 452
#
# _framework density 24.836682
#
# number of rings (size 3 to 8) (size 9 to 14) (size 15 to 20)
#    0.000    0.857    2.857    2.571   10.000    1.143 
#    0.000    2.143    0.000    0.000    0.000    0.000 
#    0.000    0.000    0.000    0.000    0.000    0.000 
#
# Total GULP energy -78183.667612 kJ/mol
# GULP energy per Si atom -5584.547687 kJ/mol
# Density = 2.478015 g / cm^3
# Si number density = 24.836682 Si / 1000 Ang^3
#
#
#
# Elastic Constant Matrix: (Units=GPa)
#
#
# Indices 1 2 3 4 5 6 
#
# 1 137.5791 34.8975 42.4038 1.3395 16.2785 -13.5897
# 2 34.8975 100.4836 9.6378 -0.5352 -2.4215 -9.4025
# 3 42.4038 9.6378 74.5775 11.4240 12.8707 -0.9128
# 4 1.3395 -0.5352 11.4240 38.5533 6.0124 4.5165
# 5 16.2785 -2.4215 12.8707 6.0124 29.5466 -7.1182
# 6 -13.5897 -9.4025 -0.9128 4.5165 -7.1182 32.7900
#
#
#
# Elastic Compliance Matrix: (Units=1/GPa)
#
#
# Indices 1 2 3 4 5 6 
#
# 1 0.010161 -0.002907 -0.004997 0.001341 -0.003374 0.002322
# 2 -0.002907 0.011338 -0.000293 -0.000529 0.003455 0.002861
# 3 -0.004997 -0.000293 0.017693 -0.004101 -0.004651 -0.002107
# 4 0.001341 -0.000529 -0.004101 0.028618 -0.006014 -0.004957
# 5 -0.003374 0.003455 -0.004651 -0.006014 0.041476 0.009295
# 6 0.002322 0.002861 -0.002107 -0.004957 0.009295 0.034922
#
#
# Mechanical properties :
#
#
# Convention : Reuss Voigt Hill
#
# Bulk Modulus (GPa) = 43.86063 54.05762 48.95913
# Shear Modulus (GPa) = 29.72658 35.22472 32.47565
#
# Velocity S-wave (km/s) = 3.46335 3.77006 3.61995
# Velocity P-wave (km/s) = 5.80440 6.38464 6.10142
#
# Compressibility (1/GPa) = 0.02279949
#
# Stress axis : x y z
#
# Youngs Moduli (GPa) = 98.41209 88.20228 56.51956
#
# Poissons Ratio (x) = 0.25637 0.28242
# Poissons Ratio (y) = 0.28605 0.01655
# Poissons Ratio (z) = 0.49175 0.02582
#
# Static dielectric constant tensor:
#      x y z
#    x 10.832890 -6.061050 -5.266680 
#    y -6.061050 6.102830 3.600320 
#    z -5.266680 3.600320 5.370190 
# 
# From -- ./inp_files/487772.got.cif
#   From: 2010.05.17/outbox.cif.g08.bks.cpg/sg2_244_cif.got.tgz:487772.got - 2010.06.03 11:33:40.
