data_PCOD9048497
_publ_section_title
;
Structure prediction by ZEFSAII (Michael W. Deem and Ramdas Pophale) SiO2 
 PCOD9048497
Probable space group: P -1
;
_chemical_formula_sum "Si O2"
_cell_formula_units_Z 14
_cell_length_a 9.073496
_cell_length_b 19.544797
_cell_length_c 5.018306
_cell_angle_alpha 110.390416
_cell_angle_beta 58.847181
_cell_angle_gamma 132.712259
_cell_volume 559.600553
_symmetry_space_group_name_H-M "P -1"
_symmetry_group_IT_number 2
_symmetry_cell_setting 'triclinic'
loop_
_space_group_symop_operation_xyz
x,y,z
-x,-y,-z
loop_
_atom_site_type_symbol
_atom_site_label
_atom_site_fract_x
_atom_site_fract_y
_atom_site_fract_z
Si Si1 0.337961 0.335675 0.188247
Si Si2 0.156402 0.985360 0.187047
Si Si3 0.569283 0.939009 0.457274
Si Si4 0.880798 0.570585 0.433555
Si Si5 0.073807 0.226013 0.777067
Si Si6 0.271490 0.617494 0.788678
Si Si7 0.755731 0.258592 0.312845
O O1 0.291302 0.408435 0.405961
O O2 0.174021 0.248427 0.420521
O O3 0.577947 0.371437 0.095385
O O4 0.259053 0.301385 0.915370
O O5 0.033836 0.875888 0.153488
O O6 0.361125 0.035044 0.266117
O O7 0.000000 0.000000 0.500000
O O8 0.236298 0.030553 0.884337
O O9 0.385542 0.828378 0.476079
O O10 0.500000 0.000000 0.500000
O O11 0.765557 0.463938 0.467049
O O12 0.058170 0.648236 0.577736
O O13 0.035581 0.587265 0.063733
O O14 0.882276 0.236078 0.972146
O O15 0.381541 0.715919 0.676909
#
# Coordination Sequence:
#
# PCOD9048497 Si02
#       7
#     2   2   2   2   2   2   2
#     4  11  25  45  74 104 145 188 237 293 363 427
#     4  12  28  48  71 107 150 185 242 305 359 428
#     4  12  27  46  76 104 141 193 245 290 364 435
#     4  10  24  45  69 105 143 188 238 298 360 427
#     4  11  25  47  71 102 146 191 232 298 361 431
#     4  11  24  44  72 104 141 189 241 297 359 430
#     4  11  25  44  73 100 145 186 246 294 361 425
#
# _framework density 25.017842999999999
#
# number of rings (size 3 to 8) (size 9 to 14) (size 15 to 20)
#    0.000    0.857    2.857    2.571    8.000    0.000 
#    0.000    2.143    0.000    0.000    0.000    0.000 
#    0.000    0.000    0.000    0.000    0.000    0.000 
#
# Total GULP energy -78426.058369 kJ/mol
# GULP energy per Si atom -5601.861312 kJ/mol
# Density = 2.496090 g / cm^3
# Si number density = 25.017843 Si / 1000 Ang^3
#
#
#
# Elastic Constant Matrix: (Units=GPa)
#
#
# Indices 1 2 3 4 5 6 
#
# 1 124.7035 50.8703 18.5393 15.9959 -15.1852 -20.1758
# 2 50.8703 111.0130 32.3476 7.5771 -5.6212 -16.9623
# 3 18.5393 32.3476 74.8342 -6.0567 -1.1831 -4.4687
# 4 15.9959 7.5771 -6.0567 36.0835 -1.5912 3.9109
# 5 -15.1852 -5.6212 -1.1831 -1.5912 34.2113 3.3961
# 6 -20.1758 -16.9623 -4.4687 3.9109 3.3961 31.4919
#
#
#
# Elastic Compliance Matrix: (Units=1/GPa)
#
#
# Indices 1 2 3 4 5 6 
#
# 1 0.011699 -0.003563 -0.001377 -0.005111 0.003765 0.005609
# 2 -0.003563 0.012776 -0.004578 -0.002341 -0.000172 0.004259
# 3 -0.001377 -0.004578 0.015937 0.004399 -0.000451 -0.001584
# 4 -0.005111 -0.002341 0.004399 0.032052 -0.000229 -0.007867
# 5 0.003765 -0.000172 -0.000451 -0.000229 0.030951 -0.001054
# 6 0.005609 0.004259 -0.001584 -0.007867 -0.001054 0.038507
#
#
# Mechanical properties :
#
#
# Convention : Reuss Voigt Hill
#
# Bulk Modulus (GPa) = 46.78129 57.11835 51.94982
# Shear Modulus (GPa) = 29.74696 34.27691 32.01193
#
# Velocity S-wave (km/s) = 3.45197 3.70550 3.58098
# Velocity P-wave (km/s) = 5.88455 6.41781 6.15695
#
# Compressibility (1/GPa) = 0.02137607
#
# Stress axis : x y z
#
# Youngs Moduli (GPa) = 85.47891 78.26978 62.74630
#
# Poissons Ratio (x) = 0.27887 0.08642
# Poissons Ratio (y) = 0.30456 0.28724
# Poissons Ratio (z) = 0.11773 0.35831
#
# Static dielectric constant tensor:
#      x y z
#    x 1.999900 0.003950 -0.029850 
#    y 0.003950 1.991390 -0.020770 
#    z -0.029850 -0.020770 1.992660 
# 
# From -- ./inp_files/48539.got.cif
#   From: 2010.05.17/outbox.cif.g08.bks.cpg/sg2_25_cif.got.tgz:48539.got - 2010.06.03 11:33:40.
