data_PCOD9048876
_publ_section_title
;
Structure prediction by ZEFSAII (Michael W. Deem and Ramdas Pophale) SiO2 
 PCOD9048876
Probable space group: P -1
;
_chemical_formula_sum "Si O2"
_cell_formula_units_Z 15
_cell_length_a 15.341199
_cell_length_b 16.247485
_cell_length_c 17.663340
_cell_angle_alpha 158.803344
_cell_angle_beta 21.681093
_cell_angle_gamma 151.899454
_cell_volume 584.009724
_symmetry_space_group_name_H-M "P -1"
_symmetry_group_IT_number 2
_symmetry_cell_setting 'triclinic'
loop_
_space_group_symop_operation_xyz
x,y,z
-x,-y,-z
loop_
_atom_site_type_symbol
_atom_site_label
_atom_site_fract_x
_atom_site_fract_y
_atom_site_fract_z
Si Si1 0.958101 0.941503 0.813514
Si Si2 0.735443 0.164772 0.928387
Si Si3 0.709876 0.017443 0.284608
Si Si4 0.747871 0.980675 0.607164
Si Si5 0.666627 0.353183 0.366721
Si Si6 0.401170 0.518710 0.297691
Si Si7 0.500000 0.500000 0.500000
Si Si8 0.375098 0.777305 0.233562
O O1 0.160126 0.840550 0.513581
O O2 0.759693 0.723697 0.786180
O O3 0.060683 0.005369 0.869376
O O4 0.853575 0.168682 0.061955
O O5 0.989370 0.079267 0.667390
O O6 0.736656 0.175609 0.845505
O O7 0.708565 0.387979 0.187798
O O8 0.500000 0.000000 0.000000
O O9 0.605851 0.831735 0.147284
O O10 0.500000 0.000000 0.500000
O O11 0.717098 0.271833 0.463073
O O12 0.558213 0.767612 0.607336
O O13 0.637417 0.046373 0.674037
O O14 0.706395 0.569476 0.466318
O O15 0.580340 0.418715 0.575118
O O16 0.622347 0.467221 0.020753
#
# Coordination Sequence:
#
# PCOD9048876 Si02
#       8
#     2   2   2   2   2   2   1   2
#     4  11  26  46  72 108 146 195 240 300 358 427
#     4  11  25  47  71 100 137 183 237 302 355 427
#     4  10  24  45  74 107 149 190 241 298 359 428
#     4  11  23  48  71  99 146 187 233 297 362 420
#     4  12  26  47  70 107 148 191 241 301 358 427
#     4  12  24  46  73 108 145 192 245 290 366 426
#     4  12  26  44  74 104 140 186 248 290 364 426
#     4  11  24  45  72 105 147 191 240 298 354 428
#
# _framework density 25.684502999999999
#
# number of rings (size 3 to 8) (size 9 to 14) (size 15 to 20)
#    0.000    0.800    4.000    2.000    0.000    8.000 
#    4.800    0.000    0.000    0.000    0.000    0.000 
#    0.000    0.000    0.000    0.000    0.000    0.000 
#
# Total GULP energy -83671.967666 kJ/mol
# GULP energy per Si atom -5578.131178 kJ/mol
# Density = 2.562604 g / cm^3
# Si number density = 25.684503 Si / 1000 Ang^3
#
#
#
# Elastic Constant Matrix: (Units=GPa)
#
#
# Indices 1 2 3 4 5 6 
#
# 1 188.1171 17.9926 74.7251 8.2050 18.8323 6.0454
# 2 17.9926 50.6409 26.3019 -6.4919 -4.5699 10.9144
# 3 74.7251 26.3019 216.3278 -2.4725 27.1686 0.7978
# 4 8.2050 -6.4919 -2.4725 40.7506 -2.5364 -4.9097
# 5 18.8323 -4.5699 27.1686 -2.5364 57.1679 3.6844
# 6 6.0454 10.9144 0.7978 -4.9097 3.6844 22.0906
#
#
#
# Elastic Compliance Matrix: (Units=1/GPa)
#
#
# Indices 1 2 3 4 5 6 
#
# 1 0.006463 -0.001407 -0.001910 -0.001869 -0.001340 -0.001197
# 2 -0.001407 0.025314 -0.003127 0.002965 0.004889 -0.012166
# 3 -0.001910 -0.003127 0.005985 0.000373 -0.002601 0.002368
# 4 -0.001869 0.002965 0.000373 0.026057 0.001537 0.004568
# 5 -0.001340 0.004889 -0.002601 0.001537 0.019947 -0.004940
# 6 -0.001197 -0.012166 0.002368 0.004568 -0.004940 0.053360
#
#
# Mechanical properties :
#
#
# Convention : Reuss Voigt Hill
#
# Bulk Modulus (GPa) = 40.20261 77.01388 58.60825
# Shear Modulus (GPa) = 31.58452 46.40625 38.99539
#
# Velocity S-wave (km/s) = 3.51053 4.25524 3.90069
# Velocity P-wave (km/s) = 5.66729 7.36155 6.56927
#
# Compressibility (1/GPa) = 0.02487400
#
# Stress axis : x y z
#
# Youngs Moduli (GPa) = 154.72058 39.50376 167.08865
#
# Poissons Ratio (x) = 0.05557 0.31918
# Poissons Ratio (y) = 0.21766 0.52249
# Poissons Ratio (z) = 0.29555 0.12353
#
# Static dielectric constant tensor:
#      x y z
#    x 1.093410 1.192440 0.236790 
#    y 1.192440 0.619700 -0.385510 
#    z 0.236790 -0.385510 2.030630 
# 
# From -- ./inp_files/600512.got.cif
#   From: 2010.05.17/outbox.cif.g08.bks.cpg/sg2_301_cif.got.tgz:600512.got - 2010.06.03 11:33:40.
