data_PCOD9048162
_publ_section_title
;
Structure prediction by ZEFSAII (Michael W. Deem and Ramdas Pophale) SiO2 
 PCOD9048162
Probable space group: P -1
;
_chemical_formula_sum "Si O2"
_cell_formula_units_Z 16
_cell_length_a 8.939731
_cell_length_b 14.387881
_cell_length_c 9.502417
_cell_angle_alpha 101.864606
_cell_angle_beta 59.165962
_cell_angle_gamma 58.120349
_cell_volume 674.757517
_symmetry_space_group_name_H-M "P -1"
_symmetry_group_IT_number 2
_symmetry_cell_setting 'triclinic'
loop_
_space_group_symop_operation_xyz
x,y,z
-x,-y,-z
loop_
_atom_site_type_symbol
_atom_site_label
_atom_site_fract_x
_atom_site_fract_y
_atom_site_fract_z
Si Si1 0.960798 0.902712 0.987362
Si Si2 0.726419 0.618033 0.981008
Si Si3 0.549159 0.325125 0.157939
Si Si4 0.388740 0.879979 0.424714
Si Si5 0.271555 0.317709 0.530169
Si Si6 0.534475 0.441849 0.810425
Si Si7 0.639837 0.922214 0.649926
Si Si8 0.020410 0.865326 0.629536
O O1 0.139417 0.796100 0.997765
O O2 0.063613 0.827487 0.761230
O O3 0.660080 0.991780 0.168197
O O4 0.000000 0.000000 0.000000
O O5 0.543418 0.673850 0.949095
O O6 0.026893 0.485546 0.742995
O O7 0.595483 0.760563 0.166914
O O8 0.698713 0.540057 0.078283
O O9 0.424010 0.306978 0.327678
O O10 0.454274 0.472173 0.267455
O O11 0.535770 0.785193 0.465132
O O12 0.112674 0.934942 0.575746
O O13 0.338101 0.011626 0.467300
O O14 0.188990 0.245154 0.498965
O O15 0.786386 0.274286 0.606203
O O16 0.500000 0.500000 0.000000
O O17 0.733973 0.947287 0.744624
#
# Coordination Sequence:
#
# PCOD9048162 Si02
#       8
#     2   2   2   2   2   2   2   2
#     4  12  26  46  67 103 147 185 235 295 348 415
#     4  10  24  44  75 101 137 186 234 289 351 428
#     4  11  23  44  71  98 143 185 229 288 356 409
#     4  11  25  47  69 108 141 183 230 300 351 417
#     4  12  24  47  69 107 141 180 239 291 352 419
#     4   9  21  44  69 102 132 179 229 289 346 416
#     4  12  26  43  73 102 140 191 235 286 353 425
#     4  11  24  48  71 105 141 182 241 291 351 423
#
# _framework density 23.712223999999999
#
# number of rings (size 3 to 8) (size 9 to 14) (size 15 to 20)
#    0.000    1.000    2.500    3.375    3.500    2.500 
#    9.000    0.000    0.000    0.000    0.000    0.000 
#    0.000    0.000    0.000    0.000    0.000    0.000 
#
# Total GULP energy -89405.011751 kJ/mol
# GULP energy per Si atom -5587.813234 kJ/mol
# Density = 2.365825 g / cm^3
# Si number density = 23.712224 Si / 1000 Ang^3
#
#
#
# Elastic Constant Matrix: (Units=GPa)
#
#
# Indices 1 2 3 4 5 6 
#
# 1 114.6050 24.3839 30.7508 -10.6934 -12.6943 -6.0489
# 2 24.3839 98.8732 21.4968 -20.8556 1.1043 12.2924
# 3 30.7508 21.4968 107.3048 -6.2117 0.1175 6.0986
# 4 -10.6934 -20.8556 -6.2117 25.1347 -2.7760 2.8398
# 5 -12.6943 1.1043 0.1175 -2.7760 33.3628 -5.2945
# 6 -6.0489 12.2924 6.0986 2.8398 -5.2945 45.2461
#
#
#
# Elastic Compliance Matrix: (Units=1/GPa)
#
#
# Indices 1 2 3 4 5 6 
#
# 1 0.010780 -0.001926 -0.002717 0.002540 0.004820 0.002735
# 2 -0.001926 0.013698 -0.001315 0.010627 -0.001026 -0.004589
# 3 -0.002717 -0.001315 0.010475 0.000383 -0.001247 -0.001588
# 4 0.002540 0.010627 0.000383 0.050822 0.003998 -0.005321
# 5 0.004820 -0.001026 -0.001247 0.003998 0.032923 0.004693
# 6 0.002735 -0.004589 -0.001588 -0.005321 0.004693 0.024811
#
#
# Mechanical properties :
#
#
# Convention : Reuss Voigt Hill
#
# Bulk Modulus (GPa) = 43.40849 52.67180 48.04014
# Shear Modulus (GPa) = 30.65520 37.02548 33.84034
#
# Velocity S-wave (km/s) = 3.59946 3.95581 3.78183
# Velocity P-wave (km/s) = 5.96832 6.56702 6.27481
#
# Compressibility (1/GPa) = 0.02303697
#
# Stress axis : x y z
#
# Youngs Moduli (GPa) = 92.76692 73.00095 95.46385
#
# Poissons Ratio (x) = 0.14059 0.25938
# Poissons Ratio (y) = 0.17865 0.12556
# Poissons Ratio (z) = 0.25205 0.09602
#
# Static dielectric constant tensor:
#      x y z
#    x 1.963690 -0.031730 -0.001010 
#    y -0.031730 1.941540 0.023340 
#    z -0.001010 0.023340 1.913950 
# 
# From -- ./inp_files/207607.got.cif
#   From: 2010.05.17/outbox.cif.g08.bks.cpg/sg2_104_cif.got.tgz:207607.got - 2010.06.03 11:33:40.
