data_PCOD9048468
_publ_section_title
;
Structure prediction by ZEFSAII (Michael W. Deem and Ramdas Pophale) SiO2 
 PCOD9048468
Probable space group: P -1
;
_chemical_formula_sum "Si O2"
_cell_formula_units_Z 14
_cell_length_a 8.099193
_cell_length_b 9.111943
_cell_length_c 16.930094
_cell_angle_alpha 71.917397
_cell_angle_beta 115.886638
_cell_angle_gamma 54.416402
_cell_volume 581.681357
_symmetry_space_group_name_H-M "P -1"
_symmetry_group_IT_number 2
_symmetry_cell_setting 'triclinic'
loop_
_space_group_symop_operation_xyz
x,y,z
-x,-y,-z
loop_
_atom_site_type_symbol
_atom_site_label
_atom_site_fract_x
_atom_site_fract_y
_atom_site_fract_z
Si Si1 0.667427 0.036242 0.558615
Si Si2 0.629616 0.297343 0.630786
Si Si3 0.788192 0.196537 0.068781
Si Si4 0.152980 0.435802 0.162899
Si Si5 0.384139 0.684949 0.628356
Si Si6 0.666763 0.939247 0.855507
Si Si7 0.729327 0.582581 0.191468
O O1 0.067711 0.715478 0.690861
O O2 0.500000 0.000000 0.500000
O O3 0.597434 0.149910 0.612272
O O4 0.517445 0.269961 0.430375
O O5 0.500000 0.500000 0.500000
O O6 0.430009 0.482698 0.637081
O O7 0.016240 0.041513 0.783899
O O8 0.066612 0.117933 0.106392
O O9 0.500000 0.500000 0.000000
O O10 0.612886 0.222005 0.958883
O O11 0.382869 0.420711 0.235247
O O12 0.374717 0.150889 0.210743
O O13 0.971272 0.489558 0.191935
O O14 0.852841 0.705104 0.999630
O O15 0.000000 0.000000 0.500000
O O16 0.357764 0.242470 0.783771
#
# Coordination Sequence:
#
# PCOD9048468 Si02
#       7
#     2   2   2   2   2   2   2
#     4  11  23  44  69  99 136 184 239 290 354 425
#     4  10  24  45  69 101 139 190 231 283 363 424
#     4  12  23  44  75 102 144 185 235 299 353 422
#     4  11  24  48  64 102 145 183 236 300 352 424
#     4  11  26  44  68  98 144 186 236 289 357 429
#     4  11  26  41  73 104 137 184 238 294 362 420
#     4  12  24  45  71 102 142 187 240 297 357 417
#
# _framework density 24.068161
#
# number of rings (size 3 to 8) (size 9 to 14) (size 15 to 20)
#    0.000    0.857    4.286    1.714    4.000    1.143 
#    2.571    1.429    0.000    0.000    0.000    0.000 
#    0.000    0.000    0.000    0.000    0.000    0.000 
#
# Total GULP energy -78225.803916 kJ/mol
# GULP energy per Si atom -5587.557423 kJ/mol
# Density = 2.401338 g / cm^3
# Si number density = 24.068161 Si / 1000 Ang^3
#
#
#
# Elastic Constant Matrix: (Units=GPa)
#
#
# Indices 1 2 3 4 5 6 
#
# 1 38.2058 23.4803 1.8182 9.0591 -5.2678 -4.1646
# 2 23.4803 234.7923 23.3186 -7.9111 22.7648 6.3120
# 3 1.8182 23.3186 111.8630 -2.3562 -11.4471 3.4425
# 4 9.0591 -7.9111 -2.3562 39.9278 14.8986 6.2081
# 5 -5.2678 22.7648 -11.4471 14.8986 41.2167 3.3608
# 6 -4.1646 6.3120 3.4425 6.2081 3.3608 28.2629
#
#
#
# Elastic Compliance Matrix: (Units=1/GPa)
#
#
# Indices 1 2 3 4 5 6 
#
# 1 0.035968 -0.005734 0.001366 -0.015356 0.013023 0.008239
# 2 -0.005734 0.005793 -0.001549 0.004943 -0.005960 -0.002327
# 3 0.001366 -0.001549 0.009677 -0.001539 0.004340 -0.000809
# 4 -0.015356 0.004943 -0.001539 0.037557 -0.017938 -0.009296
# 5 0.013023 -0.005960 0.004340 -0.017938 0.036720 0.002295
# 6 0.008239 -0.002327 -0.000809 -0.009296 0.002295 0.038983
#
#
# Mechanical properties :
#
#
# Convention : Reuss Voigt Hill
#
# Bulk Modulus (GPa) = 25.24931 53.56614 39.40773
# Shear Modulus (GPa) = 26.35285 44.29776 35.32530
#
# Velocity S-wave (km/s) = 3.31256 4.29477 3.83524
# Velocity P-wave (km/s) = 5.01440 6.84820 6.00175
#
# Compressibility (1/GPa) = 0.03960504
#
# Stress axis : x y z
#
# Youngs Moduli (GPa) = 27.80252 172.61360 103.34107
#
# Poissons Ratio (x) = 0.98980 -0.14120
# Poissons Ratio (y) = 0.15943 0.16003
# Poissons Ratio (z) = -0.03799 0.26730
#
# Static dielectric constant tensor:
#      x y z
#    x 1.966970 -0.029770 -0.053970 
#    y -0.029770 1.983610 0.019720 
#    z -0.053970 0.019720 1.946460 
# 
# From -- ./inp_files/325598.got.cif
#   From: 2010.05.17/outbox.cif.g08.bks.cpg/sg2_163_cif.got.tgz:325598.got - 2010.06.03 11:33:40.
