data_PCOD9048250
_publ_section_title
;
Structure prediction by ZEFSAII (Michael W. Deem and Ramdas Pophale) SiO2 
 PCOD9048250
Probable space group: P -1
;
_chemical_formula_sum "Si O2"
_cell_formula_units_Z 16
_cell_length_a 18.471108
_cell_length_b 12.323990
_cell_length_c 9.219166
_cell_angle_alpha 50.558901
_cell_angle_beta 131.944252
_cell_angle_gamma 150.783102
_cell_volume 754.097893
_symmetry_space_group_name_H-M "P -1"
_symmetry_group_IT_number 2
_symmetry_cell_setting 'triclinic'
loop_
_space_group_symop_operation_xyz
x,y,z
-x,-y,-z
loop_
_atom_site_type_symbol
_atom_site_label
_atom_site_fract_x
_atom_site_fract_y
_atom_site_fract_z
Si Si1 0.110859 0.962247 0.572017
Si Si2 0.417928 0.013335 0.268126
Si Si3 0.624999 0.723518 0.883085
Si Si4 0.079964 0.991411 0.821795
Si Si5 0.086354 0.525072 0.228296
Si Si6 0.383153 0.846191 0.837539
Si Si7 0.024521 0.368044 0.808765
Si Si8 0.733117 0.979802 0.541199
O O1 0.232623 0.032003 0.565903
O O2 0.043083 0.026669 0.357140
O O3 0.967812 0.694012 0.634771
O O4 0.164748 0.053701 0.729822
O O5 0.371632 0.112005 0.189053
O O6 0.528158 0.151657 0.160136
O O7 0.500000 0.000000 0.500000
O O8 0.264129 0.755263 0.238814
O O9 0.627359 0.755903 0.686528
O O10 0.500000 0.500000 0.000000
O O11 0.784400 0.819468 0.045928
O O12 0.000220 0.766856 0.976656
O O13 0.037936 0.552682 0.285792
O O14 0.000000 0.500000 0.000000
O O15 0.208785 0.589465 0.844148
O O16 0.349330 0.962139 0.626175
O O17 0.500000 0.000000 0.000000
O O18 0.903317 0.185500 0.674834
#
# Coordination Sequence:
#
# PCOD9048250 Si02
#       8
#     2   2   2   2   2   2   2   2
#     4  11  24  39  74  96 130 169 234 281 330 389
#     4  12  25  42  66 102 137 174 226 275 332 403
#     4  11  25  46  67  93 140 184 218 273 342 404
#     4  10  24  45  64 100 130 178 232 268 334 416
#     4  12  21  40  73  94 127 184 224 274 329 394
#     4  12  26  39  66 107 141 168 221 286 344 383
#     4  11  22  44  68  95 136 177 229 275 325 404
#     4  11  24  44  68 100 131 176 233 279 325 407
#
# _framework density 21.217403999999998
#
# number of rings (size 3 to 8) (size 9 to 14) (size 15 to 20)
#    0.000    0.750    6.250    1.125    5.250    3.000 
#    2.250    0.625    0.000    0.000    0.000    0.000 
#    0.000    0.000    0.000    0.000    0.000    0.000 
#
# Total GULP energy -89331.389073 kJ/mol
# GULP energy per Si atom -5583.211817 kJ/mol
# Density = 2.116911 g / cm^3
# Si number density = 21.217404 Si / 1000 Ang^3
#
#
#
# Elastic Constant Matrix: (Units=GPa)
#
#
# Indices 1 2 3 4 5 6 
#
# 1 56.4742 -17.5229 -9.0696 -0.3992 -10.1057 12.7766
# 2 -17.5229 67.3285 26.7106 -4.2248 0.2115 26.5092
# 3 -9.0696 26.7106 112.2821 -4.6705 4.7900 5.7098
# 4 -0.3992 -4.2248 -4.6705 35.3367 5.8192 0.7474
# 5 -10.1057 0.2115 4.7900 5.8192 25.0051 -7.8854
# 6 12.7766 26.5092 5.7098 0.7474 -7.8854 34.6937
#
#
#
# Elastic Compliance Matrix: (Units=1/GPa)
#
#
# Indices 1 2 3 4 5 6 
#
# 1 0.028439 0.016428 -0.000578 0.002010 0.004042 -0.022055
# 2 0.016428 0.034073 -0.004752 0.004991 -0.004099 -0.032342
# 3 -0.000578 -0.004752 0.010018 0.001007 -0.001790 0.001766
# 4 0.002010 0.004991 0.001007 0.030673 -0.008895 -0.007402
# 5 0.004042 -0.004099 -0.001790 -0.008895 0.048200 0.013085
# 6 -0.022055 -0.032342 0.001766 -0.007402 0.013085 0.064501
#
#
# Mechanical properties :
#
#
# Convention : Reuss Voigt Hill
#
# Bulk Modulus (GPa) = 10.55661 26.25787 18.40724
# Shear Modulus (GPa) = 22.19425 34.73819 28.46622
#
# Velocity S-wave (km/s) = 3.23776 4.05068 3.66682
# Velocity P-wave (km/s) = 4.35474 5.85490 5.15963
#
# Compressibility (1/GPa) = 0.09472735
#
# Stress axis : x y z
#
# Youngs Moduli (GPa) = 35.16299 29.34846 99.81842
#
# Poissons Ratio (x) = -0.48214 0.05771
# Poissons Ratio (y) = -0.57766 0.47429
# Poissons Ratio (z) = 0.02033 0.13945
#
# Static dielectric constant tensor:
#      x y z
#    x 1.778090 0.071470 -0.117570 
#    y 0.071470 2.658170 -0.641330 
#    z -0.117570 -0.641330 2.223100 
# 
# From -- ./inp_files/332953.got.cif
#   From: 2010.05.17/outbox.cif.g08.bks.cpg/sg2_167_cif.got.tgz:332953.got - 2010.06.03 11:33:40.
