data_PCOD9048403
_publ_section_title
;
Structure prediction by ZEFSAII (Michael W. Deem and Ramdas Pophale) SiO2 
 PCOD9048403
Probable space group: P -1
;
_chemical_formula_sum "Si O2"
_cell_formula_units_Z 16
_cell_length_a 17.160168
_cell_length_b 11.947006
_cell_length_c 12.181876
_cell_angle_alpha 142.217495
_cell_angle_beta 134.184707
_cell_angle_gamma 27.111715
_cell_volume 697.115019
_symmetry_space_group_name_H-M "P -1"
_symmetry_group_IT_number 2
_symmetry_cell_setting 'triclinic'
loop_
_space_group_symop_operation_xyz
x,y,z
-x,-y,-z
loop_
_atom_site_type_symbol
_atom_site_label
_atom_site_fract_x
_atom_site_fract_y
_atom_site_fract_z
Si Si1 0.357953 0.555898 0.256700
Si Si2 0.493739 0.913394 0.133466
Si Si3 0.250192 0.691784 0.715814
Si Si4 0.943950 0.654657 0.725597
Si Si5 0.884462 0.727802 0.968202
Si Si6 0.604809 0.573448 0.563801
Si Si7 0.023080 0.173639 0.312363
Si Si8 0.534047 0.155029 0.706420
O O1 0.504368 0.518345 0.391175
O O2 0.311304 0.554411 0.333478
O O3 0.201152 0.848407 0.265011
O O4 0.427968 0.297029 0.053703
O O5 0.536185 0.766659 0.178072
O O6 0.527733 0.085472 0.300155
O O7 0.287627 0.168089 0.124150
O O8 0.264869 0.569452 0.519604
O O9 0.435286 0.434617 0.755725
O O10 0.125278 0.754621 0.725904
O O11 0.184258 0.979091 0.852947
O O12 0.001975 0.747906 0.779565
O O13 0.014129 0.379961 0.526130
O O14 0.736548 0.923677 0.725041
O O15 0.983179 0.605535 0.854416
O O16 0.000000 0.500000 0.000000
O O17 0.500000 0.000000 0.500000
#
# Coordination Sequence:
#
# PCOD9048403 Si02
#       8
#     2   2   2   2   2   2   2   2
#     4  11  26  44  69 104 143 189 240 295 349 434
#     4  11  24  45  73 105 139 189 241 290 355 426
#     4  12  24  44  71 103 136 193 237 288 365 419
#     4  10  24  45  68 103 142 187 234 292 359 419
#     4  11  27  45  71 104 145 184 243 299 351 427
#     4  11  24  46  72  99 141 193 240 292 359 426
#     4  11  25  43  67 103 142 182 234 296 358 416
#     4  11  21  43  75 102 136 188 241 290 351 433
#
# _framework density 22.951736
#
# number of rings (size 3 to 8) (size 9 to 14) (size 15 to 20)
#    0.000    1.000    3.750    1.875    5.250    2.000 
#    2.250    0.000    0.000    0.000    0.000    0.000 
#    0.000    0.000    0.000    0.000    0.000    0.000 
#
# Total GULP energy -89607.195340 kJ/mol
# GULP energy per Si atom -5600.449709 kJ/mol
# Density = 2.289950 g / cm^3
# Si number density = 22.951736 Si / 1000 Ang^3
#
#
#
# Elastic Constant Matrix: (Units=GPa)
#
#
# Indices 1 2 3 4 5 6 
#
# 1 91.1317 33.9596 17.0447 -14.7805 -12.3934 23.3358
# 2 33.9596 79.9228 24.7268 0.0750 -11.5220 42.3203
# 3 17.0447 24.7268 104.4523 3.9471 -7.2254 21.2655
# 4 -14.7805 0.0750 3.9471 28.0382 17.6571 -1.9575
# 5 -12.3934 -11.5220 -7.2254 17.6571 36.5397 -6.0337
# 6 23.3358 42.3203 21.2655 -1.9575 -6.0337 42.2692
#
#
#
# Elastic Compliance Matrix: (Units=1/GPa)
#
#
# Indices 1 2 3 4 5 6 
#
# 1 0.014866 -0.004746 -0.001181 0.008654 -0.001307 -0.002647
# 2 -0.004746 0.029637 0.000034 -0.009430 0.007944 -0.026372
# 3 -0.001181 0.000034 0.011115 -0.004549 0.003226 -0.004724
# 4 0.008654 -0.009430 -0.004549 0.059355 -0.028694 0.005605
# 5 -0.001307 0.007944 0.003226 -0.028694 0.043271 -0.004008
# 6 -0.002647 -0.026372 -0.004724 0.005605 -0.004008 0.053587
#
#
# Mechanical properties :
#
#
# Convention : Reuss Voigt Hill
#
# Bulk Modulus (GPa) = 22.81463 47.44100 35.12782
# Shear Modulus (GPa) = 20.98810 34.68778 27.83794
#
# Velocity S-wave (km/s) = 3.02726 3.89181 3.48644
# Velocity P-wave (km/s) = 4.70966 6.39607 5.61652
#
# Compressibility (1/GPa) = 0.04383151
#
# Stress axis : x y z
#
# Youngs Moduli (GPa) = 67.26601 33.74152 89.96624
#
# Poissons Ratio (x) = 0.16015 0.10623
# Poissons Ratio (y) = 0.31927 -0.00302
# Poissons Ratio (z) = 0.07943 -0.00113
#
# Static dielectric constant tensor:
#      x y z
#    x 1.912580 0.006820 0.023580 
#    y 0.006820 1.819720 -0.009120 
#    z 0.023580 -0.009120 1.878350 
# 
# From -- ./inp_files/464911.got.cif
#   From: 2010.05.17/outbox.cif.g08.bks.cpg/sg2_233_cif.got.tgz:464911.got - 2010.06.03 11:33:40.
