data_PCOD9048076
_publ_section_title
;
Structure prediction by ZEFSAII (Michael W. Deem and Ramdas Pophale) SiO2 
 PCOD9048076
Probable space group: P -1
;
_chemical_formula_sum "Si O2"
_cell_formula_units_Z 14
_cell_length_a 18.282005
_cell_length_b 15.786163
_cell_length_c 8.008168
_cell_angle_alpha 55.588013
_cell_angle_beta 136.094217
_cell_angle_gamma 155.843029
_cell_volume 620.286373
_symmetry_space_group_name_H-M "P -1"
_symmetry_group_IT_number 2
_symmetry_cell_setting 'triclinic'
loop_
_space_group_symop_operation_xyz
x,y,z
-x,-y,-z
loop_
_atom_site_type_symbol
_atom_site_label
_atom_site_fract_x
_atom_site_fract_y
_atom_site_fract_z
Si Si1 0.926751 0.385051 0.675311
Si Si2 0.139116 0.523687 0.266097
Si Si3 0.235268 0.357409 0.871528
Si Si4 0.812165 0.079200 0.341679
Si Si5 0.652081 0.979026 0.536291
Si Si6 0.537461 0.666266 0.700276
Si Si7 0.666312 0.424656 0.879363
O O1 0.000000 0.500000 0.500000
O O2 0.828592 0.403806 0.577603
O O3 0.144229 0.497401 0.946128
O O4 0.732448 0.133207 0.622987
O O5 0.385545 0.738311 0.359036
O O6 0.966750 0.280882 0.251450
O O7 0.000000 0.500000 0.000000
O O8 0.381144 0.528400 0.763889
O O9 0.983150 0.140111 0.624274
O O10 0.334618 0.331241 0.100914
O O11 0.248865 0.436549 0.975770
O O12 0.748276 0.090459 0.388843
O O13 0.571458 0.830043 0.168298
O O14 0.709209 0.908980 0.741558
O O15 0.405104 0.572141 0.410145
#
# Coordination Sequence:
#
# PCOD9048076 Si02
#       7
#     2   2   2   2   2   2   2
#     4  12  25  44  69 101 139 187 232 287 355 415
#     4  12  25  41  67  98 138 182 231 288 346 417
#     4  11  22  49  70 102 149 179 233 305 347 420
#     4  11  24  45  70 103 143 181 239 291 350 425
#     4  11  23  44  68 100 136 182 232 287 348 419
#     4  10  24  44  73 104 139 187 238 286 364 423
#     4  11  25  45  72 105 140 189 237 289 355 428
#
# _framework density 22.570219000000002
#
# number of rings (size 3 to 8) (size 9 to 14) (size 15 to 20)
#    0.000    0.857    4.286    2.571    2.000    4.571 
#    2.571    1.429    0.000    0.000    0.000    0.000 
#    0.000    0.000    0.000    0.000    0.000    0.000 
#
# Total GULP energy -77952.659214 kJ/mol
# GULP energy per Si atom -5568.047087 kJ/mol
# Density = 2.251885 g / cm^3
# Si number density = 22.570219 Si / 1000 Ang^3
#
#
#
# Elastic Constant Matrix: (Units=GPa)
#
#
# Indices 1 2 3 4 5 6 
#
# 1 51.1115 0.6940 -3.5329 12.3523 4.4457 6.2385
# 2 0.6940 125.2484 35.1313 12.3091 7.7162 6.9612
# 3 -3.5329 35.1313 88.0107 -3.3615 15.4116 6.4709
# 4 12.3523 12.3091 -3.3615 38.9571 3.3225 -1.1907
# 5 4.4457 7.7162 15.4116 3.3225 30.7595 6.7431
# 6 6.2385 6.9612 6.4709 -1.1907 6.7431 37.6325
#
#
#
# Elastic Compliance Matrix: (Units=1/GPa)
#
#
# Indices 1 2 3 4 5 6 
#
# 1 0.021975 0.000622 0.001041 -0.006995 -0.002276 -0.003750
# 2 0.000622 0.009468 -0.003814 -0.003569 0.000124 -0.001334
# 3 0.001041 -0.003814 0.014205 0.002630 -0.006448 -0.000671
# 4 -0.006995 -0.003569 0.002630 0.029607 -0.003242 0.002885
# 5 -0.002276 0.000124 -0.006448 -0.003242 0.037566 -0.005371
# 6 -0.003750 -0.001334 -0.000671 0.002885 -0.005371 0.028610
#
#
# Mechanical properties :
#
#
# Convention : Reuss Voigt Hill
#
# Bulk Modulus (GPa) = 24.18617 36.55062 30.36839
# Shear Modulus (GPa) = 31.34490 36.94170 34.14330
#
# Velocity S-wave (km/s) = 3.73067 4.05006 3.89364
# Velocity P-wave (km/s) = 5.41261 6.17252 5.80501
#
# Compressibility (1/GPa) = 0.04134595
#
# Stress axis : x y z
#
# Youngs Moduli (GPa) = 45.50666 105.62068 70.39529
#
# Poissons Ratio (x) = -0.06574 -0.07326
# Poissons Ratio (y) = -0.02832 0.26851
# Poissons Ratio (z) = -0.04736 0.40287
#
# Static dielectric constant tensor:
#      x y z
#    x 2.081580 -0.054810 -0.058720 
#    y -0.054810 1.841700 -0.017310 
#    z -0.058720 -0.017310 1.957320 
# 
# From -- ./inp_files/348376.got.cif
#   From: 2010.05.17/outbox.cif.g08.bks.cpg/sg2_175_cif.got.tgz:348376.got - 2010.06.03 11:33:40.
