data_PCOD9048307
_publ_section_title
;
Structure prediction by ZEFSAII (Michael W. Deem and Ramdas Pophale) SiO2 
 PCOD9048307
Probable space group: P -1
;
_chemical_formula_sum "Si O2"
_cell_formula_units_Z 16
_cell_length_a 9.487387
_cell_length_b 21.529699
_cell_length_c 9.410701
_cell_angle_alpha 123.903129
_cell_angle_beta 55.906666
_cell_angle_gamma 152.089221
_cell_volume 735.406080
_symmetry_space_group_name_H-M "P -1"
_symmetry_group_IT_number 2
_symmetry_cell_setting 'triclinic'
loop_
_space_group_symop_operation_xyz
x,y,z
-x,-y,-z
loop_
_atom_site_type_symbol
_atom_site_label
_atom_site_fract_x
_atom_site_fract_y
_atom_site_fract_z
Si Si1 0.752194 0.680687 0.365644
Si Si2 0.187771 0.569706 0.840487
Si Si3 0.797791 0.252446 0.974947
Si Si4 0.042050 0.439411 0.482236
Si Si5 0.862455 0.749525 0.704873
Si Si6 0.888085 0.032708 0.521544
Si Si7 0.711972 0.178407 0.243121
Si Si8 0.774834 0.970045 0.181484
O O1 0.388176 0.540357 0.382476
O O2 0.844812 0.697802 0.499993
O O3 0.906039 0.680310 0.168357
O O4 0.872458 0.810399 0.434044
O O5 0.040421 0.457905 0.672232
O O6 0.534823 0.670115 0.800757
O O7 0.172757 0.648159 0.885944
O O8 0.000000 0.500000 0.000000
O O9 0.552805 0.158043 0.866849
O O10 0.691251 0.172281 0.077048
O O11 0.000000 0.500000 0.500000
O O12 0.778354 0.287225 0.392804
O O13 0.987620 0.752435 0.774983
O O14 0.112505 0.904653 0.740984
O O15 0.596222 0.958622 0.677822
O O16 0.794048 0.967128 0.335680
O O17 0.000000 0.000000 0.500000
O O18 0.000000 0.000000 0.000000
#
# Coordination Sequence:
#
# PCOD9048307 Si02
#       8
#     2   2   2   2   2   2   2   2
#     4  10  25  44  68  96 136 176 221 278 335 399
#     4  11  26  43  69  97 134 175 229 268 336 405
#     4  12  25  44  67 101 136 174 222 282 329 393
#     4  11  24  46  68  94 138 178 216 277 340 395
#     4  10  24  45  66  98 133 176 218 275 340 399
#     4  11  24  43  70 103 134 177 227 271 341 400
#     4  12  26  41  70 100 135 173 229 279 330 395
#     4  11  22  41  70  96 136 176 217 274 332 395
#
# _framework density 21.756685999999998
#
# number of rings (size 3 to 8) (size 9 to 14) (size 15 to 20)
#    0.000    1.000    2.500    3.000    7.000    7.500 
#    0.000    0.000    0.000    0.000    0.000    0.000 
#    0.000    0.000    0.000    0.000    0.000    0.000 
#
# Total GULP energy -89450.447294 kJ/mol
# GULP energy per Si atom -5590.652956 kJ/mol
# Density = 2.170717 g / cm^3
# Si number density = 21.756686 Si / 1000 Ang^3
#
#
#
# Elastic Constant Matrix: (Units=GPa)
#
#
# Indices 1 2 3 4 5 6 
#
# 1 99.7957 -11.3118 35.3371 -8.9427 16.4619 -6.3207
# 2 -11.3118 50.7216 19.5084 -3.6549 11.0204 -0.6784
# 3 35.3371 19.5084 110.0798 -32.4171 10.0785 10.6399
# 4 -8.9427 -3.6549 -32.4171 37.9037 -1.9958 -1.5237
# 5 16.4619 11.0204 10.0785 -1.9958 31.2470 -6.1235
# 6 -6.3207 -0.6784 10.6399 -1.5237 -6.1235 22.4566
#
#
#
# Elastic Compliance Matrix: (Units=1/GPa)
#
#
# Indices 1 2 3 4 5 6 
#
# 1 0.014370 0.007082 -0.006087 -0.001306 -0.007191 0.005093
# 2 0.007082 0.026051 -0.006876 -0.002111 -0.010227 0.003106
# 3 -0.006087 -0.006876 0.016688 0.011759 -0.000813 -0.009252
# 4 -0.001306 -0.002111 0.011759 0.035731 -0.000823 -0.003803
# 5 -0.007191 -0.010227 -0.000813 -0.000823 0.041429 0.009293
# 6 0.005093 0.003106 -0.009252 -0.003803 0.009293 0.052717
#
#
# Mechanical properties :
#
#
# Convention : Reuss Voigt Hill
#
# Bulk Modulus (GPa) = 22.05140 38.62938 30.34039
# Shear Modulus (GPa) = 23.37934 32.79239 28.08586
#
# Velocity S-wave (km/s) = 3.28164 3.88652 3.59682
# Velocity P-wave (km/s) = 4.95140 6.15904 5.58794
#
# Compressibility (1/GPa) = 0.04534859
#
# Stress axis : x y z
#
# Youngs Moduli (GPa) = 69.58866 38.38625 59.92235
#
# Poissons Ratio (x) = -0.27186 0.36473
# Poissons Ratio (y) = -0.49284 0.41202
# Poissons Ratio (z) = 0.42357 0.26394
#
# Static dielectric constant tensor:
#      x y z
#    x 1.851370 0.003700 -0.015950 
#    y 0.003700 1.788600 -0.010630 
#    z -0.015950 -0.010630 1.820770 
# 
# From -- ./inp_files/207978.got.cif
#   From: 2010.05.17/outbox.cif.g08.bks.cpg/sg2_104_cif.got.tgz:207978.got - 2010.06.03 11:33:40.
