data_PCOD9048696
_publ_section_title
;
Structure prediction by ZEFSAII (Michael W. Deem and Ramdas Pophale) SiO2 
 PCOD9048696
Probable space group: P -1
;
_chemical_formula_sum "Si O2"
_cell_formula_units_Z 15
_cell_length_a 11.215719
_cell_length_b 10.137213
_cell_length_c 12.871210
_cell_angle_alpha 144.241969
_cell_angle_beta 47.290991
_cell_angle_gamma 138.351288
_cell_volume 558.481914
_symmetry_space_group_name_H-M "P -1"
_symmetry_group_IT_number 2
_symmetry_cell_setting 'triclinic'
loop_
_space_group_symop_operation_xyz
x,y,z
-x,-y,-z
loop_
_atom_site_type_symbol
_atom_site_label
_atom_site_fract_x
_atom_site_fract_y
_atom_site_fract_z
Si Si1 0.887570 0.418122 0.143850
Si Si2 0.622126 0.353231 0.793020
Si Si3 0.122665 0.165305 0.937663
Si Si4 0.943180 0.216755 0.453205
Si Si5 0.688086 0.010853 0.860880
Si Si6 0.000000 0.000000 0.500000
Si Si7 0.343260 0.490958 0.353913
Si Si8 0.510189 0.142826 0.319439
O O1 0.697314 0.271509 0.227860
O O2 0.941404 0.705967 0.314936
O O3 0.026296 0.321555 0.044001
O O4 0.830877 0.294760 0.984119
O O5 0.800247 0.309272 0.636082
O O6 0.571054 0.388365 0.728454
O O7 0.505746 0.106383 0.773256
O O8 0.691823 0.616270 0.982751
O O9 0.128433 0.973427 0.724723
O O10 0.000000 0.000000 0.000000
O O11 0.977471 0.068492 0.433495
O O12 0.138747 0.458244 0.466698
O O13 0.698564 0.799317 0.792077
O O14 0.663307 0.929598 0.702051
O O15 0.500000 0.000000 0.000000
O O16 0.474694 0.656469 0.473872
#
# Coordination Sequence:
#
# PCOD9048696 Si02
#       8
#     2   2   2   2   2   1   2   2
#     4  11  24  48  74 109 147 195 250 316 376 448
#     4  12  27  47  73 117 152 196 254 310 384 461
#     4  12  25  48  78 108 150 196 255 312 383 451
#     4  12  27  44  79 110 148 198 253 315 375 450
#     4  10  24  45  71 105 146 196 252 312 374 447
#     4  12  26  44  78 108 144 198 254 312 376 440
#     4  12  23  49  74 102 148 203 245 312 378 443
#     4  11  26  46  74 103 151 198 249 305 380 453
#
# _framework density 26.858523000000002
#
# number of rings (size 3 to 8) (size 9 to 14) (size 15 to 20)
#    0.000    0.533    5.333    1.200    5.600    2.667 
#    2.400    3.333    0.000    0.000    0.000    0.000 
#    0.000    0.000    0.000    0.000    0.000    0.000 
#
# Total GULP energy -83999.078979 kJ/mol
# GULP energy per Si atom -5599.938599 kJ/mol
# Density = 2.679739 g / cm^3
# Si number density = 26.858523 Si / 1000 Ang^3
#
#
#
# Elastic Constant Matrix: (Units=GPa)
#
#
# Indices 1 2 3 4 5 6 
#
# 1 73.4383 18.2592 36.7278 8.4419 32.1076 -13.0496
# 2 18.2592 148.8510 57.7797 11.4049 9.8232 -10.4685
# 3 36.7278 57.7797 181.3147 19.2065 46.4776 -7.2627
# 4 8.4419 11.4049 19.2065 58.1884 -1.0652 4.7736
# 5 32.1076 9.8232 46.4776 -1.0652 69.0149 9.4927
# 6 -13.0496 -10.4685 -7.2627 4.7736 9.4927 45.4849
#
#
#
# Elastic Compliance Matrix: (Units=1/GPa)
#
#
# Indices 1 2 3 4 5 6 
#
# 1 0.020356 -0.000767 -0.000598 -0.003450 -0.010118 0.008042
# 2 -0.000767 0.007831 -0.002396 -0.000713 0.000689 0.001131
# 3 -0.000598 -0.002396 0.008023 -0.002338 -0.005077 0.001863
# 4 -0.003450 -0.000713 -0.002338 0.019035 0.004180 -0.004397
# 5 -0.010118 0.000689 -0.005077 0.004180 0.023815 -0.008963
# 6 0.008042 0.001131 0.001863 -0.004397 -0.008963 0.027182
#
#
# Mechanical properties :
#
#
# Convention : Reuss Voigt Hill
#
# Bulk Modulus (GPa) = 34.85771 69.90416 52.38094
# Shear Modulus (GPa) = 40.54279 53.92678 47.23478
#
# Velocity S-wave (km/s) = 3.88944 4.48572 4.19818
# Velocity P-wave (km/s) = 5.75992 7.27408 6.56083
#
# Compressibility (1/GPa) = 0.02868806
#
# Stress axis : x y z
#
# Youngs Moduli (GPa) = 49.12642 127.69868 124.63467
#
# Poissons Ratio (x) = 0.09799 0.07449
# Poissons Ratio (y) = 0.03770 0.29862
# Poissons Ratio (z) = 0.02936 0.30596
#
# Static dielectric constant tensor:
#      x y z
#    x 2.985040 0.637340 -0.962920 
#    y 0.637340 2.496230 -0.813080 
#    z -0.962920 -0.813080 3.264550 
# 
# From -- ./inp_files/420178.got.cif
#   From: 2010.05.17/outbox.cif.g08.bks.cpg/sg2_211_cif.got.tgz:420178.got - 2010.06.03 11:33:40.
