data_PCOD9048163
_publ_section_title
;
Structure prediction by ZEFSAII (Michael W. Deem and Ramdas Pophale) SiO2 
 PCOD9048163
Probable space group: P -1
;
_chemical_formula_sum "Si O2"
_cell_formula_units_Z 16
_cell_length_a 9.331997
_cell_length_b 18.778107
_cell_length_c 8.588086
_cell_angle_alpha 102.104073
_cell_angle_beta 126.355362
_cell_angle_gamma 40.171020
_cell_volume 690.818789
_symmetry_space_group_name_H-M "P -1"
_symmetry_group_IT_number 2
_symmetry_cell_setting 'triclinic'
loop_
_space_group_symop_operation_xyz
x,y,z
-x,-y,-z
loop_
_atom_site_type_symbol
_atom_site_label
_atom_site_fract_x
_atom_site_fract_y
_atom_site_fract_z
Si Si1 0.552132 0.022031 0.377775
Si Si2 0.156305 0.208369 0.954164
Si Si3 0.553673 0.397067 0.459402
Si Si4 0.353523 0.863130 0.343817
Si Si5 0.731672 0.366729 0.010958
Si Si6 0.198835 0.762853 0.736054
Si Si7 0.644923 0.125305 0.010308
Si Si8 0.692299 0.600124 0.442016
O O1 0.327127 0.090332 0.116779
O O2 0.555666 0.105788 0.461640
O O3 0.500000 0.000000 0.500000
O O4 0.898148 0.884482 0.501705
O O5 0.403730 0.168909 0.991755
O O6 0.972332 0.316459 0.017055
O O7 0.882019 0.272467 0.696473
O O8 0.500000 0.500000 0.500000
O O9 0.577365 0.357208 0.284687
O O10 0.283557 0.446643 0.398522
O O11 0.534201 0.729546 0.425104
O O12 0.432992 0.859904 0.215499
O O13 0.987132 0.978867 0.176889
O O14 0.888345 0.265119 0.197143
O O15 0.500000 0.500000 0.000000
O O16 0.528765 0.376973 0.790651
O O17 0.325347 0.797222 0.901695
O O18 0.000000 0.500000 0.500000
#
# Coordination Sequence:
#
# PCOD9048163 Si02
#       8
#     2   2   2   2   2   2   2   2
#     4  11  25  42  73 105 139 182 227 291 359 423
#     4  11  26  44  72 105 137 179 237 283 363 403
#     4  11  28  47  68 104 145 183 239 292 343 422
#     4  10  24  45  69 104 142 181 239 288 358 420
#     4  11  24  46  69 101 141 184 237 290 343 424
#     4  11  23  45  69 101 143 179 231 287 352 419
#     4  10  24  44  75 101 140 183 231 297 347 422
#     4  11  26  45  71  97 139 192 237 285 356 414
#
# _framework density 23.160920000000001
#
# number of rings (size 3 to 8) (size 9 to 14) (size 15 to 20)
#    0.000    1.250    2.500    1.500    8.750    1.500 
#    0.000    1.875    0.000    0.000    0.000    0.000 
#    0.000    0.000    0.000    0.000    0.000    0.000 
#
# Total GULP energy -89425.385077 kJ/mol
# GULP energy per Si atom -5589.086567 kJ/mol
# Density = 2.310820 g / cm^3
# Si number density = 23.160920 Si / 1000 Ang^3
#
#
#
# Elastic Constant Matrix: (Units=GPa)
#
#
# Indices 1 2 3 4 5 6 
#
# 1 146.3596 62.0306 4.2537 -5.6837 -10.8962 -36.1948
# 2 62.0306 165.1648 10.4690 17.2793 -0.8915 -10.8297
# 3 4.2537 10.4690 58.9209 -2.1407 -4.8012 -5.5857
# 4 -5.6837 17.2793 -2.1407 24.4535 -4.9520 -5.6854
# 5 -10.8962 -0.8915 -4.8012 -4.9520 21.5434 3.0667
# 6 -36.1948 -10.8297 -5.5857 -5.6854 3.0667 42.6006
#
#
#
# Elastic Compliance Matrix: (Units=1/GPa)
#
#
# Indices 1 2 3 4 5 6 
#
# 1 0.012586 -0.005255 0.002033 0.010798 0.007586 0.010519
# 2 -0.005255 0.008905 -0.002233 -0.009410 -0.004462 -0.003428
# 3 0.002033 -0.002233 0.018270 0.005726 0.005768 0.003904
# 4 0.010798 -0.009410 0.005726 0.057345 0.017548 0.013923
# 5 0.007586 -0.004462 0.005768 0.017548 0.054753 0.004468
# 6 0.010519 -0.003428 0.003904 0.013923 0.004468 0.033588
#
#
# Mechanical properties :
#
#
# Convention : Reuss Voigt Hill
#
# Bulk Modulus (GPa) = 34.66147 58.21688 46.43918
# Shear Modulus (GPa) = 24.27470 37.29896 30.78683
#
# Velocity S-wave (km/s) = 3.24093 4.01737 3.64985
# Velocity P-wave (km/s) = 5.38543 6.83442 6.15273
#
# Compressibility (1/GPa) = 0.02885048
#
# Stress axis : x y z
#
# Youngs Moduli (GPa) = 79.45315 112.29323 54.73429
#
# Poissons Ratio (x) = 0.59008 -0.11126
# Poissons Ratio (y) = 0.41751 0.12224
# Poissons Ratio (z) = -0.16151 0.25080
#
# Static dielectric constant tensor:
#      x y z
#    x 1.917930 -0.013770 -0.038830 
#    y -0.013770 1.849500 -0.020800 
#    z -0.038830 -0.020800 1.884850 
# 
# From -- ./inp_files/217925.got.cif
#   From: 2010.05.17/outbox.cif.g08.bks.cpg/sg2_109_cif.got.tgz:217925.got - 2010.06.03 11:33:40.
