data_PCOD9048911
_publ_section_title
;
Structure prediction by ZEFSAII (Michael W. Deem and Ramdas Pophale) SiO2 
 PCOD9048911
Probable space group: P -1
;
_chemical_formula_sum "Si O2"
_cell_formula_units_Z 14
_cell_length_a 11.208297
_cell_length_b 23.920260
_cell_length_c 8.715427
_cell_angle_alpha 39.068462
_cell_angle_beta 40.588773
_cell_angle_gamma 23.030224
_cell_volume 566.507042
_symmetry_space_group_name_H-M "P -1"
_symmetry_group_IT_number 2
_symmetry_cell_setting 'triclinic'
loop_
_space_group_symop_operation_xyz
x,y,z
-x,-y,-z
loop_
_atom_site_type_symbol
_atom_site_label
_atom_site_fract_x
_atom_site_fract_y
_atom_site_fract_z
Si Si1 0.444733 0.625272 0.240923
Si Si2 0.862882 0.806927 0.218880
Si Si3 0.800637 0.622699 0.683941
Si Si4 0.313377 0.077029 0.354138
Si Si5 0.686759 0.664702 0.371271
Si Si6 0.846821 0.125711 0.765306
Si Si7 0.860534 0.353965 0.016713
O O1 0.500000 0.500000 0.500000
O O2 0.318615 0.733827 0.271813
O O3 0.161197 0.725386 0.188794
O O4 0.700579 0.588230 0.981909
O O5 0.788791 0.732654 0.499480
O O6 0.580967 0.978793 0.177048
O O7 0.960218 0.768656 0.029184
O O8 0.597949 0.686135 0.590334
O O9 0.159094 0.468850 0.606767
O O10 0.137054 0.053870 0.548379
O O11 0.016992 0.257494 0.228810
O O12 0.500000 0.000000 0.500000
O O13 0.403105 0.814383 0.235302
O O14 0.984526 0.611039 0.209429
O O15 0.000000 0.000000 0.000000
O O16 0.500000 0.500000 0.000000
#
# Coordination Sequence:
#
# PCOD9048911 Si02
#       7
#     2   2   2   2   2   2   2
#     4  12  27  44  76 111 151 202 259 319 388 460
#     4  11  25  47  72 110 150 197 255 317 383 452
#     4  10  24  46  72 109 149 188 254 317 382 454
#     4  12  26  47  72 106 152 197 254 315 379 460
#     4  10  24  45  75 106 147 196 247 317 379 455
#     4  12  27  46  71 105 152 204 251 312 397 461
#     4  11  26  46  80 110 150 196 257 317 384 465
#
# _framework density 24.712844
#
# number of rings (size 3 to 8) (size 9 to 14) (size 15 to 20)
#    0.000    0.857    1.429    3.857   12.000    3.429 
#    0.000    2.857    0.000    0.000    0.000    0.000 
#    0.000    0.000    0.000    0.000    0.000    0.000 
#
# Total GULP energy -78003.960875 kJ/mol
# GULP energy per Si atom -5571.711491 kJ/mol
# Density = 2.465660 g / cm^3
# Si number density = 24.712844 Si / 1000 Ang^3
#
#
#
# Elastic Constant Matrix: (Units=GPa)
#
#
# Indices 1 2 3 4 5 6 
#
# 1 117.1623 54.8911 11.5480 -8.8071 4.5247 -22.7574
# 2 54.8911 107.3578 31.7968 -18.8809 14.1582 -28.6048
# 3 11.5480 31.7968 111.3280 -4.8709 -5.3973 -12.4932
# 4 -8.8071 -18.8809 -4.8709 32.9235 -4.4491 17.3832
# 5 4.5247 14.1582 -5.3973 -4.4491 37.4355 1.4300
# 6 -22.7574 -28.6048 -12.4932 17.3832 1.4300 48.8471
#
#
#
# Elastic Compliance Matrix: (Units=1/GPa)
#
#
# Indices 1 2 3 4 5 6 
#
# 1 0.011539 -0.005721 0.000706 -0.001434 0.000597 0.002699
# 2 -0.005721 0.015914 -0.003542 0.003944 -0.005541 0.004507
# 3 0.000706 -0.003542 0.010132 -0.000487 0.002621 0.000943
# 4 -0.001434 0.003944 -0.000487 0.039337 0.003768 -0.012592
# 5 0.000597 -0.005541 0.002621 0.003768 0.029734 -0.004508
# 6 0.002699 0.004507 0.000943 -0.012592 -0.004508 0.029223
#
#
# Mechanical properties :
#
#
# Convention : Reuss Voigt Hill
#
# Bulk Modulus (GPa) = 48.84735 59.14663 53.99699
# Shear Modulus (GPa) = 31.28567 39.68204 35.48385
#
# Velocity S-wave (km/s) = 3.56190 4.01150 3.79337
# Velocity P-wave (km/s) = 6.06012 6.74104 6.40963
#
# Compressibility (1/GPa) = 0.02047194
#
# Stress axis : x y z
#
# Youngs Moduli (GPa) = 86.66084 62.83837 98.69250
#
# Poissons Ratio (x) = 0.35948 -0.06969
# Poissons Ratio (y) = 0.49577 0.34958
# Poissons Ratio (z) = -0.06119 0.22258
#
# Static dielectric constant tensor:
#      x y z
#    x 1.946300 0.015740 0.066190 
#    y 0.015740 2.014690 -0.099760 
#    z 0.066190 -0.099760 2.264150 
# 
# From -- ./inp_files/285796.got.cif
#   From: 2010.05.17/outbox.cif.g08.bks.cpg/sg2_143_cif.got.tgz:285796.got - 2010.06.03 11:33:40.
