data_PCOD9048508
_publ_section_title
;
Structure prediction by ZEFSAII (Michael W. Deem and Ramdas Pophale) SiO2 
 PCOD9048508
Probable space group: P -1
;
_chemical_formula_sum "Si O2"
_cell_formula_units_Z 16
_cell_length_a 9.785081
_cell_length_b 8.906638
_cell_length_c 15.167623
_cell_angle_alpha 151.072329
_cell_angle_beta 80.284427
_cell_angle_gamma 101.688519
_cell_volume 626.044363
_symmetry_space_group_name_H-M "P -1"
_symmetry_group_IT_number 2
_symmetry_cell_setting 'triclinic'
loop_
_space_group_symop_operation_xyz
x,y,z
-x,-y,-z
loop_
_atom_site_type_symbol
_atom_site_label
_atom_site_fract_x
_atom_site_fract_y
_atom_site_fract_z
Si Si1 0.304188 0.161993 0.924358
Si Si2 0.810766 0.443931 0.991604
Si Si3 0.538492 0.611080 0.212609
Si Si4 0.027584 0.691769 0.453258
Si Si5 0.253866 0.270454 0.413976
Si Si6 0.664716 0.424160 0.267765
Si Si7 0.045128 0.390743 0.761970
Si Si8 0.334930 0.775931 0.548568
O O1 0.299356 0.914279 0.877417
O O2 0.357103 0.955612 0.732729
O O3 0.178582 0.310003 0.964846
O O4 0.401783 0.466980 0.102556
O O5 0.785458 0.091699 0.781464
O O6 0.666878 0.506119 0.087642
O O7 0.922598 0.475510 0.074738
O O8 0.543374 0.443912 0.220858
O O9 0.571993 0.986563 0.402660
O O10 0.175980 0.755566 0.517452
O O11 0.892113 0.576818 0.469275
O O12 0.037811 0.507592 0.264021
O O13 0.992193 0.033319 0.604266
O O14 0.348423 0.361983 0.535477
O O15 0.333820 0.418547 0.395477
O O16 0.800687 0.582721 0.283616
#
# Coordination Sequence:
#
# PCOD9048508 Si02
#       8
#     2   2   2   2   2   2   2   2
#     4  10  19  34  59  80  99 142 184 217 255 319
#     4  10  19  37  51  82 112 133 173 226 264 301
#     4  10  19  37  60  75 103 142 183 215 260 315
#     4  10  17  34  59  77 104 146 180 204 262 319
#     4  10  22  32  55  82 112 136 171 223 266 305
#     4   9  18  36  55  79 104 138 181 212 260 321
#     4   9  18  33  58  75 106 142 173 212 259 315
#     4  10  18  35  54  81 103 142 180 212 254 324
#
# _framework density 25.557296000000001
#
# number of rings (size 3 to 8) (size 9 to 14) (size 15 to 20)
#    0.000    2.250    3.750    2.250    0.000    0.500 
#    0.000    9.375    0.000    0.000    0.000    0.000 
#    0.000    0.000    0.000    0.000    0.000    0.000 
#
# Total GULP energy -89220.418545 kJ/mol
# GULP energy per Si atom -5576.276159 kJ/mol
# Density = 2.549913 g / cm^3
# Si number density = 25.557296 Si / 1000 Ang^3
#
#
#
# Elastic Constant Matrix: (Units=GPa)
#
#
# Indices 1 2 3 4 5 6 
#
# 1 69.0162 35.7824 27.5842 -18.6751 9.3316 -11.6799
# 2 35.7824 172.1796 60.0700 -6.2647 -3.3412 -9.5101
# 3 27.5842 60.0700 93.0013 2.0885 13.3509 -19.1430
# 4 -18.6751 -6.2647 2.0885 38.0399 -12.4791 3.9995
# 5 9.3316 -3.3412 13.3509 -12.4791 28.3678 -2.5612
# 6 -11.6799 -9.5101 -19.1430 3.9995 -2.5612 35.9893
#
#
#
# Elastic Compliance Matrix: (Units=1/GPa)
#
#
# Indices 1 2 3 4 5 6 
#
# 1 0.020427 -0.002341 -0.004089 0.009345 -0.000712 0.002747
# 2 -0.002341 0.008493 -0.005975 0.002571 0.005570 -0.001583
# 3 -0.004089 -0.005975 0.019202 -0.008604 -0.011509 0.007445
# 4 0.009345 0.002571 -0.008604 0.037958 0.017630 -0.003828
# 5 -0.000712 0.005570 -0.011509 0.017630 0.049011 -0.003352
# 6 0.002747 -0.001583 0.007445 -0.003828 -0.003352 0.032406
#
#
# Mechanical properties :
#
#
# Convention : Reuss Voigt Hill
#
# Bulk Modulus (GPa) = 42.89381 64.56334 53.72857
# Shear Modulus (GPa) = 24.99037 34.53009 29.76023
#
# Velocity S-wave (km/s) = 3.13040 3.67970 3.41611
# Velocity P-wave (km/s) = 5.46678 6.58564 6.05212
#
# Compressibility (1/GPa) = 0.02331339
#
# Stress axis : x y z
#
# Youngs Moduli (GPa) = 48.95493 117.74439 52.07729
#
# Poissons Ratio (x) = 0.27559 0.21295
# Poissons Ratio (y) = 0.11458 0.31114
# Poissons Ratio (z) = 0.20019 0.70348
#
# Static dielectric constant tensor:
#      x y z
#    x 2.115930 -0.006400 -0.048120 
#    y -0.006400 2.113800 -0.081660 
#    z -0.048120 -0.081660 2.043400 
# 
# From -- ./inp_files/342585.got.cif
#   From: 2010.05.17/outbox.cif.g08.bks.cpg/sg2_172_cif.got.tgz:342585.got - 2010.06.03 11:33:40.
