data_PCOD9048679
_publ_section_title
;
Structure prediction by ZEFSAII (Michael W. Deem and Ramdas Pophale) SiO2 
 PCOD9048679
Probable space group: P -1
;
_chemical_formula_sum "Si O2"
_cell_formula_units_Z 16
_cell_length_a 9.015477
_cell_length_b 12.156582
_cell_length_c 19.611701
_cell_angle_alpha 36.615774
_cell_angle_beta 80.705378
_cell_angle_gamma 52.133586
_cell_volume 719.428314
_symmetry_space_group_name_H-M "P -1"
_symmetry_group_IT_number 2
_symmetry_cell_setting 'triclinic'
loop_
_space_group_symop_operation_xyz
x,y,z
-x,-y,-z
loop_
_atom_site_type_symbol
_atom_site_label
_atom_site_fract_x
_atom_site_fract_y
_atom_site_fract_z
Si Si1 0.228471 0.336695 0.014528
Si Si2 0.366730 0.374320 0.621407
Si Si3 0.587805 0.526566 0.571637
Si Si4 0.027086 0.166230 0.454959
Si Si5 0.947997 0.194088 0.843205
Si Si6 0.861256 0.746554 0.720493
Si Si7 0.481977 0.583519 0.037937
Si Si8 0.561936 0.724381 0.705962
O O1 0.486850 0.963116 0.203687
O O2 0.290740 0.492589 0.930928
O O3 0.000000 0.500000 0.000000
O O4 0.084772 0.433233 0.906945
O O5 0.570788 0.335668 0.639869
O O6 0.282666 0.484208 0.494057
O O7 0.141004 0.640849 0.560599
O O8 0.739620 0.360127 0.715329
O O9 0.294877 0.912630 0.410751
O O10 0.968177 0.370715 0.299159
O O11 0.320995 0.924509 0.575104
O O12 0.000000 0.000000 0.500000
O O13 0.808869 0.488243 0.752626
O O14 0.000000 0.000000 0.000000
O O15 0.216313 0.951984 0.902149
O O16 0.610308 0.863694 0.672754
O O17 0.467705 0.412246 0.169767
O O18 0.500000 0.500000 0.000000
#
# Coordination Sequence:
#
# PCOD9048679 Si02
#       8
#     2   2   2   2   2   2   2   2
#     4  12  27  48  72 106 147 189 246 298 372 436
#     4  11  27  43  75 107 145 191 244 303 364 436
#     4  11  24  46  73 106 145 194 238 304 368 429
#     4  12  24  46  72 109 145 191 247 300 366 436
#     4  10  24  45  71 102 146 189 246 289 369 430
#     4  12  25  45  74 102 147 194 240 303 365 435
#     4  11  27  44  72 104 142 191 239 304 366 437
#     4  11  25  45  71 104 147 189 241 304 366 433
#
# _framework density 22.239882000000001
#
# number of rings (size 3 to 8) (size 9 to 14) (size 15 to 20)
#    0.000    0.750    3.750    1.875    8.750    1.500 
#    0.000    1.250    0.000    0.000    0.000    0.000 
#    0.000    0.000    0.000    0.000    0.000    0.000 
#
# Total GULP energy -89115.387202 kJ/mol
# GULP energy per Si atom -5569.711700 kJ/mol
# Density = 2.218926 g / cm^3
# Si number density = 22.239882 Si / 1000 Ang^3
#
#
#
# Elastic Constant Matrix: (Units=GPa)
#
#
# Indices 1 2 3 4 5 6 
#
# 1 97.9108 15.4393 18.0768 2.6900 -14.0962 -1.4915
# 2 15.4393 146.9602 27.3673 16.0875 -3.4250 -20.7227
# 3 18.0768 27.3673 76.8160 29.6040 -1.9625 0.4206
# 4 2.6900 16.0875 29.6040 42.3118 -2.9465 2.3074
# 5 -14.0962 -3.4250 -1.9625 -2.9465 24.5965 1.5799
# 6 -1.4915 -20.7227 0.4206 2.3074 1.5799 31.3244
#
#
#
# Elastic Compliance Matrix: (Units=1/GPa)
#
#
# Indices 1 2 3 4 5 6 
#
# 1 0.011829 -0.000800 -0.003206 0.002286 0.006713 -0.000430
# 2 -0.000800 0.008273 -0.002025 -0.001988 -0.000067 0.005612
# 3 -0.003206 -0.002025 0.019320 -0.012647 -0.002047 -0.000717
# 4 0.002286 -0.001988 -0.012647 0.033595 0.004288 -0.003728
# 5 0.006713 -0.000067 -0.002047 0.004288 0.044991 -0.002282
# 6 -0.000430 0.005612 -0.000717 -0.003728 -0.002282 0.036016
#
#
# Mechanical properties :
#
#
# Convention : Reuss Voigt Hill
#
# Bulk Modulus (GPa) = 36.55094 49.27267 42.91180
# Shear Modulus (GPa) = 28.53795 37.03344 32.78570
#
# Velocity S-wave (km/s) = 3.58605 4.08509 3.84368
# Velocity P-wave (km/s) = 5.79800 6.66737 6.24783
#
# Compressibility (1/GPa) = 0.02735908
#
# Stress axis : x y z
#
# Youngs Moduli (GPa) = 84.54130 120.87137 51.76081
#
# Poissons Ratio (x) = 0.09672 0.16593
# Poissons Ratio (y) = 0.06765 0.10484
# Poissons Ratio (z) = 0.27101 0.24481
#
# Static dielectric constant tensor:
#      x y z
#    x 1.861600 -0.027770 0.006370 
#    y -0.027770 1.891810 -0.023820 
#    z 0.006370 -0.023820 1.865700 
# 
# From -- ./inp_files/559675.got.cif
#   From: 2010.05.17/outbox.cif.g08.bks.cpg/sg2_280_cif.got.tgz:559675.got - 2010.06.03 11:33:40.
