data_PCOD9048088
_publ_section_title
;
Structure prediction by ZEFSAII (Michael W. Deem and Ramdas Pophale) SiO2 
 PCOD9048088
Probable space group: P -1
;
_chemical_formula_sum "Si O2"
_cell_formula_units_Z 12
_cell_length_a 4.972902
_cell_length_b 18.773982
_cell_length_c 9.726679
_cell_angle_alpha 146.047223
_cell_angle_beta 110.587370
_cell_angle_gamma 62.754260
_cell_volume 450.184812
_symmetry_space_group_name_H-M "P -1"
_symmetry_group_IT_number 2
_symmetry_cell_setting 'triclinic'
loop_
_space_group_symop_operation_xyz
x,y,z
-x,-y,-z
loop_
_atom_site_type_symbol
_atom_site_label
_atom_site_fract_x
_atom_site_fract_y
_atom_site_fract_z
Si Si1 0.319766 0.554161 0.697840
Si Si2 0.287218 0.370737 0.874640
Si Si3 0.167076 0.851381 0.843251
Si Si4 0.715305 0.682358 0.504233
Si Si5 0.995673 0.152512 0.894984
Si Si6 0.554107 0.083117 0.514473
O O1 0.500000 0.500000 0.500000
O O2 0.210411 0.448520 0.596621
O O3 0.553241 0.590810 0.902899
O O4 0.034830 0.691294 0.855556
O O5 0.436814 0.346434 0.710550
O O6 0.277852 0.218767 0.657598
O O7 0.000000 0.500000 0.000000
O O8 0.473394 0.796012 0.727418
O O9 0.985402 0.742894 0.616333
O O10 0.197632 0.858314 0.023819
O O11 0.000000 0.000000 0.000000
O O12 0.827495 0.136400 0.698930
O O13 0.303061 0.026819 0.752951
O O14 0.500000 0.000000 0.500000
#
# Coordination Sequence:
#
# PCOD9048088 Si02
#       6
#     2   2   2   2   2   2
#     4  11  24  49  77 114 154 204 265 323 401 466
#     4  11  26  47  76 114 155 205 261 327 393 476
#     4  12  27  46  77 109 156 206 262 325 397 472
#     4  12  27  48  75 113 156 204 261 324 399 472
#     4  10  24  45  71 107 150 200 262 326 381 480
#     4  10  24  44  73 105 149 206 260 318 400 463
#
# _framework density 26.655722000000001
#
# number of rings (size 3 to 8) (size 9 to 14) (size 15 to 20)
#    0.000    1.000    1.667    3.000    7.000    0.667 
#    3.000    0.000    0.000    0.000    0.000    0.000 
#    0.000    0.000    0.000    0.000    0.000    0.000 
#
# Total GULP energy -67157.361837 kJ/mol
# GULP energy per Si atom -5596.446820 kJ/mol
# Density = 2.659505 g / cm^3
# Si number density = 26.655722 Si / 1000 Ang^3
#
#
#
# Elastic Constant Matrix: (Units=GPa)
#
#
# Indices 1 2 3 4 5 6 
#
# 1 47.9435 18.5852 38.2750 -3.5446 6.5916 -2.0601
# 2 18.5852 167.1570 88.5755 31.9782 7.0165 9.2394
# 3 38.2750 88.5755 219.4947 5.4916 -8.9842 -7.8863
# 4 -3.5446 31.9782 5.4916 86.6504 -4.8276 -2.9767
# 5 6.5916 7.0165 -8.9842 -4.8276 38.5106 6.1779
# 6 -2.0601 9.2394 -7.8863 -2.9767 6.1779 40.3454
#
#
#
# Elastic Compliance Matrix: (Units=1/GPa)
#
#
# Indices 1 2 3 4 5 6 
#
# 1 0.025504 -0.000612 -0.004398 0.001301 -0.005357 0.001499
# 2 -0.000612 0.008800 -0.003552 -0.003267 -0.002315 -0.002627
# 3 -0.004398 -0.003552 0.006907 0.000907 0.002874 0.001566
# 4 0.001301 -0.003267 0.000907 0.012907 0.001938 0.001647
# 5 -0.005357 -0.002315 0.002874 0.001938 0.028772 -0.003444
# 6 0.001499 -0.002627 0.001566 0.001647 -0.003444 0.026419
#
#
# Mechanical properties :
#
#
# Convention : Reuss Voigt Hill
#
# Bulk Modulus (GPa) = 41.51638 80.60740 61.06189
# Shear Modulus (GPa) = 37.18546 52.37857 44.78201
#
# Velocity S-wave (km/s) = 3.73906 4.43764 4.10325
# Velocity P-wave (km/s) = 5.85231 7.52082 6.73841
#
# Compressibility (1/GPa) = 0.02408688
#
# Stress axis : x y z
#
# Youngs Moduli (GPa) = 39.21024 113.63758 144.77156
#
# Poissons Ratio (x) = 0.06952 0.63676
# Poissons Ratio (y) = 0.02399 0.51421
# Poissons Ratio (z) = 0.17246 0.40363
#
# Static dielectric constant tensor:
#      x y z
#    x 2.178130 -0.096440 0.092740 
#    y -0.096440 2.158170 -0.005040 
#    z 0.092740 -0.005040 2.121420 
# 
# From -- ./inp_files/139695.got.cif
#   From: 2010.05.17/outbox.cif.g08.bks.cpg/sg2_70_cif.got.tgz:139695.got - 2010.06.03 11:33:40.
