data_PCOD9048637
_publ_section_title
;
Structure prediction by ZEFSAII (Michael W. Deem and Ramdas Pophale) SiO2 
 PCOD9048637
Probable space group: P -1
;
_chemical_formula_sum "Si O2"
_cell_formula_units_Z 14
_cell_length_a 17.054805
_cell_length_b 7.197333
_cell_length_c 12.478781
_cell_angle_alpha 43.569154
_cell_angle_beta 139.884072
_cell_angle_gamma 108.173753
_cell_volume 570.187780
_symmetry_space_group_name_H-M "P -1"
_symmetry_group_IT_number 2
_symmetry_cell_setting 'triclinic'
loop_
_space_group_symop_operation_xyz
x,y,z
-x,-y,-z
loop_
_atom_site_type_symbol
_atom_site_label
_atom_site_fract_x
_atom_site_fract_y
_atom_site_fract_z
Si Si1 0.747934 0.891668 0.417393
Si Si2 0.155616 0.127678 0.888210
Si Si3 0.619629 0.630410 0.536827
Si Si4 0.447394 0.459318 0.845848
Si Si5 0.152379 0.489308 0.526862
Si Si6 0.842271 0.283886 0.256183
Si Si7 0.449463 0.468491 0.279631
O O1 0.715557 0.766109 0.543069
O O2 0.846957 0.616087 0.550724
O O3 0.807034 0.123506 0.384835
O O4 0.586968 0.109395 0.106839
O O5 0.158347 0.235510 0.724378
O O6 0.169113 0.390357 0.859550
O O7 0.000187 0.194909 0.732236
O O8 0.273944 0.756147 0.184652
O O9 0.500215 0.685396 0.300944
O O10 0.541768 0.747614 0.520934
O O11 0.296194 0.493407 0.682680
O O12 0.448059 0.668215 0.660509
O O13 0.500000 0.500000 0.000000
O O14 0.713249 0.376829 0.999043
O O15 0.000000 0.000000 0.500000
#
# Coordination Sequence:
#
# PCOD9048637 Si02
#       7
#     2   2   2   2   2   2   2
#     4  11  23  43  70  96 135 177 230 279 335 401
#     4  11  25  41  69 100 136 180 232 275 343 406
#     4  11  25  45  69 101 136 182 224 286 345 406
#     4  11  23  43  70 104 133 178 235 283 331 411
#     4  11  22  41  72  94 134 185 237 272 328 416
#     4  11  23  44  68  99 135 181 227 282 331 405
#     4  10  24  45  70  96 143 177 226 281 353 398
#
# _framework density 24.553312999999999
#
# number of rings (size 3 to 8) (size 9 to 14) (size 15 to 20)
#    0.000    1.143    2.857    3.857    8.000    1.143 
#    2.571    0.714    0.000    0.000    0.000    0.000 
#    0.000    0.000    0.000    0.000    0.000    0.000 
#
# Total GULP energy -78224.812721 kJ/mol
# GULP energy per Si atom -5587.486623 kJ/mol
# Density = 2.449743 g / cm^3
# Si number density = 24.553313 Si / 1000 Ang^3
#
#
#
# Elastic Constant Matrix: (Units=GPa)
#
#
# Indices 1 2 3 4 5 6 
#
# 1 212.2649 45.5561 30.7204 8.4296 7.2033 10.3822
# 2 45.5561 85.0075 20.4617 11.0999 -0.7257 10.7467
# 3 30.7204 20.4617 77.8493 2.7233 18.8448 13.2641
# 4 8.4296 11.0999 2.7233 37.8790 4.5429 -2.5958
# 5 7.2033 -0.7257 18.8448 4.5429 45.1090 13.4284
# 6 10.3822 10.7467 13.2641 -2.5958 13.4284 46.7585
#
#
#
# Elastic Compliance Matrix: (Units=1/GPa)
#
#
# Indices 1 2 3 4 5 6 
#
# 1 0.005489 -0.002536 -0.001396 -0.000362 -0.000241 -0.000191
# 2 -0.002536 0.014816 -0.002997 -0.004168 0.003255 -0.003158
# 3 -0.001396 -0.002997 0.015917 0.000646 -0.006018 -0.001752
# 4 -0.000362 -0.004168 0.000646 0.028412 -0.004226 0.003646
# 5 -0.000241 0.003255 -0.006018 -0.004226 0.027302 -0.007063
# 6 -0.000191 -0.003158 -0.001752 0.003646 -0.007063 0.024882
#
#
# Mechanical properties :
#
#
# Convention : Reuss Voigt Hill
#
# Bulk Modulus (GPa) = 44.71815 63.17757 53.94786
# Shear Modulus (GPa) = 36.19725 44.50819 40.35272
#
# Velocity S-wave (km/s) = 3.84374 4.26222 4.05838
# Velocity P-wave (km/s) = 6.16046 7.07168 6.63174
#
# Compressibility (1/GPa) = 0.02236228
#
# Stress axis : x y z
#
# Youngs Moduli (GPa) = 182.16954 67.49564 62.82674
#
# Poissons Ratio (x) = 0.17120 0.08771
# Poissons Ratio (y) = 0.46206 0.18832
# Poissons Ratio (z) = 0.25431 0.20231
#
# Static dielectric constant tensor:
#      x y z
#    x 2.015820 -0.020020 -0.036410 
#    y -0.020020 2.040000 -0.033370 
#    z -0.036410 -0.033370 1.985750 
# 
# From -- ./inp_files/536899.got.cif
#   From: 2010.05.17/outbox.cif.g08.bks.cpg/sg2_269_cif.got.tgz:536899.got - 2010.06.03 11:33:40.
