data_PCOD9048199
_publ_section_title
;
Structure prediction by ZEFSAII (Michael W. Deem and Ramdas Pophale) SiO2 
 PCOD9048199
Probable space group: P -1
;
_chemical_formula_sum "Si O2"
_cell_formula_units_Z 16
_cell_length_a 10.441027
_cell_length_b 11.717265
_cell_length_c 17.376468
_cell_angle_alpha 94.220856
_cell_angle_beta 30.091116
_cell_angle_gamma 76.305908
_cell_volume 849.711077
_symmetry_space_group_name_H-M "P -1"
_symmetry_group_IT_number 2
_symmetry_cell_setting 'triclinic'
loop_
_space_group_symop_operation_xyz
x,y,z
-x,-y,-z
loop_
_atom_site_type_symbol
_atom_site_label
_atom_site_fract_x
_atom_site_fract_y
_atom_site_fract_z
Si Si1 0.839018 0.864750 0.154607
Si Si2 0.359998 0.877893 0.283291
Si Si3 0.696887 0.149065 0.309483
Si Si4 0.640629 0.351382 0.238152
Si Si5 0.609156 0.598783 0.217377
Si Si6 0.856162 0.424652 0.277027
Si Si7 0.680420 0.884200 0.966694
Si Si8 0.703953 0.702125 0.325667
O O1 0.579946 0.885396 0.230721
O O2 0.869548 0.765390 0.203122
O O3 0.732832 0.015757 0.247371
O O4 0.160845 0.773447 0.933278
O O5 0.451577 0.719878 0.240160
O O6 0.445417 0.900229 0.155428
O O7 0.000000 0.000000 0.500000
O O8 0.502153 0.291337 0.363470
O O9 0.533383 0.192317 0.479806
O O10 0.052085 0.104917 0.134184
O O11 0.487911 0.500504 0.280530
O O12 0.849958 0.369682 0.192061
O O13 0.533449 0.681203 0.342365
O O14 0.000000 0.500000 0.000000
O O15 0.500000 0.500000 0.500000
O O16 0.915667 0.543079 0.243959
O O17 0.115869 0.279380 0.178652
O O18 0.500000 0.000000 0.000000
#
# Coordination Sequence:
#
# PCOD9048199 Si02
#       8
#     2   2   2   2   2   2   2   2
#     4  11  21  36  59  84 117 152 192 233 282 344
#     4  11  23  38  57  86 118 150 188 239 290 338
#     4  11  21  37  56  87 118 149 190 237 283 341
#     4  10  18  31  57  85 104 145 193 237 275 321
#     4  10  17  34  59  83 111 144 196 241 277 327
#     4  10  17  34  58  84 114 142 193 242 277 327
#     4  11  24  37  56  87 119 150 187 237 294 337
#     4  10  19  31  56  88 109 143 195 237 280 325
#
# _framework density 18.829930000000001
#
# number of rings (size 3 to 8) (size 9 to 14) (size 15 to 20)
#    0.000    1.500    7.500    1.500    3.500    0.000 
#    0.000    0.000    0.000    3.000    0.000    0.000 
#    0.000    0.000    0.000    0.000    0.000    0.000 
#
# Total GULP energy -89099.196327 kJ/mol
# GULP energy per Si atom -5568.699770 kJ/mol
# Density = 1.878707 g / cm^3
# Si number density = 18.829930 Si / 1000 Ang^3
#
#
#
# Elastic Constant Matrix: (Units=GPa)
#
#
# Indices 1 2 3 4 5 6 
#
# 1 26.6786 40.0550 21.0875 3.4621 18.0755 -7.9530
# 2 40.0550 148.5436 27.4655 11.0357 12.9484 -24.0167
# 3 21.0875 27.4655 95.9692 -2.8633 26.4558 -22.0489
# 4 3.4621 11.0357 -2.8633 31.7721 -3.9316 9.0465
# 5 18.0755 12.9484 26.4558 -3.9316 33.3055 6.9401
# 6 -7.9530 -24.0167 -22.0489 9.0465 6.9401 37.0271
#
#
#
# Elastic Compliance Matrix: (Units=1/GPa)
#
#
# Indices 1 2 3 4 5 6 
#
# 1 0.141236 -0.022517 0.009213 -0.030533 -0.088243 0.045217
# 2 -0.022517 0.012857 0.000160 -0.002061 0.006240 0.002932
# 3 0.009213 0.000160 0.020335 -0.008588 -0.026665 0.021288
# 4 -0.030533 -0.002061 -0.008588 0.048266 0.036484 -0.031640
# 5 -0.088243 0.006240 -0.026665 0.036484 0.113691 -0.061008
# 6 0.045217 0.002932 0.021288 -0.031640 -0.061008 0.070463
#
#
# Mechanical properties :
#
#
# Convention : Reuss Voigt Hill
#
# Bulk Modulus (GPa) = 6.75030 49.82305 28.28668
# Shear Modulus (GPa) = 10.36233 32.59315 21.47774
#
# Velocity S-wave (km/s) = 2.34842 4.16495 3.38097
# Velocity P-wave (km/s) = 3.30849 7.04599 5.50418
#
# Compressibility (1/GPa) = 0.14814152
#
# Stress axis : x y z
#
# Youngs Moduli (GPa) = 7.08034 77.77624 49.17559
#
# Poissons Ratio (x) = 1.75129 -0.45308
# Poissons Ratio (y) = 0.15943 -0.00786
# Poissons Ratio (z) = -0.06523 -0.01244
#
# Static dielectric constant tensor:
#      x y z
#    x 1.652600 -0.043230 0.011440 
#    y -0.043230 1.753160 0.002630 
#    z 0.011440 0.002630 1.682610 
# 
# From -- ./inp_files/568058.got.cif
#   From: 2010.05.17/outbox.cif.g08.bks.cpg/sg2_285_cif.got.tgz:568058.got - 2010.06.03 11:33:40.
