data_PCOD9048315
_publ_section_title
;
Structure prediction by ZEFSAII (Michael W. Deem and Ramdas Pophale) SiO2 
 PCOD9048315
Probable space group: P -1
;
_chemical_formula_sum "Si O2"
_cell_formula_units_Z 14
_cell_length_a 18.019530
_cell_length_b 11.898590
_cell_length_c 9.198248
_cell_angle_alpha 39.256663
_cell_angle_beta 136.330232
_cell_angle_gamma 150.142047
_cell_volume 612.854073
_symmetry_space_group_name_H-M "P -1"
_symmetry_group_IT_number 2
_symmetry_cell_setting 'triclinic'
loop_
_space_group_symop_operation_xyz
x,y,z
-x,-y,-z
loop_
_atom_site_type_symbol
_atom_site_label
_atom_site_fract_x
_atom_site_fract_y
_atom_site_fract_z
Si Si1 0.359523 0.666108 0.946292
Si Si2 0.672774 0.109283 0.783340
Si Si3 0.698275 0.054394 0.542351
Si Si4 0.834202 0.842767 0.978146
Si Si5 0.827323 0.015359 0.294535
Si Si6 0.451838 0.249321 0.634683
Si Si7 0.175210 0.336752 0.535480
O O1 0.256753 0.715346 0.711373
O O2 0.514659 0.875387 0.867908
O O3 0.279778 0.395277 0.050921
O O4 0.420231 0.725376 0.136471
O O5 0.653482 0.057979 0.636252
O O6 0.726324 0.371521 0.623467
O O7 0.796961 0.118847 0.017357
O O8 0.813206 0.028414 0.752200
O O9 0.569024 0.817498 0.495707
O O10 0.810068 0.738404 0.210246
O O11 0.000000 0.000000 0.000000
O O12 0.000794 0.196342 0.406838
O O13 0.715086 0.954633 0.322795
O O14 0.785979 0.770451 0.420372
O O15 0.500000 0.500000 0.500000
#
# Coordination Sequence:
#
# PCOD9048315 Si02
#       7
#     2   2   2   2   2   2   2
#     4  11  26  45  69 102 135 179 227 278 340 403
#     4  11  24  43  74 103 131 175 231 282 337 399
#     4  12  24  45  69 101 138 176 224 286 337 398
#     4  12  26  44  68 101 140 178 225 275 342 405
#     4  10  24  45  67 100 135 182 225 277 336 401
#     4  11  24  43  68  98 139 179 222 275 342 401
#     4  11  23  44  71  97 137 179 229 277 333 403
#
# _framework density 22.843937
#
# number of rings (size 3 to 8) (size 9 to 14) (size 15 to 20)
#    0.000    0.857    4.286    2.143    2.000    1.143 
#    2.571    0.000    0.000    0.000    0.000    0.000 
#    0.000    0.000    0.000    0.000    0.000    0.000 
#
# Total GULP energy -78329.340102 kJ/mol
# GULP energy per Si atom -5594.952864 kJ/mol
# Density = 2.279194 g / cm^3
# Si number density = 22.843937 Si / 1000 Ang^3
#
#
#
# Elastic Constant Matrix: (Units=GPa)
#
#
# Indices 1 2 3 4 5 6 
#
# 1 89.7141 49.7789 32.4310 2.5871 18.9848 -10.4249
# 2 49.7789 86.1436 15.9982 6.7919 -7.4132 -14.1303
# 3 32.4310 15.9982 108.0000 23.8553 26.3589 2.5716
# 4 2.5871 6.7919 23.8553 45.4630 -6.8828 3.4009
# 5 18.9848 -7.4132 26.3589 -6.8828 34.2820 5.7186
# 6 -10.4249 -14.1303 2.5716 3.4009 5.7186 36.8323
#
#
#
# Elastic Compliance Matrix: (Units=1/GPa)
#
#
# Indices 1 2 3 4 5 6 
#
# 1 0.022931 -0.013753 -0.000625 -0.001666 -0.016181 0.003924
# 2 -0.013753 0.021607 -0.002848 0.001045 0.014308 0.002278
# 3 -0.000625 -0.002848 0.015544 -0.009926 -0.014346 0.000789
# 4 -0.001666 0.001045 -0.009926 0.029834 0.015528 -0.004543
# 5 -0.016181 0.014308 -0.014346 0.015528 0.056763 -0.008336
# 6 0.003924 0.002278 0.000789 -0.004543 -0.008336 0.030793
#
#
# Mechanical properties :
#
#
# Convention : Reuss Voigt Hill
#
# Bulk Modulus (GPa) = 39.01533 53.36378 46.18956
# Shear Modulus (GPa) = 22.67914 35.69210 29.18562
#
# Velocity S-wave (km/s) = 3.15427 3.95705 3.57824
# Velocity P-wave (km/s) = 5.51199 6.65496 6.11026
#
# Compressibility (1/GPa) = 0.02563095
#
# Stress axis : x y z
#
# Youngs Moduli (GPa) = 43.60819 46.28130 64.33451
#
# Poissons Ratio (x) = 0.63649 0.04021
# Poissons Ratio (y) = 0.59972 0.18323
# Poissons Ratio (z) = 0.02726 0.13181
#
# Static dielectric constant tensor:
#      x y z
#    x 1.835360 0.004280 0.023160 
#    y 0.004280 1.822120 0.025140 
#    z 0.023160 0.025140 1.903620 
# 
# From -- ./inp_files/332758.got.cif
#   From: 2010.05.17/outbox.cif.g08.bks.cpg/sg2_167_cif.got.tgz:332758.got - 2010.06.03 11:33:40.
