data_PCOD9048808
_publ_section_title
;
Structure prediction by ZEFSAII (Michael W. Deem and Ramdas Pophale) SiO2 
 PCOD9048808
Probable space group: P -1
;
_chemical_formula_sum "Si O2"
_cell_formula_units_Z 16
_cell_length_a 5.222382
_cell_length_b 21.434600
_cell_length_c 9.233873
_cell_angle_alpha 129.948132
_cell_angle_beta 61.726636
_cell_angle_gamma 106.294605
_cell_volume 697.450702
_symmetry_space_group_name_H-M "P -1"
_symmetry_group_IT_number 2
_symmetry_cell_setting 'triclinic'
loop_
_space_group_symop_operation_xyz
x,y,z
-x,-y,-z
loop_
_atom_site_type_symbol
_atom_site_label
_atom_site_fract_x
_atom_site_fract_y
_atom_site_fract_z
Si Si1 0.805224 0.952121 0.366753
Si Si2 0.755809 0.434457 0.463561
Si Si3 0.927424 0.686160 0.632846
Si Si4 0.165307 0.705688 0.287510
Si Si5 0.956596 0.132222 0.088001
Si Si6 0.283384 0.190273 0.625730
Si Si7 0.573663 0.404736 0.186326
Si Si8 0.655489 0.911747 0.818868
O O1 0.778800 0.858379 0.284476
O O2 0.500000 0.000000 0.500000
O O3 0.935294 0.939418 0.154013
O O4 0.000000 0.000000 0.500000
O O5 0.782787 0.363644 0.466566
O O6 0.814101 0.394331 0.231154
O O7 0.481071 0.496887 0.655515
O O8 0.000000 0.500000 0.500000
O O9 0.957837 0.684332 0.447195
O O10 0.911754 0.779219 0.824642
O O11 0.681037 0.640265 0.721933
O O12 0.413096 0.764589 0.370942
O O13 0.965769 0.750072 0.284552
O O14 0.337539 0.633407 0.046782
O O15 0.068879 0.102644 0.172759
O O16 0.616739 0.145429 0.159121
O O17 0.286152 0.115677 0.400046
O O18 0.500000 0.000000 0.000000
#
# Coordination Sequence:
#
# PCOD9048808 Si02
#       8
#     2   2   2   2   2   2   2   2
#     4  12  26  45  67  98 134 183 238 292 360 424
#     4   9  22  45  71 105 142 184 239 284 352 426
#     4  11  24  44  71 105 142 187 238 292 350 432
#     4  12  27  44  72 107 146 183 238 292 355 418
#     4  12  25  42  68 101 129 183 234 282 352 417
#     4  12  25  47  63 105 140 176 238 298 345 427
#     4  10  24  45  73 103 143 192 229 294 354 419
#     4  12  24  44  68  93 138 182 226 286 350 410
#
# _framework density 22.940685999999999
#
# number of rings (size 3 to 8) (size 9 to 14) (size 15 to 20)
#    0.000    0.750    2.500    4.125    8.750    0.500 
#    0.000    5.625    0.000    0.000    0.000    0.000 
#    0.000    0.000    0.000    0.000    0.000    0.000 
#
# Total GULP energy -89194.960400 kJ/mol
# GULP energy per Si atom -5574.685025 kJ/mol
# Density = 2.288847 g / cm^3
# Si number density = 22.940686 Si / 1000 Ang^3
#
#
#
# Elastic Constant Matrix: (Units=GPa)
#
#
# Indices 1 2 3 4 5 6 
#
# 1 105.5702 20.1402 22.6291 -3.3210 8.9962 -11.5603
# 2 20.1402 74.9305 24.1091 12.5595 2.8440 -13.5123
# 3 22.6291 24.1091 146.7071 -1.5327 20.8226 -0.8529
# 4 -3.3210 12.5595 -1.5327 32.5002 -1.0973 -5.6817
# 5 8.9962 2.8440 20.8226 -1.0973 33.8865 4.6715
# 6 -11.5603 -13.5123 -0.8529 -5.6817 4.6715 34.8965
#
#
#
# Elastic Compliance Matrix: (Units=1/GPa)
#
#
# Indices 1 2 3 4 5 6 
#
# 1 0.010765 -0.002318 -0.000878 0.002461 -0.002511 0.003384
# 2 -0.002318 0.016574 -0.002381 -0.005947 -0.000145 0.004643
# 3 -0.000878 -0.002381 0.007976 0.001012 -0.004399 -0.000264
# 4 0.002461 -0.005947 0.001012 0.034078 -0.000240 0.004118
# 5 -0.002511 -0.000145 -0.004399 -0.000240 0.033648 -0.005539
# 6 0.003384 0.004643 -0.000264 0.004118 -0.005539 0.032980
#
#
# Mechanical properties :
#
#
# Convention : Reuss Voigt Hill
#
# Bulk Modulus (GPa) = 41.38641 51.21828 46.30235
# Shear Modulus (GPa) = 32.21041 37.61193 34.91117
#
# Velocity S-wave (km/s) = 3.75116 4.05350 3.90526
# Velocity P-wave (km/s) = 6.06971 6.65453 6.36884
#
# Compressibility (1/GPa) = 0.02416252
#
# Stress axis : x y z
#
# Youngs Moduli (GPa) = 92.89668 60.33414 125.37018
#
# Poissons Ratio (x) = 0.13985 0.11004
# Poissons Ratio (y) = 0.21533 0.29847
# Poissons Ratio (z) = 0.08154 0.14364
#
# Static dielectric constant tensor:
#      x y z
#    x 2.026000 0.029640 -0.036270 
#    y 0.029640 1.883670 -0.040100 
#    z -0.036270 -0.040100 1.894410 
# 
# From -- ./inp_files/53058.got.cif
#   From: 2010.05.17/outbox.cif.g08.bks.cpg/sg2_27_cif.got.tgz:53058.got - 2010.06.03 11:33:40.
