data_PCOD9048321
_publ_section_title
;
Structure prediction by ZEFSAII (Michael W. Deem and Ramdas Pophale) SiO2 
 PCOD9048321
Probable space group: P -1
;
_chemical_formula_sum "Si O2"
_cell_formula_units_Z 13
_cell_length_a 14.013765
_cell_length_b 14.019653
_cell_length_c 7.021097
_cell_angle_alpha 85.870108
_cell_angle_beta 87.565161
_cell_angle_gamma 159.140798
_cell_volume 465.906405
_symmetry_space_group_name_H-M "P -1"
_symmetry_group_IT_number 2
_symmetry_cell_setting 'triclinic'
loop_
_space_group_symop_operation_xyz
x,y,z
-x,-y,-z
loop_
_atom_site_type_symbol
_atom_site_label
_atom_site_fract_x
_atom_site_fract_y
_atom_site_fract_z
Si Si1 0.540028 0.318382 0.049367
Si Si2 0.885087 0.238240 0.950382
Si Si3 0.548587 0.970032 0.334257
Si Si4 0.017942 0.348030 0.494054
Si Si5 0.500000 0.500000 0.000000
Si Si6 0.102140 0.090234 0.696403
Si Si7 0.544427 0.390821 0.447329
O O1 0.440365 0.240080 0.288651
O O2 0.593043 0.474626 0.947950
O O3 0.819820 0.518417 0.024070
O O4 0.313658 0.042788 0.998139
O O5 0.723250 0.162626 0.104695
O O6 0.920917 0.296144 0.716562
O O7 0.765148 0.101829 0.403241
O O8 0.500000 0.000000 0.500000
O O9 0.253314 0.643829 0.358528
O O10 0.196049 0.420579 0.510640
O O11 0.825168 0.839938 0.879037
O O12 0.303993 0.189033 0.647033
O O13 0.324716 0.385476 0.680526
O O14 0.000000 0.000000 0.500000
#
# Coordination Sequence:
#
# PCOD9048321 Si02
#       7
#     2   2   2   2   1   2   2
#     4  11  24  44  68 100 149 190 251 295 358 429
#     4  11  26  48  72 107 146 191 242 305 357 452
#     4  12  28  49  77 116 143 182 249 307 376 461
#     4  11  25  46  79 102 148 199 232 301 381 439
#     4  12  24  40  66  98 144 196 242 306 360 404
#     4  11  24  41  64 102 145 196 253 312 351 430
#     4  10  24  45  67 100 149 197 253 299 367 439
#
# _framework density 27.9026
#
# number of rings (size 3 to 8) (size 9 to 14) (size 15 to 20)
#    0.000    0.923    1.538    5.077    4.308    4.923 
#    0.000    0.000    0.000    0.000    0.000    0.000 
#    0.000    0.000    0.000    0.000    0.000    0.000 
#
# Total GULP energy -72738.723628 kJ/mol
# GULP energy per Si atom -5595.286433 kJ/mol
# Density = 2.783909 g / cm^3
# Si number density = 27.902600 Si / 1000 Ang^3
#
#
#
# Elastic Constant Matrix: (Units=GPa)
#
#
# Indices 1 2 3 4 5 6 
#
# 1 73.8586 7.7335 22.2300 -1.3467 -14.7159 16.6347
# 2 7.7335 129.6040 24.8744 3.8167 -5.2769 7.8212
# 3 22.2300 24.8744 144.5583 -11.1417 -40.6451 11.1758
# 4 -1.3467 3.8167 -11.1417 51.6743 -0.1803 3.0622
# 5 -14.7159 -5.2769 -40.6451 -0.1803 44.1747 1.6026
# 6 16.6347 7.8212 11.1758 3.0622 1.6026 33.8596
#
#
#
# Elastic Compliance Matrix: (Units=1/GPa)
#
#
# Indices 1 2 3 4 5 6 
#
# 1 0.016663 -0.000243 -0.000216 0.000924 0.005632 -0.008409
# 2 -0.000243 0.008087 -0.001441 -0.000846 -0.000402 -0.001177
# 3 -0.000216 -0.001441 0.010321 0.002575 0.009395 -0.003645
# 4 0.000924 -0.000846 0.002575 0.020185 0.002769 -0.003065
# 5 0.005632 -0.000402 0.009395 0.002769 0.033397 -0.007606
# 6 -0.008409 -0.001177 -0.003645 -0.003065 -0.007606 0.035777
#
#
# Mechanical properties :
#
#
# Convention : Reuss Voigt Hill
#
# Bulk Modulus (GPa) = 31.98021 50.85517 41.41769
# Shear Modulus (GPa) = 36.06145 45.48724 40.77435
#
# Velocity S-wave (km/s) = 3.59890 4.04197 3.82686
# Velocity P-wave (km/s) = 5.36244 6.32842 5.86535
#
# Compressibility (1/GPa) = 0.03126934
#
# Stress axis : x y z
#
# Youngs Moduli (GPa) = 60.01439 123.66240 96.89449
#
# Poissons Ratio (x) = 0.03009 0.02089
# Poissons Ratio (y) = 0.01460 0.13965
# Poissons Ratio (z) = 0.01294 0.17823
#
# Static dielectric constant tensor:
#      x y z
#    x 2.177540 -0.033290 0.003770 
#    y -0.033290 1.934210 -0.092880 
#    z 0.003770 -0.092880 2.090150 
# 
# From -- ./inp_files/313340.got.cif
#   From: 2010.05.17/outbox.cif.g08.bks.cpg/sg2_157_cif.got.tgz:313340.got - 2010.06.03 11:33:40.
