data_PCOD9048450
_publ_section_title
;
Structure prediction by ZEFSAII (Michael W. Deem and Ramdas Pophale) SiO2 
 PCOD9048450
Probable space group: P -1
;
_chemical_formula_sum "Si O2"
_cell_formula_units_Z 12
_cell_length_a 13.801373
_cell_length_b 18.768187
_cell_length_c 4.971135
_cell_angle_alpha 99.535697
_cell_angle_beta 94.666066
_cell_angle_gamma 155.862565
_cell_volume 424.269927
_symmetry_space_group_name_H-M "P -1"
_symmetry_group_IT_number 2
_symmetry_cell_setting 'triclinic'
loop_
_space_group_symop_operation_xyz
x,y,z
-x,-y,-z
loop_
_atom_site_type_symbol
_atom_site_label
_atom_site_fract_x
_atom_site_fract_y
_atom_site_fract_z
Si Si1 0.233774 0.811478 0.110701
Si Si2 0.151235 0.280489 0.019678
Si Si3 0.255635 0.122439 0.186735
Si Si4 0.392555 0.519219 0.747391
Si Si5 0.520571 0.140401 0.158746
Si Si6 0.637337 0.324667 0.800552
O O1 0.348605 0.724769 0.473563
O O2 0.288366 0.793037 0.870714
O O3 0.238617 0.895334 0.036056
O O4 0.941941 0.579023 0.037612
O O5 0.334570 0.449848 0.391331
O O6 0.331548 0.334576 0.998372
O O7 0.139448 0.320064 0.771274
O O8 0.887868 0.056804 0.974906
O O9 0.516539 0.334839 0.193950
O O10 0.395306 0.212134 0.568740
O O11 0.000000 0.000000 0.000000
O O12 0.500000 0.000000 0.500000
O O13 0.539343 0.207410 0.952273
#
# Coordination Sequence:
#
# PCOD9048450 Si02
#       6
#     2   2   2   2   2   2
#     4  11  25  46  79 109 143 184 227 290 371 441
#     4   9  19  36  61  85 118 163 225 280 335 378
#     4  10  24  45  68  98 140 193 242 287 340 405
#     4   9  19  37  60  87 117 166 222 283 329 386
#     4  11  26  46  73 110 144 181 232 294 364 434
#     4  12  27  43  71 108 147 185 238 293 350 424
#
# _framework density 28.283882999999999
#
# number of rings (size 3 to 8) (size 9 to 14) (size 15 to 20)
#    0.000    1.667    1.667    1.000    4.667    6.667 
#    0.000   10.833    0.000    0.000    0.000    0.000 
#    0.000    0.000    0.000    0.000    0.000    0.000 
#
# Total GULP energy -67174.691734 kJ/mol
# GULP energy per Si atom -5597.890978 kJ/mol
# Density = 2.821951 g / cm^3
# Si number density = 28.283883 Si / 1000 Ang^3
#
#
#
# Elastic Constant Matrix: (Units=GPa)
#
#
# Indices 1 2 3 4 5 6 
#
# 1 109.4401 88.2093 66.9483 -23.3895 -3.5104 -41.0135
# 2 88.2093 290.9887 84.3906 -45.5158 8.2766 -40.8359
# 3 66.9483 84.3906 140.9554 -27.9415 9.4479 -21.2137
# 4 -23.3895 -45.5158 -27.9415 69.5032 2.1455 10.6657
# 5 -3.5104 8.2766 9.4479 2.1455 42.6068 -17.6687
# 6 -41.0135 -40.8359 -21.2137 10.6657 -17.6687 67.1158
#
#
#
# Elastic Compliance Matrix: (Units=1/GPa)
#
#
# Indices 1 2 3 4 5 6 
#
# 1 0.019482 -0.002756 -0.006531 0.000326 0.007786 0.010162
# 2 -0.002756 0.004991 -0.001193 0.001815 -0.000829 0.000469
# 3 -0.006531 -0.001193 0.011196 0.002033 -0.003945 -0.002540
# 4 0.000326 0.001815 0.002033 0.016767 -0.002154 -0.001285
# 5 0.007786 -0.000829 -0.003945 -0.002154 0.029910 0.011223
# 6 0.010162 0.000469 -0.002540 -0.001285 0.011223 0.023751
#
#
# Mechanical properties :
#
#
# Convention : Reuss Voigt Hill
#
# Bulk Modulus (GPa) = 67.98840 113.38674 90.68757
# Shear Modulus (GPa) = 37.89000 55.96755 46.92878
#
# Velocity S-wave (km/s) = 3.66407 4.45317 4.07775
# Velocity P-wave (km/s) = 6.48001 8.16191 7.36911
#
# Compressibility (1/GPa) = 0.01470839
#
# Stress axis : x y z
#
# Youngs Moduli (GPa) = 51.33069 200.34404 89.31688
#
# Poissons Ratio (x) = 0.55214 0.58332
# Poissons Ratio (y) = 0.14146 0.10660
# Poissons Ratio (z) = 0.33524 0.23910
#
# Static dielectric constant tensor:
#      x y z
#    x 2.390940 0.139080 0.082790 
#    y 0.139080 2.285680 0.081720 
#    z 0.082790 0.081720 2.148300 
# 
# From -- ./inp_files/120575.got.cif
#   From: 2010.05.17/outbox.cif.g08.bks.cpg/sg2_61_cif.got.tgz:120575.got - 2010.06.03 11:33:40.
