data_PCOD9048888
_publ_section_title
;
Structure prediction by ZEFSAII (Michael W. Deem and Ramdas Pophale) SiO2 
 PCOD9048888
Probable space group: P -1
;
_chemical_formula_sum "Si O2"
_cell_formula_units_Z 16
_cell_length_a 7.206517
_cell_length_b 7.029394
_cell_length_c 20.074596
_cell_angle_alpha 101.470292
_cell_angle_beta 41.985234
_cell_angle_gamma 83.046336
_cell_volume 608.022454
_symmetry_space_group_name_H-M "P -1"
_symmetry_group_IT_number 2
_symmetry_cell_setting 'triclinic'
loop_
_space_group_symop_operation_xyz
x,y,z
-x,-y,-z
loop_
_atom_site_type_symbol
_atom_site_label
_atom_site_fract_x
_atom_site_fract_y
_atom_site_fract_z
Si Si1 0.867892 0.084474 0.732131
Si Si2 0.847605 0.831720 0.522997
Si Si3 0.654027 0.111414 0.230560
Si Si4 0.400980 0.560160 0.285747
Si Si5 0.478528 0.728994 0.500092
Si Si6 0.201463 0.217891 0.091546
Si Si7 0.875696 0.642360 0.254520
Si Si8 0.231032 0.112178 0.933124
O O1 0.730078 0.286570 0.731946
O O2 0.126120 0.891137 0.610680
O O3 0.599233 0.027564 0.827243
O O4 0.017816 0.167394 0.756942
O O5 0.615739 0.868115 0.647412
O O6 0.647082 0.829609 0.512093
O O7 0.143618 0.616008 0.416078
O O8 0.000000 0.000000 0.500000
O O9 0.509446 0.308652 0.229351
O O10 0.920264 0.171470 0.191155
O O11 0.802807 0.884581 0.137923
O O12 0.662220 0.617355 0.252409
O O13 0.500000 0.500000 0.500000
O O14 0.663052 0.683212 0.379099
O O15 0.177353 0.422340 0.153318
O O16 0.156489 0.269050 0.027214
O O17 0.500000 0.000000 0.000000
O O18 0.000000 0.000000 0.000000
#
# Coordination Sequence:
#
# PCOD9048888 Si02
#       8
#     2   2   2   2   2   2   2   2
#     4  12  27  46  81 111 160 208 249 332 402 465
#     4  12  25  44  76 114 161 207 250 324 404 482
#     4  10  24  45  74 112 151 203 261 320 391 470
#     4  11  25  45  73 115 163 199 252 317 404 485
#     4  12  28  47  78 122 160 205 261 321 407 495
#     4  10  24  47  76 105 147 204 263 325 387 459
#     4  11  26  49  73 118 157 195 265 322 395 474
#     4  10  25  48  74 105 144 202 268 315 382 462
#
# _framework density 26.314816
#
# number of rings (size 3 to 8) (size 9 to 14) (size 15 to 20)
#    0.000    1.000    1.250    3.750   10.500    0.500 
#    2.250    5.625    0.000    0.000    0.000    0.000 
#    0.000    0.000    0.000    0.000    0.000    0.000 
#
# Total GULP energy -89337.247656 kJ/mol
# GULP energy per Si atom -5583.577978 kJ/mol
# Density = 2.625492 g / cm^3
# Si number density = 26.314816 Si / 1000 Ang^3
#
#
#
# Elastic Constant Matrix: (Units=GPa)
#
#
# Indices 1 2 3 4 5 6 
#
# 1 82.5479 48.2500 32.4039 -1.0283 5.3538 14.5089
# 2 48.2500 146.5261 90.7701 -3.1854 -1.1130 4.7256
# 3 32.4039 90.7701 219.8815 -1.9753 -0.9661 2.5397
# 4 -1.0283 -3.1854 -1.9753 55.9581 9.1954 -5.5371
# 5 5.3538 -1.1130 -0.9661 9.1954 53.6889 0.1265
# 6 14.5089 4.7256 2.5397 -5.5371 0.1265 45.4923
#
#
#
# Elastic Compliance Matrix: (Units=1/GPa)
#
#
# Indices 1 2 3 4 5 6 
#
# 1 0.016049 -0.004992 -0.000260 -0.000180 -0.001667 -0.004603
# 2 -0.004992 0.010753 -0.003706 0.000364 0.000590 0.000725
# 3 -0.000260 -0.003706 0.006115 0.000003 0.000058 0.000127
# 4 -0.000180 0.000364 0.000003 0.018637 -0.003172 0.002297
# 5 -0.001667 0.000590 0.000058 -0.003172 0.019348 0.000027
# 6 -0.004603 0.000725 0.000127 0.002297 0.000027 0.023647
#
#
# Mechanical properties :
#
#
# Convention : Reuss Voigt Hill
#
# Bulk Modulus (GPa) = 66.66111 87.97817 77.31964
# Shear Modulus (GPa) = 42.56582 49.52997 46.04789
#
# Velocity S-wave (km/s) = 4.02625 4.34315 4.18770
# Velocity P-wave (km/s) = 6.85576 7.65873 7.26834
#
# Compressibility (1/GPa) = 0.01500125
#
# Stress axis : x y z
#
# Youngs Moduli (GPa) = 62.30963 92.99501 163.53349
#
# Poissons Ratio (x) = 0.46420 0.04256
# Poissons Ratio (y) = 0.31103 0.60605
# Poissons Ratio (z) = 0.01622 0.34464
#
# Static dielectric constant tensor:
#      x y z
#    x 2.252210 -0.094130 -0.017260 
#    y -0.094130 2.082500 0.021880 
#    z -0.017260 0.021880 2.023200 
# 
# From -- ./inp_files/616676.got.cif
#   From: 2010.05.17/outbox.cif.g08.bks.cpg/sg2_309_cif.got.tgz:616676.got - 2010.06.03 11:33:40.
