data_PCOD9048573
_publ_section_title
;
Structure prediction by ZEFSAII (Michael W. Deem and Ramdas Pophale) SiO2 
 PCOD9048573
Probable space group: P -1
;
_chemical_formula_sum "Si O2"
_cell_formula_units_Z 16
_cell_length_a 5.063337
_cell_length_b 15.515012
_cell_length_c 9.016993
_cell_angle_alpha 84.813676
_cell_angle_beta 80.918129
_cell_angle_gamma 66.428994
_cell_volume 640.822782
_symmetry_space_group_name_H-M "P -1"
_symmetry_group_IT_number 2
_symmetry_cell_setting 'triclinic'
loop_
_space_group_symop_operation_xyz
x,y,z
-x,-y,-z
loop_
_atom_site_type_symbol
_atom_site_label
_atom_site_fract_x
_atom_site_fract_y
_atom_site_fract_z
Si Si1 0.539982 0.415231 0.718495
Si Si2 0.875220 0.610917 0.462194
Si Si3 0.130138 0.631086 0.732004
Si Si4 0.710005 0.681072 0.017661
Si Si5 0.266551 0.799568 0.790620
Si Si6 0.080162 0.088079 0.943060
Si Si7 0.328812 0.932068 0.520467
Si Si8 0.475265 0.847890 0.213785
O O1 0.881139 0.379575 0.669030
O O2 0.386968 0.528817 0.699979
O O3 0.417499 0.369828 0.604214
O O4 0.433677 0.384826 0.884622
O O5 0.898602 0.651106 0.615147
O O6 0.000000 0.500000 0.500000
O O7 0.223494 0.718574 0.713198
O O8 0.999542 0.626645 0.907346
O O9 0.506932 0.748043 0.899385
O O10 0.705730 0.752762 0.136775
O O11 0.983252 0.853711 0.907650
O O12 0.334151 0.875303 0.677418
O O13 0.836893 0.138599 0.829710
O O14 0.397237 0.074787 0.860275
O O15 0.000000 0.000000 0.000000
O O16 0.453236 0.856410 0.389749
O O17 0.500000 0.000000 0.500000
O O18 0.000000 0.000000 0.500000
#
# Coordination Sequence:
#
# PCOD9048573 Si02
#       8
#     2   2   2   2   2   2   2   2
#     4  11  26  46  74 101 147 199 240 287 355 424
#     4  10  24  45  70 101 138 193 244 290 351 413
#     4  11  24  45  71 105 149 186 244 297 352 418
#     4  11  27  44  69 108 147 189 239 291 357 419
#     4  11  27  44  72 109 142 184 239 300 361 419
#     4  11  22  44  71  96 136 178 222 284 359 429
#     4  12  28  50  75 105 140 186 238 294 368 434
#     4  11  24  44  66 101 137 176 230 286 344 422
#
# _framework density 24.967898999999999
#
# number of rings (size 3 to 8) (size 9 to 14) (size 15 to 20)
#    0.000    1.000    1.250    4.500   10.500    1.500 
#    0.000    0.000    0.000    0.000    0.000    0.000 
#    0.000    0.000    0.000    0.000    0.000    0.000 
#
# Total GULP energy -89603.854123 kJ/mol
# GULP energy per Si atom -5600.240883 kJ/mol
# Density = 2.491107 g / cm^3
# Si number density = 24.967899 Si / 1000 Ang^3
#
#
#
# Elastic Constant Matrix: (Units=GPa)
#
#
# Indices 1 2 3 4 5 6 
#
# 1 117.9799 31.6205 26.7691 -5.9122 0.8607 17.6291
# 2 31.6205 94.4015 42.6111 0.2932 10.6946 21.8154
# 3 26.7691 42.6111 123.2746 -2.9451 -3.4932 2.9366
# 4 -5.9122 0.2932 -2.9451 61.1358 4.0438 -5.9306
# 5 0.8607 10.6946 -3.4932 4.0438 44.5838 -0.0330
# 6 17.6291 21.8154 2.9366 -5.9306 -0.0330 33.4965
#
#
#
# Elastic Compliance Matrix: (Units=1/GPa)
#
#
# Indices 1 2 3 4 5 6 
#
# 1 0.009874 -0.001798 -0.001417 0.000520 0.000080 -0.003809
# 2 -0.001798 0.016124 -0.005105 -0.001127 -0.004138 -0.009311
# 3 -0.001417 -0.005105 0.010176 0.000564 0.002001 0.003280
# 4 0.000520 -0.001127 0.000564 0.016850 -0.001221 0.003393
# 5 0.000080 -0.004138 0.002001 -0.001221 0.023690 0.002285
# 6 -0.003809 -0.009311 0.003280 0.003393 0.002285 0.038238
#
#
# Mechanical properties :
#
#
# Convention : Reuss Voigt Hill
#
# Bulk Modulus (GPa) = 51.19500 59.73971 55.46735
# Shear Modulus (GPa) = 36.20471 43.48689 39.84580
#
# Velocity S-wave (km/s) = 3.81208 4.17791 3.99918
# Velocity P-wave (km/s) = 6.31861 6.87399 6.60214
#
# Compressibility (1/GPa) = 0.01953316
#
# Stress axis : x y z
#
# Youngs Moduli (GPa) = 101.27415 62.02108 98.26667
#
# Poissons Ratio (x) = 0.11152 0.13927
# Poissons Ratio (y) = 0.18210 0.50167
# Poissons Ratio (z) = 0.14353 0.31663
#
# Static dielectric constant tensor:
#      x y z
#    x 1.993330 -0.018410 0.015360 
#    y -0.018410 2.011580 -0.000400 
#    z 0.015360 -0.000400 2.024540 
# 
# From -- ./inp_files/135121.got.cif
#   From: 2010.05.17/outbox.cif.g08.bks.cpg/sg2_68_cif.got.tgz:135121.got - 2010.06.03 11:33:40.
