data_PCOD9048623
_publ_section_title
;
Structure prediction by ZEFSAII (Michael W. Deem and Ramdas Pophale) SiO2 
 PCOD9048623
Probable space group: P -1
;
_chemical_formula_sum "Si O2"
_cell_formula_units_Z 14
_cell_length_a 7.982659
_cell_length_b 14.759438
_cell_length_c 11.277178
_cell_angle_alpha 147.727158
_cell_angle_beta 120.632183
_cell_angle_gamma 66.830228
_cell_volume 608.426699
_symmetry_space_group_name_H-M "P -1"
_symmetry_group_IT_number 2
_symmetry_cell_setting 'triclinic'
loop_
_space_group_symop_operation_xyz
x,y,z
-x,-y,-z
loop_
_atom_site_type_symbol
_atom_site_label
_atom_site_fract_x
_atom_site_fract_y
_atom_site_fract_z
Si Si1 0.082563 0.516901 0.181083
Si Si2 0.179206 0.906828 0.127642
Si Si3 0.421077 0.605082 0.926192
Si Si4 0.544495 0.002464 0.875987
Si Si5 0.528775 0.630016 0.507806
Si Si6 0.789136 0.792549 0.981809
Si Si7 0.732524 0.714304 0.331018
O O1 0.298170 0.600871 0.375429
O O2 0.091449 0.328159 0.027493
O O3 0.943106 0.642707 0.332330
O O4 0.000000 0.500000 0.000000
O O5 0.269422 0.905340 0.024180
O O6 0.256221 0.089484 0.411470
O O7 0.275531 0.750398 0.053078
O O8 0.947131 0.881142 0.043504
O O9 0.396232 0.537040 0.708735
O O10 0.386663 0.427730 0.788514
O O11 0.630874 0.686887 0.135228
O O12 0.573134 0.805899 0.647032
O O13 0.342967 0.082328 0.854038
O O14 0.500000 0.000000 0.000000
O O15 0.632204 0.669948 0.714520
#
# Coordination Sequence:
#
# PCOD9048623 Si02
#       7
#     2   2   2   2   2   2   2
#     4  12  24  46  72 106 150 194 245 309 365 442
#     4  12  24  46  75 109 147 195 248 306 372 444
#     4  11  23  45  71 105 146 191 247 305 362 440
#     4  10  24  45  70 108 151 190 241 306 371 436
#     4  11  23  46  73 103 149 191 242 312 367 437
#     4  11  26  47  73 113 146 195 251 303 377 446
#     4  11  24  45  72 105 150 192 246 304 373 436
#
# _framework density 23.010168
#
# number of rings (size 3 to 8) (size 9 to 14) (size 15 to 20)
#    0.000    0.857    4.286    2.571    0.000    4.000 
#    7.714    1.429    0.000    0.000    0.000    0.000 
#    0.000    0.000    0.000    0.000    0.000    0.000 
#
# Total GULP energy -78002.953460 kJ/mol
# GULP energy per Si atom -5571.639533 kJ/mol
# Density = 2.295780 g / cm^3
# Si number density = 23.010168 Si / 1000 Ang^3
#
#
#
# Elastic Constant Matrix: (Units=GPa)
#
#
# Indices 1 2 3 4 5 6 
#
# 1 86.0476 18.5537 29.3929 -9.3746 9.4236 6.9930
# 2 18.5537 114.3307 45.9129 5.3006 -11.0255 -4.1422
# 3 29.3929 45.9129 122.6044 7.8379 -8.2503 -2.2089
# 4 -9.3746 5.3006 7.8379 26.6172 -14.3956 -5.4871
# 5 9.4236 -11.0255 -8.2503 -14.3956 38.6280 11.2921
# 6 6.9930 -4.1422 -2.2089 -5.4871 11.2921 38.6923
#
#
#
# Elastic Compliance Matrix: (Units=1/GPa)
#
#
# Indices 1 2 3 4 5 6 
#
# 1 0.013932 -0.001439 -0.003280 0.004567 -0.002363 -0.001522
# 2 -0.001439 0.010626 -0.003450 -0.000192 0.002441 0.000461
# 3 -0.003280 -0.003450 0.010491 -0.003055 0.000879 0.000133
# 4 0.004567 -0.000192 -0.003055 0.049084 0.016108 0.001239
# 5 -0.002363 0.002441 0.000879 0.016108 0.035497 -0.007337
# 6 -0.001522 0.000461 0.000133 0.001239 -0.007337 0.028494
#
#
# Mechanical properties :
#
#
# Convention : Reuss Voigt Hill
#
# Bulk Modulus (GPa) = 53.43679 56.74461 55.09070
# Shear Modulus (GPa) = 29.29161 36.06240 32.67700
#
# Velocity S-wave (km/s) = 3.57176 3.96313 3.77252
# Velocity P-wave (km/s) = 6.34693 6.75693 6.55513
#
# Compressibility (1/GPa) = 0.01871370
#
# Stress axis : x y z
#
# Youngs Moduli (GPa) = 71.77693 94.10604 95.31775
#
# Poissons Ratio (x) = 0.13538 0.31262
# Poissons Ratio (y) = 0.10326 0.32881
# Poissons Ratio (z) = 0.23541 0.32463
#
# Static dielectric constant tensor:
#      x y z
#    x 2.011500 0.063900 -0.009510 
#    y 0.063900 1.928120 0.010970 
#    z -0.009510 0.010970 1.851160 
# 
# From -- ./inp_files/400189.got.cif
#   From: 2010.05.17/outbox.cif.g08.bks.cpg/sg2_201_cif.got.tgz:400189.got - 2010.06.03 11:33:40.
