data_PCOD9048754
_publ_section_title
;
Structure prediction by ZEFSAII (Michael W. Deem and Ramdas Pophale) SiO2 
 PCOD9048754
Probable space group: P -1
;
_chemical_formula_sum "Si O2"
_cell_formula_units_Z 14
_cell_length_a 7.830944
_cell_length_b 9.255693
_cell_length_c 8.802977
_cell_angle_alpha 72.268837
_cell_angle_beta 76.237829
_cell_angle_gamma 73.637658
_cell_volume 574.991445
_symmetry_space_group_name_H-M "P -1"
_symmetry_group_IT_number 2
_symmetry_cell_setting 'triclinic'
loop_
_space_group_symop_operation_xyz
x,y,z
-x,-y,-z
loop_
_atom_site_type_symbol
_atom_site_label
_atom_site_fract_x
_atom_site_fract_y
_atom_site_fract_z
Si Si1 0.330194 0.666472 0.142342
Si Si2 0.525697 0.166529 0.219422
Si Si3 0.027338 0.336742 0.961730
Si Si4 0.902010 0.163129 0.608601
Si Si5 0.526250 0.615015 0.595401
Si Si6 0.110585 0.179987 0.296346
Si Si7 0.258801 0.183576 0.700680
O O1 0.269356 0.757514 0.282095
O O2 0.438495 0.500428 0.229820
O O3 0.417018 0.759975 0.970725
O O4 0.145295 0.647239 0.111988
O O5 0.597127 0.235502 0.336782
O O6 0.307445 0.214348 0.254834
O O7 0.597839 0.979970 0.259741
O O8 0.037766 0.211833 0.132547
O O9 0.202426 0.276186 0.839802
O O10 0.000000 0.500000 0.000000
O O11 0.960649 0.259690 0.425380
O O12 0.078511 0.139663 0.686098
O O13 0.861479 0.001754 0.617157
O O14 0.500000 0.500000 0.500000
O O15 0.675239 0.698142 0.464105
#
# Coordination Sequence:
#
# PCOD9048754 Si02
#       7
#     2   2   2   2   2   2   2
#     4  11  27  47  73 103 151 188 244 301 362 430
#     4  12  26  49  76 108 148 192 245 298 358 442
#     4  11  26  44  73 105 147 192 240 298 363 429
#     4  10  24  45  72 105 143 189 244 301 359 424
#     4  12  29  45  74 110 149 190 240 304 368 424
#     4  11  24  43  76 107 144 187 245 298 364 425
#     4  11  26  48  74 106 147 194 248 295 358 436
#
# _framework density 24.348189000000001
#
# number of rings (size 3 to 8) (size 9 to 14) (size 15 to 20)
#    0.000    0.857    1.429    3.429    8.000    5.714 
#    0.000    0.000    0.000    0.000    0.000    0.000 
#    0.000    0.000    0.000    0.000    0.000    0.000 
#
# Total GULP energy -78236.133268 kJ/mol
# GULP energy per Si atom -5588.295233 kJ/mol
# Density = 2.429277 g / cm^3
# Si number density = 24.348189 Si / 1000 Ang^3
#
#
#
# Elastic Constant Matrix: (Units=GPa)
#
#
# Indices 1 2 3 4 5 6 
#
# 1 42.6676 26.2808 13.4864 -2.1807 -5.7957 9.2986
# 2 26.2808 96.6846 17.5412 17.8503 -11.9702 10.2114
# 3 13.4864 17.5412 107.1634 18.7459 -19.6354 -3.6990
# 4 -2.1807 17.8503 18.7459 48.2944 -3.9227 -2.6461
# 5 -5.7957 -11.9702 -19.6354 -3.9227 44.8829 -6.2438
# 6 9.2986 10.2114 -3.6990 -2.6461 -6.2438 19.9557
#
#
#
# Elastic Compliance Matrix: (Units=1/GPa)
#
#
# Indices 1 2 3 4 5 6 
#
# 1 0.032274 -0.007897 -0.004263 0.005333 -0.000919 -0.011368
# 2 -0.007897 0.014164 -0.000173 -0.005599 0.001661 -0.003823
# 3 -0.004263 -0.000173 0.011668 -0.003973 0.004890 0.005241
# 4 0.005333 -0.005599 -0.003973 0.024722 0.000025 0.002929
# 5 -0.000919 0.001661 0.004890 0.000025 0.025943 0.008605
# 6 -0.011368 -0.003823 0.005241 0.002929 0.008605 0.061416
#
#
# Mechanical properties :
#
#
# Convention : Reuss Voigt Hill
#
# Bulk Modulus (GPa) = 29.90346 40.12582 35.01464
# Shear Modulus (GPa) = 24.27204 35.24043 29.75624
#
# Velocity S-wave (km/s) = 3.16075 3.80854 3.49967
# Velocity P-wave (km/s) = 5.06248 5.98796 5.54457
#
# Compressibility (1/GPa) = 0.03344094
#
# Stress axis : x y z
#
# Youngs Moduli (GPa) = 30.98510 70.60167 85.70316
#
# Poissons Ratio (x) = 0.55754 0.36532
# Poissons Ratio (y) = 0.24469 0.01481
# Poissons Ratio (z) = 0.13208 0.01220
#
# Static dielectric constant tensor:
#      x y z
#    x 1.978320 -0.034250 0.002220 
#    y -0.034250 1.976820 0.045840 
#    z 0.002220 0.045840 2.022460 
# 
# From -- ./inp_files/154514.got.cif
#   From: 2010.05.17/outbox.cif.g08.bks.cpg/sg2_78_cif.got.tgz:154514.got - 2010.06.03 11:33:40.
