data_PCOD9048860
_publ_section_title
;
Structure prediction by ZEFSAII (Michael W. Deem and Ramdas Pophale) SiO2 
 PCOD9048860
Probable space group: P -1
;
_chemical_formula_sum "Si O2"
_cell_formula_units_Z 16
_cell_length_a 8.612953
_cell_length_b 11.984906
_cell_length_c 13.675095
_cell_angle_alpha 44.012230
_cell_angle_beta 135.146067
_cell_angle_gamma 106.433644
_cell_volume 613.122314
_symmetry_space_group_name_H-M "P -1"
_symmetry_group_IT_number 2
_symmetry_cell_setting 'triclinic'
loop_
_space_group_symop_operation_xyz
x,y,z
-x,-y,-z
loop_
_atom_site_type_symbol
_atom_site_label
_atom_site_fract_x
_atom_site_fract_y
_atom_site_fract_z
Si Si1 0.770848 0.357240 0.035032
Si Si2 0.694355 0.068649 0.083341
Si Si3 0.641490 0.874086 0.358022
Si Si4 0.271535 0.255160 0.256675
Si Si5 0.687303 0.300594 0.672622
Si Si6 0.780504 0.785677 0.961179
Si Si7 0.234083 0.793560 0.458531
Si Si8 0.186187 0.583825 0.762116
O O1 0.644040 0.271716 0.959025
O O2 0.702718 0.390466 0.099791
O O3 0.071113 0.228913 0.248120
O O4 0.741467 0.545804 0.858766
O O5 0.733298 0.988044 0.260836
O O6 0.958095 0.956096 0.221079
O O7 0.500000 0.000000 0.000000
O O8 0.434675 0.819040 0.261555
O O9 0.890375 0.684853 0.592850
O O10 0.468159 0.025644 0.261668
O O11 0.566555 0.136966 0.470106
O O12 0.175523 0.266702 0.098059
O O13 0.500000 0.500000 0.500000
O O14 0.691507 0.294570 0.560103
O O15 0.971351 0.221088 0.881260
O O16 0.750413 0.622494 0.100896
O O17 0.230212 0.673253 0.626506
#
# Coordination Sequence:
#
# PCOD9048860 Si02
#       8
#     2   2   2   2   2   2   2   2
#     4  10  24  45  74 103 158 191 247 309 374 438
#     4  11  27  46  70 112 152 194 245 310 375 451
#     4  11  25  44  74 103 150 192 249 303 382 437
#     4  10  25  44  75 112 140 201 251 304 373 442
#     4  12  26  48  73 104 151 201 249 313 371 452
#     4  11  25  44  76 108 148 196 249 312 373 445
#     4  11  27  46  74 108 144 196 254 303 380 445
#     4  10  24  48  70 113 145 193 248 310 376 440
#
# _framework density 26.095935000000001
#
# number of rings (size 3 to 8) (size 9 to 14) (size 15 to 20)
#    0.000    1.250    1.250    1.875   12.250    3.000 
#    0.000    0.000    0.000    0.000    0.000    0.000 
#    0.000    0.000    0.000    0.000    0.000    0.000 
#
# Total GULP energy -89406.087515 kJ/mol
# GULP energy per Si atom -5587.880470 kJ/mol
# Density = 2.603654 g / cm^3
# Si number density = 26.095935 Si / 1000 Ang^3
#
#
#
# Elastic Constant Matrix: (Units=GPa)
#
#
# Indices 1 2 3 4 5 6 
#
# 1 139.7333 45.3517 32.2018 10.0447 15.7731 -4.6466
# 2 45.3517 140.7754 21.0143 10.9391 7.6300 8.3301
# 3 32.2018 21.0143 87.7057 18.2273 15.6433 9.8362
# 4 10.0447 10.9391 18.2273 53.0429 5.1236 1.4610
# 5 15.7731 7.6300 15.6433 5.1236 46.3279 -1.8226
# 6 -4.6466 8.3301 9.8362 1.4610 -1.8226 47.9413
#
#
#
# Elastic Compliance Matrix: (Units=1/GPa)
#
#
# Indices 1 2 3 4 5 6 
#
# 1 0.008787 -0.002456 -0.002498 -0.000187 -0.001655 0.001734
# 2 -0.002456 0.008166 -0.000649 -0.000931 -0.000246 -0.001505
# 3 -0.002498 -0.000649 0.014255 -0.003864 -0.003550 -0.003071
# 4 -0.000187 -0.000931 -0.003864 0.020471 -0.000731 0.000285
# 5 -0.001655 -0.000246 -0.003550 -0.000731 0.023529 0.001527
# 6 0.001734 -0.001505 -0.003071 0.000285 0.001527 0.021968
#
#
# Mechanical properties :
#
#
# Convention : Reuss Voigt Hill
#
# Bulk Modulus (GPa) = 49.99460 62.81666 56.40563
# Shear Modulus (GPa) = 43.45936 47.43886 45.44911
#
# Velocity S-wave (km/s) = 4.08532 4.26827 4.17780
# Velocity P-wave (km/s) = 6.43838 6.95805 6.70325
#
# Compressibility (1/GPa) = 0.02000216
#
# Stress axis : x y z
#
# Youngs Moduli (GPa) = 113.80014 122.45311 70.15055
#
# Poissons Ratio (x) = 0.30079 0.17525
# Poissons Ratio (y) = 0.27953 0.04551
# Poissons Ratio (z) = 0.28430 0.07944
#
# Static dielectric constant tensor:
#      x y z
#    x 2.069220 -0.014450 0.000830 
#    y -0.014450 2.101720 -0.037550 
#    z 0.000830 -0.037550 2.209820 
# 
# From -- ./inp_files/500110.got.cif
#   From: 2010.05.17/outbox.cif.g08.bks.cpg/sg2_251_cif.got.tgz:500110.got - 2010.06.03 11:33:40.
