data_PCOD9048207
_publ_section_title
;
Structure prediction by ZEFSAII (Michael W. Deem and Ramdas Pophale) SiO2 
 PCOD9048207
Probable space group: P -1
;
_chemical_formula_sum "Si O2"
_cell_formula_units_Z 12
_cell_length_a 5.021951
_cell_length_b 8.130347
_cell_length_c 14.176551
_cell_angle_alpha 52.794384
_cell_angle_beta 74.802649
_cell_angle_gamma 76.088453
_cell_volume 442.366122
_symmetry_space_group_name_H-M "P -1"
_symmetry_group_IT_number 2
_symmetry_cell_setting 'triclinic'
loop_
_space_group_symop_operation_xyz
x,y,z
-x,-y,-z
loop_
_atom_site_type_symbol
_atom_site_label
_atom_site_fract_x
_atom_site_fract_y
_atom_site_fract_z
Si Si1 0.363528 0.108910 0.252844
Si Si2 0.773463 0.998258 0.911204
Si Si3 0.223204 0.655563 0.947255
Si Si4 0.092746 0.621993 0.343078
Si Si5 0.584449 0.719505 0.482507
Si Si6 0.902978 0.226083 0.388700
O O1 0.647707 0.214989 0.192892
O O2 0.100916 0.243396 0.275591
O O3 0.315075 0.073644 0.159573
O O4 0.406074 0.889770 0.377158
O O5 0.848905 0.228749 0.799544
O O6 0.045973 0.835485 0.965847
O O7 0.500000 0.000000 0.000000
O O8 0.500000 0.500000 0.000000
O O9 0.000000 0.500000 0.000000
O O10 0.355657 0.527943 0.414272
O O11 0.877311 0.739033 0.395767
O O12 0.967039 0.418571 0.382929
O O13 0.431205 0.771103 0.581031
O O14 0.000000 0.000000 0.500000
#
# Coordination Sequence:
#
# PCOD9048207 Si02
#       6
#     2   2   2   2   2   2
#     4  11  26  49  78 115 162 209 277 340 414 500
#     4  12  30  52  81 117 165 223 289 344 412 494
#     4  12  27  53  82 113 164 220 280 345 409 485
#     4  11  25  44  76 114 162 211 262 339 414 497
#     4  10  24  44  76 114 160 199 263 330 421 491
#     4  10  25  42  72 112 158 208 259 327 414 499
#
# _framework density 27.126854000000002
#
# number of rings (size 3 to 8) (size 9 to 14) (size 15 to 20)
#    0.000    1.000    3.333    0.500   14.000    6.000 
#    0.000    0.000    0.000    0.000    0.000    0.000 
#    0.000    0.000    0.000    0.000    0.000    0.000 
#
# Total GULP energy -66892.518395 kJ/mol
# GULP energy per Si atom -5574.376533 kJ/mol
# Density = 2.706511 g / cm^3
# Si number density = 27.126854 Si / 1000 Ang^3
#
#
#
# Elastic Constant Matrix: (Units=GPa)
#
#
# Indices 1 2 3 4 5 6 
#
# 1 147.7883 89.3601 60.5534 3.3081 -27.6870 -31.4671
# 2 89.3601 163.1604 87.9707 4.1463 -21.9049 -51.0675
# 3 60.5534 87.9707 170.4565 13.5077 -28.0636 -19.9635
# 4 3.3081 4.1463 13.5077 83.5668 -13.6800 -22.3739
# 5 -27.6870 -21.9049 -28.0636 -13.6800 54.1435 -2.6397
# 6 -31.4671 -51.0675 -19.9635 -22.3739 -2.6397 76.9770
#
#
#
# Elastic Compliance Matrix: (Units=1/GPa)
#
#
# Indices 1 2 3 4 5 6 
#
# 1 0.010836 -0.004540 -0.000799 0.000947 0.003608 0.001610
# 2 -0.004540 0.013110 -0.004310 0.002211 0.001620 0.006422
# 3 -0.000799 -0.004310 0.008651 -0.001152 0.001982 -0.001209
# 4 0.000947 0.002211 -0.001152 0.014350 0.004694 0.005887
# 5 0.003608 0.001620 0.001982 0.004694 0.023438 0.005232
# 6 0.001610 0.006422 -0.001209 0.005887 0.005232 0.019486
#
#
# Mechanical properties :
#
#
# Convention : Reuss Voigt Hill
#
# Bulk Modulus (GPa) = 75.18665 106.35262 90.76963
# Shear Modulus (GPa) = 44.01307 59.17219 51.59263
#
# Velocity S-wave (km/s) = 4.03239 4.67552 4.36581
# Velocity P-wave (km/s) = 7.03257 8.27273 7.67773
#
# Compressibility (1/GPa) = 0.01330023
#
# Stress axis : x y z
#
# Youngs Moduli (GPa) = 92.28152 76.27525 115.60016
#
# Poissons Ratio (x) = 0.34628 0.09237
# Poissons Ratio (y) = 0.41895 0.49819
# Poissons Ratio (z) = 0.07374 0.32872
#
# Static dielectric constant tensor:
#      x y z
#    x 2.536630 0.195930 0.072630 
#    y 0.195930 2.209080 0.035580 
#    z 0.072630 0.035580 2.106640 
# 
# From -- ./inp_files/480172.got.cif
#   From: 2010.05.17/outbox.cif.g08.bks.cpg/sg2_241_cif.got.tgz:480172.got - 2010.06.03 11:33:40.
