data_PCOD9048234
_publ_section_title
;
Structure prediction by ZEFSAII (Michael W. Deem and Ramdas Pophale) SiO2 
 PCOD9048234
Probable space group: P -1
;
_chemical_formula_sum "Si O2"
_cell_formula_units_Z 11
_cell_length_a 8.841023
_cell_length_b 11.886036
_cell_length_c 5.545836
_cell_angle_alpha 100.125653
_cell_angle_beta 71.967179
_cell_angle_gamma 131.203793
_cell_volume 416.608998
_symmetry_space_group_name_H-M "P -1"
_symmetry_group_IT_number 2
_symmetry_cell_setting 'triclinic'
loop_
_space_group_symop_operation_xyz
x,y,z
-x,-y,-z
loop_
_atom_site_type_symbol
_atom_site_label
_atom_site_fract_x
_atom_site_fract_y
_atom_site_fract_z
Si Si1 0.441973 0.036207 0.295863
Si Si2 0.000000 0.000000 0.000000
Si Si3 0.017974 0.188187 0.671948
Si Si4 0.456815 0.307747 0.378932
Si Si5 0.064454 0.590430 0.252711
Si Si6 0.499771 0.297538 0.861083
O O1 0.520821 0.203633 0.315467
O O2 0.500000 0.000000 0.500000
O O3 0.194437 0.939745 0.403474
O O4 0.500000 0.000000 0.000000
O O5 0.992772 0.122435 0.923352
O O6 0.267716 0.135134 0.920927
O O7 0.208507 0.211676 0.463633
O O8 0.032780 0.329689 0.696744
O O9 0.525384 0.380279 0.633900
O O10 0.533005 0.388229 0.117927
O O11 0.314030 0.707316 0.208803
O O12 0.000000 0.500000 0.500000
O O13 0.000000 0.500000 0.000000
#
# Coordination Sequence:
#
# PCOD9048234 Si02
#       6
#     2   1   2   2   2   2
#     4  12  25  39  67 107 154 192 237 308 403 472
#     4  10  24  44  78 124 152 182 250 326 438 430
#     4  11  26  45  78 113 159 198 257 332 390 472
#     4  11  23  44  67 115 150 188 242 315 413 461
#     4  12  29  55  75 108 154 221 276 306 370 463
#     4  11  24  46  78 108 158 191 253 327 383 473
#
# _framework density 26.403652999999998
#
# number of rings (size 3 to 8) (size 9 to 14) (size 15 to 20)
#    0.000    0.727    1.818    4.909    5.091    5.818 
#    0.000   12.727    0.000    0.000    0.000    0.000 
#    0.000    0.000    0.000    0.000    0.000    0.000 
#
# Total GULP energy -61289.684270 kJ/mol
# GULP energy per Si atom -5571.789479 kJ/mol
# Density = 2.634356 g / cm^3
# Si number density = 26.403653 Si / 1000 Ang^3
#
#
#
# Elastic Constant Matrix: (Units=GPa)
#
#
# Indices 1 2 3 4 5 6 
#
# 1 216.0509 55.4825 83.6593 -9.7044 16.2284 3.7331
# 2 55.4825 90.9292 52.5183 -2.4832 8.4531 -18.7260
# 3 83.6593 52.5183 208.9393 7.6906 49.0452 -22.4872
# 4 -9.7044 -2.4832 7.6906 38.0291 -1.9644 -8.9138
# 5 16.2284 8.4531 49.0452 -1.9644 48.5460 -8.6744
# 6 3.7331 -18.7260 -22.4872 -8.9138 -8.6744 73.1271
#
#
#
# Elastic Compliance Matrix: (Units=1/GPa)
#
#
# Indices 1 2 3 4 5 6 
#
# 1 0.006241 -0.002917 -0.002046 0.001484 0.000285 -0.001480
# 2 -0.002917 0.014945 -0.002689 0.001705 0.001796 0.003570
# 3 -0.002046 -0.002689 0.008098 -0.002516 -0.006994 0.000770
# 4 0.001484 0.001705 -0.002516 0.028285 0.003511 0.003451
# 5 0.000285 0.001796 -0.006994 0.003511 0.027759 0.002015
# 6 -0.001480 0.003570 0.000770 0.003451 0.002015 0.015561
#
#
# Mechanical properties :
#
#
# Convention : Reuss Voigt Hill
#
# Bulk Modulus (GPa) = 71.52881 99.91552 85.72217
# Shear Modulus (GPa) = 41.37249 53.55773 47.46511
#
# Velocity S-wave (km/s) = 3.96273 4.50869 4.24450
# Velocity P-wave (km/s) = 6.93448 8.06400 7.52047
#
# Compressibility (1/GPa) = 0.01398038
#
# Stress axis : x y z
#
# Youngs Moduli (GPa) = 160.23507 66.91161 123.48040
#
# Poissons Ratio (x) = 0.19517 0.25269
# Poissons Ratio (y) = 0.46737 0.33201
# Poissons Ratio (z) = 0.32791 0.17991
#
# Static dielectric constant tensor:
#      x y z
#    x 2.079830 0.070910 -0.013580 
#    y 0.070910 2.149260 0.052460 
#    z -0.013580 0.052460 2.254670 
# 
# From -- ./inp_files/25064.got.cif
#   From: 2010.05.17/outbox.cif.g08.bks.cpg/sg2_13_cif.got.tgz:25064.got - 2010.06.03 11:33:40.
