data_PCOD9048894
_publ_section_title
;
Structure prediction by ZEFSAII (Michael W. Deem and Ramdas Pophale) SiO2 
 PCOD9048894
Probable space group: P -1
;
_chemical_formula_sum "Si O2"
_cell_formula_units_Z 14
_cell_length_a 12.079898
_cell_length_b 21.627378
_cell_length_c 14.829466
_cell_angle_alpha 19.552061
_cell_angle_beta 144.441617
_cell_angle_gamma 153.652322
_cell_volume 562.837430
_symmetry_space_group_name_H-M "P -1"
_symmetry_group_IT_number 2
_symmetry_cell_setting 'triclinic'
loop_
_space_group_symop_operation_xyz
x,y,z
-x,-y,-z
loop_
_atom_site_type_symbol
_atom_site_label
_atom_site_fract_x
_atom_site_fract_y
_atom_site_fract_z
Si Si1 0.573901 0.964089 0.003879
Si Si2 0.279755 0.652752 0.567475
Si Si3 0.744558 0.061426 0.436881
Si Si4 0.716607 0.453830 0.944273
Si Si5 0.785956 0.761519 0.345306
Si Si6 0.019942 0.494236 0.247954
Si Si7 0.775577 0.751183 0.028551
O O1 0.725420 0.207303 0.710097
O O2 0.719208 0.862420 0.244844
O O3 0.299029 0.759002 0.057728
O O4 0.500000 0.000000 0.000000
O O5 0.075384 0.564579 0.631752
O O6 0.556877 0.855789 0.520019
O O7 0.239952 0.428635 0.803336
O O8 0.651762 0.210208 0.194529
O O9 0.742535 0.911479 0.722198
O O10 0.041060 0.294585 0.288326
O O11 0.462660 0.409278 0.841474
O O12 0.817466 0.478284 0.077932
O O13 0.500000 0.500000 0.500000
O O14 0.944317 0.680101 0.535949
O O15 0.965404 0.032402 0.042931
#
# Coordination Sequence:
#
# PCOD9048894 Si02
#       7
#     2   2   2   2   2   2   2
#     4  11  26  49  68  97 142 185 236 290 340 410
#     4  12  26  42  71 104 143 187 226 283 355 414
#     4  11  23  42  67 105 143 180 227 282 349 406
#     4  11  23  40  72 102 143 180 227 288 342 411
#     4  10  24  45  74  97 133 186 234 286 338 403
#     4  11  22  45  70 100 137 182 235 288 340 409
#     4  12  24  42  68 107 142 180 226 282 351 417
#
# _framework density 24.873965999999999
#
# number of rings (size 3 to 8) (size 9 to 14) (size 15 to 20)
#    0.000    0.857    4.286    2.571    0.000    5.714 
#    0.000    2.857    0.000    0.000    0.000    0.000 
#    0.000    0.000    0.000    0.000    0.000    0.000 
#
# Total GULP energy -78127.679400 kJ/mol
# GULP energy per Si atom -5580.548529 kJ/mol
# Density = 2.481735 g / cm^3
# Si number density = 24.873966 Si / 1000 Ang^3
#
#
#
# Elastic Constant Matrix: (Units=GPa)
#
#
# Indices 1 2 3 4 5 6 
#
# 1 160.1771 26.1854 54.8431 -6.3047 -2.8254 18.0693
# 2 26.1854 74.9544 40.2350 -41.5350 13.6857 9.3730
# 3 54.8431 40.2350 120.5831 -25.9117 -4.2224 -2.0386
# 4 -6.3047 -41.5350 -25.9117 40.8813 -6.7455 -1.3965
# 5 -2.8254 13.6857 -4.2224 -6.7455 41.8368 -4.5950
# 6 18.0693 9.3730 -2.0386 -1.3965 -4.5950 42.1549
#
#
#
# Elastic Compliance Matrix: (Units=1/GPa)
#
#
# Indices 1 2 3 4 5 6 
#
# 1 0.008152 -0.002568 -0.003723 -0.003815 0.000046 -0.003225
# 2 -0.002568 0.037576 -0.004653 0.033199 -0.008383 -0.007293
# 3 -0.003723 -0.004653 0.012426 0.003273 0.003461 0.003717
# 4 -0.003815 0.033199 0.003273 0.059275 -0.001648 -0.003804
# 5 0.000046 -0.008383 0.003461 -0.001648 0.027273 0.004930
# 6 -0.003225 -0.007293 0.003717 -0.003804 0.004930 0.027317
#
#
# Mechanical properties :
#
#
# Convention : Reuss Voigt Hill
#
# Bulk Modulus (GPa) = 27.57437 66.47128 47.02282
# Shear Modulus (GPa) = 24.27230 40.60467 32.43848
#
# Velocity S-wave (km/s) = 3.12719 4.04470 3.61517
# Velocity P-wave (km/s) = 4.91414 6.97094 6.03087
#
# Compressibility (1/GPa) = 0.03626556
#
# Stress axis : x y z
#
# Youngs Moduli (GPa) = 122.66539 26.61305 80.47453
#
# Poissons Ratio (x) = 0.06835 0.29965
# Poissons Ratio (y) = 0.31503 0.37442
# Poissons Ratio (z) = 0.45674 0.12382
#
# Static dielectric constant tensor:
#      x y z
#    x 1.883270 0.242370 -0.006790 
#    y 0.242370 1.649020 -0.048170 
#    z -0.006790 -0.048170 1.968120 
# 
# From -- ./inp_files/349747.got.cif
#   From: 2010.05.17/outbox.cif.g08.bks.cpg/sg2_175_cif.got.tgz:349747.got - 2010.06.03 11:33:40.
