data_PCOD9048906
_publ_section_title
;
Structure prediction by ZEFSAII (Michael W. Deem and Ramdas Pophale) SiO2 
 PCOD9048906
Probable space group: P -1
;
_chemical_formula_sum "Si O2"
_cell_formula_units_Z 13
_cell_length_a 11.582985
_cell_length_b 7.470853
_cell_length_c 8.937389
_cell_angle_alpha 108.234645
_cell_angle_beta 77.803564
_cell_angle_gamma 137.272049
_cell_volume 498.203004
_symmetry_space_group_name_H-M "P -1"
_symmetry_group_IT_number 2
_symmetry_cell_setting 'triclinic'
loop_
_space_group_symop_operation_xyz
x,y,z
-x,-y,-z
loop_
_atom_site_type_symbol
_atom_site_label
_atom_site_fract_x
_atom_site_fract_y
_atom_site_fract_z
Si Si1 0.665919 0.296748 0.205166
Si Si2 0.292218 0.910540 0.153179
Si Si3 0.963113 0.456908 0.323956
Si Si4 0.349860 0.302929 0.610254
Si Si5 0.000000 0.000000 0.500000
Si Si6 0.949353 0.843333 0.819603
Si Si7 0.590387 0.537927 0.835905
O O1 0.804101 0.409409 0.323813
O O2 0.681275 0.539103 0.246313
O O3 0.465536 0.041986 0.223461
O O4 0.715212 0.226374 0.031001
O O5 0.121220 0.691294 0.236389
O O6 0.328093 0.169151 0.166712
O O7 0.000000 0.500000 0.500000
O O8 0.932807 0.205378 0.227815
O O9 0.500000 0.500000 0.500000
O O10 0.446002 0.285508 0.700374
O O11 0.177585 0.083386 0.508346
O O12 0.961951 0.948601 0.679199
O O13 0.746911 0.575819 0.821874
O O14 0.000000 0.000000 0.000000
O O15 0.500000 0.500000 0.000000
#
# Coordination Sequence:
#
# PCOD9048906 Si02
#       7
#     2   2   2   2   1   2   2
#     4  10  24  45  75 103 147 193 250 307 378 450
#     4  10  25  48  77 106 145 199 246 314 385 451
#     4  12  28  47  73 111 154 196 256 313 383 465
#     4  11  24  44  73 108 146 199 247 314 378 453
#     4  12  26  48  74 108 162 190 258 314 390 434
#     4  12  28  46  78 116 154 207 260 317 387 468
#     4  11  25  47  76 110 150 192 261 315 384 462
#
# _framework density 26.093779000000001
#
# number of rings (size 3 to 8) (size 9 to 14) (size 15 to 20)
#    0.000    0.923    1.538    3.231   12.923    0.615 
#    0.000    0.000    0.000    0.000    0.000    0.000 
#    0.000    0.000    0.000    0.000    0.000    0.000 
#
# Total GULP energy -72491.115864 kJ/mol
# GULP energy per Si atom -5576.239682 kJ/mol
# Density = 2.603439 g / cm^3
# Si number density = 26.093779 Si / 1000 Ang^3
#
#
#
# Elastic Constant Matrix: (Units=GPa)
#
#
# Indices 1 2 3 4 5 6 
#
# 1 116.3649 22.0671 3.1033 -1.7010 18.3213 31.5198
# 2 22.0671 87.5434 22.6572 -20.2969 15.2756 18.5764
# 3 3.1033 22.6572 114.3261 -12.4964 8.9882 -3.7862
# 4 -1.7010 -20.2969 -12.4964 42.9236 -1.2733 -6.4798
# 5 18.3213 15.2756 8.9882 -1.2733 55.3648 16.8846
# 6 31.5198 18.5764 -3.7862 -6.4798 16.8846 62.8988
#
#
#
# Elastic Compliance Matrix: (Units=1/GPa)
#
#
# Indices 1 2 3 4 5 6 
#
# 1 0.010332 -0.001617 -0.000095 -0.001092 -0.001648 -0.004376
# 2 -0.001617 0.014641 -0.002124 0.005806 -0.002285 -0.002430
# 3 -0.000095 -0.002124 0.009566 0.002013 -0.001453 0.001848
# 4 -0.001092 0.005806 0.002013 0.026863 -0.001606 0.002152
# 5 -0.001648 -0.002285 -0.001453 -0.001606 0.020755 -0.004324
# 6 -0.004376 -0.002430 0.001848 0.002152 -0.004324 0.020303
#
#
# Mechanical properties :
#
#
# Convention : Reuss Voigt Hill
#
# Bulk Modulus (GPa) = 37.22021 45.98772 41.60397
# Shear Modulus (GPa) = 41.98678 50.26454 46.12566
#
# Velocity S-wave (km/s) = 4.01568 4.39373 4.20895
# Velocity P-wave (km/s) = 5.98296 6.58803 6.29277
#
# Compressibility (1/GPa) = 0.02686712
#
# Stress axis : x y z
#
# Youngs Moduli (GPa) = 96.79082 68.30315 104.53906
#
# Poissons Ratio (x) = 0.11044 0.00990
# Poissons Ratio (y) = 0.15650 0.22202
# Poissons Ratio (z) = 0.00917 0.14506
#
# Static dielectric constant tensor:
#      x y z
#    x 2.088470 -0.051990 -0.039860 
#    y -0.051990 2.231270 0.042800 
#    z -0.039860 0.042800 2.010070 
# 
# From -- ./inp_files/194443.got.cif
#   From: 2010.05.17/outbox.cif.g08.bks.cpg/sg2_98_cif.got.tgz:194443.got - 2010.06.03 11:33:40.
