data_PCOD9048695
_publ_section_title
;
Structure prediction by ZEFSAII (Michael W. Deem and Ramdas Pophale) SiO2 
 PCOD9048695
Probable space group: P -1
;
_chemical_formula_sum "Si O2"
_cell_formula_units_Z 16
_cell_length_a 11.014749
_cell_length_b 10.603589
_cell_length_c 8.398513
_cell_angle_alpha 60.580520
_cell_angle_beta 55.814552
_cell_angle_gamma 57.019032
_cell_volume 655.944011
_symmetry_space_group_name_H-M "P -1"
_symmetry_group_IT_number 2
_symmetry_cell_setting 'triclinic'
loop_
_space_group_symop_operation_xyz
x,y,z
-x,-y,-z
loop_
_atom_site_type_symbol
_atom_site_label
_atom_site_fract_x
_atom_site_fract_y
_atom_site_fract_z
Si Si1 0.103953 0.037762 0.034240
Si Si2 0.018962 0.113621 0.547836
Si Si3 0.550059 0.607471 0.779274
Si Si4 0.677153 0.174704 0.425186
Si Si5 0.434312 0.047676 0.699375
Si Si6 0.618577 0.383636 0.608811
Si Si7 0.937591 0.681509 0.877126
Si Si8 0.599002 0.757218 0.951524
O O1 0.256906 0.057388 0.835172
O O2 0.031000 0.199396 0.091664
O O3 0.000000 0.000000 0.000000
O O4 0.119830 0.889136 0.228665
O O5 0.021022 0.267210 0.361988
O O6 0.191377 0.001502 0.565808
O O7 0.000000 0.000000 0.500000
O O8 0.381419 0.726873 0.755271
O O9 0.660247 0.497011 0.630261
O O10 0.635531 0.685251 0.788933
O O11 0.500000 0.500000 0.000000
O O12 0.728523 0.263350 0.473918
O O13 0.502274 0.180824 0.598616
O O14 0.514062 0.934121 0.856104
O O15 0.500000 0.000000 0.500000
O O16 0.500000 0.500000 0.500000
O O17 0.521959 0.305129 0.834802
O O18 0.749805 0.728237 0.966543
O O19 0.000000 0.500000 0.000000
#
# Coordination Sequence:
#
# PCOD9048695 Si02
#       8
#     2   2   2   2   2   2   2   2
#     4  11  27  48  76 111 144 190 246 302 373 440
#     4  10  24  45  71 105 146 192 248 292 367 436
#     4   9  20  37  60 103 143 180 225 297 366 423
#     4  11  20  40  71 100 140 186 240 301 348 432
#     4  12  24  42  78 105 139 181 246 310 346 424
#     4   9  21  36  59 100 144 177 225 296 358 419
#     4  11  26  50  74 103 150 202 239 305 371 445
#     4  11  22  41  70 100 138 183 247 288 363 420
#
# _framework density 24.392326000000001
#
# number of rings (size 3 to 8) (size 9 to 14) (size 15 to 20)
#    0.000    1.500    2.500    1.500    3.500    7.000 
#    2.250    0.625    0.000    0.000    0.000    0.000 
#    0.000    0.000    0.000    0.000    0.000    0.000 
#
# Total GULP energy -89071.485946 kJ/mol
# GULP energy per Si atom -5566.967872 kJ/mol
# Density = 2.433681 g / cm^3
# Si number density = 24.392326 Si / 1000 Ang^3
#
#
#
# Elastic Constant Matrix: (Units=GPa)
#
#
# Indices 1 2 3 4 5 6 
#
# 1 142.5701 46.7422 31.2194 7.3074 10.1919 -2.1157
# 2 46.7422 112.7441 57.6269 -24.4852 9.3446 -2.9732
# 3 31.2194 57.6269 154.2378 -19.7778 2.7354 -17.5580
# 4 7.3074 -24.4852 -19.7778 55.3619 -2.2362 11.9514
# 5 10.1919 9.3446 2.7354 -2.2362 48.4476 8.7200
# 6 -2.1157 -2.9732 -17.5580 11.9514 8.7200 37.7148
#
#
#
# Elastic Compliance Matrix: (Units=1/GPa)
#
#
# Indices 1 2 3 4 5 6 
#
# 1 0.008721 -0.003918 -0.000563 -0.003433 -0.001447 0.001341
# 2 -0.003918 0.013722 -0.003876 0.005717 -0.000881 -0.002550
# 3 -0.000563 -0.003876 0.008528 0.000648 -0.000211 0.003477
# 4 -0.003433 0.005717 0.000648 0.022895 0.001925 -0.007141
# 5 -0.001447 -0.000881 -0.000211 0.001925 0.022298 -0.006015
# 6 0.001341 -0.002550 0.003477 -0.007141 -0.006015 0.031661
#
#
# Mechanical properties :
#
#
# Convention : Reuss Voigt Hill
#
# Bulk Modulus (GPa) = 70.13774 75.63655 72.88715
# Shear Modulus (GPa) = 38.67196 46.56910 42.62053
#
# Velocity S-wave (km/s) = 3.98605 4.37415 4.18460
# Velocity P-wave (km/s) = 7.07115 7.52240 7.30026
#
# Compressibility (1/GPa) = 0.01425766
#
# Stress axis : x y z
#
# Youngs Moduli (GPa) = 114.66155 72.87465 117.25938
#
# Poissons Ratio (x) = 0.28553 0.06606
# Poissons Ratio (y) = 0.44926 0.45444
# Poissons Ratio (z) = 0.06460 0.28243
#
# Static dielectric constant tensor:
#      x y z
#    x 2.002050 -0.012710 0.091170 
#    y -0.012710 2.135160 0.070860 
#    z 0.091170 0.070860 2.007900 
# 
# From -- ./inp_files/261945.got.cif
#   From: 2010.05.17/outbox.cif.g08.bks.cpg/sg2_131_cif.got.tgz:261945.got - 2010.06.03 11:33:40.
