data_PCOD9048230
_publ_section_title
;
Structure prediction by ZEFSAII (Michael W. Deem and Ramdas Pophale) SiO2 
 PCOD9048230
Probable space group: P -1
;
_chemical_formula_sum "Si O2"
_cell_formula_units_Z 14
_cell_length_a 11.596287
_cell_length_b 9.016034
_cell_length_c 5.056486
_cell_angle_alpha 89.686475
_cell_angle_beta 81.882894
_cell_angle_gamma 83.202417
_cell_volume 519.658887
_symmetry_space_group_name_H-M "P -1"
_symmetry_group_IT_number 2
_symmetry_cell_setting 'triclinic'
loop_
_space_group_symop_operation_xyz
x,y,z
-x,-y,-z
loop_
_atom_site_type_symbol
_atom_site_label
_atom_site_fract_x
_atom_site_fract_y
_atom_site_fract_z
Si Si1 0.984254 0.340942 0.140636
Si Si2 0.227349 0.334400 0.941855
Si Si3 0.421806 0.661067 0.565723
Si Si4 0.803883 0.472712 0.544721
Si Si5 0.294657 0.960539 0.448570
Si Si6 0.132888 0.921893 0.001904
Si Si7 0.558889 0.840075 0.891195
O O1 0.928832 0.376388 0.447242
O O2 0.893767 0.249015 0.024138
O O3 0.116017 0.258585 0.087449
O O4 0.000000 0.500000 0.000000
O O5 0.229751 0.468998 0.154372
O O6 0.199435 0.386199 0.653545
O O7 0.198796 0.939414 0.254690
O O8 0.500000 0.500000 0.500000
O O9 0.293875 0.614217 0.556170
O O10 0.398431 0.820146 0.413715
O O11 0.472125 0.725738 0.817058
O O12 0.223483 0.961713 0.745637
O O13 0.354917 0.108753 0.367419
O O14 0.647524 0.758263 0.073516
O O15 0.000000 0.000000 0.000000
O O16 0.500000 0.000000 0.000000
#
# Coordination Sequence:
#
# PCOD9048230 Si02
#       7
#     2   2   2   2   2   2   2
#     4  10  24  44  78 110 149 192 257 329 397 469
#     4  11  26  47  74 114 152 200 257 328 396 471
#     4  12  27  50  81 113 159 209 273 328 396 468
#     4  11  25  46  76 112 150 196 260 326 402 459
#     4  12  29  51  77 115 161 207 269 326 401 477
#     4  12  27  51  78 115 159 209 258 326 405 487
#     4  12  29  50  80 113 163 215 273 325 398 477
#
# _framework density 26.940747000000002
#
# number of rings (size 3 to 8) (size 9 to 14) (size 15 to 20)
#    0.000    0.571    2.857    3.000    6.000    7.429 
#    0.000    0.000    0.000    0.000    0.000    0.000 
#    0.000    0.000    0.000    0.000    0.000    0.000 
#
# Total GULP energy -78326.805545 kJ/mol
# GULP energy per Si atom -5594.771825 kJ/mol
# Density = 2.687943 g / cm^3
# Si number density = 26.940747 Si / 1000 Ang^3
#
#
#
# Elastic Constant Matrix: (Units=GPa)
#
#
# Indices 1 2 3 4 5 6 
#
# 1 129.3077 7.0470 13.6104 24.8368 16.1214 -1.1784
# 2 7.0470 66.9475 22.8600 23.1798 0.1655 -3.1828
# 3 13.6104 22.8600 105.8626 15.9092 9.8635 -8.6477
# 4 24.8368 23.1798 15.9092 44.7567 2.8572 3.1655
# 5 16.1214 0.1655 9.8635 2.8572 39.5633 0.7590
# 6 -1.1784 -3.1828 -8.6477 3.1655 0.7590 74.2689
#
#
#
# Elastic Compliance Matrix: (Units=1/GPa)
#
#
# Indices 1 2 3 4 5 6 
#
# 1 0.009141 0.000992 -0.000250 -0.005317 -0.003291 0.000419
# 2 0.000992 0.019161 -0.002834 -0.009588 0.000897 0.000906
# 3 -0.000250 -0.002834 0.010741 -0.002144 -0.002433 0.001241
# 4 -0.005317 -0.009588 -0.002144 0.031135 0.000533 -0.002077
# 5 -0.003291 0.000897 -0.002433 0.000533 0.027193 -0.000598
# 6 0.000419 0.000906 0.001241 -0.002077 -0.000598 0.013749
#
#
# Mechanical properties :
#
#
# Convention : Reuss Voigt Hill
#
# Bulk Modulus (GPa) = 28.68602 43.23917 35.96259
# Shear Modulus (GPa) = 39.39431 48.95781 44.17606
#
# Velocity S-wave (km/s) = 3.82810 4.26753 4.05377
# Velocity P-wave (km/s) = 5.49637 6.35351 5.94042
#
# Compressibility (1/GPa) = 0.03486019
#
# Stress axis : x y z
#
# Youngs Moduli (GPa) = 109.39585 52.18946 93.10495
#
# Poissons Ratio (x) = -0.05178 0.02324
# Poissons Ratio (y) = -0.10853 0.26384
# Poissons Ratio (z) = 0.02730 0.14789
#
# Static dielectric constant tensor:
#      x y z
#    x 2.103670 -0.048320 -0.066030 
#    y -0.048320 2.253460 -0.024550 
#    z -0.066030 -0.024550 2.207730 
# 
# From -- ./inp_files/87728.got.cif
#   From: 2010.05.17/outbox.cif.g08.bks.cpg/sg2_44_cif.got.tgz:87728.got - 2010.06.03 11:33:40.
