data_PCOD9048211
_publ_section_title
;
Structure prediction by ZEFSAII (Michael W. Deem and Ramdas Pophale) SiO2 
 PCOD9048211
Probable space group: P -1
;
_chemical_formula_sum "Si O2"
_cell_formula_units_Z 16
_cell_length_a 15.335695
_cell_length_b 9.965184
_cell_length_c 9.288980
_cell_angle_alpha 70.264188
_cell_angle_beta 104.173089
_cell_angle_gamma 49.583036
_cell_volume 775.521746
_symmetry_space_group_name_H-M "P -1"
_symmetry_group_IT_number 2
_symmetry_cell_setting 'triclinic'
loop_
_space_group_symop_operation_xyz
x,y,z
-x,-y,-z
loop_
_atom_site_type_symbol
_atom_site_label
_atom_site_fract_x
_atom_site_fract_y
_atom_site_fract_z
Si Si1 0.044936 0.040554 0.362975
Si Si2 0.885592 0.731484 0.269271
Si Si3 0.056272 0.369991 0.220810
Si Si4 0.819876 0.136928 0.100245
Si Si5 0.456016 0.917437 0.920693
Si Si6 0.586008 0.024742 0.459971
Si Si7 0.655002 0.396916 0.243285
Si Si8 0.452149 0.485995 0.336217
O O1 0.217425 0.776993 0.520116
O O2 0.040816 0.218364 0.301504
O O3 0.000000 0.000000 0.500000
O O4 0.935651 0.119948 0.168587
O O5 0.000000 0.500000 0.500000
O O6 0.939315 0.601769 0.188740
O O7 0.902305 0.880257 0.230654
O O8 0.711352 0.920115 0.161689
O O9 0.232054 0.190472 0.378161
O O10 0.000000 0.500000 0.000000
O O11 0.721724 0.265650 0.163282
O O12 0.721580 0.278234 0.865199
O O13 0.452104 0.931042 0.741354
O O14 0.582986 0.641532 0.109417
O O15 0.500000 0.000000 0.000000
O O16 0.500000 0.000000 0.500000
O O17 0.513689 0.248456 0.436720
O O18 0.528933 0.457931 0.236433
O O19 0.500000 0.500000 0.500000
#
# Coordination Sequence:
#
# PCOD9048211 Si02
#       8
#     2   2   2   2   2   2   2   2
#     4  10  24  44  77 104 139 194 248 300 366 443
#     4  12  25  45  71 108 148 191 250 304 372 444
#     4  12  29  48  73 108 158 201 239 309 385 449
#     4  11  24  43  74 105 137 189 247 309 358 433
#     4  12  28  44  78 112 146 192 253 313 369 442
#     4  12  29  51  74 108 153 196 243 309 384 441
#     4  11  22  46  73 102 139 188 249 300 364 424
#     4  12  26  45  72 102 144 190 245 299 360 437
#
# _framework density 20.631271000000002
#
# number of rings (size 3 to 8) (size 9 to 14) (size 15 to 20)
#    0.000    0.500    5.000    2.625   12.250    0.000 
#    0.000    1.250    0.000    0.000    0.000    0.000 
#    0.000    0.000    0.000    0.000    0.000    0.000 
#
# Total GULP energy -89263.333246 kJ/mol
# GULP energy per Si atom -5578.958328 kJ/mol
# Density = 2.058431 g / cm^3
# Si number density = 20.631271 Si / 1000 Ang^3
#
#
#
# Elastic Constant Matrix: (Units=GPa)
#
#
# Indices 1 2 3 4 5 6 
#
# 1 103.1205 61.9856 14.4743 7.4500 3.5576 27.8906
# 2 61.9856 160.1961 64.0793 -6.1693 -14.2337 28.5043
# 3 14.4743 64.0793 103.1875 12.2698 11.5735 13.0746
# 4 7.4500 -6.1693 12.2698 34.0091 2.3973 -3.7697
# 5 3.5576 -14.2337 11.5735 2.3973 36.3129 -0.6061
# 6 27.8906 28.5043 13.0746 -3.7697 -0.6061 32.8739
#
#
#
# Elastic Compliance Matrix: (Units=1/GPa)
#
#
# Indices 1 2 3 4 5 6 
#
# 1 0.017449 -0.007789 0.005460 -0.008019 -0.006162 -0.011255
# 2 -0.007789 0.014296 -0.009481 0.006976 0.008911 -0.001053
# 3 0.005460 -0.009481 0.017520 -0.009090 -0.009312 -0.004594
# 4 -0.008019 0.006976 -0.009090 0.036367 0.004160 0.008617
# 5 -0.006162 0.008911 -0.009312 0.004160 0.034367 0.002315
# 6 -0.011255 -0.001053 -0.004594 0.008617 0.002315 0.043738
#
#
# Mechanical properties :
#
#
# Convention : Reuss Voigt Hill
#
# Bulk Modulus (GPa) = 38.99341 71.95363 55.47352
# Shear Modulus (GPa) = 25.52236 35.70350 30.61293
#
# Velocity S-wave (km/s) = 3.52102 4.16450 3.85621
# Velocity P-wave (km/s) = 5.95578 7.62075 6.83912
#
# Compressibility (1/GPa) = 0.02564536
#
# Stress axis : x y z
#
# Youngs Moduli (GPa) = 57.30948 69.94751 57.07715
#
# Poissons Ratio (x) = 0.54486 -0.31166
# Poissons Ratio (y) = 0.44641 0.54114
# Poissons Ratio (z) = -0.31292 0.66317
#
# Static dielectric constant tensor:
#      x y z
#    x 2.246230 0.149610 -0.148290 
#    y 0.149610 1.726920 -0.098980 
#    z -0.148290 -0.098980 1.851050 
# 
# From -- ./inp_files/298289.got.cif
#   From: 2010.05.17/outbox.cif.g08.bks.cpg/sg2_150_cif.got.tgz:298289.got - 2010.06.03 11:33:40.
