data_PCOD9048333
_publ_section_title
;
Structure prediction by ZEFSAII (Michael W. Deem and Ramdas Pophale) SiO2 
 PCOD9048333
Probable space group: P -1
;
_chemical_formula_sum "Si O2"
_cell_formula_units_Z 16
_cell_length_a 11.431459
_cell_length_b 13.272023
_cell_length_c 9.652720
_cell_angle_alpha 102.406587
_cell_angle_beta 68.532086
_cell_angle_gamma 146.600053
_cell_volume 738.396190
_symmetry_space_group_name_H-M "P -1"
_symmetry_group_IT_number 2
_symmetry_cell_setting 'triclinic'
loop_
_space_group_symop_operation_xyz
x,y,z
-x,-y,-z
loop_
_atom_site_type_symbol
_atom_site_label
_atom_site_fract_x
_atom_site_fract_y
_atom_site_fract_z
Si Si1 0.212686 0.683744 0.553476
Si Si2 0.743028 0.732383 0.663328
Si Si3 0.760232 0.628704 0.203817
Si Si4 0.607265 0.066365 0.821853
Si Si5 0.082034 0.162200 0.079929
Si Si6 0.329586 0.983743 0.677948
Si Si7 0.122015 0.946789 0.361928
Si Si8 0.930901 0.519464 0.168869
O O1 0.228930 0.819698 0.584715
O O2 0.189533 0.628951 0.704407
O O3 0.000000 0.500000 0.500000
O O4 0.458560 0.817145 0.429913
O O5 0.493343 0.518645 0.680173
O O6 0.767831 0.754449 0.824722
O O7 0.954581 0.817234 0.527210
O O8 0.771718 0.867214 0.630170
O O9 0.951448 0.816733 0.267154
O O10 0.801572 0.534571 0.180740
O O11 0.798149 0.688300 0.046604
O O12 0.683024 0.004288 0.725392
O O13 0.841216 0.287396 0.797492
O O14 0.440495 0.005470 0.769659
O O15 0.500000 0.000000 0.000000
O O16 0.862742 0.071971 0.204543
O O17 0.000000 0.000000 0.000000
O O18 0.000000 0.500000 0.000000
#
# Coordination Sequence:
#
# PCOD9048333 Si02
#       8
#     2   2   2   2   2   2   2   2
#     4  11  24  47  70 109 140 180 228 284 359 423
#     4  11  25  43  74  94 141 185 230 289 344 406
#     4  11  24  46  68 100 136 181 237 283 343 416
#     4  11  23  42  71 101 145 179 223 290 353 416
#     4  12  26  49  67 100 143 188 239 285 346 420
#     4  11  26  44  73 100 146 182 228 292 352 413
#     4  10  24  45  67 107 134 173 240 281 348 420
#     4  11  24  42  69 106 140 175 233 284 342 428
#
# _framework density 21.668583999999999
#
# number of rings (size 3 to 8) (size 9 to 14) (size 15 to 20)
#    0.000    1.000    2.500    3.750    7.000    1.000 
#    9.000    0.000    0.000    0.000    0.000    0.000 
#    0.000    0.000    0.000    0.000    0.000    0.000 
#
# Total GULP energy -89536.910750 kJ/mol
# GULP energy per Si atom -5596.056922 kJ/mol
# Density = 2.161927 g / cm^3
# Si number density = 21.668584 Si / 1000 Ang^3
#
#
#
# Elastic Constant Matrix: (Units=GPa)
#
#
# Indices 1 2 3 4 5 6 
#
# 1 61.7946 22.0651 21.8874 -9.8440 -7.1614 0.4002
# 2 22.0651 87.6399 24.4134 -19.2708 -1.7284 9.7666
# 3 21.8874 24.4134 127.1326 -23.6193 7.1509 -3.9247
# 4 -9.8440 -19.2708 -23.6193 45.5777 0.6745 4.9933
# 5 -7.1614 -1.7284 7.1509 0.6745 45.8858 0.8785
# 6 0.4002 9.7666 -3.9247 4.9933 0.8785 22.7211
#
#
#
# Elastic Compliance Matrix: (Units=1/GPa)
#
#
# Indices 1 2 3 4 5 6 
#
# 1 0.018974 -0.003842 -0.002491 0.001078 0.003179 0.000527
# 2 -0.003842 0.014872 -0.001413 0.005577 0.000248 -0.007805
# 3 -0.002491 -0.001413 0.009393 0.003591 -0.001989 0.001562
# 4 0.001078 0.005577 0.003591 0.027250 -0.000433 -0.007768
# 5 0.003179 0.000248 -0.001989 -0.000433 0.022640 -0.001286
# 6 0.000527 -0.007805 0.001562 -0.007768 -0.001286 0.049384
#
#
# Mechanical properties :
#
#
# Convention : Reuss Voigt Hill
#
# Bulk Modulus (GPa) = 36.04073 45.92207 40.98140
# Shear Modulus (GPa) = 29.89472 36.71700 33.30586
#
# Velocity S-wave (km/s) = 3.71837 4.12087 3.92479
# Velocity P-wave (km/s) = 5.92485 6.62428 6.28430
#
# Compressibility (1/GPa) = 0.02774639
#
# Stress axis : x y z
#
# Youngs Moduli (GPa) = 52.70503 67.23892 106.46044
#
# Poissons Ratio (x) = 0.25834 0.26519
# Poissons Ratio (y) = 0.20250 0.15045
# Poissons Ratio (z) = 0.13129 0.09502
#
# Static dielectric constant tensor:
#      x y z
#    x 1.757720 0.013710 0.009070 
#    y 0.013710 1.780710 -0.004450 
#    z 0.009070 -0.004450 1.823360 
# 
# From -- ./inp_files/273345.got.cif
#   From: 2010.05.17/outbox.cif.g08.bks.cpg/sg2_137_cif.got.tgz:273345.got - 2010.06.03 11:33:40.
