data_PCOD9048839
_publ_section_title
;
Structure prediction by ZEFSAII (Michael W. Deem and Ramdas Pophale) SiO2 
 PCOD9048839
Probable space group: P -1
;
_chemical_formula_sum "Si O2"
_cell_formula_units_Z 14
_cell_length_a 18.220369
_cell_length_b 9.114888
_cell_length_c 13.439877
_cell_angle_alpha 29.743101
_cell_angle_beta 31.041789
_cell_angle_gamma 40.011057
_cell_volume 568.901611
_symmetry_space_group_name_H-M "P -1"
_symmetry_group_IT_number 2
_symmetry_cell_setting 'triclinic'
loop_
_space_group_symop_operation_xyz
x,y,z
-x,-y,-z
loop_
_atom_site_type_symbol
_atom_site_label
_atom_site_fract_x
_atom_site_fract_y
_atom_site_fract_z
Si Si1 0.487983 0.205417 0.489202
Si Si2 0.903321 0.660945 0.221954
Si Si3 0.915791 0.363089 0.771942
Si Si4 0.383792 0.780041 0.473570
Si Si5 0.834043 0.063344 0.688325
Si Si6 0.350774 0.248208 0.077626
Si Si7 0.188714 0.363885 0.855795
O O1 0.599873 0.083182 0.517286
O O2 0.330366 0.253891 0.690115
O O3 0.500000 0.000000 0.500000
O O4 0.540055 0.525107 0.216826
O O5 0.794142 0.418021 0.524988
O O6 0.929470 0.553500 0.140198
O O7 0.010673 0.611791 0.219315
O O8 0.887761 0.014522 0.011280
O O9 0.767895 0.560388 0.833125
O O10 0.000000 0.500000 0.500000
O O11 0.500000 0.500000 0.500000
O O12 0.235202 0.646596 0.697803
O O13 0.419824 0.003098 0.215441
O O14 0.733158 0.903084 0.824034
O O15 0.000000 0.000000 0.500000
O O16 0.827298 0.911017 0.892295
#
# Coordination Sequence:
#
# PCOD9048839 Si02
#       7
#     2   2   2   2   2   2   2
#     4  11  26  48  72 106 145 192 248 306 378 441
#     4  11  24  44  71 107 148 197 247 309 363 447
#     4  11  26  46  69 108 157 203 243 302 378 440
#     4  10  24  45  73 110 140 192 244 310 370 441
#     4  12  25  44  73 113 144 194 251 305 373 445
#     4  12  25  46  75 107 147 193 254 306 365 455
#     4  11  24  45  74 106 143 192 250 307 371 438
#
# _framework density 24.608827000000002
#
# number of rings (size 3 to 8) (size 9 to 14) (size 15 to 20)
#    0.000    0.857    4.286    1.714    0.000   10.286 
#    0.000    0.000    0.000    0.000    0.000    0.000 
#    0.000    0.000    0.000    0.000    0.000    0.000 
#
# Total GULP energy -78277.403809 kJ/mol
# GULP energy per Si atom -5591.243129 kJ/mol
# Density = 2.455282 g / cm^3
# Si number density = 24.608827 Si / 1000 Ang^3
#
#
#
# Elastic Constant Matrix: (Units=GPa)
#
#
# Indices 1 2 3 4 5 6 
#
# 1 186.7327 32.2770 78.1148 -10.1293 19.9008 33.3451
# 2 32.2770 96.8104 61.7966 -6.4677 5.7067 3.2312
# 3 78.1148 61.7966 234.7807 -7.9477 22.9867 1.7950
# 4 -10.1293 -6.4677 -7.9477 46.9276 2.0241 -4.2159
# 5 19.9008 5.7067 22.9867 2.0241 57.4031 -6.6879
# 6 33.3451 3.2312 1.7950 -4.2159 -6.6879 40.1607
#
#
#
# Elastic Compliance Matrix: (Units=1/GPa)
#
#
# Indices 1 2 3 4 5 6 
#
# 1 0.007898 -0.000888 -0.002059 0.000740 -0.002638 -0.006756
# 2 -0.000888 0.012601 -0.003008 0.001026 0.000224 0.000003
# 3 -0.002059 -0.003008 0.005849 0.000319 -0.001162 0.001530
# 4 0.000740 0.001026 0.000319 0.021838 -0.001094 0.001399
# 5 -0.002638 0.000224 -0.001162 -0.001094 0.019440 0.005347
# 6 -0.006756 0.000003 0.001530 0.001399 0.005347 0.031478
#
#
# Mechanical properties :
#
#
# Convention : Reuss Voigt Hill
#
# Bulk Modulus (GPa) = 69.26791 95.85564 82.56177
# Shear Modulus (GPa) = 43.16776 51.97396 47.57086
#
# Velocity S-wave (km/s) = 4.19281 4.60064 4.40145
# Velocity P-wave (km/s) = 7.18667 8.20107 7.71057
#
# Compressibility (1/GPa) = 0.01443670
#
# Stress axis : x y z
#
# Youngs Moduli (GPa) = 126.61756 79.35715 170.96823
#
# Poissons Ratio (x) = 0.07051 0.35199
# Poissons Ratio (y) = 0.11250 0.51434
# Poissons Ratio (z) = 0.26068 0.23874
#
# Static dielectric constant tensor:
#      x y z
#    x 2.065720 -0.024470 -0.026600 
#    y -0.024470 2.062170 0.070010 
#    z -0.026600 0.070010 1.986840 
# 
# From -- ./inp_files/461738.got.cif
#   From: 2010.05.17/outbox.cif.g08.bks.cpg/sg2_231_cif.got.tgz:461738.got - 2010.06.03 11:33:40.
