data_PCOD9048493
_publ_section_title
;
Structure prediction by ZEFSAII (Michael W. Deem and Ramdas Pophale) SiO2 
 PCOD9048493
Probable space group: P -1
;
_chemical_formula_sum "Si O2"
_cell_formula_units_Z 14
_cell_length_a 10.965780
_cell_length_b 9.445565
_cell_length_c 7.210886
_cell_angle_alpha 84.745754
_cell_angle_beta 82.745022
_cell_angle_gamma 42.969159
_cell_volume 505.006905
_symmetry_space_group_name_H-M "P -1"
_symmetry_group_IT_number 2
_symmetry_cell_setting 'triclinic'
loop_
_space_group_symop_operation_xyz
x,y,z
-x,-y,-z
loop_
_atom_site_type_symbol
_atom_site_label
_atom_site_fract_x
_atom_site_fract_y
_atom_site_fract_z
Si Si1 0.770245 0.031766 0.103354
Si Si2 0.978814 0.983284 0.741743
Si Si3 0.000000 0.500000 0.500000
Si Si4 0.215121 0.295677 0.962883
Si Si5 0.500000 0.500000 0.000000
Si Si6 0.641431 0.921297 0.648221
Si Si7 0.180739 0.642502 0.425904
Si Si8 0.573136 0.639199 0.287276
O O1 0.922848 0.930521 0.927198
O O2 0.588472 0.265387 0.059721
O O3 0.751707 0.879281 0.131524
O O4 0.863628 0.035051 0.252985
O O5 0.808228 0.238607 0.736860
O O6 0.049270 0.825241 0.582401
O O7 0.166203 0.258771 0.454571
O O8 0.113962 0.545603 0.390538
O O9 0.330578 0.182550 0.144361
O O10 0.281887 0.366663 0.811800
O O11 0.000000 0.500000 0.000000
O O12 0.410623 0.505597 0.833296
O O13 0.500000 0.000000 0.500000
O O14 0.603299 0.116531 0.689928
O O15 0.369365 0.458470 0.509066
#
# Coordination Sequence:
#
# PCOD9048493 Si02
#       8
#     2   2   1   2   1   2   2   2
#     4  11  24  45  72 104 143 203 249 317 379 469
#     4  10  24  45  69 104 147 194 256 305 388 455
#     4  12  26  46  74 112 152 210 256 322 406 460
#     4  12  28  48  82 114 157 208 270 330 395 480
#     4  12  26  46  74 104 156 200 256 318 390 476
#     4  12  27  47  75 112 163 201 261 332 391 478
#     4  11  24  46  71 106 151 196 257 322 381 479
#     4  12  26  52  73 117 156 207 264 324 403 471
#
# _framework density 27.722390999999998
#
# number of rings (size 3 to 8) (size 9 to 14) (size 15 to 20)
#    0.000    0.571    4.286    3.000    6.000    0.000 
#    0.000    2.143    0.000    0.000    0.000    0.000 
#    0.000    0.000    0.000    0.000    0.000    0.000 
#
# Total GULP energy -77977.166242 kJ/mol
# GULP energy per Si atom -5569.797589 kJ/mol
# Density = 2.765929 g / cm^3
# Si number density = 27.722391 Si / 1000 Ang^3
#
#
#
# Elastic Constant Matrix: (Units=GPa)
#
#
# Indices 1 2 3 4 5 6 
#
# 1 114.2308 37.3857 28.8054 13.4538 5.7072 34.0592
# 2 37.3857 199.8216 15.0088 11.1676 8.8308 23.0635
# 3 28.8054 15.0088 93.8596 -13.1836 9.8135 10.0544
# 4 13.4538 11.1676 -13.1836 45.4583 4.2354 10.7242
# 5 5.7072 8.8308 9.8135 4.2354 32.2046 7.9547
# 6 34.0592 23.0635 10.0544 10.7242 7.9547 58.9970
#
#
#
# Elastic Compliance Matrix: (Units=1/GPa)
#
#
# Indices 1 2 3 4 5 6 
#
# 1 0.011940 -0.001227 -0.003420 -0.003040 0.000999 -0.005413
# 2 -0.001227 0.005470 -0.000404 -0.000761 -0.000784 -0.001118
# 3 -0.003420 -0.000404 0.012977 0.005357 -0.003809 -0.000540
# 4 -0.003040 -0.000761 0.005357 0.025687 -0.003508 -0.003056
# 5 0.000999 -0.000784 -0.003809 -0.003508 0.033579 -0.003511
# 6 -0.005413 -0.001118 -0.000540 -0.003056 -0.003511 0.021633
#
#
# Mechanical properties :
#
#
# Convention : Reuss Voigt Hill
#
# Bulk Modulus (GPa) = 49.29260 63.36798 56.33029
# Shear Modulus (GPa) = 39.01744 49.11280 44.06512
#
# Velocity S-wave (km/s) = 3.75565 4.21360 3.99120
# Velocity P-wave (km/s) = 6.05194 6.82497 6.45004
#
# Compressibility (1/GPa) = 0.02028702
#
# Stress axis : x y z
#
# Youngs Moduli (GPa) = 83.75133 182.80096 77.06046
#
# Poissons Ratio (x) = 0.22421 0.26355
# Poissons Ratio (y) = 0.10273 0.03110
# Poissons Ratio (z) = 0.28643 0.07378
#
# Static dielectric constant tensor:
#      x y z
#    x 2.092980 0.245770 -1.200250 
#    y 0.245770 0.960810 3.785340 
#    z -1.200250 3.785340 -10.039310 
# 
# From -- ./inp_files/154688.got.cif
#   From: 2010.05.17/outbox.cif.g08.bks.cpg/sg2_78_cif.got.tgz:154688.got - 2010.06.03 11:33:40.
