data_PCOD9048416
_publ_section_title
;
Structure prediction by ZEFSAII (Michael W. Deem and Ramdas Pophale) SiO2 
 PCOD9048416
Probable space group: P -1
;
_chemical_formula_sum "Si O2"
_cell_formula_units_Z 14
_cell_length_a 11.148186
_cell_length_b 10.100933
_cell_length_c 8.435712
_cell_angle_alpha 96.888281
_cell_angle_beta 76.441540
_cell_angle_gamma 41.999761
_cell_volume 551.115027
_symmetry_space_group_name_H-M "P -1"
_symmetry_group_IT_number 2
_symmetry_cell_setting 'triclinic'
loop_
_space_group_symop_operation_xyz
x,y,z
-x,-y,-z
loop_
_atom_site_type_symbol
_atom_site_label
_atom_site_fract_x
_atom_site_fract_y
_atom_site_fract_z
Si Si1 0.618724 0.496463 0.698718
Si Si2 0.820279 0.671726 0.284988
Si Si3 0.689517 0.076437 0.940337
Si Si4 0.387577 0.031736 0.340614
Si Si5 0.030264 0.690902 0.007318
Si Si6 0.057034 0.895443 0.247964
Si Si7 0.415503 0.736524 0.484993
O O1 0.847234 0.262285 0.651639
O O2 0.573029 0.609657 0.563774
O O3 0.521496 0.435354 0.679509
O O4 0.506230 0.674273 0.898062
O O5 0.611348 0.895194 0.290924
O O6 0.856881 0.489975 0.189521
O O7 0.780880 0.729229 0.490443
O O8 0.994809 0.616723 0.151171
O O9 0.640163 0.993572 0.832215
O O10 0.835453 0.055492 0.800043
O O11 0.817141 0.917744 0.028020
O O12 0.383258 0.900039 0.426277
O O13 0.120353 0.747653 0.058860
O O14 0.811280 0.109647 0.359639
#
# Coordination Sequence:
#
# PCOD9048416 Si02
#       7
#     2   2   2   2   2   2   2
#     4  11  24  40  66 100 136 180 209 266 348 396
#     4  10  24  45  68  90 132 186 224 281 321 387
#     4  12  25  41  69 103 134 174 220 278 344 395
#     4  11  23  45  66  96 135 174 229 278 325 397
#     4  11  24  44  68  98 134 178 227 273 333 396
#     4  12  23  43  69 102 142 170 215 284 331 409
#     4  11  24  42  64  99 140 172 220 267 333 404
#
# _framework density 25.403044000000001
#
# number of rings (size 3 to 8) (size 9 to 14) (size 15 to 20)
#    0.000    0.857    4.286    2.143    2.000    2.286 
#    0.000    5.714    0.000    0.000    0.000    0.000 
#    0.000    0.000    0.000    0.000    0.000    0.000 
#
# Total GULP energy -78381.005558 kJ/mol
# GULP energy per Si atom -5598.643254 kJ/mol
# Density = 2.534523 g / cm^3
# Si number density = 25.403044 Si / 1000 Ang^3
#
#
#
# Elastic Constant Matrix: (Units=GPa)
#
#
# Indices 1 2 3 4 5 6 
#
# 1 61.6415 2.1154 48.4506 -5.8283 17.9583 -2.4979
# 2 2.1154 84.5092 10.9684 -0.5163 3.9617 -10.4455
# 3 48.4506 10.9684 127.6697 22.8090 35.0765 1.8924
# 4 -5.8283 -0.5163 22.8090 35.1469 -1.2320 9.7596
# 5 17.9583 3.9617 35.0765 -1.2320 55.2476 -1.9788
# 6 -2.4979 -10.4455 1.8924 9.7596 -1.9788 25.0414
#
#
#
# Elastic Compliance Matrix: (Units=1/GPa)
#
#
# Indices 1 2 3 4 5 6 
#
# 1 0.027534 0.000936 -0.012643 0.013051 -0.000737 -0.001052
# 2 0.000936 0.012693 -0.001453 -0.000273 -0.000097 0.005596
# 3 -0.012643 -0.001453 0.017119 -0.013950 -0.006904 0.001730
# 4 0.013051 -0.000273 -0.013950 0.043856 0.005095 -0.014447
# 5 -0.000737 -0.000097 -0.006904 0.005095 0.022852 0.000228
# 6 -0.001052 0.005596 0.001730 -0.014447 0.000228 0.047681
#
#
# Mechanical properties :
#
#
# Convention : Reuss Voigt Hill
#
# Bulk Modulus (GPa) = 32.23172 44.09881 38.16526
# Shear Modulus (GPa) = 23.99252 37.23958 30.61605
#
# Velocity S-wave (km/s) = 3.07656 3.83293 3.47538
# Velocity P-wave (km/s) = 5.03349 6.08159 5.58219
#
# Compressibility (1/GPa) = 0.03102534
#
# Stress axis : x y z
#
# Youngs Moduli (GPa) = 36.31809 78.78467 58.41385
#
# Poissons Ratio (x) = -0.07374 0.73855
# Poissons Ratio (y) = -0.03399 0.08488
# Poissons Ratio (z) = 0.45919 0.11448
#
# Static dielectric constant tensor:
#      x y z
#    x 1.970710 0.009140 0.021840 
#    y 0.009140 1.989780 0.047420 
#    z 0.021840 0.047420 2.062980 
# 
# From -- ./inp_files/170900.got.cif
#   From: 2010.05.17/outbox.cif.g08.bks.cpg/sg2_86_cif.got.tgz:170900.got - 2010.06.03 11:33:40.
