data_PCOD9048202
_publ_section_title
;
Structure prediction by ZEFSAII (Michael W. Deem and Ramdas Pophale) SiO2 
 PCOD9048202
Probable space group: P -1
;
_chemical_formula_sum "Si O2"
_cell_formula_units_Z 14
_cell_length_a 5.647845
_cell_length_b 15.178802
_cell_length_c 14.639142
_cell_angle_alpha 29.908311
_cell_angle_beta 85.108810
_cell_angle_gamma 96.619975
_cell_volume 576.490112
_symmetry_space_group_name_H-M "P -1"
_symmetry_group_IT_number 2
_symmetry_cell_setting 'triclinic'
loop_
_space_group_symop_operation_xyz
x,y,z
-x,-y,-z
loop_
_atom_site_type_symbol
_atom_site_label
_atom_site_fract_x
_atom_site_fract_y
_atom_site_fract_z
Si Si1 0.688779 0.061104 0.717767
Si Si2 0.104789 0.309850 0.748501
Si Si3 0.595737 0.253341 0.717431
Si Si4 0.607932 0.984276 0.410994
Si Si5 0.973749 0.417680 0.974082
Si Si6 0.681888 0.645733 0.114388
Si Si7 0.192358 0.319990 0.394610
O O1 0.546960 0.131222 0.736395
O O2 0.610821 0.088190 0.593209
O O3 0.985697 0.201030 0.583076
O O4 0.645613 0.842664 0.929080
O O5 0.321611 0.221569 0.800499
O O6 0.250719 0.524283 0.513073
O O7 0.097091 0.323491 0.846194
O O8 0.817429 0.215939 0.802641
O O9 0.748652 0.836123 0.528757
O O10 0.500000 0.000000 0.500000
O O11 0.787101 0.196526 0.183044
O O12 0.887231 0.545704 0.792227
O O13 0.000000 0.500000 0.000000
O O14 0.239698 0.415589 0.929442
O O15 0.430830 0.467225 0.310601
#
# Coordination Sequence:
#
# PCOD9048202 Si02
#       7
#     2   2   2   2   2   2   2
#     4  12  27  47  75 110 149 201 256 317 387 463
#     4  10  24  44  76 110 153 203 259 321 391 463
#     4  10  24  44  76 110 153 203 259 321 391 463
#     4  12  27  47  76 111 150 199 257 314 389 463
#     4  12  27  47  76 111 150 199 257 314 389 463
#     4  12  27  47  75 110 149 201 256 317 387 463
#     4  12  26  48  76 102 158 194 250 322 382 454
#
# _framework density 24.284893
#
# number of rings (size 3 to 8) (size 9 to 14) (size 15 to 20)
#    0.000    0.571    2.857    4.286   12.000    3.429 
#    0.000    0.000    0.000    0.000    0.000    0.000 
#    0.000    0.000    0.000    0.000    0.000    0.000 
#
# Total GULP energy -78443.450064 kJ/mol
# GULP energy per Si atom -5603.103576 kJ/mol
# Density = 2.422962 g / cm^3
# Si number density = 24.284893 Si / 1000 Ang^3
#
#
#
# Elastic Constant Matrix: (Units=GPa)
#
#
# Indices 1 2 3 4 5 6 
#
# 1 99.5143 50.7616 31.1146 -11.0011 7.1750 -12.0228
# 2 50.7616 119.0779 32.2931 11.5840 18.4776 -9.0901
# 3 31.1146 32.2931 124.8538 -39.1455 1.9917 -20.1093
# 4 -11.0011 11.5840 -39.1455 33.1541 -5.6904 0.2145
# 5 7.1750 18.4776 1.9917 -5.6904 31.3851 -1.5126
# 6 -12.0228 -9.0901 -20.1093 0.2145 -1.5126 41.0423
#
#
#
# Elastic Compliance Matrix: (Units=1/GPa)
#
#
# Indices 1 2 3 4 5 6 
#
# 1 0.015120 -0.008669 0.002815 0.012003 0.003836 0.003967
# 2 -0.008669 0.019322 -0.011135 -0.025053 -0.013426 -0.004080
# 3 0.002815 -0.011135 0.021535 0.032045 0.010796 0.009140
# 4 0.012003 -0.025053 0.032045 0.085120 0.026089 0.014185
# 5 0.003836 -0.013426 0.010796 0.026089 0.043171 0.004894
# 6 0.003967 -0.004080 0.009140 0.014185 0.004894 0.029208
#
#
# Mechanical properties :
#
#
# Convention : Reuss Voigt Hill
#
# Bulk Modulus (GPa) = 45.45576 63.53163 54.49369
# Shear Modulus (GPa) = 19.62426 36.40144 28.01285
#
# Velocity S-wave (km/s) = 2.84577 3.87581 3.40002
# Velocity P-wave (km/s) = 5.43656 6.80051 6.15642
#
# Compressibility (1/GPa) = 0.02199941
#
# Stress axis : x y z
#
# Youngs Moduli (GPa) = 66.13662 51.75408 46.43656
#
# Poissons Ratio (x) = 0.44866 -0.13072
# Poissons Ratio (y) = 0.57334 0.51707
# Poissons Ratio (z) = -0.18618 0.57628
#
# Static dielectric constant tensor:
#      x y z
#    x 2.052100 0.017570 -0.019440 
#    y 0.017570 1.931880 0.009530 
#    z -0.019440 0.009530 1.907210 
# 
# From -- ./inp_files/484098.got.cif
#   From: 2010.05.17/outbox.cif.g08.bks.cpg/sg2_243_cif.got.tgz:484098.got - 2010.06.03 11:33:40.
