data_PCOD9048325
_publ_section_title
;
Structure prediction by ZEFSAII (Michael W. Deem and Ramdas Pophale) SiO2 
 PCOD9048325
Probable space group: P -1
;
_chemical_formula_sum "Si O2"
_cell_formula_units_Z 14
_cell_length_a 12.347919
_cell_length_b 8.352094
_cell_length_c 14.755004
_cell_angle_alpha 115.500494
_cell_angle_beta 148.376547
_cell_angle_gamma 51.350178
_cell_volume 603.757754
_symmetry_space_group_name_H-M "P -1"
_symmetry_group_IT_number 2
_symmetry_cell_setting 'triclinic'
loop_
_space_group_symop_operation_xyz
x,y,z
-x,-y,-z
loop_
_atom_site_type_symbol
_atom_site_label
_atom_site_fract_x
_atom_site_fract_y
_atom_site_fract_z
Si Si1 0.215812 0.129802 0.352971
Si Si2 0.996360 0.075300 0.731095
Si Si3 0.809064 0.442854 0.821007
Si Si4 0.656723 0.124989 0.370107
Si Si5 0.262730 0.309865 0.603471
Si Si6 0.259509 0.656436 0.053070
Si Si7 0.537282 0.190430 0.089716
O O1 0.197988 0.306629 0.450420
O O2 0.500000 0.000000 0.500000
O O3 0.169728 0.984699 0.349081
O O4 0.015632 0.188730 0.145653
O O5 0.942521 0.280605 0.794272
O O6 0.900341 0.117045 0.570647
O O7 0.264720 0.865010 0.861643
O O8 0.558838 0.667641 0.679753
O O9 0.762867 0.346419 0.854346
O O10 0.000000 0.500000 0.000000
O O11 0.614275 0.165929 0.243795
O O12 0.672910 0.910211 0.356672
O O13 0.506054 0.321277 0.791492
O O14 0.000000 0.500000 0.500000
O O15 0.329280 0.436488 0.001130
O O16 0.500000 0.000000 0.000000
#
# Coordination Sequence:
#
# PCOD9048325 Si02
#       7
#     2   2   2   2   2   2   2
#     4  11  27  46  71 108 141 186 241 288 357 420
#     4  11  23  43  72  99 140 184 231 292 352 415
#     4  11  25  44  68 103 138 187 236 282 358 414
#     4  10  24  45  67 102 142 178 236 290 346 421
#     4  11  26  47  75 107 142 184 239 290 353 426
#     4  11  26  47  75 101 146 188 231 298 353 417
#     4  11  25  46  69 105 137 184 234 284 359 420
#
# _framework density 23.188108
#
# number of rings (size 3 to 8) (size 9 to 14) (size 15 to 20)
#    0.000    1.143    0.000    5.143   10.000    3.429 
#    7.714    0.000    0.000    0.000    0.000    0.000 
#    0.000    0.000    0.000    0.000    0.000    0.000 
#
# Total GULP energy -78078.019351 kJ/mol
# GULP energy per Si atom -5577.001382 kJ/mol
# Density = 2.313533 g / cm^3
# Si number density = 23.188108 Si / 1000 Ang^3
#
#
#
# Elastic Constant Matrix: (Units=GPa)
#
#
# Indices 1 2 3 4 5 6 
#
# 1 69.8596 17.1528 18.8930 -4.4752 10.5268 -4.4577
# 2 17.1528 81.0105 15.6134 2.0137 -10.5899 -7.1041
# 3 18.8930 15.6134 102.2101 3.5227 0.2797 16.6473
# 4 -4.4752 2.0137 3.5227 44.6037 -0.8599 -6.5575
# 5 10.5268 -10.5899 0.2797 -0.8599 32.8020 2.7106
# 6 -4.4577 -7.1041 16.6473 -6.5575 2.7106 22.2918
#
#
#
# Elastic Compliance Matrix: (Units=1/GPa)
#
#
# Indices 1 2 3 4 5 6 
#
# 1 0.018069 -0.003426 -0.004123 0.003247 -0.007401 0.007455
# 2 -0.003426 0.014714 -0.002480 0.000059 0.005442 0.005212
# 3 -0.004123 -0.002480 0.013058 -0.003138 0.001358 -0.012454
# 4 0.003247 0.000059 -0.003138 0.024491 -0.001210 0.010363
# 5 -0.007401 0.005442 0.001358 -0.001210 0.035019 -0.005374
# 6 0.007455 0.005212 -0.012454 0.010363 -0.005374 0.061014
#
#
# Mechanical properties :
#
#
# Convention : Reuss Voigt Hill
#
# Bulk Modulus (GPa) = 38.78379 39.59984 39.19181
# Shear Modulus (GPa) = 25.63878 33.36756 29.50317
#
# Velocity S-wave (km/s) = 3.32879 3.79752 3.57086
# Velocity P-wave (km/s) = 5.61574 6.02851 5.82578
#
# Compressibility (1/GPa) = 0.02578397
#
# Stress axis : x y z
#
# Youngs Moduli (GPa) = 55.34238 67.96033 76.58366
#
# Poissons Ratio (x) = 0.23281 0.31573
# Poissons Ratio (y) = 0.18959 0.18996
# Poissons Ratio (z) = 0.22816 0.16857
#
# Static dielectric constant tensor:
#      x y z
#    x 2.009830 0.006390 -0.017010 
#    y 0.006390 2.173980 -0.167450 
#    z -0.017010 -0.167450 2.077770 
# 
# From -- ./inp_files/516166.got.cif
#   From: 2010.05.17/outbox.cif.g08.bks.cpg/sg2_259_cif.got.tgz:516166.got - 2010.06.03 11:33:40.
