data_PCOD9048466
_publ_section_title
;
Structure prediction by ZEFSAII (Michael W. Deem and Ramdas Pophale) SiO2 
 PCOD9048466
Probable space group: P -1
;
_chemical_formula_sum "Si O2"
_cell_formula_units_Z 14
_cell_length_a 11.855666
_cell_length_b 17.311062
_cell_length_c 8.855202
_cell_angle_alpha 145.936787
_cell_angle_beta 40.627482
_cell_angle_gamma 130.396711
_cell_volume 661.882852
_symmetry_space_group_name_H-M "P -1"
_symmetry_group_IT_number 2
_symmetry_cell_setting 'triclinic'
loop_
_space_group_symop_operation_xyz
x,y,z
-x,-y,-z
loop_
_atom_site_type_symbol
_atom_site_label
_atom_site_fract_x
_atom_site_fract_y
_atom_site_fract_z
Si Si1 0.723605 0.666458 0.312601
Si Si2 0.958640 0.144005 0.198921
Si Si3 0.450616 0.855711 0.396974
Si Si4 0.524775 0.559977 0.740271
Si Si5 0.556407 0.148814 0.249351
Si Si6 0.970023 0.150246 0.846684
Si Si7 0.872288 0.604280 0.377814
O O1 0.639516 0.511102 0.118644
O O2 0.559242 0.750971 0.567432
O O3 0.777673 0.674004 0.445139
O O4 0.895188 0.730949 0.161512
O O5 0.754768 0.157964 0.427231
O O6 0.037436 0.274458 0.421047
O O7 0.013012 0.141273 0.965282
O O8 0.000000 0.000000 0.000000
O O9 0.497003 0.850009 0.517826
O O10 0.500000 0.000000 0.500000
O O11 0.521923 0.723388 0.028197
O O12 0.500000 0.500000 0.500000
O O13 0.725820 0.527742 0.509507
O O14 0.765387 0.176203 0.072967
O O15 0.500000 0.000000 0.000000
O O16 0.000000 0.000000 0.500000
O O17 0.000000 0.500000 0.000000
#
# Coordination Sequence:
#
# PCOD9048466 Si02
#       7
#     2   2   2   2   2   2   2
#     4  11  25  45  72  99 146 183 238 290 356 420
#     4  11  24  42  69 104 135 180 241 289 345 424
#     4  11  26  45  72 101 141 187 239 291 351 424
#     4  10  24  45  69 101 137 184 236 286 357 415
#     4  11  26  43  70 107 142 187 237 290 359 415
#     4  11  24  44  67 105 144 187 233 293 359 411
#     4  11  25  46  71 101 139 187 233 290 361 422
#
# _framework density 21.151779999999999
#
# number of rings (size 3 to 8) (size 9 to 14) (size 15 to 20)
#    0.000    1.143    1.429    3.429   12.000    1.714 
#    0.000    2.143    0.000    0.000    0.000    0.000 
#    0.000    0.000    0.000    0.000    0.000    0.000 
#
# Total GULP energy -78125.029606 kJ/mol
# GULP energy per Si atom -5580.359258 kJ/mol
# Density = 2.110364 g / cm^3
# Si number density = 21.151780 Si / 1000 Ang^3
#
#
#
# Elastic Constant Matrix: (Units=GPa)
#
#
# Indices 1 2 3 4 5 6 
#
# 1 148.0777 52.1856 57.7963 5.3858 12.2542 -1.5230
# 2 52.1856 165.1439 55.5114 -6.2112 16.1264 23.3279
# 3 57.7963 55.5114 140.7936 8.5540 20.5253 1.2267
# 4 5.3858 -6.2112 8.5540 36.1429 5.7958 3.4210
# 5 12.2542 16.1264 20.5253 5.7958 34.9968 7.7074
# 6 -1.5230 23.3279 1.2267 3.4210 7.7074 32.3435
#
#
#
# Elastic Compliance Matrix: (Units=1/GPa)
#
#
# Indices 1 2 3 4 5 6 
#
# 1 0.008643 -0.002186 -0.002507 -0.001156 -0.000888 0.002413
# 2 -0.002186 0.008714 -0.002549 0.003173 -0.000867 -0.006420
# 3 -0.002507 -0.002549 0.009807 -0.001993 -0.003918 0.002493
# 4 -0.001156 0.003173 -0.001993 0.029901 -0.003846 -0.004514
# 5 -0.000888 -0.000867 -0.003918 -0.003846 0.033740 -0.006901
# 6 0.002413 -0.006420 0.002493 -0.004514 -0.006901 0.037690
#
#
# Mechanical properties :
#
#
# Convention : Reuss Voigt Hill
#
# Bulk Modulus (GPa) = 78.86527 87.22243 83.04385
# Shear Modulus (GPa) = 33.96638 39.93143 36.94890
#
# Velocity S-wave (km/s) = 4.01164 4.34966 4.18406
# Velocity P-wave (km/s) = 7.66968 8.15794 7.91758
#
# Compressibility (1/GPa) = 0.01267985
#
# Stress axis : x y z
#
# Youngs Moduli (GPa) = 115.70716 114.76254 101.96385
#
# Poissons Ratio (x) = 0.25084 0.25565
# Poissons Ratio (y) = 0.25291 0.25989
# Poissons Ratio (z) = 0.29011 0.29251
#
# Static dielectric constant tensor:
#      x y z
#    x 1.732750 0.101900 0.003080 
#    y 0.101900 1.607380 -0.137010 
#    z 0.003080 -0.137010 1.701130 
# 
# From -- ./inp_files/186860.got.cif
#   From: 2010.05.17/outbox.cif.g08.bks.cpg/sg2_94_cif.got.tgz:186860.got - 2010.06.03 11:33:40.
