data_PCOD9048275
_publ_section_title
;
Structure prediction by ZEFSAII (Michael W. Deem and Ramdas Pophale) SiO2 
 PCOD9048275
Probable space group: P -1
;
_chemical_formula_sum "Si O2"
_cell_formula_units_Z 16
_cell_length_a 14.414661
_cell_length_b 19.266529
_cell_length_c 8.681062
_cell_angle_alpha 62.281943
_cell_angle_beta 75.088988
_cell_angle_gamma 22.819149
_cell_volume 717.182681
_symmetry_space_group_name_H-M "P -1"
_symmetry_group_IT_number 2
_symmetry_cell_setting 'triclinic'
loop_
_space_group_symop_operation_xyz
x,y,z
-x,-y,-z
loop_
_atom_site_type_symbol
_atom_site_label
_atom_site_fract_x
_atom_site_fract_y
_atom_site_fract_z
Si Si1 0.294658 0.158992 0.728574
Si Si2 0.036498 0.636638 0.639553
Si Si3 0.888284 0.138571 0.766675
Si Si4 0.307172 0.285394 0.031091
Si Si5 0.623321 0.503572 0.560215
Si Si6 0.107379 0.628355 0.120851
Si Si7 0.590487 0.171222 0.271254
Si Si8 0.695736 0.983909 0.692816
O O1 0.162731 0.246302 0.526789
O O2 0.063648 0.312525 0.792485
O O3 0.540554 0.906853 0.903997
O O4 0.422521 0.146948 0.692083
O O5 0.192495 0.592248 0.547342
O O6 0.859978 0.800103 0.693646
O O7 0.256552 0.400217 0.828806
O O8 0.697303 0.355138 0.688447
O O9 0.692955 0.244614 0.617002
O O10 0.145017 0.985161 0.736827
O O11 0.000000 0.000000 0.000000
O O12 0.509222 0.160131 0.210415
O O13 0.000000 0.500000 0.000000
O O14 0.723877 0.461027 0.722493
O O15 0.326769 0.428864 0.112141
O O16 0.888314 0.849566 0.896670
O O17 0.628445 0.111055 0.490127
#
# Coordination Sequence:
#
# PCOD9048275 Si02
#       8
#     2   2   2   2   2   2   2   2
#     4  11  23  40  60  96 132 174 220 259 301 368
#     4  11  20  38  67  91 125 167 217 266 302 369
#     4  11  24  44  75  93 119 159 217 267 321 382
#     4  12  21  35  65  95 123 169 220 257 304 368
#     4  10  24  45  65  97 123 159 211 269 320 376
#     4  11  26  41  61  94 139 166 204 260 323 377
#     4  12  24  40  64  96 126 171 214 257 318 383
#     4  12  22  39  65  91 135 172 211 262 310 366
#
# _framework density 22.309519000000002
#
# number of rings (size 3 to 8) (size 9 to 14) (size 15 to 20)
#    0.000    0.750    5.000    3.000    0.000    4.000 
#    0.000    1.250    0.000    0.000    0.000    0.000 
#    0.000    0.000    0.000    0.000    0.000    0.000 
#
# Total GULP energy -89548.447641 kJ/mol
# GULP energy per Si atom -5596.777978 kJ/mol
# Density = 2.225874 g / cm^3
# Si number density = 22.309519 Si / 1000 Ang^3
#
#
#
# Elastic Constant Matrix: (Units=GPa)
#
#
# Indices 1 2 3 4 5 6 
#
# 1 73.2631 17.1911 46.5779 -2.3259 15.0365 -31.5285
# 2 17.1911 59.3378 10.7748 -15.2293 17.8860 -24.7881
# 3 46.5779 10.7748 166.3922 -10.7013 8.4206 -26.2217
# 4 -2.3259 -15.2293 -10.7013 26.7577 -1.3933 3.4668
# 5 15.0365 17.8860 8.4206 -1.3933 46.7834 -11.3719
# 6 -31.5285 -24.7881 -26.2217 3.4668 -11.3719 30.9703
#
#
#
# Elastic Compliance Matrix: (Units=1/GPa)
#
#
# Indices 1 2 3 4 5 6 
#
# 1 0.027292 0.005573 -0.003377 0.000376 -0.003460 0.028072
# 2 0.005573 0.033904 0.002457 0.016449 -0.007326 0.030359
# 3 -0.003377 0.002457 0.007769 0.003603 -0.000002 0.004702
# 4 0.000376 0.016449 0.003603 0.046721 -0.003188 0.010199
# 5 -0.003460 -0.007326 -0.000002 -0.003188 0.025252 0.000242
# 6 0.028072 0.030359 0.004702 0.010199 0.000242 0.088094
#
#
# Mechanical properties :
#
#
# Convention : Reuss Voigt Hill
#
# Bulk Modulus (GPa) = 12.77625 49.78673 31.28149
# Shear Modulus (GPa) = 20.34036 35.86555 28.10295
#
# Velocity S-wave (km/s) = 3.02277 4.01388 3.55305
# Velocity P-wave (km/s) = 4.23345 6.62167 5.55736
#
# Compressibility (1/GPa) = 0.07827025
#
# Stress axis : x y z
#
# Youngs Moduli (GPa) = 36.64121 29.49487 128.71543
#
# Poissons Ratio (x) = -0.16437 0.43474
# Poissons Ratio (y) = -0.20419 -0.31631
# Poissons Ratio (z) = 0.12376 -0.07248
#
# Static dielectric constant tensor:
#      x y z
#    x 1.835500 0.026380 0.015430 
#    y 0.026380 1.801130 -0.004320 
#    z 0.015430 -0.004320 1.836650 
# 
# From -- ./inp_files/201277.got.cif
#   From: 2010.05.17/outbox.cif.g08.bks.cpg/sg2_101_cif.got.tgz:201277.got - 2010.06.03 11:33:40.
