data_PCOD9048963
_publ_section_title
;
Structure prediction by ZEFSAII (Michael W. Deem and Ramdas Pophale) SiO2 
 PCOD9048963
Probable space group: P -1
;
_chemical_formula_sum "Si O2"
_cell_formula_units_Z 16
_cell_length_a 14.594488
_cell_length_b 8.948916
_cell_length_c 9.231637
_cell_angle_alpha 49.736840
_cell_angle_beta 61.224654
_cell_angle_gamma 93.331820
_cell_volume 672.421247
_symmetry_space_group_name_H-M "P -1"
_symmetry_group_IT_number 2
_symmetry_cell_setting 'triclinic'
loop_
_space_group_symop_operation_xyz
x,y,z
-x,-y,-z
loop_
_atom_site_type_symbol
_atom_site_label
_atom_site_fract_x
_atom_site_fract_y
_atom_site_fract_z
Si Si1 0.740168 0.021554 0.173009
Si Si2 0.279770 0.557861 0.174609
Si Si3 0.646026 0.627230 0.268638
Si Si4 0.916261 0.939450 0.463216
Si Si5 0.322083 0.096383 0.210007
Si Si6 0.992145 0.338647 0.970142
Si Si7 0.521413 0.812395 0.681008
Si Si8 0.260606 0.615461 0.472118
O O1 0.863044 0.194634 0.067672
O O2 0.737895 0.857705 0.151960
O O3 0.626509 0.834009 0.481672
O O4 0.713771 0.203795 0.005754
O O5 0.149684 0.325975 0.372284
O O6 0.295752 0.541502 0.343687
O O7 0.386448 0.585090 0.969160
O O8 0.500000 0.500000 0.500000
O O9 0.686939 0.449035 0.388867
O O10 0.654565 0.711648 0.046017
O O11 0.806035 0.977458 0.564769
O O12 0.000193 0.129679 0.160640
O O13 0.000000 0.000000 0.500000
O O14 0.416864 0.135393 0.240470
O O15 0.313672 0.887526 0.257397
O O16 0.000000 0.500000 0.000000
O O17 0.111639 0.489217 0.682773
O O18 0.500000 0.000000 0.500000
#
# Coordination Sequence:
#
# PCOD9048963 Si02
#       8
#     2   2   2   2   2   2   2   2
#     4  11  24  48  73 111 152 199 251 320 383 450
#     4  11  26  45  75 110 147 199 255 311 385 451
#     4  12  29  46  76 115 156 200 257 313 389 460
#     4  12  26  45  72 109 147 200 258 305 382 463
#     4  12  26  49  76 111 154 199 250 317 383 453
#     4  12  24  47  74 104 149 199 256 314 380 451
#     4  10  24  45  78 105 149 196 253 307 384 450
#     4  12  27  48  77 109 154 202 250 319 383 451
#
# _framework density 23.794609000000001
#
# number of rings (size 3 to 8) (size 9 to 14) (size 15 to 20)
#    0.000    0.500    3.750    3.000    5.250    7.000 
#    0.000    0.000    0.000    0.000    0.000    0.000 
#    0.000    0.000    0.000    0.000    0.000    0.000 
#
# Total GULP energy -89453.152832 kJ/mol
# GULP energy per Si atom -5590.822052 kJ/mol
# Density = 2.374045 g / cm^3
# Si number density = 23.794609 Si / 1000 Ang^3
#
#
#
# Elastic Constant Matrix: (Units=GPa)
#
#
# Indices 1 2 3 4 5 6 
#
# 1 101.4439 29.4902 27.1320 8.9873 15.9148 17.0249
# 2 29.4902 109.9959 35.9861 4.0298 10.2697 9.3531
# 3 27.1320 35.9861 105.4382 13.8715 24.0066 11.4965
# 4 8.9873 4.0298 13.8715 29.9365 5.8924 5.2230
# 5 15.9148 10.2697 24.0066 5.8924 33.7282 9.3577
# 6 17.0249 9.3531 11.4965 5.2230 9.3577 31.8957
#
#
#
# Elastic Compliance Matrix: (Units=1/GPa)
#
#
# Indices 1 2 3 4 5 6 
#
# 1 0.012086 -0.002212 -0.001038 -0.001537 -0.002815 -0.004351
# 2 -0.002212 0.010751 -0.003128 0.000817 0.000136 -0.001019
# 3 -0.001038 -0.003128 0.012966 -0.003810 -0.006973 -0.000533
# 4 -0.001537 0.000817 -0.003810 0.036554 -0.002264 -0.003368
# 5 -0.002815 0.000136 -0.006973 -0.002264 0.038198 -0.006860
# 6 -0.004351 -0.001019 -0.000533 -0.003368 -0.006860 0.036729
#
#
# Mechanical properties :
#
#
# Convention : Reuss Voigt Hill
#
# Bulk Modulus (GPa) = 43.38564 55.78831 49.58697
# Shear Modulus (GPa) = 29.81132 34.06340 31.93736
#
# Velocity S-wave (km/s) = 3.54342 3.78770 3.66759
# Velocity P-wave (km/s) = 5.91727 6.52883 6.23055
#
# Compressibility (1/GPa) = 0.02304910
#
# Stress axis : x y z
#
# Youngs Moduli (GPa) = 82.73919 93.01060 77.12638
#
# Poissons Ratio (x) = 0.20572 0.08003
# Poissons Ratio (y) = 0.18300 0.24123
# Poissons Ratio (z) = 0.08585 0.29091
#
# Static dielectric constant tensor:
#      x y z
#    x 1.970840 0.051380 0.033410 
#    y 0.051380 2.000340 0.067440 
#    z 0.033410 0.067440 1.968690 
# 
# From -- ./inp_files/297399.got.cif
#   From: 2010.05.17/outbox.cif.g08.bks.cpg/sg2_149_cif.got.tgz:297399.got - 2010.06.03 11:33:40.
