data_PCOD9048240
_publ_section_title
;
Structure prediction by ZEFSAII (Michael W. Deem and Ramdas Pophale) SiO2 
 PCOD9048240
Probable space group: P -1
;
_chemical_formula_sum "Si O2"
_cell_formula_units_Z 14
_cell_length_a 9.591639
_cell_length_b 10.963925
_cell_length_c 9.574750
_cell_angle_alpha 57.565440
_cell_angle_beta 136.193399
_cell_angle_gamma 113.587072
_cell_volume 588.126003
_symmetry_space_group_name_H-M "P -1"
_symmetry_group_IT_number 2
_symmetry_cell_setting 'triclinic'
loop_
_space_group_symop_operation_xyz
x,y,z
-x,-y,-z
loop_
_atom_site_type_symbol
_atom_site_label
_atom_site_fract_x
_atom_site_fract_y
_atom_site_fract_z
Si Si1 0.985488 0.675324 0.881271
Si Si2 0.424458 0.848693 0.112408
Si Si3 0.017504 0.844169 0.543091
Si Si4 0.353750 0.954932 0.294531
Si Si5 0.580799 0.308291 0.054832
Si Si6 0.044397 0.187078 0.798974
Si Si7 0.264461 0.374564 0.012730
O O1 0.191523 0.775202 0.994231
O O2 0.307528 0.538993 0.980435
O O3 0.000000 0.500000 0.000000
O O4 0.823228 0.706511 0.865286
O O5 0.918684 0.729017 0.648421
O O6 0.460347 0.882507 0.281564
O O7 0.518130 0.735223 0.138517
O O8 0.500000 0.000000 0.000000
O O9 0.252876 0.809670 0.726081
O O10 0.936807 0.838105 0.334230
O O11 0.000000 0.000000 0.500000
O O12 0.500000 0.000000 0.500000
O O13 0.180495 0.849325 0.294479
O O14 0.212156 0.084166 0.053861
O O15 0.457998 0.324259 0.098338
O O16 0.095088 0.348216 0.788754
#
# Coordination Sequence:
#
# PCOD9048240 Si02
#       7
#     2   2   2   2   2   2   2
#     4  11  22  47  79 112 156 213 268 327 400 484
#     4  11  22  42  73 113 150 202 259 324 398 467
#     4  11  25  45  75 117 157 206 267 332 409 468
#     4  11  26  45  72 110 158 206 265 330 401 484
#     4  10  24  44  80 111 159 211 257 342 395 474
#     4  11  25  44  71 114 152 208 262 328 410 474
#     4  11  22  46  75 114 159 202 278 324 393 487
#
# _framework density 23.804423
#
# number of rings (size 3 to 8) (size 9 to 14) (size 15 to 20)
#    0.000    1.143    4.286    2.571    8.000    0.571 
#    0.000    0.714    0.000    2.571    0.000    0.000 
#    0.000    0.000    0.000    0.000    0.000    0.000 
#
# Total GULP energy -78094.183062 kJ/mol
# GULP energy per Si atom -5578.155933 kJ/mol
# Density = 2.375024 g / cm^3
# Si number density = 23.804423 Si / 1000 Ang^3
#
#
#
# Elastic Constant Matrix: (Units=GPa)
#
#
# Indices 1 2 3 4 5 6 
#
# 1 171.1344 73.3326 67.7598 0.7915 -24.9468 -7.3805
# 2 73.3326 181.1033 55.9272 32.7653 -20.8349 -2.7053
# 3 67.7598 55.9272 114.6674 31.4285 -22.8865 -11.6770
# 4 0.7915 32.7653 31.4285 40.1123 -8.6642 -3.6648
# 5 -24.9468 -20.8349 -22.8865 -8.6642 47.1213 11.5654
# 6 -7.3805 -2.7053 -11.6770 -3.6648 11.5654 55.8464
#
#
#
# Elastic Compliance Matrix: (Units=1/GPa)
#
#
# Indices 1 2 3 4 5 6 
#
# 1 0.009872 -0.003295 -0.005841 0.007573 0.002340 -0.000064
# 2 -0.003295 0.008140 -0.000208 -0.006319 0.000753 -0.000655
# 3 -0.005841 -0.000208 0.016044 -0.011703 0.002121 0.001365
# 4 0.007573 -0.006319 -0.011703 0.039735 0.002768 0.000282
# 5 0.002340 0.000753 0.002121 0.002768 0.025385 -0.004286
# 6 -0.000064 -0.000655 0.001365 0.000282 -0.004286 0.019058
#
#
# Mechanical properties :
#
#
# Convention : Reuss Voigt Hill
#
# Bulk Modulus (GPa) = 65.07283 95.66046 80.36665
# Shear Modulus (GPa) = 35.20034 46.60835 40.90435
#
# Velocity S-wave (km/s) = 3.84960 4.42970 4.14980
# Velocity P-wave (km/s) = 6.86695 8.15084 7.53629
#
# Compressibility (1/GPa) = 0.01536740
#
# Stress axis : x y z
#
# Youngs Moduli (GPa) = 101.30072 122.84802 62.32902
#
# Poissons Ratio (x) = 0.40481 0.36408
# Poissons Ratio (y) = 0.33381 0.01294
# Poissons Ratio (z) = 0.59173 0.02550
#
# Static dielectric constant tensor:
#      x y z
#    x 1.936230 0.000400 0.027970 
#    y 0.000400 1.951630 -0.008990 
#    z 0.027970 -0.008990 1.972410 
# 
# From -- ./inp_files/187013.got.cif
#   From: 2010.05.17/outbox.cif.g08.bks.cpg/sg2_94_cif.got.tgz:187013.got - 2010.06.03 11:33:40.
