data_PCOD9048283
_publ_section_title
;
Structure prediction by ZEFSAII (Michael W. Deem and Ramdas Pophale) SiO2 
 PCOD9048283
Probable space group: P -1
;
_chemical_formula_sum "Si O2"
_cell_formula_units_Z 14
_cell_length_a 5.710744
_cell_length_b 15.632339
_cell_length_c 9.481189
_cell_angle_alpha 85.887223
_cell_angle_beta 106.191183
_cell_angle_gamma 57.812282
_cell_volume 662.165744
_symmetry_space_group_name_H-M "P -1"
_symmetry_group_IT_number 2
_symmetry_cell_setting 'triclinic'
loop_
_space_group_symop_operation_xyz
x,y,z
-x,-y,-z
loop_
_atom_site_type_symbol
_atom_site_label
_atom_site_fract_x
_atom_site_fract_y
_atom_site_fract_z
Si Si1 0.635496 0.056749 0.441007
Si Si2 0.738903 0.527115 0.063337
Si Si3 0.804800 0.471665 0.389788
Si Si4 0.578209 0.743375 0.098865
Si Si5 0.163134 0.668773 0.354853
Si Si6 0.737768 0.160800 0.673994
Si Si7 0.357397 0.954983 0.880468
O O1 0.554584 0.150424 0.522478
O O2 0.528045 0.072452 0.259162
O O3 0.500000 0.000000 0.500000
O O4 0.000000 0.000000 0.500000
O O5 0.884936 0.465499 0.241303
O O6 0.560366 0.652195 0.044355
O O7 0.500000 0.500000 0.000000
O O8 0.000000 0.500000 0.000000
O O9 0.468131 0.571072 0.350409
O O10 0.860705 0.372623 0.493200
O O11 0.000000 0.500000 0.500000
O O12 0.450610 0.774059 0.230850
O O13 0.922461 0.694654 0.192181
O O14 0.423664 0.849427 0.971464
O O15 0.136351 0.774951 0.367180
O O16 0.007403 0.047806 0.792293
O O17 0.500000 0.000000 0.000000
#
# Coordination Sequence:
#
# PCOD9048283 Si02
#       7
#     2   2   2   2   2   2   2
#     4  10  24  45  66 102 143 187 243 298 345 418
#     4  12  28  48  72 107 151 189 241 314 375 434
#     4  11  23  45  74  99 137 191 245 301 362 439
#     4  12  24  45  70 108 145 194 242 301 364 438
#     4  11  22  41  76 103 139 184 253 298 364 425
#     4  11  23  43  76 101 145 194 242 299 353 438
#     4  11  23  43  74 106 148 195 236 289 368 438
#
# _framework density 21.142741000000001
#
# number of rings (size 3 to 8) (size 9 to 14) (size 15 to 20)
#    0.000    0.857    4.286    2.143    4.000    2.286 
#    2.571    0.000    0.000    0.000    0.000    0.000 
#    0.000    0.000    0.000    0.000    0.000    0.000 
#
# Total GULP energy -78125.050020 kJ/mol
# GULP energy per Si atom -5580.360716 kJ/mol
# Density = 2.109462 g / cm^3
# Si number density = 21.142741 Si / 1000 Ang^3
#
#
#
# Elastic Constant Matrix: (Units=GPa)
#
#
# Indices 1 2 3 4 5 6 
#
# 1 110.3531 51.5685 51.9534 8.1313 -9.4941 22.0819
# 2 51.5685 133.7984 49.9727 3.6138 -0.9087 29.4570
# 3 51.9534 49.9727 141.0831 18.8533 -17.0538 23.2589
# 4 8.1313 3.6138 18.8533 49.2100 3.1938 -0.1111
# 5 -9.4941 -0.9087 -17.0538 3.1938 47.1188 3.1929
# 6 22.0819 29.4570 23.2589 -0.1111 3.1929 47.6144
#
#
#
# Elastic Compliance Matrix: (Units=1/GPa)
#
#
# Indices 1 2 3 4 5 6 
#
# 1 0.012595 -0.003217 -0.002733 -0.000916 0.001727 -0.002634
# 2 -0.003217 0.010289 -0.002028 0.000607 -0.000967 -0.003816
# 3 -0.002733 -0.002028 0.010148 -0.003521 0.003503 -0.002678
# 4 -0.000916 0.000607 -0.003521 0.021981 -0.003074 0.002026
# 5 0.001727 -0.000967 0.003503 -0.003074 0.023265 -0.003482
# 6 -0.002634 -0.003816 -0.002678 0.002026 -0.003482 0.026131
#
#
# Mechanical properties :
#
#
# Convention : Reuss Voigt Hill
#
# Bulk Modulus (GPa) = 58.56726 76.91376 67.74051
# Shear Modulus (GPa) = 39.66437 44.23796 41.95116
#
# Velocity S-wave (km/s) = 4.33601 4.57918 4.45925
# Velocity P-wave (km/s) = 7.26836 8.02595 7.65653
#
# Compressibility (1/GPa) = 0.01707438
#
# Stress axis : x y z
#
# Youngs Moduli (GPa) = 79.39599 97.19378 98.53673
#
# Poissons Ratio (x) = 0.31270 0.26932
# Poissons Ratio (y) = 0.25544 0.19988
# Poissons Ratio (z) = 0.21700 0.19716
#
# Static dielectric constant tensor:
#      x y z
#    x 1.776290 0.013280 -0.056270 
#    y 0.013280 1.765340 0.054850 
#    z -0.056270 0.054850 1.757910 
# 
# From -- ./inp_files/37184.got.cif
#   From: 2010.05.17/outbox.cif.g08.bks.cpg/sg2_19_cif.got.tgz:37184.got - 2010.06.03 11:33:40.
