data_PCOD9048105
_publ_section_title
;
Structure prediction by ZEFSAII (Michael W. Deem and Ramdas Pophale) SiO2 
 PCOD9048105
Probable space group: P -1
;
_chemical_formula_sum "Si O2"
_cell_formula_units_Z 16
_cell_length_a 15.920244
_cell_length_b 6.544078
_cell_length_c 11.416232
_cell_angle_alpha 91.618163
_cell_angle_beta 122.298605
_cell_angle_gamma 125.109787
_cell_volume 719.102464
_symmetry_space_group_name_H-M "P -1"
_symmetry_group_IT_number 2
_symmetry_cell_setting 'triclinic'
loop_
_space_group_symop_operation_xyz
x,y,z
-x,-y,-z
loop_
_atom_site_type_symbol
_atom_site_label
_atom_site_fract_x
_atom_site_fract_y
_atom_site_fract_z
Si Si1 0.786355 0.679617 0.871147
Si Si2 0.334199 0.379772 0.722066
Si Si3 0.771179 0.059235 0.556204
Si Si4 0.988461 0.286298 0.900847
Si Si5 0.643889 0.831677 0.886671
Si Si6 0.144735 0.495054 0.560015
Si Si7 0.365057 0.905258 0.344719
Si Si8 0.150356 0.856621 0.749020
O O1 0.666258 0.637562 0.843718
O O2 0.737318 0.435888 0.740538
O O3 0.881600 0.982958 0.883617
O O4 0.879435 0.668671 0.022845
O O5 0.500426 0.636342 0.848919
O O6 0.246700 0.460089 0.667527
O O7 0.288622 0.218695 0.560743
O O8 0.272026 0.142840 0.770811
O O9 0.922703 0.252036 0.728019
O O10 0.777488 0.252913 0.473076
O O11 0.680473 0.986229 0.598505
O O12 0.000000 0.500000 0.000000
O O13 0.629975 0.981605 0.776683
O O14 0.783514 0.065814 0.071670
O O15 0.122542 0.600684 0.660682
O O16 0.994308 0.229961 0.384901
O O17 0.500000 0.000000 0.500000
#
# Coordination Sequence:
#
# PCOD9048105 Si02
#       8
#     2   2   2   2   2   2   2   2
#     4  11  25  40  66 100 137 186 220 275 340 397
#     4  11  25  45  68 100 129 188 226 284 345 401
#     4  11  24  39  68  98 140 171 227 275 335 418
#     4  11  23  42  64  99 141 179 227 278 331 406
#     4  12  26  43  70 100 141 180 232 279 340 411
#     4  10  24  44  73  96 134 177 224 290 353 392
#     4  12  26  43  65 101 147 183 222 272 340 416
#     4  10  25  47  67  99 131 172 240 291 334 407
#
# _framework density 22.249957999999999
#
# number of rings (size 3 to 8) (size 9 to 14) (size 15 to 20)
#    0.000    1.000    2.500    2.250    8.750    3.500 
#    0.000    0.000    0.000    0.000    0.000    0.000 
#    0.000    0.000    0.000    0.000    0.000    0.000 
#
# Total GULP energy -89400.199507 kJ/mol
# GULP energy per Si atom -5587.512469 kJ/mol
# Density = 2.219932 g / cm^3
# Si number density = 22.249958 Si / 1000 Ang^3
#
#
#
# Elastic Constant Matrix: (Units=GPa)
#
#
# Indices 1 2 3 4 5 6 
#
# 1 83.0094 14.1929 11.1103 -13.8202 27.2788 -12.4596
# 2 14.1929 58.3070 -1.5853 -11.7800 1.2264 -13.9728
# 3 11.1103 -1.5853 83.9958 -21.9046 6.1073 -19.6168
# 4 -13.8202 -11.7800 -21.9046 27.5139 -0.0891 1.4339
# 5 27.2788 1.2264 6.1073 -0.0891 36.3015 -2.1884
# 6 -12.4596 -13.9728 -19.6168 1.4339 -2.1884 36.2864
#
#
#
# Elastic Compliance Matrix: (Units=1/GPa)
#
#
# Indices 1 2 3 4 5 6 
#
# 1 0.019531 -0.000305 0.003187 0.011807 -0.014754 0.006955
# 2 -0.000305 0.023424 0.007347 0.015084 -0.001024 0.012229
# 3 0.003187 0.007347 0.020567 0.020378 -0.005214 0.013922
# 4 0.011807 0.015084 0.020378 0.064000 -0.011589 0.017651
# 5 -0.014754 -0.001024 -0.005214 -0.011589 0.039188 -0.005458
# 6 0.006955 0.012229 0.013922 0.017651 -0.005458 0.041156
#
#
# Mechanical properties :
#
#
# Convention : Reuss Voigt Hill
#
# Bulk Modulus (GPa) = 11.90773 30.30533 21.10653
# Shear Modulus (GPa) = 23.21244 33.45997 28.33621
#
# Velocity S-wave (km/s) = 3.23345 3.88212 3.57254
# Velocity P-wave (km/s) = 4.39360 5.80900 5.15015
#
# Compressibility (1/GPa) = 0.08397904
#
# Stress axis : x y z
#
# Youngs Moduli (GPa) = 51.20190 42.69093 48.62095
#
# Poissons Ratio (x) = 0.01302 -0.15495
# Poissons Ratio (y) = 0.01561 -0.35720
# Poissons Ratio (z) = -0.16318 -0.31363
#
# Static dielectric constant tensor:
#      x y z
#    x 1.974930 -0.010710 0.055060 
#    y -0.010710 1.826080 0.001990 
#    z 0.055060 0.001990 1.997140 
# 
# From -- ./inp_files/459535.got.cif
#   From: 2010.05.17/outbox.cif.g08.bks.cpg/sg2_230_cif.got.tgz:459535.got - 2010.06.03 11:33:40.
