data_PCOD9048818
_publ_section_title
;
Structure prediction by ZEFSAII (Michael W. Deem and Ramdas Pophale) SiO2 
 PCOD9048818
Probable space group: P -1
;
_chemical_formula_sum "Si O2"
_cell_formula_units_Z 14
_cell_length_a 10.153172
_cell_length_b 9.972087
_cell_length_c 5.425271
_cell_angle_alpha 96.719832
_cell_angle_beta 79.164590
_cell_angle_gamma 110.656702
_cell_volume 504.053127
_symmetry_space_group_name_H-M "P -1"
_symmetry_group_IT_number 2
_symmetry_cell_setting 'triclinic'
loop_
_space_group_symop_operation_xyz
x,y,z
-x,-y,-z
loop_
_atom_site_type_symbol
_atom_site_label
_atom_site_fract_x
_atom_site_fract_y
_atom_site_fract_z
Si Si1 0.371231 0.045718 0.648635
Si Si2 0.960054 0.841779 0.106991
Si Si3 0.438640 0.701404 0.913075
Si Si4 0.733331 0.107421 0.835780
Si Si5 0.768608 0.448843 0.405817
Si Si6 0.302675 0.267618 0.489454
Si Si7 0.819108 0.538404 0.908498
O O1 0.323019 0.990877 0.924676
O O2 0.500000 0.000000 0.500000
O O3 0.383603 0.211597 0.663301
O O4 0.265130 0.970949 0.440946
O O5 0.859755 0.818237 0.380504
O O6 0.875347 0.710801 0.923394
O O7 0.103657 0.814956 0.130728
O O8 0.000000 0.000000 0.000000
O O9 0.375845 0.803924 0.114508
O O10 0.350067 0.693672 0.681213
O O11 0.600634 0.742187 0.780913
O O12 0.353701 0.542589 0.014640
O O13 0.693897 0.570228 0.478064
O O14 0.868262 0.495500 0.143322
O O15 0.846454 0.462305 0.638322
#
# Coordination Sequence:
#
# PCOD9048818 Si02
#       7
#     2   2   2   2   2   2   2
#     4  12  27  48  74 109 142 191 245 300 358 424
#     4  11  25  47  72 107 150 193 239 294 365 434
#     4  10  24  45  73 104 142 191 242 300 352 424
#     4  12  28  46  73 106 149 190 239 295 366 431
#     4   9  22  42  68 107 136 183 235 302 355 411
#     4  11  23  45  76 103 145 184 248 296 360 417
#     4   9  23  43  68 102 144 185 239 292 357 419
#
# _framework density 27.774849
#
# number of rings (size 3 to 8) (size 9 to 14) (size 15 to 20)
#    0.857    0.571    2.857    0.857    4.000    4.000 
#    0.000    0.714    0.000    0.000    0.000    0.000 
#    0.000    0.000    0.000    0.000    0.000    0.000 
#
# Total GULP energy -78088.470410 kJ/mol
# GULP energy per Si atom -5577.747886 kJ/mol
# Density = 2.771163 g / cm^3
# Si number density = 27.774849 Si / 1000 Ang^3
#
#
#
# Elastic Constant Matrix: (Units=GPa)
#
#
# Indices 1 2 3 4 5 6 
#
# 1 118.0631 9.3391 33.7317 -0.9842 -38.8537 4.7171
# 2 9.3391 104.4663 40.9256 -5.3664 -4.7042 21.0328
# 3 33.7317 40.9256 179.3534 14.4166 5.7226 14.6870
# 4 -0.9842 -5.3664 14.4166 57.3121 1.1695 0.0416
# 5 -38.8537 -4.7042 5.7226 1.1695 61.7862 -6.8699
# 6 4.7171 21.0328 14.6870 0.0416 -6.8699 36.6376
#
#
#
# Elastic Compliance Matrix: (Units=1/GPa)
#
#
# Indices 1 2 3 4 5 6 
#
# 1 0.011711 0.000187 -0.002621 0.000720 0.007705 0.000880
# 2 0.000187 0.011760 -0.002406 0.001702 0.000569 -0.005706
# 3 -0.002621 -0.002406 0.006988 -0.001974 -0.002616 -0.001571
# 4 0.000720 0.001702 -0.001974 0.018109 0.000397 -0.000225
# 5 0.007705 0.000569 -0.002616 0.000397 0.021731 0.003804
# 6 0.000880 -0.005706 -0.001571 -0.000225 0.003804 0.031800
#
#
# Mechanical properties :
#
#
# Convention : Reuss Voigt Hill
#
# Bulk Modulus (GPa) = 48.12705 63.31949 55.72327
# Shear Modulus (GPa) = 42.12066 52.33960 47.23013
#
# Velocity S-wave (km/s) = 3.89846 4.34570 4.12814
# Velocity P-wave (km/s) = 6.13426 6.93016 6.54432
#
# Compressibility (1/GPa) = 0.02077834
#
# Stress axis : x y z
#
# Youngs Moduli (GPa) = 85.39213 85.03123 143.09563
#
# Poissons Ratio (x) = -0.01587 0.37503
# Poissons Ratio (y) = -0.01594 0.34434
# Poissons Ratio (z) = 0.22380 0.20462
#
# Static dielectric constant tensor:
#      x y z
#    x 2.152250 0.031700 0.100330 
#    y 0.031700 2.265850 0.009380 
#    z 0.100330 0.009380 2.241360 
# 
# From -- ./inp_files/71108.got.cif
#   From: 2010.05.17/outbox.cif.g08.bks.cpg/sg2_36_cif.got.tgz:71108.got - 2010.06.03 11:33:40.
