data_PCOD9048819
_publ_section_title
;
Structure prediction by ZEFSAII (Michael W. Deem and Ramdas Pophale) SiO2 
 PCOD9048819
Probable space group: P -1
;
_chemical_formula_sum "Si O2"
_cell_formula_units_Z 16
_cell_length_a 12.827277
_cell_length_b 18.677674
_cell_length_c 8.711139
_cell_angle_alpha 149.523657
_cell_angle_beta 133.677291
_cell_angle_gamma 38.380509
_cell_volume 656.465574
_symmetry_space_group_name_H-M "P -1"
_symmetry_group_IT_number 2
_symmetry_cell_setting 'triclinic'
loop_
_space_group_symop_operation_xyz
x,y,z
-x,-y,-z
loop_
_atom_site_type_symbol
_atom_site_label
_atom_site_fract_x
_atom_site_fract_y
_atom_site_fract_z
Si Si1 0.120974 0.964380 0.198324
Si Si2 0.002390 0.328949 0.788212
Si Si3 0.639346 0.023490 0.094080
Si Si4 0.560044 0.124404 0.841604
Si Si5 0.145749 0.496121 0.742531
Si Si6 0.273505 0.426809 0.242224
Si Si7 0.546856 0.629629 0.349226
Si Si8 0.019681 0.842062 0.145858
O O1 0.054297 0.144059 0.539482
O O2 0.301080 0.898873 0.183680
O O3 0.092940 0.848279 0.067607
O O4 0.000000 0.000000 0.000000
O O5 0.871830 0.394703 0.635060
O O6 0.177365 0.324304 0.947259
O O7 0.903818 0.478549 0.085032
O O8 0.613148 0.190010 0.453664
O O9 0.830215 0.874259 0.019311
O O10 0.612814 0.067574 0.967668
O O11 0.500000 0.000000 0.000000
O O12 0.500000 0.000000 0.500000
O O13 0.428504 0.319949 0.087964
O O14 0.329436 0.356898 0.622658
O O15 0.000000 0.500000 0.500000
O O16 0.138308 0.666042 0.012449
O O17 0.348095 0.423063 0.479751
O O18 0.500000 0.500000 0.000000
O O19 0.000000 0.000000 0.500000
#
# Coordination Sequence:
#
# PCOD9048819 Si02
#       8
#     2   2   2   2   2   2   2   2
#     4  12  26  46  71 105 148 192 243 304 366 437
#     4  11  24  46  71 105 146 189 247 300 359 444
#     4  11  26  46  71 104 142 186 242 298 358 437
#     4  11  24  45  72 104 143 188 247 298 361 440
#     4  12  25  45  74 104 140 193 247 292 363 443
#     4  10  24  45  73 104 143 192 241 302 362 435
#     4  11  25  46  69 105 147 181 236 302 364 430
#     4  12  26  45  72 102 143 190 237 300 366 419
#
# _framework density 24.372945999999999
#
# number of rings (size 3 to 8) (size 9 to 14) (size 15 to 20)
#    0.000    0.750    5.000    1.500    5.250    2.000 
#    2.250    1.250    0.000    0.000    0.000    0.000 
#    0.000    0.000    0.000    0.000    0.000    0.000 
#
# Total GULP energy -89438.745438 kJ/mol
# GULP energy per Si atom -5589.921590 kJ/mol
# Density = 2.431747 g / cm^3
# Si number density = 24.372946 Si / 1000 Ang^3
#
#
#
# Elastic Constant Matrix: (Units=GPa)
#
#
# Indices 1 2 3 4 5 6 
#
# 1 119.8036 16.1323 16.3542 -1.8013 -13.4143 -29.0411
# 2 16.1323 69.5640 10.4677 4.5511 -3.6144 -18.1796
# 3 16.3542 10.4677 107.6299 3.7824 -11.7899 -13.1379
# 4 -1.8013 4.5511 3.7824 32.9654 0.3234 -1.2464
# 5 -13.4143 -3.6144 -11.7899 0.3234 42.8061 5.5630
# 6 -29.0411 -18.1796 -13.1379 -1.2464 5.5630 42.5231
#
#
#
# Elastic Compliance Matrix: (Units=1/GPa)
#
#
# Indices 1 2 3 4 5 6 
#
# 1 0.010300 -0.000595 -0.000523 0.000924 0.002200 0.006358
# 2 -0.000595 0.016403 -0.000640 -0.001987 0.000216 0.006322
# 3 -0.000523 -0.000640 0.009976 -0.001027 0.002261 0.002126
# 4 0.000924 -0.001987 -0.001027 0.030798 -0.000449 0.000426
# 5 0.002200 0.000216 0.002261 -0.000449 0.024821 -0.000967
# 6 0.006358 0.006322 0.002126 0.000426 -0.000967 0.031357
#
#
# Mechanical properties :
#
#
# Convention : Reuss Voigt Hill
#
# Bulk Modulus (GPa) = 30.15222 42.54510 36.34866
# Shear Modulus (GPa) = 36.17331 40.59514 38.38423
#
# Velocity S-wave (km/s) = 3.85666 4.08558 3.97277
# Velocity P-wave (km/s) = 5.67713 6.30474 5.99915
#
# Compressibility (1/GPa) = 0.03316505
#
# Stress axis : x y z
#
# Youngs Moduli (GPa) = 97.08908 60.96491 100.24054
#
# Poissons Ratio (x) = 0.03624 0.05238
# Poissons Ratio (y) = 0.05772 0.06413
# Poissons Ratio (z) = 0.05074 0.03900
#
# Static dielectric constant tensor:
#      x y z
#    x 1.887730 0.022490 0.020980 
#    y 0.022490 1.950650 -0.038520 
#    z 0.020980 -0.038520 1.923310 
# 
# From -- ./inp_files/283522.got.cif
#   From: 2010.05.17/outbox.cif.g08.bks.cpg/sg2_142_cif.got.tgz:283522.got - 2010.06.03 11:33:40.
