data_PCOD9048153
_publ_section_title
;
Structure prediction by ZEFSAII (Michael W. Deem and Ramdas Pophale) SiO2 
 PCOD9048153
Probable space group: P -1
;
_chemical_formula_sum "Si O2"
_cell_formula_units_Z 13
_cell_length_a 10.481772
_cell_length_b 29.455408
_cell_length_c 29.006264
_cell_angle_alpha 170.149843
_cell_angle_beta 25.615122
_cell_angle_gamma 155.633691
_cell_volume 630.941706
_symmetry_space_group_name_H-M "P -1"
_symmetry_group_IT_number 2
_symmetry_cell_setting 'triclinic'
loop_
_space_group_symop_operation_xyz
x,y,z
-x,-y,-z
loop_
_atom_site_type_symbol
_atom_site_label
_atom_site_fract_x
_atom_site_fract_y
_atom_site_fract_z
Si Si1 0.672944 0.941464 0.574309
Si Si2 0.597345 0.528862 0.429348
Si Si3 0.594245 0.401259 0.919543
Si Si4 0.320383 0.823106 0.479442
Si Si5 0.304109 0.546944 0.856009
Si Si6 0.500000 0.000000 0.000000
Si Si7 0.776285 0.686856 0.757481
O O1 0.416399 0.922784 0.600074
O O2 0.616160 0.666074 0.347673
O O3 0.000000 0.000000 0.500000
O O4 0.686894 0.185525 0.849244
O O5 0.548060 0.267609 0.218036
O O6 0.415052 0.402860 0.316650
O O7 0.961785 0.656362 0.427192
O O8 0.500238 0.783356 0.738476
O O9 0.954506 0.422265 0.826137
O O10 0.405807 0.088763 0.683567
O O11 0.500000 0.500000 0.000000
O O12 0.518028 0.616798 0.195668
O O13 0.541611 0.625490 0.815425
O O14 0.000000 0.500000 0.500000
O O15 0.000000 0.000000 0.000000
#
# Coordination Sequence:
#
# PCOD9048153 Si02
#       7
#     2   2   2   2   2   1   2
#     4  12  23  43  68 100 144 177 232 283 344 423
#     4  11  25  47  71 104 141 176 245 287 356 416
#     4  12  24  41  66  98 137 177 225 269 354 421
#     4  12  25  41  69 100 136 179 214 295 342 415
#     4  12  25  44  70  99 138 188 232 284 353 418
#     4  10  24  44  74  96 140 184 228 302 346 400
#     4  12  28  48  72 100 141 188 241 298 346 413
#
# _framework density 20.604123000000001
#
# number of rings (size 3 to 8) (size 9 to 14) (size 15 to 20)
#    0.000    0.308    3.077    5.538    0.000    9.846 
#    0.000    0.000    0.000    0.000    0.000    0.000 
#    0.000    0.000    0.000    0.000    0.000    0.000 
#
# Total GULP energy -72501.710225 kJ/mol
# GULP energy per Si atom -5577.054633 kJ/mol
# Density = 2.055723 g / cm^3
# Si number density = 20.604123 Si / 1000 Ang^3
#
#
#
# Elastic Constant Matrix: (Units=GPa)
#
#
# Indices 1 2 3 4 5 6 
#
# 1 133.2820 129.7382 41.8762 23.4453 -8.2381 5.6786
# 2 129.7382 41.6371 50.5692 -0.9967 23.4984 -8.9451
# 3 41.8762 50.5692 171.9091 23.3143 6.2201 -17.2728
# 4 23.4453 -0.9967 23.3143 38.9318 -10.5999 4.7620
# 5 -8.2381 23.4984 6.2201 -10.5999 37.4036 -1.4265
# 6 5.6786 -8.9451 -17.2728 4.7620 -1.4265 40.3317
#
#
#
# Elastic Compliance Matrix: (Units=1/GPa)
#
#
# Indices 1 2 3 4 5 6 
#
# 1 -0.000997 0.008955 -0.002186 0.000587 -0.005280 0.000934
# 2 0.008955 -0.008120 0.000300 -0.003917 0.005827 -0.002265
# 3 -0.002186 0.000300 0.007358 -0.004376 -0.002984 0.003937
# 4 0.000587 -0.003917 -0.004376 0.031908 0.012125 -0.006164
# 5 -0.005280 0.005827 -0.002984 0.012125 0.025853 0.000241
# 6 0.000934 -0.002265 0.003937 -0.006164 0.000241 0.026583
#
#
# Mechanical properties :
#
#
# Convention : Reuss Voigt Hill
#
# Bulk Modulus (GPa) = 80.77671 87.91060 84.34365
# Shear Modulus (GPa) = 68.89362 31.64305 50.26834
#
# Velocity S-wave (km/s) = 5.78873 3.92313 4.94471
# Velocity P-wave (km/s) = 9.16343 7.95490 8.58047
#
# Compressibility (1/GPa) = 0.01237981
#
# Stress axis : x y z
#
# Youngs Moduli (GPa) = -1003.38722 -123.15950 135.89939
#
# Poissons Ratio (x) = 1.10291 0.29710
# Poissons Ratio (y) = 8.98545 -0.04075
# Poissons Ratio (z) = -2.19356 0.03693
#
# Static dielectric constant tensor:
#      x y z
#    x 1.716550 -0.011930 0.018500 
#    y -0.011930 1.686430 -0.024620 
#    z 0.018500 -0.024620 1.694390 
# 
# From -- ./inp_files/617644.got.cif
#   From: 2010.05.17/outbox.cif.g08.bks.cpg/sg2_309_cif.got.tgz:617644.got - 2010.06.03 11:33:40.
