data_PCOD9048487
_publ_section_title
;
Structure prediction by ZEFSAII (Michael W. Deem and Ramdas Pophale) SiO2 
 PCOD9048487
Probable space group: P -1
;
_chemical_formula_sum "Si O2"
_cell_formula_units_Z 14
_cell_length_a 14.767142
_cell_length_b 8.427803
_cell_length_c 9.308516
_cell_angle_alpha 61.998299
_cell_angle_beta 84.066841
_cell_angle_gamma 42.726689
_cell_volume 635.114741
_symmetry_space_group_name_H-M "P -1"
_symmetry_group_IT_number 2
_symmetry_cell_setting 'triclinic'
loop_
_space_group_symop_operation_xyz
x,y,z
-x,-y,-z
loop_
_atom_site_type_symbol
_atom_site_label
_atom_site_fract_x
_atom_site_fract_y
_atom_site_fract_z
Si Si1 0.100189 0.199425 0.537164
Si Si2 0.318922 0.153762 0.106952
Si Si3 0.353604 0.351054 0.770551
Si Si4 0.830832 0.322800 0.893359
Si Si5 0.111287 0.203850 0.195428
Si Si6 0.646795 0.349839 0.107243
Si Si7 0.878505 0.226696 0.615321
O O1 0.110219 0.230133 0.355390
O O2 0.000000 0.500000 0.500000
O O3 0.018027 0.134407 0.598039
O O4 0.253129 0.950188 0.700562
O O5 0.217152 0.433502 0.106252
O O6 0.268104 0.028233 0.187334
O O7 0.489128 0.918692 0.212799
O O8 0.302517 0.251726 0.905666
O O9 0.377246 0.461690 0.845668
O O10 0.232622 0.595203 0.574138
O O11 0.800504 0.413376 0.693807
O O12 0.740002 0.299610 0.986829
O O13 0.000000 0.000000 0.000000
O O14 0.079761 0.043475 0.247518
O O15 0.000000 0.500000 0.000000
O O16 0.500000 0.500000 0.000000
#
# Coordination Sequence:
#
# PCOD9048487 Si02
#       7
#     2   2   2   2   2   2   2
#     4  12  27  46  73 110 149 192 250 303 376 447
#     4  10  24  45  69 103 149 189 248 294 373 448
#     4  10  24  48  73 102 146 197 243 304 372 447
#     4  11  23  44  72 104 146 191 239 303 367 433
#     4  12  26  40  72 108 141 189 246 306 367 435
#     4  11  26  46  74 104 151 195 242 304 377 440
#     4  12  25  44  76 104 148 189 247 309 371 436
#
# _framework density 22.043263
#
# number of rings (size 3 to 8) (size 9 to 14) (size 15 to 20)
#    0.000    0.857    2.857    3.000    6.000    5.714 
#    0.000    0.000    0.000    0.000    0.000    0.000 
#    0.000    0.000    0.000    0.000    0.000    0.000 
#
# Total GULP energy -78357.728792 kJ/mol
# GULP energy per Si atom -5596.980628 kJ/mol
# Density = 2.199309 g / cm^3
# Si number density = 22.043263 Si / 1000 Ang^3
#
#
#
# Elastic Constant Matrix: (Units=GPa)
#
#
# Indices 1 2 3 4 5 6 
#
# 1 130.4512 49.1151 74.1945 1.4828 -3.9132 -21.4261
# 2 49.1151 107.9723 43.6173 -3.5933 8.1747 -18.4534
# 3 74.1945 43.6173 165.1636 0.7116 10.7543 -16.1853
# 4 1.4828 -3.5933 0.7116 39.2072 -0.0190 -7.6494
# 5 -3.9132 8.1747 10.7543 -0.0190 44.4928 -0.3807
# 6 -21.4261 -18.4534 -16.1853 -7.6494 -0.3807 27.1355
#
#
#
# Elastic Compliance Matrix: (Units=1/GPa)
#
#
# Indices 1 2 3 4 5 6 
#
# 1 0.012231 -0.003140 -0.004350 0.000316 0.002748 0.005055
# 2 -0.003140 0.012420 -0.001153 0.002435 -0.002227 0.005934
# 3 -0.004350 -0.001153 0.008543 0.000072 -0.002228 0.000865
# 4 0.000316 0.002435 0.000072 0.027613 -0.000342 0.009727
# 5 0.002748 -0.002227 -0.002228 -0.000342 0.023661 -0.000439
# 6 0.005055 0.005934 0.000865 0.009727 -0.000439 0.048131
#
#
# Mechanical properties :
#
#
# Convention : Reuss Voigt Hill
#
# Bulk Modulus (GPa) = 62.86544 81.93789 72.40167
# Shear Modulus (GPa) = 32.21898 37.94444 35.08171
#
# Velocity S-wave (km/s) = 3.82727 4.15343 3.99368
# Velocity P-wave (km/s) = 6.93626 7.76231 7.36088
#
# Compressibility (1/GPa) = 0.01590699
#
# Stress axis : x y z
#
# Youngs Moduli (GPa) = 81.75811 80.51749 117.05650
#
# Poissons Ratio (x) = 0.25282 0.50921
# Poissons Ratio (y) = 0.25672 0.13500
# Poissons Ratio (z) = 0.35566 0.09286
#
# Static dielectric constant tensor:
#      x y z
#    x 1.853730 0.025220 0.017470 
#    y 0.025220 1.832470 -0.009340 
#    z 0.017470 -0.009340 1.841260 
# 
# From -- ./inp_files/297622.got.cif
#   From: 2010.05.17/outbox.cif.g08.bks.cpg/sg2_149_cif.got.tgz:297622.got - 2010.06.03 11:33:40.
