data_PCOD9048767
_publ_section_title
;
Structure prediction by ZEFSAII (Michael W. Deem and Ramdas Pophale) SiO2 
 PCOD9048767
Probable space group: P -1
;
_chemical_formula_sum "Si O2"
_cell_formula_units_Z 14
_cell_length_a 15.710075
_cell_length_b 5.328411
_cell_length_c 20.519843
_cell_angle_alpha 88.930963
_cell_angle_beta 18.608226
_cell_angle_gamma 89.158433
_cell_volume 547.993989
_symmetry_space_group_name_H-M "P -1"
_symmetry_group_IT_number 2
_symmetry_cell_setting 'triclinic'
loop_
_space_group_symop_operation_xyz
x,y,z
-x,-y,-z
loop_
_atom_site_type_symbol
_atom_site_label
_atom_site_fract_x
_atom_site_fract_y
_atom_site_fract_z
Si Si1 0.679194 0.887525 0.196189
Si Si2 0.596606 0.535726 0.149146
Si Si3 0.829055 0.748624 0.607945
Si Si4 0.043582 0.303271 0.227991
Si Si5 0.642400 0.753306 0.878231
Si Si6 0.717543 0.804629 0.434257
Si Si7 0.111205 0.244697 0.828196
O O1 0.520232 0.752057 0.254287
O O2 0.742880 0.695523 0.210122
O O3 0.526441 0.111974 0.343229
O O4 0.950064 0.989352 0.965356
O O5 0.358880 0.328867 0.315785
O O6 0.692169 0.648960 0.009216
O O7 0.869867 0.419826 0.979689
O O8 0.626979 0.763977 0.812920
O O9 0.000000 0.500000 0.500000
O O10 0.000000 0.000000 0.500000
O O11 0.097704 0.256009 0.265378
O O12 0.864322 0.551418 0.350867
O O13 0.909273 0.049873 0.299829
O O14 0.500000 0.500000 0.000000
O O15 0.500000 0.000000 0.000000
O O16 0.684599 0.772573 0.380070
#
# Coordination Sequence:
#
# PCOD9048767 Si02
#       7
#     2   2   2   2   2   2   2
#     4  11  24  44  74 108 146 199 246 305 372 444
#     4  11  25  47  74 100 153 194 248 306 381 435
#     4  12  30  48  73 110 151 190 247 313 375 442
#     4  11  25  46  72 105 141 200 245 304 366 450
#     4  12  25  46  74 101 140 190 251 300 368 440
#     4  11  25  45  72 107 152 191 248 301 370 436
#     4  10  24  45  72 108 148 196 248 303 373 443
#
# _framework density 25.547726999999998
#
# number of rings (size 3 to 8) (size 9 to 14) (size 15 to 20)
#    0.000    0.857    2.857    2.571    8.000    0.000 
#    0.000    2.143    0.000    0.000    0.000    0.000 
#    0.000    0.000    0.000    0.000    0.000    0.000 
#
# Total GULP energy -78236.051241 kJ/mol
# GULP energy per Si atom -5588.289374 kJ/mol
# Density = 2.548958 g / cm^3
# Si number density = 25.547727 Si / 1000 Ang^3
#
#
#
# Elastic Constant Matrix: (Units=GPa)
#
#
# Indices 1 2 3 4 5 6 
#
# 1 108.5466 23.0190 23.7364 7.0224 5.3568 23.5482
# 2 23.0190 155.7335 35.3095 2.1932 -15.0976 16.4415
# 3 23.7364 35.3095 74.3256 6.4830 -3.3847 15.1713
# 4 7.0224 2.1932 6.4830 53.3033 4.0592 -9.8271
# 5 5.3568 -15.0976 -3.3847 4.0592 25.1205 6.3516
# 6 23.5482 16.4415 15.1713 -9.8271 6.3516 43.4046
#
#
#
# Elastic Compliance Matrix: (Units=1/GPa)
#
#
# Indices 1 2 3 4 5 6 
#
# 1 0.011171 -0.000739 -0.002010 -0.002074 -0.001412 -0.005341
# 2 -0.000739 0.007950 -0.002688 -0.000798 0.005369 -0.002637
# 3 -0.002010 -0.002688 0.016704 -0.002737 0.002706 -0.004746
# 4 -0.002074 -0.000798 -0.002737 0.021338 -0.005896 0.008078
# 5 -0.001412 0.005369 0.002706 -0.005896 0.047301 -0.010470
# 6 -0.005341 -0.002637 -0.004746 0.008078 -0.010470 0.031956
#
#
# Mechanical properties :
#
#
# Convention : Reuss Voigt Hill
#
# Bulk Modulus (GPa) = 40.07852 55.85950 47.96901
# Shear Modulus (GPa) = 32.13131 41.46841 36.79986
#
# Velocity S-wave (km/s) = 3.55025 4.03323 3.79942
# Velocity P-wave (km/s) = 5.70329 6.60315 6.16964
#
# Compressibility (1/GPa) = 0.02495102
#
# Stress axis : x y z
#
# Youngs Moduli (GPa) = 89.51361 125.78275 59.86643
#
# Poissons Ratio (x) = 0.09300 0.12030
# Poissons Ratio (y) = 0.06618 0.16094
# Poissons Ratio (z) = 0.17988 0.33815
#
# Static dielectric constant tensor:
#      x y z
#    x 2.080290 0.061370 -0.033470 
#    y 0.061370 1.838070 -0.074790 
#    z -0.033470 -0.074790 2.073730 
# 
# From -- ./inp_files/596724.got.cif
#   From: 2010.05.17/outbox.cif.g08.bks.cpg/sg2_299_cif.got.tgz:596724.got - 2010.06.03 11:33:40.
