data_PCOD9048181
_publ_section_title
;
Structure prediction by ZEFSAII (Michael W. Deem and Ramdas Pophale) SiO2 
 PCOD9048181
Probable space group: P -1
;
_chemical_formula_sum "Si O2"
_cell_formula_units_Z 14
_cell_length_a 7.209818
_cell_length_b 10.946065
_cell_length_c 16.109765
_cell_angle_alpha 141.755407
_cell_angle_beta 132.478895
_cell_angle_gamma 40.494499
_cell_volume 501.329736
_symmetry_space_group_name_H-M "P -1"
_symmetry_group_IT_number 2
_symmetry_cell_setting 'triclinic'
loop_
_space_group_symop_operation_xyz
x,y,z
-x,-y,-z
loop_
_atom_site_type_symbol
_atom_site_label
_atom_site_fract_x
_atom_site_fract_y
_atom_site_fract_z
Si Si1 0.186664 0.532267 0.728361
Si Si2 0.528970 0.148491 0.490629
Si Si3 0.187570 0.896597 0.609611
Si Si4 0.357225 0.303958 0.236410
Si Si5 0.324774 0.796680 0.207558
Si Si6 0.032801 0.633919 0.160330
Si Si7 0.847517 0.012534 0.046709
O O1 0.314960 0.340971 0.593416
O O2 0.362481 0.430155 0.814126
O O3 0.246460 0.730637 0.820100
O O4 0.861291 0.621661 0.710232
O O5 0.369564 0.010386 0.344056
O O6 0.857404 0.963134 0.523562
O O7 0.619566 0.235926 0.483191
O O8 0.332882 0.761281 0.665533
O O9 0.218008 0.127480 0.748463
O O10 0.203211 0.476930 0.206058
O O11 0.381793 0.068407 0.083508
O O12 0.194441 0.749133 0.224869
O O13 0.099082 0.838916 0.090689
O O14 0.000000 0.500000 0.000000
O O15 0.000000 0.000000 0.000000
#
# Coordination Sequence:
#
# PCOD9048181 Si02
#       7
#     2   2   2   2   2   2   2
#     4  11  25  47  79 113 150 210 260 316 397 461
#     4  11  25  53  80 111 161 207 259 324 390 466
#     4  11  27  50  79 114 160 201 261 328 389 460
#     4  11  26  48  77 118 158 200 264 325 389 464
#     4  12  25  48  79 112 153 208 256 318 386 469
#     4  12  27  50  78 117 157 210 254 322 401 461
#     4  10  24  44  75 118 149 194 261 328 385 456
#
# _framework density 27.925732
#
# number of rings (size 3 to 8) (size 9 to 14) (size 15 to 20)
#    0.000    0.857    2.857    3.000    2.000    6.286 
#    0.000    8.571    0.000    0.000    0.000    0.000 
#    0.000    0.000    0.000    0.000    0.000    0.000 
#
# Total GULP energy -78328.429561 kJ/mol
# GULP energy per Si atom -5594.887826 kJ/mol
# Density = 2.786217 g / cm^3
# Si number density = 27.925732 Si / 1000 Ang^3
#
#
#
# Elastic Constant Matrix: (Units=GPa)
#
#
# Indices 1 2 3 4 5 6 
#
# 1 132.3943 16.0024 40.4922 5.2068 -34.0874 -6.0917
# 2 16.0024 138.9511 46.3076 -23.3872 -14.3007 13.6001
# 3 40.4922 46.3076 146.3124 -13.3242 -10.4739 -8.0168
# 4 5.2068 -23.3872 -13.3242 61.6039 -6.2663 -5.0290
# 5 -34.0874 -14.3007 -10.4739 -6.2663 36.4547 -0.5348
# 6 -6.0917 13.6001 -8.0168 -5.0290 -0.5348 48.5647
#
#
#
# Elastic Compliance Matrix: (Units=1/GPa)
#
#
# Indices 1 2 3 4 5 6 
#
# 1 0.010726 0.000408 -0.002390 -0.000230 0.009477 0.000917
# 2 0.000408 0.009170 -0.002614 0.003048 0.003714 -0.002592
# 3 -0.002390 -0.002614 0.008492 0.001145 -0.000595 0.001946
# 4 -0.000230 0.003048 0.001145 0.018212 0.004458 0.001242
# 5 0.009477 0.003714 -0.000595 0.004458 0.038359 0.000935
# 6 0.000917 -0.002592 0.001946 0.001242 0.000935 0.021892
#
#
# Mechanical properties :
#
#
# Convention : Reuss Voigt Hill
#
# Bulk Modulus (GPa) = 52.09336 69.25136 60.67236
# Shear Modulus (GPa) = 40.83653 50.31504 45.57578
#
# Velocity S-wave (km/s) = 3.82819 4.24930 4.04423
# Velocity P-wave (km/s) = 6.18343 6.99483 6.60161
#
# Compressibility (1/GPa) = 0.01919630
#
# Stress axis : x y z
#
# Youngs Moduli (GPa) = 93.23095 109.05544 117.76326
#
# Poissons Ratio (x) = -0.04451 0.28144
# Poissons Ratio (y) = -0.03805 0.30780
# Poissons Ratio (z) = 0.22281 0.28504
#
# Static dielectric constant tensor:
#      x y z
#    x 2.350610 -0.188180 -0.085740 
#    y -0.188180 2.333350 0.120730 
#    z -0.085740 0.120730 2.252010 
# 
# From -- ./inp_files/404993.got.cif
#   From: 2010.05.17/outbox.cif.g08.bks.cpg/sg2_203_cif.got.tgz:404993.got - 2010.06.03 11:33:40.
