data_PCOD9048861
_publ_section_title
;
Structure prediction by ZEFSAII (Michael W. Deem and Ramdas Pophale) SiO2 
 PCOD9048861
Probable space group: P -1
;
_chemical_formula_sum "Si O2"
_cell_formula_units_Z 12
_cell_length_a 10.237574
_cell_length_b 13.380799
_cell_length_c 9.126839
_cell_angle_alpha 55.204710
_cell_angle_beta 110.262408
_cell_angle_gamma 148.610444
_cell_volume 504.955421
_symmetry_space_group_name_H-M "P -1"
_symmetry_group_IT_number 2
_symmetry_cell_setting 'triclinic'
loop_
_space_group_symop_operation_xyz
x,y,z
-x,-y,-z
loop_
_atom_site_type_symbol
_atom_site_label
_atom_site_fract_x
_atom_site_fract_y
_atom_site_fract_z
Si Si1 0.408476 0.336394 0.482213
Si Si2 0.367320 0.482876 0.084718
Si Si3 0.795533 0.052695 0.185595
Si Si4 0.952668 0.601333 0.459072
Si Si5 0.423982 0.111673 0.072734
Si Si6 0.262002 0.824131 0.672566
O O1 0.500000 0.500000 0.500000
O O2 0.304259 0.342010 0.307519
O O3 0.664119 0.443712 0.449423
O O4 0.199585 0.088867 0.678166
O O5 0.088408 0.322974 0.046549
O O6 0.500000 0.500000 0.000000
O O7 0.551597 0.728192 0.011785
O O8 0.714598 0.045829 0.317019
O O9 0.604312 0.933960 0.073103
O O10 0.004886 0.635031 0.627469
O O11 0.000000 0.500000 0.500000
O O12 0.169955 0.855180 0.261288
O O13 0.681547 0.244423 0.138196
O O14 0.500000 0.000000 0.500000
#
# Coordination Sequence:
#
# PCOD9048861 Si02
#       6
#     2   2   2   2   2   2
#     4  12  25  46  72 108 147 190 246 299 370 430
#     4  12  29  45  75 107 148 196 241 299 363 440
#     4  12  26  48  73 107 149 192 243 306 362 436
#     4  11  26  47  78 104 146 196 244 305 367 434
#     4  11  26  48  73 109 148 190 246 298 367 434
#     4  10  24  45  74 104 141 190 244 297 363 430
#
# _framework density 23.764475000000001
#
# number of rings (size 3 to 8) (size 9 to 14) (size 15 to 20)
#    0.000    0.667    1.667    5.000   11.667    2.000 
#    0.000    0.000    0.000    0.000    0.000    0.000 
#    0.000    0.000    0.000    0.000    0.000    0.000 
#
# Total GULP energy -67126.578003 kJ/mol
# GULP energy per Si atom -5593.881500 kJ/mol
# Density = 2.371039 g / cm^3
# Si number density = 23.764475 Si / 1000 Ang^3
#
#
#
# Elastic Constant Matrix: (Units=GPa)
#
#
# Indices 1 2 3 4 5 6 
#
# 1 103.8790 52.5845 8.8630 -6.4640 -0.6635 -30.0387
# 2 52.5845 145.6387 55.3405 8.0699 3.7767 -24.6293
# 3 8.8630 55.3405 77.4607 15.9258 12.6636 -17.4539
# 4 -6.4640 8.0699 15.9258 57.9513 -2.0550 -3.8466
# 5 -0.6635 3.7767 12.6636 -2.0550 41.6579 3.2553
# 6 -30.0387 -24.6293 -17.4539 -3.8466 3.2553 50.7489
#
#
#
# Elastic Compliance Matrix: (Units=1/GPa)
#
#
# Indices 1 2 3 4 5 6 
#
# 1 0.014238 -0.005362 0.003609 0.001794 -0.000863 0.007258
# 2 -0.005362 0.011792 -0.008105 0.000013 0.001335 -0.000323
# 3 0.003609 -0.008105 0.021480 -0.004221 -0.006389 0.005680
# 4 0.001794 0.000013 -0.004221 0.018751 0.002165 0.000899
# 5 -0.000863 0.001335 -0.006389 0.002165 0.026199 -0.003577
# 6 0.007258 -0.000323 0.005680 0.000899 -0.003577 0.026095
#
#
# Mechanical properties :
#
#
# Convention : Reuss Voigt Hill
#
# Bulk Modulus (GPa) = 35.97860 62.28383 49.13122
# Shear Modulus (GPa) = 33.89059 44.08431 38.98745
#
# Velocity S-wave (km/s) = 3.78048 4.31170 4.05480
# Velocity P-wave (km/s) = 5.85051 7.14517 6.53000
#
# Compressibility (1/GPa) = 0.02779430
#
# Stress axis : x y z
#
# Youngs Moduli (GPa) = 70.23607 84.80342 46.55601
#
# Poissons Ratio (x) = 0.45469 -0.16803
# Poissons Ratio (y) = 0.37659 0.37733
# Poissons Ratio (z) = -0.25349 0.68732
#
# Static dielectric constant tensor:
#      x y z
#    x 1.899530 -0.005580 -0.004120 
#    y -0.005580 1.652350 -0.099180 
#    z -0.004120 -0.099180 1.852560 
# 
# From -- ./inp_files/61202.got.cif
#   From: 2010.05.17/outbox.cif.g08.bks.cpg/sg2_31_cif.got.tgz:61202.got - 2010.06.03 11:33:40.
