data_PCOD9048594
_publ_section_title
;
Structure prediction by ZEFSAII (Michael W. Deem and Ramdas Pophale) SiO2 
 PCOD9048594
Probable space group: P -1
;
_chemical_formula_sum "Si O2"
_cell_formula_units_Z 13
_cell_length_a 11.469016
_cell_length_b 9.298310
_cell_length_c 15.026200
_cell_angle_alpha 140.855530
_cell_angle_beta 33.359776
_cell_angle_gamma 133.468449
_cell_volume 552.522465
_symmetry_space_group_name_H-M "P -1"
_symmetry_group_IT_number 2
_symmetry_cell_setting 'triclinic'
loop_
_space_group_symop_operation_xyz
x,y,z
-x,-y,-z
loop_
_atom_site_type_symbol
_atom_site_label
_atom_site_fract_x
_atom_site_fract_y
_atom_site_fract_z
Si Si1 0.414437 0.749373 0.182038
Si Si2 0.173831 0.597031 0.822057
Si Si3 0.500000 0.000000 0.500000
Si Si4 0.563116 0.876770 0.810292
Si Si5 0.970136 0.702797 0.546685
Si Si6 0.877834 0.825864 0.247279
Si Si7 0.775433 0.083885 0.211182
O O1 0.180651 0.715274 0.357474
O O2 0.401569 0.912380 0.182321
O O3 0.584367 0.893254 0.208678
O O4 0.500000 0.500000 0.000000
O O5 0.368912 0.704242 0.811187
O O6 0.114850 0.329436 0.743836
O O7 0.226629 0.685095 0.732399
O O8 0.972407 0.702624 0.044312
O O9 0.629132 0.836842 0.398322
O O10 0.270641 0.902216 0.649073
O O11 0.757138 0.727167 0.637276
O O12 0.500000 0.000000 0.000000
O O13 0.000000 0.500000 0.500000
O O14 0.987265 0.935917 0.704447
O O15 0.000000 0.000000 0.000000
#
# Coordination Sequence:
#
# PCOD9048594 Si02
#       7
#     2   2   1   2   2   2   2
#     4  11  26  46  70 103 143 188 242 295 358 435
#     4  10  24  45  70 102 145 187 231 298 363 425
#     4  12  24  42  74 104 144 178 246 282 356 434
#     4  11  23  44  71 101 142 185 237 289 365 425
#     4  12  26  45  70 104 142 189 241 299 357 431
#     4  11  24  44  70 104 140 183 241 294 356 433
#     4  11  24  45  72 104 141 184 233 295 358 420
#
# _framework density 23.528454
#
# number of rings (size 3 to 8) (size 9 to 14) (size 15 to 20)
#    0.000    0.923    4.615    1.385    4.308    3.077 
#    0.000    0.000    0.000    0.000    0.000    0.000 
#    0.000    0.000    0.000    0.000    0.000    0.000 
#
# Total GULP energy -72435.308384 kJ/mol
# GULP energy per Si atom -5571.946799 kJ/mol
# Density = 2.347490 g / cm^3
# Si number density = 23.528454 Si / 1000 Ang^3
#
#
#
# Elastic Constant Matrix: (Units=GPa)
#
#
# Indices 1 2 3 4 5 6 
#
# 1 77.7438 25.5318 32.2501 -0.3272 -23.8529 -2.5464
# 2 25.5318 140.3674 25.2689 11.4322 5.6954 -27.1866
# 3 32.2501 25.2689 98.4783 -13.2866 -35.4715 4.3556
# 4 -0.3272 11.4322 -13.2866 51.0581 -4.9217 -6.4052
# 5 -23.8529 5.6954 -35.4715 -4.9217 44.7412 -11.8822
# 6 -2.5464 -27.1866 4.3556 -6.4052 -11.8822 24.5365
#
#
#
# Elastic Compliance Matrix: (Units=1/GPa)
#
#
# Indices 1 2 3 4 5 6 
#
# 1 0.017515 -0.002614 -0.001445 0.001836 0.009911 0.004456
# 2 -0.002614 0.010527 -0.003870 -0.002496 -0.003490 0.009738
# 3 -0.001445 -0.003870 0.018004 0.007213 0.015220 0.001620
# 4 0.001836 -0.002496 0.007213 0.024205 0.011857 0.008206
# 5 0.009911 -0.003490 0.015220 0.011857 0.046822 0.020229
# 6 0.004456 0.009738 0.001620 0.008206 0.020229 0.063659
#
#
# Mechanical properties :
#
#
# Convention : Reuss Voigt Hill
#
# Bulk Modulus (GPa) = 33.12424 53.63232 43.37828
# Shear Modulus (GPa) = 24.19513 39.63642 31.91578
#
# Velocity S-wave (km/s) = 3.21024 4.10886 3.68703
# Velocity P-wave (km/s) = 5.27729 6.73457 6.04997
#
# Compressibility (1/GPa) = 0.03018937
#
# Stress axis : x y z
#
# Youngs Moduli (GPa) = 57.09372 94.99120 55.54251
#
# Poissons Ratio (x) = 0.24834 0.08024
# Poissons Ratio (y) = 0.14927 0.21493
# Poissons Ratio (z) = 0.08248 0.36758
#
# Static dielectric constant tensor:
#      x y z
#    x 2.047180 0.024330 0.096420 
#    y 0.024330 1.945380 0.053560 
#    z 0.096420 0.053560 2.051690 
# 
# From -- ./inp_files/157838.got.cif
#   From: 2010.05.17/outbox.cif.g08.bks.cpg/sg2_79_cif.got.tgz:157838.got - 2010.06.03 11:33:40.
