data_PCOD9048545
_publ_section_title
;
Structure prediction by ZEFSAII (Michael W. Deem and Ramdas Pophale) SiO2 
 PCOD9048545
Probable space group: P -1
;
_chemical_formula_sum "Si O2"
_cell_formula_units_Z 16
_cell_length_a 8.812693
_cell_length_b 14.316824
_cell_length_c 19.847503
_cell_angle_alpha 152.161987
_cell_angle_beta 140.915793
_cell_angle_gamma 41.542466
_cell_volume 720.671714
_symmetry_space_group_name_H-M "P -1"
_symmetry_group_IT_number 2
_symmetry_cell_setting 'triclinic'
loop_
_space_group_symop_operation_xyz
x,y,z
-x,-y,-z
loop_
_atom_site_type_symbol
_atom_site_label
_atom_site_fract_x
_atom_site_fract_y
_atom_site_fract_z
Si Si1 0.342981 0.826890 0.820596
Si Si2 0.771457 0.648454 0.374206
Si Si3 0.636031 0.009322 0.206220
Si Si4 0.667076 0.911092 0.376599
Si Si5 0.639511 0.570853 0.862554
Si Si6 0.194248 0.189137 0.358781
Si Si7 0.003397 0.214643 0.706077
Si Si8 0.705219 0.622112 0.622258
O O1 0.520363 0.626454 0.782945
O O2 0.078315 0.842086 0.773425
O O3 0.282751 0.857000 0.740329
O O4 0.500000 0.000000 0.000000
O O5 0.695809 0.829460 0.409980
O O6 0.543843 0.536557 0.227790
O O7 0.807453 0.717921 0.507499
O O8 0.024803 0.501485 0.344129
O O9 0.824424 0.960986 0.301885
O O10 0.378992 0.148985 0.230233
O O11 0.636717 0.786322 0.034459
O O12 0.836911 0.756650 0.285453
O O13 0.390499 0.975421 0.295561
O O14 0.773894 0.118196 0.543541
O O15 0.898261 0.417323 0.841490
O O16 0.277669 0.334009 0.423703
O O17 0.500000 0.500000 0.500000
#
# Coordination Sequence:
#
# PCOD9048545 Si02
#       8
#     2   2   2   2   2   2   2   2
#     4  10  24  45  69  99 132 182 230 278 349 412
#     4  12  26  41  69 104 138 177 233 286 349 406
#     4  11  25  46  68  96 139 185 230 279 349 411
#     4  11  25  41  69 104 135 179 227 297 339 404
#     4  11  25  44  67  99 135 186 229 281 344 423
#     4  12  23  46  70 102 141 174 234 291 344 408
#     4  11  23  45  68  97 140 180 233 280 349 405
#     4  12  26  42  72 103 138 178 229 287 349 408
#
# _framework density 22.201509999999999
#
# number of rings (size 3 to 8) (size 9 to 14) (size 15 to 20)
#    0.000    0.750    3.750    3.375    7.000    0.500 
#    0.000    0.625    0.000    0.000    0.000    0.000 
#    0.000    0.000    0.000    0.000    0.000    0.000 
#
# Total GULP energy -89400.938261 kJ/mol
# GULP energy per Si atom -5587.558641 kJ/mol
# Density = 2.215098 g / cm^3
# Si number density = 22.201510 Si / 1000 Ang^3
#
#
#
# Elastic Constant Matrix: (Units=GPa)
#
#
# Indices 1 2 3 4 5 6 
#
# 1 125.7893 50.5021 27.0631 7.5141 4.3955 4.4162
# 2 50.5021 120.1245 6.4460 9.9975 -2.6751 -3.6257
# 3 27.0631 6.4460 58.2594 7.7434 -2.6521 -11.2739
# 4 7.5141 9.9975 7.7434 24.3911 -2.7277 -12.1476
# 5 4.3955 -2.6751 -2.6521 -2.7277 22.5668 6.5030
# 6 4.4162 -3.6257 -11.2739 -12.1476 6.5030 50.3565
#
#
#
# Elastic Compliance Matrix: (Units=1/GPa)
#
#
# Indices 1 2 3 4 5 6 
#
# 1 0.011072 -0.004392 -0.005050 -0.001526 -0.002755 -0.002430
# 2 -0.004392 0.010390 0.001460 -0.002908 0.001754 0.000532
# 3 -0.005050 0.001460 0.020680 -0.003335 0.001998 0.004115
# 4 -0.001526 -0.002908 -0.003335 0.049355 0.002422 0.010771
# 5 -0.002755 0.001754 0.001998 0.002422 0.046928 -0.004661
# 6 -0.002430 0.000532 0.004115 0.010771 -0.004661 0.024231
#
#
# Mechanical properties :
#
#
# Convention : Reuss Voigt Hill
#
# Bulk Modulus (GPa) = 38.20096 52.46618 45.33357
# Shear Modulus (GPa) = 26.68861 34.14034 30.41447
#
# Velocity S-wave (km/s) = 3.47090 3.92567 3.70527
# Velocity P-wave (km/s) = 5.77120 6.65063 6.22646
#
# Compressibility (1/GPa) = 0.02617735
#
# Stress axis : x y z
#
# Youngs Moduli (GPa) = 90.31573 96.24814 48.35675
#
# Poissons Ratio (x) = 0.42269 0.24422
# Poissons Ratio (y) = 0.39663 -0.07059
# Poissons Ratio (z) = 0.45612 -0.14050
#
# Static dielectric constant tensor:
#      x y z
#    x 1.846790 -0.002640 -0.027680 
#    y -0.002640 1.825760 -0.006820 
#    z -0.027680 -0.006820 1.863980 
# 
# From -- ./inp_files/590329.got.cif
#   From: 2010.05.17/outbox.cif.g08.bks.cpg/sg2_296_cif.got.tgz:590329.got - 2010.06.03 11:33:40.
