data_PCOD9048796
_publ_section_title
;
Structure prediction by ZEFSAII (Michael W. Deem and Ramdas Pophale) SiO2 
 PCOD9048796
Probable space group: P -1
;
_chemical_formula_sum "Si O2"
_cell_formula_units_Z 16
_cell_length_a 11.840259
_cell_length_b 8.444061
_cell_length_c 20.637046
_cell_angle_alpha 141.021986
_cell_angle_beta 36.083976
_cell_angle_gamma 143.816268
_cell_volume 669.391585
_symmetry_space_group_name_H-M "P -1"
_symmetry_group_IT_number 2
_symmetry_cell_setting 'triclinic'
loop_
_space_group_symop_operation_xyz
x,y,z
-x,-y,-z
loop_
_atom_site_type_symbol
_atom_site_label
_atom_site_fract_x
_atom_site_fract_y
_atom_site_fract_z
Si Si1 0.822108 0.222934 0.607084
Si Si2 0.718486 0.076073 0.880935
Si Si3 0.562669 0.261865 0.212043
Si Si4 0.526611 0.990183 0.406496
Si Si5 0.121147 0.272172 0.984689
Si Si6 0.520658 0.314421 0.870917
Si Si7 0.908612 0.827609 0.174478
Si Si8 0.297207 0.394595 0.475241
O O1 0.742517 0.355818 0.745898
O O2 0.084054 0.370783 0.529545
O O3 0.689628 0.212032 0.599816
O O4 0.764317 0.896471 0.550126
O O5 0.886542 0.011837 0.822428
O O6 0.632866 0.898371 0.799077
O O7 0.848949 0.416933 0.912176
O O8 0.500000 0.000000 0.000000
O O9 0.773514 0.494962 0.151947
O O10 0.486994 0.424368 0.348722
O O11 0.585251 0.011680 0.157892
O O12 0.607845 0.304399 0.436892
O O13 0.500000 0.000000 0.500000
O O14 0.727605 0.927270 0.287403
O O15 0.373143 0.337798 0.890137
O O16 0.013348 0.167001 0.932154
O O17 0.000000 0.000000 0.000000
O O18 0.500000 0.500000 0.000000
#
# Coordination Sequence:
#
# PCOD9048796 Si02
#       8
#     2   2   2   2   2   2   2   2
#     4  10  24  47  70 105 144 184 243 306 356 426
#     4  12  27  46  73 100 144 198 238 297 374 438
#     4  11  24  46  72 102 143 192 244 295 364 447
#     4  12  25  44  71 103 139 188 241 295 362 427
#     4  12  26  45  71 104 144 185 243 305 361 434
#     4  11  23  44  71 105 141 186 242 296 363 435
#     4  12  27  48  69 104 146 191 243 303 366 437
#     4  10  24  45  73 101 142 189 240 302 359 421
#
# _framework density 23.902303
#
# number of rings (size 3 to 8) (size 9 to 14) (size 15 to 20)
#    0.000    0.750    5.000    1.500    3.500    3.500 
#    2.250    0.000    0.000    0.000    0.000    0.000 
#    0.000    0.000    0.000    0.000    0.000    0.000 
#
# Total GULP energy -89447.793379 kJ/mol
# GULP energy per Si atom -5590.487086 kJ/mol
# Density = 2.384790 g / cm^3
# Si number density = 23.902303 Si / 1000 Ang^3
#
#
#
# Elastic Constant Matrix: (Units=GPa)
#
#
# Indices 1 2 3 4 5 6 
#
# 1 136.2414 -0.5650 34.1965 -0.2911 -20.7087 21.8956
# 2 -0.5650 74.6127 11.7690 6.9285 -1.9802 -15.4558
# 3 34.1965 11.7690 99.4501 6.9003 -29.2976 -8.6981
# 4 -0.2911 6.9285 6.9003 33.3859 -4.5249 1.4330
# 5 -20.7087 -1.9802 -29.2976 -4.5249 36.6827 -2.8844
# 6 21.8956 -15.4558 -8.6981 1.4330 -2.8844 33.8849
#
#
#
# Elastic Compliance Matrix: (Units=1/GPa)
#
#
# Indices 1 2 3 4 5 6 
#
# 1 0.009730 -0.001043 -0.003269 0.001628 0.002439 -0.007463
# 2 -0.001043 0.015394 -0.000559 -0.003421 -0.000021 0.007695
# 3 -0.003269 -0.000559 0.015032 -0.001894 0.010422 0.006683
# 4 0.001628 -0.003421 -0.001894 0.031627 0.002793 -0.004198
# 5 0.002439 -0.000021 0.010422 0.002793 0.037633 0.004175
# 6 -0.007463 0.007695 0.006683 -0.004198 0.004175 0.040093
#
#
# Mechanical properties :
#
#
# Convention : Reuss Voigt Hill
#
# Bulk Modulus (GPa) = 32.88075 44.56724 38.72400
# Shear Modulus (GPa) = 29.51785 38.45093 33.98439
#
# Velocity S-wave (km/s) = 3.51798 4.01517 3.77477
# Velocity P-wave (km/s) = 5.50343 6.33889 5.93588
#
# Compressibility (1/GPa) = 0.03041293
#
# Stress axis : x y z
#
# Youngs Moduli (GPa) = 102.77573 64.96057 66.52598
#
# Poissons Ratio (x) = 0.06776 0.21750
# Poissons Ratio (y) = 0.10721 0.03718
# Poissons Ratio (z) = 0.33601 0.03631
#
# Static dielectric constant tensor:
#      x y z
#    x 1.925750 0.033390 -0.103190 
#    y 0.033390 1.940030 -0.053020 
#    z -0.103190 -0.053020 2.085570 
# 
# From -- ./inp_files/594248.got.cif
#   From: 2010.05.17/outbox.cif.g08.bks.cpg/sg2_298_cif.got.tgz:594248.got - 2010.06.03 11:33:40.
