data_PCOD9048188
_publ_section_title
;
Structure prediction by ZEFSAII (Michael W. Deem and Ramdas Pophale) SiO2 
 PCOD9048188
Probable space group: P -1
;
_chemical_formula_sum "Si O2"
_cell_formula_units_Z 16
_cell_length_a 23.398949
_cell_length_b 10.436785
_cell_length_c 16.011346
_cell_angle_alpha 144.615029
_cell_angle_beta 24.288969
_cell_angle_gamma 146.339388
_cell_volume 863.556507
_symmetry_space_group_name_H-M "P -1"
_symmetry_group_IT_number 2
_symmetry_cell_setting 'triclinic'
loop_
_space_group_symop_operation_xyz
x,y,z
-x,-y,-z
loop_
_atom_site_type_symbol
_atom_site_label
_atom_site_fract_x
_atom_site_fract_y
_atom_site_fract_z
Si Si1 0.288219 0.558267 0.907146
Si Si2 0.373666 0.154766 0.393619
Si Si3 0.176474 0.090564 0.901063
Si Si4 0.125654 0.803520 0.657826
Si Si5 0.887536 0.650479 0.660935
Si Si6 0.223680 0.733075 0.259435
Si Si7 0.144134 0.894532 0.011398
Si Si8 0.178973 0.456037 0.815644
O O1 0.454331 0.723345 0.746117
O O2 0.288017 0.318724 0.824602
O O3 0.184214 0.483783 0.924339
O O4 0.236927 0.685415 0.119122
O O5 0.306689 0.355380 0.569762
O O6 0.265492 0.991260 0.522025
O O7 0.350308 0.973422 0.251224
O O8 0.141051 0.867586 0.768144
O O9 0.226911 0.024892 0.886782
O O10 0.025168 0.152214 0.144473
O O11 0.122686 0.543598 0.499826
O O12 0.787843 0.491930 0.785835
O O13 0.063683 0.749788 0.502091
O O14 0.853547 0.886568 0.816723
O O15 0.203180 0.710961 0.879165
O O16 0.977146 0.733229 0.113528
#
# Coordination Sequence:
#
# PCOD9048188 Si02
#       8
#     2   2   2   2   2   2   2   2
#     4  12  22  35  60  87 114 144 190 234 273 330
#     4  11  21  37  56  87 117 146 182 232 288 326
#     4  11  18  34  59  88 106 143 195 238 262 322
#     4  10  19  32  60  86 112 138 198 237 266 321
#     4  10  17  34  58  84 109 144 183 236 277 317
#     4  10  19  33  58  88 110 141 190 234 274 324
#     4  11  21  38  58  82 117 149 184 229 284 332
#     4  11  23  37  56  85 118 149 180 231 287 331
#
# _framework density 18.528029
#
# number of rings (size 3 to 8) (size 9 to 14) (size 15 to 20)
#    0.000    1.250    6.250    2.250    0.000    0.000 
#    0.000    2.500    0.000    3.000    0.000    0.000 
#    0.000    0.000    0.000    0.000    0.000    0.000 
#
# Total GULP energy -89206.998294 kJ/mol
# GULP energy per Si atom -5575.437393 kJ/mol
# Density = 1.848586 g / cm^3
# Si number density = 18.528029 Si / 1000 Ang^3
#
#
#
# Elastic Constant Matrix: (Units=GPa)
#
#
# Indices 1 2 3 4 5 6 
#
# 1 54.4974 28.2294 27.8684 19.6088 16.8720 0.3290
# 2 28.2294 107.5395 43.5147 19.7683 2.1492 -0.5310
# 3 27.8684 43.5147 65.0477 16.6763 15.3610 8.5584
# 4 19.6088 19.7683 16.6763 44.5909 6.5347 -3.4615
# 5 16.8720 2.1492 15.3610 6.5347 26.1735 10.1909
# 6 0.3290 -0.5310 8.5584 -3.4615 10.1909 25.5659
#
#
#
# Elastic Compliance Matrix: (Units=1/GPa)
#
#
# Indices 1 2 3 4 5 6 
#
# 1 0.031310 -0.004354 -0.005611 -0.006529 -0.017871 0.007625
# 2 -0.004354 0.014290 -0.008889 -0.002165 0.007349 0.000106
# 3 -0.005611 -0.008889 0.027340 -0.003063 -0.008482 -0.006298
# 4 -0.006529 -0.002165 -0.003063 0.028374 -0.003326 0.006232
# 5 -0.017871 0.007349 -0.008482 -0.003326 0.063746 -0.022638
# 6 0.007625 0.000106 -0.006298 0.006232 -0.022638 0.050995
#
#
# Mechanical properties :
#
#
# Convention : Reuss Voigt Hill
#
# Bulk Modulus (GPa) = 28.38134 47.36773 37.87454
# Shear Modulus (GPa) = 18.83193 27.76418 23.29805
#
# Velocity S-wave (km/s) = 3.19156 3.87524 3.54990
# Velocity P-wave (km/s) = 5.37892 6.75605 6.10643
#
# Compressibility (1/GPa) = 0.03523442
#
# Stress axis : x y z
#
# Youngs Moduli (GPa) = 31.93877 69.97830 36.57595
#
# Poissons Ratio (x) = 0.30466 0.20522
# Poissons Ratio (y) = 0.13905 0.32511
# Poissons Ratio (z) = 0.17920 0.62202
#
# Static dielectric constant tensor:
#      x y z
#    x 1.648760 0.024330 0.043270 
#    y 0.024330 1.688690 0.011670 
#    z 0.043270 0.011670 1.651100 
# 
# From -- ./inp_files/435284.got.cif
#   From: 2010.05.17/outbox.cif.g08.bks.cpg/sg2_218_cif.got.tgz:435284.got - 2010.06.03 11:33:40.
