data_PCOD9048440
_publ_section_title
;
Structure prediction by ZEFSAII (Michael W. Deem and Ramdas Pophale) SiO2 
 PCOD9048440
Probable space group: P -1
;
_chemical_formula_sum "Si O2"
_cell_formula_units_Z 16
_cell_length_a 12.777551
_cell_length_b 15.704252
_cell_length_c 9.238877
_cell_angle_alpha 89.250253
_cell_angle_beta 100.629282
_cell_angle_gamma 152.762742
_cell_volume 785.588325
_symmetry_space_group_name_H-M "P -1"
_symmetry_group_IT_number 2
_symmetry_cell_setting 'triclinic'
loop_
_space_group_symop_operation_xyz
x,y,z
-x,-y,-z
loop_
_atom_site_type_symbol
_atom_site_label
_atom_site_fract_x
_atom_site_fract_y
_atom_site_fract_z
Si Si1 0.941287 0.182165 0.263183
Si Si2 0.511392 0.006824 0.176566
Si Si3 0.599546 0.404200 0.457578
Si Si4 0.685664 0.607596 0.244845
Si Si5 0.960811 0.558142 0.077195
Si Si6 0.130633 0.005492 0.520735
Si Si7 0.742640 0.574024 0.935807
Si Si8 0.776186 0.365135 0.342869
O O1 0.708642 0.073758 0.245352
O O2 0.877330 0.047627 0.326804
O O3 0.175148 0.396599 0.394366
O O4 0.029276 0.235619 0.117447
O O5 0.609906 0.162985 0.273338
O O6 0.233856 0.792625 0.161978
O O7 0.500000 0.000000 0.000000
O O8 0.553078 0.445549 0.325829
O O9 0.658768 0.362361 0.385444
O O10 0.390141 0.218991 0.515291
O O11 0.506515 0.561315 0.188004
O O12 0.953265 0.822042 0.374978
O O13 0.736857 0.604919 0.099037
O O14 0.861614 0.458500 0.207228
O O15 0.000000 0.500000 0.000000
O O16 0.782780 0.500749 0.960704
O O17 0.000000 0.000000 0.500000
O O18 0.000000 0.500000 0.500000
#
# Coordination Sequence:
#
# PCOD9048440 Si02
#       8
#     2   2   2   2   2   2   2   2
#     4  11  24  43  69  98 137 176 224 286 339 409
#     4  12  25  43  67 102 135 176 228 275 343 412
#     4  11  24  45  68  99 135 178 228 281 343 402
#     4  10  24  45  68  97 135 178 227 286 341 402
#     4  12  26  45  71 101 141 183 226 285 347 413
#     4  11  25  44  68  99 130 180 233 276 336 412
#     4  11  22  44  70  96 137 178 221 286 349 397
#     4  12  26  45  69 101 137 182 228 285 342 407
#
# _framework density 20.366900999999999
#
# number of rings (size 3 to 8) (size 9 to 14) (size 15 to 20)
#    0.000    0.750    5.000    1.500    3.500    3.500 
#    0.000    6.875    0.000    0.000    0.000    0.000 
#    0.000    0.000    0.000    0.000    0.000    0.000 
#
# Total GULP energy -89309.549931 kJ/mol
# GULP energy per Si atom -5581.846871 kJ/mol
# Density = 2.032055 g / cm^3
# Si number density = 20.366901 Si / 1000 Ang^3
#
#
#
# Elastic Constant Matrix: (Units=GPa)
#
#
# Indices 1 2 3 4 5 6 
#
# 1 135.1217 34.8911 24.3861 -14.7799 12.2726 -11.7549
# 2 34.8911 85.9623 3.2326 -0.2719 9.5804 -22.1272
# 3 24.3861 3.2326 47.0095 -10.6518 9.5635 -19.7103
# 4 -14.7799 -0.2719 -10.6518 35.5349 -2.8360 -0.1980
# 5 12.2726 9.5804 9.5635 -2.8360 40.4164 -5.2390
# 6 -11.7549 -22.1272 -19.7103 -0.1980 -5.2390 30.9398
#
#
#
# Elastic Compliance Matrix: (Units=1/GPa)
#
#
# Indices 1 2 3 4 5 6 
#
# 1 0.009523 -0.004309 -0.005155 0.002298 -0.000862 -0.002879
# 2 -0.004309 0.017401 0.008309 0.000703 -0.002705 0.015647
# 3 -0.005155 0.008309 0.037938 0.009029 -0.005205 0.027329
# 4 0.002298 0.000703 0.009029 0.031865 0.000190 0.007363
# 5 -0.000862 -0.002705 -0.005205 0.000190 0.026755 -0.001047
# 6 -0.002879 0.015647 0.027329 0.007363 -0.001047 0.059697
#
#
# Mechanical properties :
#
#
# Convention : Reuss Voigt Hill
#
# Bulk Modulus (GPa) = 15.98660 43.67924 29.83292
# Shear Modulus (GPa) = 24.23192 35.08381 29.65787
#
# Velocity S-wave (km/s) = 3.45305 4.15491 3.82013
# Velocity P-wave (km/s) = 4.87487 6.67162 5.84272
#
# Compressibility (1/GPa) = 0.06255237
#
# Stress axis : x y z
#
# Youngs Moduli (GPa) = 105.00961 57.46837 26.35871
#
# Poissons Ratio (x) = 0.24763 0.13587
# Poissons Ratio (y) = 0.45249 -0.21901
# Poissons Ratio (z) = 0.54128 -0.47749
#
# Static dielectric constant tensor:
#      x y z
#    x 1.772690 0.003670 0.076360 
#    y 0.003670 1.681350 0.042240 
#    z 0.076360 0.042240 1.758590 
# 
# From -- ./inp_files/201792.got.cif
#   From: 2010.05.17/outbox.cif.g08.bks.cpg/sg2_101_cif.got.tgz:201792.got - 2010.06.03 11:33:40.
