data_PCOD9048417
_publ_section_title
;
Structure prediction by ZEFSAII (Michael W. Deem and Ramdas Pophale) SiO2 
 PCOD9048417
Probable space group: P -1
;
_chemical_formula_sum "Si O2"
_cell_formula_units_Z 16
_cell_length_a 10.648589
_cell_length_b 11.478026
_cell_length_c 13.638872
_cell_angle_alpha 59.922959
_cell_angle_beta 147.154517
_cell_angle_gamma 134.626447
_cell_volume 626.137320
_symmetry_space_group_name_H-M "P -1"
_symmetry_group_IT_number 2
_symmetry_cell_setting 'triclinic'
loop_
_space_group_symop_operation_xyz
x,y,z
-x,-y,-z
loop_
_atom_site_type_symbol
_atom_site_label
_atom_site_fract_x
_atom_site_fract_y
_atom_site_fract_z
Si Si1 0.232716 0.437694 0.779710
Si Si2 0.434539 0.100766 0.020639
Si Si3 0.860129 0.389089 0.858581
Si Si4 0.027203 0.799660 0.464099
Si Si5 0.535238 0.805513 0.781338
Si Si6 0.848762 0.781289 0.835517
Si Si7 0.774972 0.462980 0.563839
Si Si8 0.326130 0.099033 0.738754
O O1 0.149436 0.289533 0.714328
O O2 0.337368 0.604778 0.715739
O O3 0.949062 0.392608 0.668066
O O4 0.500000 0.500000 0.000000
O O5 0.488803 0.181696 0.916355
O O6 0.426765 0.181552 0.081783
O O7 0.117071 0.921252 0.886571
O O8 0.658728 0.055586 0.197579
O O9 0.843349 0.480633 0.716348
O O10 0.531934 0.234843 0.735248
O O11 0.000000 0.500000 0.000000
O O12 0.045491 0.316314 0.997211
O O13 0.910297 0.641787 0.526262
O O14 0.964731 0.920135 0.422024
O O15 0.355484 0.879276 0.617609
O O16 0.786039 0.870931 0.840324
O O17 0.562133 0.660937 0.633611
#
# Coordination Sequence:
#
# PCOD9048417 Si02
#       8
#     2   2   2   2   2   2   2   2
#     4  11  21  37  71 102 136 171 212 281 351 398
#     4  10  24  45  68  90 132 188 226 274 324 398
#     4  11  26  41  69 100 135 178 224 279 342 399
#     4  11  22  40  70 103 135 166 219 286 342 408
#     4  11  21  40  67  98 131 169 223 278 336 394
#     4  11  22  46  67  97 138 171 228 276 335 404
#     4  11  23  42  66 106 136 170 219 283 344 397
#     4  10  24  46  61  94 131 179 232 261 332 401
#
# _framework density 25.5535
#
# number of rings (size 3 to 8) (size 9 to 14) (size 15 to 20)
#    0.000    1.250    2.500    3.375    5.250    2.500 
#    9.000    0.625    0.000    0.000    0.000    0.000 
#    0.000    0.000    0.000    0.000    0.000    0.000 
#
# Total GULP energy -89557.124613 kJ/mol
# GULP energy per Si atom -5597.320288 kJ/mol
# Density = 2.549534 g / cm^3
# Si number density = 25.553500 Si / 1000 Ang^3
#
#
#
# Elastic Constant Matrix: (Units=GPa)
#
#
# Indices 1 2 3 4 5 6 
#
# 1 132.3912 26.7145 48.4681 -12.0565 6.4748 -25.0459
# 2 26.7145 42.0687 16.9349 7.4601 9.0734 -17.7238
# 3 48.4681 16.9349 146.2700 -1.7197 6.7880 3.1263
# 4 -12.0565 7.4601 -1.7197 39.5458 -6.6875 0.3601
# 5 6.4748 9.0734 6.7880 -6.6875 59.7891 -10.7484
# 6 -25.0459 -17.7238 3.1263 0.3601 -10.7484 38.8285
#
#
#
# Elastic Compliance Matrix: (Units=1/GPa)
#
#
# Indices 1 2 3 4 5 6 
#
# 1 0.011030 -0.004287 -0.003294 0.004202 0.001334 0.005754
# 2 -0.004287 0.035283 -0.002889 -0.008754 -0.003248 0.012754
# 3 -0.003294 -0.002889 0.008399 -0.000218 -0.000971 -0.004387
# 4 0.004202 -0.008754 -0.000218 0.028900 0.004056 -0.000413
# 5 0.001334 -0.003248 -0.000971 0.004056 0.018452 0.004526
# 6 0.005754 0.012754 -0.004387 -0.000413 0.004526 0.036898
#
#
# Mechanical properties :
#
#
# Convention : Reuss Voigt Hill
#
# Bulk Modulus (GPa) = 29.61132 56.10723 42.85928
# Shear Modulus (GPa) = 29.21264 42.87350 36.04307
#
# Velocity S-wave (km/s) = 3.38479 4.10053 3.75973
# Velocity P-wave (km/s) = 5.18544 6.66510 5.97128
#
# Compressibility (1/GPa) = 0.03377086
#
# Stress axis : x y z
#
# Youngs Moduli (GPa) = 90.65931 28.34259 119.06193
#
# Poissons Ratio (x) = 0.12151 0.39221
# Poissons Ratio (y) = 0.38868 0.34399
# Poissons Ratio (z) = 0.29864 0.08189
#
# Static dielectric constant tensor:
#      x y z
#    x 2.002090 -0.043030 -0.025530 
#    y -0.043030 1.981680 0.019220 
#    z -0.025530 0.019220 2.141370 
# 
# From -- ./inp_files/518872.got.cif
#   From: 2010.05.17/outbox.cif.g08.bks.cpg/sg2_260_cif.got.tgz:518872.got - 2010.06.03 11:33:40.
