data_PCOD9048539
_publ_section_title
;
Structure prediction by ZEFSAII (Michael W. Deem and Ramdas Pophale) SiO2 
 PCOD9048539
Probable space group: P -1
;
_chemical_formula_sum "Si O2"
_cell_formula_units_Z 14
_cell_length_a 9.308655
_cell_length_b 6.765705
_cell_length_c 21.164633
_cell_angle_alpha 82.722892
_cell_angle_beta 145.208640
_cell_angle_gamma 79.273063
_cell_volume 647.759803
_symmetry_space_group_name_H-M "P -1"
_symmetry_group_IT_number 2
_symmetry_cell_setting 'triclinic'
loop_
_space_group_symop_operation_xyz
x,y,z
-x,-y,-z
loop_
_atom_site_type_symbol
_atom_site_label
_atom_site_fract_x
_atom_site_fract_y
_atom_site_fract_z
Si Si1 0.389384 0.363625 0.421082
Si Si2 0.521405 0.728005 0.793588
Si Si3 0.488042 0.006905 0.096697
Si Si4 0.314704 0.766830 0.130295
Si Si5 0.542474 0.082487 0.697847
Si Si6 0.855084 0.853816 0.561359
Si Si7 0.994083 0.822072 0.191791
O O1 0.500000 0.500000 0.500000
O O2 0.197464 0.289163 0.397150
O O3 0.203002 0.550297 0.292302
O O4 0.654719 0.125367 0.497931
O O5 0.561661 0.835127 0.867641
O O6 0.718460 0.453580 0.874457
O O7 0.185920 0.787101 0.671930
O O8 0.579198 0.850407 0.750977
O O9 0.497621 0.779138 0.137152
O O10 0.788579 0.936421 0.173474
O O11 0.223843 0.128742 0.946917
O O12 0.470545 0.768917 0.251561
O O13 0.000000 0.000000 0.000000
O O14 0.273870 0.184449 0.548618
O O15 0.815195 0.059952 0.758354
#
# Coordination Sequence:
#
# PCOD9048539 Si02
#       7
#     2   2   2   2   2   2   2
#     4  11  23  41  70  97 139 172 218 280 325 389
#     4  11  26  44  68  98 137 176 217 279 326 400
#     4  10  24  45  69  98 136 169 229 271 329 399
#     4  11  24  46  68  98 132 178 219 271 336 392
#     4  11  25  43  68 100 135 173 225 269 332 398
#     4  11  25  43  66 103 129 180 224 265 338 392
#     4  11  22  46  69 100 132 178 220 277 330 389
#
# _framework density 21.612946999999998
#
# number of rings (size 3 to 8) (size 9 to 14) (size 15 to 20)
#    0.000    1.143    2.857    2.143    4.000    5.143 
#    0.000    2.143    0.000    0.000    0.000    0.000 
#    0.000    0.000    0.000    0.000    0.000    0.000 
#
# Total GULP energy -78342.978590 kJ/mol
# GULP energy per Si atom -5595.927042 kJ/mol
# Density = 2.156376 g / cm^3
# Si number density = 21.612947 Si / 1000 Ang^3
#
#
#
# Elastic Constant Matrix: (Units=GPa)
#
#
# Indices 1 2 3 4 5 6 
#
# 1 142.8240 39.9687 44.3796 -11.8625 2.1611 38.1206
# 2 39.9687 82.8016 26.4398 -11.2406 8.9367 27.5166
# 3 44.3796 26.4398 80.6806 5.7169 13.5694 5.5527
# 4 -11.8625 -11.2406 5.7169 34.0924 -2.1740 -6.4623
# 5 2.1611 8.9367 13.5694 -2.1740 31.9014 5.5942
# 6 38.1206 27.5166 5.5527 -6.4623 5.5942 36.8803
#
#
#
# Elastic Compliance Matrix: (Units=1/GPa)
#
#
# Indices 1 2 3 4 5 6 
#
# 1 0.012693 0.000280 -0.007256 0.003688 0.004553 -0.012281
# 2 0.000280 0.018555 -0.005671 0.004798 -0.000305 -0.012393
# 3 -0.007256 -0.005671 0.019472 -0.006495 -0.008207 0.008906
# 4 0.003688 0.004798 -0.006495 0.033304 0.003636 -0.001130
# 5 0.004553 -0.000305 -0.008207 0.003636 0.036284 -0.008110
# 6 -0.012281 -0.012393 0.008906 -0.001130 -0.008110 0.048747
#
#
# Mechanical properties :
#
#
# Convention : Reuss Voigt Hill
#
# Bulk Modulus (GPa) = 39.32724 58.65359 48.99042
# Shear Modulus (GPa) = 24.65208 33.60935 29.13071
#
# Velocity S-wave (km/s) = 3.38096 3.94770 3.67527
# Velocity P-wave (km/s) = 5.78592 6.92648 6.38173
#
# Compressibility (1/GPa) = 0.02542767
#
# Stress axis : x y z
#
# Youngs Moduli (GPa) = 78.78325 53.89335 51.35705
#
# Poissons Ratio (x) = -0.01511 0.37263
# Poissons Ratio (y) = -0.02209 0.29123
# Poissons Ratio (z) = 0.57163 0.30561
#
# Static dielectric constant tensor:
#      x y z
#    x 1.815820 0.004840 0.006050 
#    y 0.004840 1.770520 0.003290 
#    z 0.006050 0.003290 1.784720 
# 
# From -- ./inp_files/78020.got.cif
#   From: 2010.05.17/outbox.cif.g08.bks.cpg/sg2_40_cif.got.tgz:78020.got - 2010.06.03 11:33:40.
