data_PCOD9048543
_publ_section_title
;
Structure prediction by ZEFSAII (Michael W. Deem and Ramdas Pophale) SiO2 
 PCOD9048543
Probable space group: P -1
;
_chemical_formula_sum "Si O2"
_cell_formula_units_Z 16
_cell_length_a 15.500209
_cell_length_b 12.133595
_cell_length_c 11.769384
_cell_angle_alpha 142.141398
_cell_angle_beta 47.941326
_cell_angle_gamma 146.109096
_cell_volume 756.815831
_symmetry_space_group_name_H-M "P -1"
_symmetry_group_IT_number 2
_symmetry_cell_setting 'triclinic'
loop_
_space_group_symop_operation_xyz
x,y,z
-x,-y,-z
loop_
_atom_site_type_symbol
_atom_site_label
_atom_site_fract_x
_atom_site_fract_y
_atom_site_fract_z
Si Si1 0.192795 0.483179 0.599501
Si Si2 0.907373 0.198595 0.790650
Si Si3 0.417437 0.978491 0.718755
Si Si4 0.041798 0.622806 0.441578
Si Si5 0.901881 0.561375 0.977456
Si Si6 0.644330 0.908739 0.365818
Si Si7 0.623509 0.673302 0.627053
Si Si8 0.597795 0.446749 0.083030
O O1 0.293259 0.768669 0.744867
O O2 0.308066 0.436933 0.469829
O O3 0.062765 0.331483 0.687745
O O4 0.095750 0.391473 0.493848
O O5 0.853336 0.344296 0.924746
O O6 0.769679 0.928824 0.657787
O O7 0.954980 0.216572 0.894475
O O8 0.507338 0.896477 0.523437
O O9 0.333234 0.998058 0.706874
O O10 0.542497 0.242449 0.874994
O O11 0.057716 0.487327 0.218997
O O12 0.000000 0.500000 0.500000
O O13 0.203267 0.891728 0.532610
O O14 0.763162 0.557159 0.077733
O O15 0.607570 0.660213 0.201883
O O16 0.500000 0.500000 0.500000
O O17 0.532433 0.689797 0.816142
#
# Coordination Sequence:
#
# PCOD9048543 Si02
#       8
#     2   2   2   2   2   2   2   2
#     4  11  24  44  71  98 140 185 235 288 356 411
#     4  10  25  45  69  95 143 188 233 292 349 419
#     4  11  24  46  70 101 146 185 233 286 354 424
#     4  11  23  44  73 100 139 189 231 284 361 421
#     4  10  24  45  69  98 138 185 234 287 354 406
#     4  11  24  46  70 102 144 188 231 288 352 422
#     4  12  28  43  69 106 138 183 242 292 355 415
#     4  12  26  42  73 104 139 181 241 289 347 421
#
# _framework density 21.141204999999999
#
# number of rings (size 3 to 8) (size 9 to 14) (size 15 to 20)
#    0.000    1.000    3.750    1.500   12.250    0.500 
#    2.250    0.625    0.000    0.000    0.000    0.000 
#    0.000    0.000    0.000    0.000    0.000    0.000 
#
# Total GULP energy -89419.533920 kJ/mol
# GULP energy per Si atom -5588.720870 kJ/mol
# Density = 2.109309 g / cm^3
# Si number density = 21.141205 Si / 1000 Ang^3
#
#
#
# Elastic Constant Matrix: (Units=GPa)
#
#
# Indices 1 2 3 4 5 6 
#
# 1 152.2927 22.4538 42.5728 -1.0733 -1.8898 15.4057
# 2 22.4538 91.3648 31.0753 7.5322 3.6511 3.7703
# 3 42.5728 31.0753 69.7032 6.8845 2.9225 0.9497
# 4 -1.0733 7.5322 6.8845 35.3340 4.3621 9.2903
# 5 -1.8898 3.6511 2.9225 4.3621 38.6126 -0.8123
# 6 15.4057 3.7703 0.9497 9.2903 -0.8123 22.8098
#
#
#
# Elastic Compliance Matrix: (Units=1/GPa)
#
#
# Indices 1 2 3 4 5 6 
#
# 1 0.008896 -0.000292 -0.005541 0.003213 0.000372 -0.007025
# 2 -0.000292 0.013065 -0.005470 -0.001319 -0.000712 -0.001223
# 3 -0.005541 -0.005470 0.020555 -0.004380 -0.000698 0.005550
# 4 0.003213 -0.001319 -0.004380 0.034128 -0.003574 -0.015797
# 5 0.000372 -0.000712 -0.000698 -0.003574 0.026489 0.002295
# 6 -0.007025 -0.001223 0.005550 -0.015797 0.002295 0.055072
#
#
# Mechanical properties :
#
#
# Convention : Reuss Voigt Hill
#
# Bulk Modulus (GPa) = 50.22014 56.17383 53.19699
# Shear Modulus (GPa) = 26.67419 33.83521 30.25470
#
# Velocity S-wave (km/s) = 3.55592 4.00489 3.78706
# Velocity P-wave (km/s) = 6.37696 6.92921 6.65881
#
# Compressibility (1/GPa) = 0.01991233
#
# Stress axis : x y z
#
# Youngs Moduli (GPa) = 112.40947 76.54139 48.64890
#
# Poissons Ratio (x) = 0.02232 0.26955
# Poissons Ratio (y) = 0.03278 0.26610
# Poissons Ratio (z) = 0.62282 0.41866
#
# Static dielectric constant tensor:
#      x y z
#    x 1.757330 0.005090 0.037680 
#    y 0.005090 1.785830 0.011200 
#    z 0.037680 0.011200 1.851600 
# 
# From -- ./inp_files/452630.got.cif
#   From: 2010.05.17/outbox.cif.g08.bks.cpg/sg2_227_cif.got.tgz:452630.got - 2010.06.03 11:33:40.
