data_PCOD9048103
_publ_section_title
;
Structure prediction by ZEFSAII (Michael W. Deem and Ramdas Pophale) SiO2 
 PCOD9048103
Probable space group: P -1
;
_chemical_formula_sum "Si O2"
_cell_formula_units_Z 10
_cell_length_a 9.610303
_cell_length_b 10.303556
_cell_length_c 6.074995
_cell_angle_alpha 84.100465
_cell_angle_beta 129.025548
_cell_angle_gamma 120.208475
_cell_volume 382.787100
_symmetry_space_group_name_H-M "P -1"
_symmetry_group_IT_number 2
_symmetry_cell_setting 'triclinic'
loop_
_space_group_symop_operation_xyz
x,y,z
-x,-y,-z
loop_
_atom_site_type_symbol
_atom_site_label
_atom_site_fract_x
_atom_site_fract_y
_atom_site_fract_z
Si Si1 0.481267 0.592804 0.662041
Si Si2 0.781347 0.993019 0.798002
Si Si3 0.879570 0.673022 0.331974
Si Si4 0.709130 0.993877 0.218213
Si Si5 0.844560 0.332163 0.749973
O O1 0.500000 0.500000 0.500000
O O2 0.283806 0.461721 0.640159
O O3 0.386989 0.692060 0.472400
O O4 0.711993 0.669624 0.996285
O O5 0.695155 0.934423 0.467237
O O6 0.813575 0.166383 0.814032
O O7 0.695448 0.925741 0.973186
O O8 0.000000 0.000000 0.000000
O O9 0.048550 0.844115 0.572222
O O10 0.037843 0.638282 0.371827
O O11 0.500000 0.000000 0.000000
O O12 0.000000 0.500000 0.000000
#
# Coordination Sequence:
#
# PCOD9048103 Si02
#       5
#     2   2   2   2   2
#     4  11  22  43  73 112 156 199 247 322 400 464
#     4  11  26  52  77 111 156 207 262 320 387 467
#     4  10  24  44  73 113 156 197 256 320 395 460
#     4  11  25  52  78 110 151 211 264 321 381 464
#     4  11  22  45  77 112 155 194 259 323 391 460
#
# _framework density 26.124179999999999
#
# number of rings (size 3 to 8) (size 9 to 14) (size 15 to 20)
#    0.000    1.200    2.000    3.000    2.800    1.600 
#   28.800    0.000    0.000    0.000    0.000    0.000 
#    0.000    0.000    0.000    0.000    0.000    0.000 
#
# Total GULP energy -55787.845419 kJ/mol
# GULP energy per Si atom -5578.784542 kJ/mol
# Density = 2.606472 g / cm^3
# Si number density = 26.124180 Si / 1000 Ang^3
#
#
#
# Elastic Constant Matrix: (Units=GPa)
#
#
# Indices 1 2 3 4 5 6 
#
# 1 197.1456 20.9135 68.4314 -41.2718 -11.1837 -21.9344
# 2 20.9135 94.9040 37.8770 -11.2131 -11.4942 -20.6181
# 3 68.4314 37.8770 224.6198 -14.5826 3.1417 -7.3506
# 4 -41.2718 -11.2131 -14.5826 47.5246 -5.9865 7.1560
# 5 -11.1837 -11.4942 3.1417 -5.9865 66.2586 -10.2473
# 6 -21.9344 -20.6181 -7.3506 7.1560 -10.2473 50.2699
#
#
#
# Elastic Compliance Matrix: (Units=1/GPa)
#
#
# Indices 1 2 3 4 5 6 
#
# 1 0.007343 0.000767 -0.001927 0.005837 0.002440 0.002903
# 2 0.000767 0.013259 -0.002154 0.002720 0.003677 0.005820
# 3 -0.001927 -0.002154 0.005348 -0.000521 -0.001171 -0.001106
# 4 0.005837 0.002720 -0.000521 0.027014 0.004009 0.000558
# 5 0.002440 0.003677 -0.001171 0.004009 0.017391 0.005376
# 6 0.002903 0.005820 -0.001106 0.000558 0.005376 0.024401
#
#
# Mechanical properties :
#
#
# Convention : Reuss Voigt Hill
#
# Bulk Modulus (GPa) = 51.75143 85.67926 68.71535
# Shear Modulus (GPa) = 46.37136 58.77379 52.57257
#
# Velocity S-wave (km/s) = 4.21769 4.74834 4.49086
# Velocity P-wave (km/s) = 6.60086 7.93287 7.29732
#
# Compressibility (1/GPa) = 0.01932314
#
# Stress axis : x y z
#
# Youngs Moduli (GPa) = 136.18002 75.42159 186.97045
#
# Poissons Ratio (x) = -0.05783 0.36022
# Poissons Ratio (y) = -0.10441 0.40269
# Poissons Ratio (z) = 0.26236 0.16244
#
# Static dielectric constant tensor:
#      x y z
#    x 2.021160 0.054060 -0.054310 
#    y 0.054060 2.309400 -0.019270 
#    z -0.054310 -0.019270 2.066800 
# 
# From -- ./inp_files/19994.got.cif
#   From: 2010.05.17/outbox.cif.g08.bks.cpg/sg2_10_cif.got.tgz:19994.got - 2010.06.03 11:33:40.
