data_PCOD9048923
_publ_section_title
;
Structure prediction by ZEFSAII (Michael W. Deem and Ramdas Pophale) SiO2 
 PCOD9048923
Probable space group: P -1
;
_chemical_formula_sum "Si O2"
_cell_formula_units_Z 12
_cell_length_a 14.306077
_cell_length_b 11.872993
_cell_length_c 5.288862
_cell_angle_alpha 63.023685
_cell_angle_beta 111.230575
_cell_angle_gamma 144.121303
_cell_volume 469.182908
_symmetry_space_group_name_H-M "P -1"
_symmetry_group_IT_number 2
_symmetry_cell_setting 'triclinic'
loop_
_space_group_symop_operation_xyz
x,y,z
-x,-y,-z
loop_
_atom_site_type_symbol
_atom_site_label
_atom_site_fract_x
_atom_site_fract_y
_atom_site_fract_z
Si Si1 0.456237 0.835609 0.965820
Si Si2 0.887590 0.902072 0.238945
Si Si3 0.436866 0.555500 0.545041
Si Si4 0.110080 0.489141 0.040250
Si Si5 0.000200 0.650202 0.419840
Si Si6 0.689400 0.919679 0.788523
O O1 0.445250 0.692942 0.252123
O O2 0.275014 0.685522 0.870089
O O3 0.586766 0.934612 0.783082
O O4 0.500000 0.000000 0.000000
O O5 0.743129 0.658403 0.339561
O O6 0.779271 0.922455 0.081484
O O7 0.000000 0.000000 0.500000
O O8 0.000000 0.000000 0.000000
O O9 0.500000 0.500000 0.500000
O O10 0.563570 0.707616 0.737214
O O11 0.122521 0.446849 0.377021
O O12 0.000000 0.500000 0.000000
O O13 0.036401 0.330029 0.913670
O O14 0.000000 0.500000 0.500000
O O15 0.167660 0.875651 0.438908
#
# Coordination Sequence:
#
# PCOD9048923 Si02
#       6
#     2   2   2   2   2   2
#     4  12  29  49  83 121 170 223 277 344 426 505
#     4  12  30  53  85 121 161 221 287 351 419 497
#     4  12  29  56  83 120 170 220 287 351 421 504
#     4  10  24  46  73 111 167 212 272 330 411 487
#     4  10  24  45  75 112 161 209 268 334 407 488
#     4  12  29  50  88 117 170 220 282 345 426 502
#
# _framework density 25.576381000000001
#
# number of rings (size 3 to 8) (size 9 to 14) (size 15 to 20)
#    0.000    0.667    1.667    3.500   16.333    0.667 
#    0.000    0.000    0.000    0.000    0.000    0.000 
#    0.000    0.000    0.000    0.000    0.000    0.000 
#
# Total GULP energy -67038.717886 kJ/mol
# GULP energy per Si atom -5586.559824 kJ/mol
# Density = 2.551817 g / cm^3
# Si number density = 25.576381 Si / 1000 Ang^3
#
#
#
# Elastic Constant Matrix: (Units=GPa)
#
#
# Indices 1 2 3 4 5 6 
#
# 1 157.1192 24.9220 19.8610 10.6372 -4.2644 -2.3835
# 2 24.9220 169.1392 13.8574 15.2612 -0.7242 -14.2257
# 3 19.8610 13.8574 86.2932 22.8652 -16.5631 -8.7194
# 4 10.6372 15.2612 22.8652 55.8187 -3.9535 -0.2003
# 5 -4.2644 -0.7242 -16.5631 -3.9535 57.3513 -2.6294
# 6 -2.3835 -14.2257 -8.7194 -0.2003 -2.6294 45.2743
#
#
#
# Elastic Compliance Matrix: (Units=1/GPa)
#
#
# Indices 1 2 3 4 5 6 
#
# 1 0.006694 -0.000848 -0.001268 -0.000520 0.000078 -0.000156
# 2 -0.000848 0.006349 -0.000259 -0.001467 -0.000072 0.001890
# 3 -0.001268 -0.000259 0.014336 -0.005280 0.003807 0.002811
# 4 -0.000520 -0.001467 -0.005280 0.020557 -0.000230 -0.001428
# 5 0.000078 -0.000072 0.003807 -0.000230 0.018607 0.001794
# 6 -0.000156 0.001890 0.002811 -0.001428 0.001794 0.023312
#
#
# Mechanical properties :
#
#
# Convention : Reuss Voigt Hill
#
# Bulk Modulus (GPa) = 44.18898 58.87027 51.52963
# Shear Modulus (GPa) = 48.94831 55.28292 52.11562
#
# Velocity S-wave (km/s) = 4.37946 4.65422 4.51893
# Velocity P-wave (km/s) = 6.54886 7.20762 6.88612
#
# Compressibility (1/GPa) = 0.02263008
#
# Stress axis : x y z
#
# Youngs Moduli (GPa) = 149.38001 157.49333 69.75631
#
# Poissons Ratio (x) = 0.13362 0.08843
# Poissons Ratio (y) = 0.12674 0.01804
# Poissons Ratio (z) = 0.18936 0.04073
#
# Static dielectric constant tensor:
#      x y z
#    x 1.804660 0.305630 -0.040590 
#    y 0.305630 1.926850 0.422200 
#    z -0.040590 0.422200 2.105870 
# 
# From -- ./inp_files/94706.got.cif
#   From: 2010.05.17/outbox.cif.g08.bks.cpg/sg2_48_cif.got.tgz:94706.got - 2010.06.03 11:33:40.
