data_PCOD9048498
_publ_section_title
;
Structure prediction by ZEFSAII (Michael W. Deem and Ramdas Pophale) SiO2 
 PCOD9048498
Probable space group: P -1
;
_chemical_formula_sum "Si O2"
_cell_formula_units_Z 14
_cell_length_a 14.898291
_cell_length_b 15.526351
_cell_length_c 5.335537
_cell_angle_alpha 70.049153
_cell_angle_beta 104.761179
_cell_angle_gamma 151.663579
_cell_volume 547.775692
_symmetry_space_group_name_H-M "P -1"
_symmetry_group_IT_number 2
_symmetry_cell_setting 'triclinic'
loop_
_space_group_symop_operation_xyz
x,y,z
-x,-y,-z
loop_
_atom_site_type_symbol
_atom_site_label
_atom_site_fract_x
_atom_site_fract_y
_atom_site_fract_z
Si Si1 0.721295 0.826699 0.914638
Si Si2 0.283909 0.992097 0.524176
Si Si3 0.045367 0.387646 0.597775
Si Si4 0.479084 0.837125 0.980590
Si Si5 0.833881 0.332692 0.859085
Si Si6 0.047244 0.122405 0.226943
Si Si7 0.709125 0.505423 0.954867
O O1 0.740391 0.919524 0.618909
O O2 0.801954 0.796671 0.933976
O O3 0.500975 0.634667 0.019390
O O4 0.859271 0.984032 0.073930
O O5 0.380641 0.056739 0.792863
O O6 0.421625 0.082375 0.299308
O O7 0.087360 0.769228 0.556131
O O8 0.163526 0.580556 0.421709
O O9 0.894789 0.295687 0.788729
O O10 0.185784 0.435052 0.773500
O O11 0.355516 0.821108 0.959419
O O12 0.330820 0.623549 0.089238
O O13 0.000000 0.500000 0.000000
O O14 0.152102 0.298349 0.250438
O O15 0.000000 0.000000 0.500000
#
# Coordination Sequence:
#
# PCOD9048498 Si02
#       7
#     2   2   2   2   2   2   2
#     4  10  24  45  69 105 144 180 243 296 359 438
#     4  11  26  47  74 107 144 192 248 301 359 439
#     4  11  25  45  74 102 146 197 239 302 364 433
#     4  11  26  46  73 105 147 191 246 303 363 431
#     4  11  24  44  68 106 145 188 249 299 365 426
#     4  11  25  45  72 107 141 185 241 301 360 432
#     4  11  23  49  72 102 145 195 236 294 371 429
#
# _framework density 25.557908000000001
#
# number of rings (size 3 to 8) (size 9 to 14) (size 15 to 20)
#    0.000    1.143    2.857    2.143    8.000    2.857 
#   10.286    0.000    0.000    0.000    0.000    0.000 
#    0.000    0.000    0.000    0.000    0.000    0.000 
#
# Total GULP energy -78458.761551 kJ/mol
# GULP energy per Si atom -5604.197254 kJ/mol
# Density = 2.549974 g / cm^3
# Si number density = 25.557908 Si / 1000 Ang^3
#
#
#
# Elastic Constant Matrix: (Units=GPa)
#
#
# Indices 1 2 3 4 5 6 
#
# 1 127.1608 37.7511 13.3421 6.6693 -18.2162 27.9922
# 2 37.7511 179.1305 30.0553 12.4235 6.3138 -11.6538
# 3 13.3421 30.0553 82.7938 5.9116 2.3725 14.3432
# 4 6.6693 12.4235 5.9116 49.6905 -0.7845 7.6797
# 5 -18.2162 6.3138 2.3725 -0.7845 37.3635 8.2003
# 6 27.9922 -11.6538 14.3432 7.6797 8.2003 39.4741
#
#
#
# Elastic Compliance Matrix: (Units=1/GPa)
#
#
# Indices 1 2 3 4 5 6 
#
# 1 0.013465 -0.004437 0.001434 0.001425 0.010280 -0.013792
# 2 -0.004437 0.007946 -0.003276 -0.002351 -0.005149 0.008210
# 3 0.001434 -0.003276 0.014289 0.000137 0.002021 -0.007623
# 4 0.001425 -0.002351 0.000137 0.021567 0.002978 -0.006569
# 5 0.010280 -0.005149 0.002021 0.002978 0.036465 -0.017699
# 6 -0.013792 0.008210 -0.007623 -0.006569 -0.017699 0.045262
#
#
# Mechanical properties :
#
#
# Convention : Reuss Voigt Hill
#
# Bulk Modulus (GPa) = 43.21244 61.26468 52.23856
# Shear Modulus (GPa) = 31.39400 45.83470 38.61435
#
# Velocity S-wave (km/s) = 3.50858 4.23941 3.89119
# Velocity P-wave (km/s) = 5.77563 6.92722 6.37747
#
# Compressibility (1/GPa) = 0.02314148
#
# Stress axis : x y z
#
# Youngs Moduli (GPa) = 74.26804 125.85085 69.98220
#
# Poissons Ratio (x) = 0.55836 -0.10033
# Poissons Ratio (y) = 0.32950 0.22928
# Poissons Ratio (z) = -0.10648 0.41233
#
# Static dielectric constant tensor:
#      x y z
#    x 2.087610 -0.016910 -0.039850 
#    y -0.016910 2.002220 -0.067200 
#    z -0.039850 -0.067200 2.017210 
# 
# From -- ./inp_files/97795.got.cif
#   From: 2010.05.17/outbox.cif.g08.bks.cpg/sg2_49_cif.got.tgz:97795.got - 2010.06.03 11:33:40.
