data_PCOD9048688
_publ_section_title
;
Structure prediction by ZEFSAII (Michael W. Deem and Ramdas Pophale) SiO2 
 PCOD9048688
Probable space group: P -1
;
_chemical_formula_sum "Si O2"
_cell_formula_units_Z 12
_cell_length_a 9.949958
_cell_length_b 12.999034
_cell_length_c 9.628454
_cell_angle_alpha 135.071755
_cell_angle_beta 135.504159
_cell_angle_gamma 75.412075
_cell_volume 529.677097
_symmetry_space_group_name_H-M "P -1"
_symmetry_group_IT_number 2
_symmetry_cell_setting 'triclinic'
loop_
_space_group_symop_operation_xyz
x,y,z
-x,-y,-z
loop_
_atom_site_type_symbol
_atom_site_label
_atom_site_fract_x
_atom_site_fract_y
_atom_site_fract_z
Si Si1 0.808436 0.808777 0.660427
Si Si2 0.514103 0.856030 0.955312
Si Si3 0.699968 0.679381 0.758455
Si Si4 0.509978 0.862444 0.277626
Si Si5 0.946677 0.491267 0.790787
Si Si6 0.265884 0.498046 0.812039
O O1 0.675164 0.732544 0.634274
O O2 0.680674 0.828890 0.455897
O O3 0.882793 0.676006 0.545690
O O4 0.000000 0.000000 0.000000
O O5 0.699034 0.817727 0.991510
O O6 0.277713 0.681024 0.587120
O O7 0.563630 0.912688 0.205824
O O8 0.500000 0.000000 0.000000
O O9 0.500000 0.500000 0.500000
O O10 0.906828 0.647412 0.878075
O O11 0.500000 0.000000 0.500000
O O12 0.305001 0.668015 0.931289
O O13 0.152439 0.496407 0.869878
O O14 0.000000 0.500000 0.000000
O O15 0.500000 0.500000 0.000000
#
# Coordination Sequence:
#
# PCOD9048688 Si02
#       6
#     2   2   2   2   2   2
#     4  11  26  45  75 107 145 194 256 310 373 445
#     4  11  26  46  73 109 152 193 242 308 380 448
#     4  10  24  45  71 104 149 193 244 304 379 445
#     4  11  26  45  74 102 152 192 246 304 378 439
#     4  11  27  44  78 107 146 196 251 303 381 445
#     4  10  25  45  73 103 148 192 252 302 379 439
#
# _framework density 22.655311999999999
#
# number of rings (size 3 to 8) (size 9 to 14) (size 15 to 20)
#    0.000    1.333    0.000    3.000   23.333    1.333 
#    0.000    1.667    0.000    0.000    0.000    0.000 
#    0.000    0.000    0.000    0.000    0.000    0.000 
#
# Total GULP energy -66948.105668 kJ/mol
# GULP energy per Si atom -5579.008806 kJ/mol
# Density = 2.260375 g / cm^3
# Si number density = 22.655312 Si / 1000 Ang^3
#
#
#
# Elastic Constant Matrix: (Units=GPa)
#
#
# Indices 1 2 3 4 5 6 
#
# 1 195.6015 80.7707 48.9475 -3.6159 -42.9949 -1.4616
# 2 80.7707 155.6133 74.6307 2.6985 -31.8780 7.2610
# 3 48.9475 74.6307 90.8300 6.1321 -31.0006 -8.3785
# 4 -3.6159 2.6985 6.1321 52.5569 -6.2871 -15.8574
# 5 -42.9949 -31.8780 -31.0006 -6.2871 48.8288 -5.2854
# 6 -1.4616 7.2610 -8.3785 -15.8574 -5.2854 57.3068
#
#
#
# Elastic Compliance Matrix: (Units=1/GPa)
#
#
# Indices 1 2 3 4 5 6 
#
# 1 0.007487 -0.003063 0.000270 0.001733 0.005158 0.001574
# 2 -0.003063 0.012336 -0.009013 -0.000882 -0.000834 -0.003280
# 3 0.000270 -0.009013 0.021720 0.000599 0.008794 0.005301
# 4 0.001733 -0.000882 0.000599 0.021724 0.004853 0.006702
# 5 0.005158 -0.000834 0.008794 0.004853 0.031308 0.005753
# 6 0.001574 -0.003280 0.005301 0.006702 0.005753 0.021066
#
#
# Mechanical properties :
#
#
# Convention : Reuss Voigt Hill
#
# Bulk Modulus (GPa) = 55.76651 94.52696 75.14673
# Shear Modulus (GPa) = 34.42850 47.58488 41.00669
#
# Velocity S-wave (km/s) = 3.90252 4.58797 4.25905
# Velocity P-wave (km/s) = 6.70633 8.35945 7.57810
#
# Compressibility (1/GPa) = 0.01793191
#
# Stress axis : x y z
#
# Youngs Moduli (GPa) = 133.56434 81.06431 46.04156
#
# Poissons Ratio (x) = 0.24827 -0.01245
# Poissons Ratio (y) = 0.40905 0.41497
# Poissons Ratio (z) = -0.03611 0.73064
#
# Static dielectric constant tensor:
#      x y z
#    x 1.886520 -0.000520 0.085160 
#    y -0.000520 1.846150 0.079020 
#    z 0.085160 0.079020 2.097360 
# 
# From -- ./inp_files/160280.got.cif
#   From: 2010.05.17/outbox.cif.g08.bks.cpg/sg2_81_cif.got.tgz:160280.got - 2010.06.03 11:33:40.
