data_PCOD9048969
_publ_section_title
;
Structure prediction by ZEFSAII (Michael W. Deem and Ramdas Pophale) SiO2 
 PCOD9048969
Probable space group: P -1
;
_chemical_formula_sum "Si O2"
_cell_formula_units_Z 13
_cell_length_a 5.090784
_cell_length_b 14.200367
_cell_length_c 9.262706
_cell_angle_alpha 118.031523
_cell_angle_beta 121.373382
_cell_angle_gamma 62.975764
_cell_volume 484.711326
_symmetry_space_group_name_H-M "P -1"
_symmetry_group_IT_number 2
_symmetry_cell_setting 'triclinic'
loop_
_space_group_symop_operation_xyz
x,y,z
-x,-y,-z
loop_
_atom_site_type_symbol
_atom_site_label
_atom_site_fract_x
_atom_site_fract_y
_atom_site_fract_z
Si Si1 0.948994 0.107282 0.166233
Si Si2 0.083914 0.102789 0.527215
Si Si3 0.027570 0.645856 0.713064
Si Si4 0.699259 0.807743 0.084922
Si Si5 0.500000 0.500000 0.500000
Si Si6 0.631913 0.321983 0.916741
Si Si7 0.392516 0.655016 0.394962
O O1 0.117855 0.081915 0.351543
O O2 0.034059 0.220103 0.222021
O O3 0.558710 0.146569 0.080125
O O4 0.000000 0.000000 0.000000
O O5 0.811078 0.220685 0.543059
O O6 0.345465 0.120098 0.728484
O O7 0.000000 0.000000 0.500000
O O8 0.264106 0.589254 0.615211
O O9 0.689843 0.618047 0.569272
O O10 0.177966 0.610231 0.886179
O O11 0.616481 0.701894 0.056625
O O12 0.059660 0.784076 0.114748
O O13 0.244677 0.559971 0.333994
O O14 0.498140 0.354882 0.744418
#
# Coordination Sequence:
#
# PCOD9048969 Si02
#       7
#     2   2   2   2   1   2   2
#     4  11  25  43  73 109 151 197 244 306 379 450
#     4  11  25  43  73 109 151 197 244 306 379 450
#     4  11  25  48  74 108 148 197 249 314 373 447
#     4  10  24  46  70 111 148 193 244 300 370 452
#     4  12  26  50  76 106 144 200 260 306 380 430
#     4  10  24  45  79 104 149 188 246 305 376 444
#     4  11  25  48  74 108 148 197 249 314 373 447
#
# _framework density 26.820087999999998
#
# number of rings (size 3 to 8) (size 9 to 14) (size 15 to 20)
#    0.000    1.231    1.538    2.308   15.077    1.846 
#    0.000    1.538    0.000    0.000    0.000    0.000 
#    0.000    0.000    0.000    0.000    0.000    0.000 
#
# Total GULP energy -72422.456161 kJ/mol
# GULP energy per Si atom -5570.958166 kJ/mol
# Density = 2.675904 g / cm^3
# Si number density = 26.820088 Si / 1000 Ang^3
#
#
#
# Elastic Constant Matrix: (Units=GPa)
#
#
# Indices 1 2 3 4 5 6 
#
# 1 101.8191 35.6267 34.0590 10.8507 -13.5275 -7.5254
# 2 35.6267 124.8745 -18.2828 31.5344 -12.1369 8.5084
# 3 34.0590 -18.2828 110.4660 17.7998 -9.3523 3.1585
# 4 10.8507 31.5344 17.7998 35.8951 0.8818 5.4142
# 5 -13.5275 -12.1369 -9.3523 0.8818 55.6037 7.2415
# 6 -7.5254 8.5084 3.1585 5.4142 7.2415 30.7128
#
#
#
# Elastic Compliance Matrix: (Units=1/GPa)
#
#
# Indices 1 2 3 4 5 6 
#
# 1 0.013971 -0.005958 -0.005915 0.003176 0.000398 0.005028
# 2 -0.005958 0.015071 0.007107 -0.014342 0.003882 -0.004753
# 3 -0.005915 0.007107 0.014201 -0.011020 0.003155 -0.003680
# 4 0.003176 -0.014342 -0.011020 0.045225 -0.004804 -0.000955
# 5 0.000398 0.003882 0.003155 -0.004804 0.020215 -0.005222
# 6 0.005028 -0.004753 -0.003680 -0.000955 -0.005222 0.036886
#
#
# Mechanical properties :
#
#
# Convention : Reuss Voigt Hill
#
# Bulk Modulus (GPa) = 29.66495 48.88502 39.27499
# Shear Modulus (GPa) = 30.05912 43.49279 36.77596
#
# Velocity S-wave (km/s) = 3.35142 4.03134 3.70700
# Velocity P-wave (km/s) = 5.10497 6.31946 5.74440
#
# Compressibility (1/GPa) = 0.03370982
#
# Stress axis : x y z
#
# Youngs Moduli (GPa) = 71.57783 66.35166 70.41985
#
# Poissons Ratio (x) = 0.39531 0.41656
# Poissons Ratio (y) = 0.42645 -0.50046
# Poissons Ratio (z) = 0.42341 -0.47155
#
# Static dielectric constant tensor:
#      x y z
#    x 2.790310 0.533540 0.385840 
#    y 0.533540 2.579500 0.284200 
#    z 0.385840 0.284200 2.387770 
# 
# From -- ./inp_files/25193.got.cif
#   From: 2010.05.17/outbox.cif.g08.bks.cpg/sg2_13_cif.got.tgz:25193.got - 2010.06.03 11:33:40.
