data_PCOD9048129
_publ_section_title
;
Structure prediction by ZEFSAII (Michael W. Deem and Ramdas Pophale) SiO2 
 PCOD9048129
Probable space group: P -1
;
_chemical_formula_sum "Si O2"
_cell_formula_units_Z 13
_cell_length_a 12.273730
_cell_length_b 21.558150
_cell_length_c 18.773292
_cell_angle_alpha 20.649532
_cell_angle_beta 148.316006
_cell_angle_gamma 160.226184
_cell_volume 574.076299
_symmetry_space_group_name_H-M "P -1"
_symmetry_group_IT_number 2
_symmetry_cell_setting 'triclinic'
loop_
_space_group_symop_operation_xyz
x,y,z
-x,-y,-z
loop_
_atom_site_type_symbol
_atom_site_label
_atom_site_fract_x
_atom_site_fract_y
_atom_site_fract_z
Si Si1 0.658345 0.442491 0.486482
Si Si2 0.648612 0.603823 0.048923
Si Si3 0.614187 0.040409 0.938809
Si Si4 0.812525 0.110505 0.590325
Si Si5 0.000000 0.500000 0.000000
Si Si6 0.797504 0.573236 0.675324
Si Si7 0.282594 0.322949 0.284723
O O1 0.525882 0.156307 0.721324
O O2 0.416723 0.408924 0.432769
O O3 0.623269 0.499583 0.327314
O O4 0.005556 0.677112 0.470021
O O5 0.376951 0.358044 0.217695
O O6 0.995472 0.732014 0.099361
O O7 0.500000 0.500000 0.000000
O O8 0.725335 0.856938 0.838082
O O9 0.500000 0.000000 0.000000
O O10 0.433518 0.748815 0.122583
O O11 0.056637 0.269220 0.487735
O O12 0.500000 0.000000 0.500000
O O13 0.035996 0.655989 0.780959
O O14 0.827478 0.552371 0.891228
O O15 0.000000 0.000000 0.500000
#
# Coordination Sequence:
#
# PCOD9048129 Si02
#       7
#     2   2   2   2   1   2   2
#     4  11  24  45  72 100 142 195 238 299 361 432
#     4  12  29  46  72 111 149 191 249 307 361 444
#     4  12  24  44  73 104 145 190 243 295 364 434
#     4  12  24  43  69 104 146 187 246 299 364 428
#     4  10  24  44  74 104 140 192 240 292 366 430
#     4  11  23  45  69 104 140 194 238 301 355 435
#     4  11  27  50  75 109 148 194 246 307 374 433
#
# _framework density 22.645074000000001
#
# number of rings (size 3 to 8) (size 9 to 14) (size 15 to 20)
#    0.000    0.615    3.077    4.154    8.615    1.231 
#    5.538    0.000    0.000    0.000    0.000    0.000 
#    0.000    0.000    0.000    0.000    0.000    0.000 
#
# Total GULP energy -72472.312419 kJ/mol
# GULP energy per Si atom -5574.793263 kJ/mol
# Density = 2.259353 g / cm^3
# Si number density = 22.645074 Si / 1000 Ang^3
#
#
#
# Elastic Constant Matrix: (Units=GPa)
#
#
# Indices 1 2 3 4 5 6 
#
# 1 106.8299 22.6974 31.4964 3.4888 -16.5242 6.1742
# 2 22.6974 69.1752 28.0189 17.3116 -4.4273 1.7018
# 3 31.4964 28.0189 109.1413 10.6850 8.0931 26.8136
# 4 3.4888 17.3116 10.6850 39.2310 4.1481 0.1286
# 5 -16.5242 -4.4273 8.0931 4.1481 47.3688 15.8303
# 6 6.1742 1.7018 26.8136 0.1286 15.8303 28.2483
#
#
#
# Elastic Compliance Matrix: (Units=1/GPa)
#
#
# Indices 1 2 3 4 5 6 
#
# 1 0.011557 -0.002472 -0.002349 0.000162 0.005214 -0.003070
# 2 -0.002472 0.018738 -0.004152 -0.007068 0.001337 0.002635
# 3 -0.002349 -0.004152 0.014301 -0.001914 0.000979 -0.013351
# 4 0.000162 -0.007068 -0.001914 0.029564 -0.004379 0.004526
# 5 0.005214 0.001337 0.000979 -0.004379 0.029509 -0.018666
# 6 -0.003070 0.002635 -0.013351 0.004526 -0.018666 0.059025
#
#
# Mechanical properties :
#
#
# Convention : Reuss Voigt Hill
#
# Bulk Modulus (GPa) = 37.52161 49.95243 43.73702
# Shear Modulus (GPa) = 26.38208 36.49852 31.44030
#
# Velocity S-wave (km/s) = 3.41695 4.01903 3.73016
# Velocity P-wave (km/s) = 5.67211 6.60633 6.15696
#
# Compressibility (1/GPa) = 0.02665131
#
# Stress axis : x y z
#
# Youngs Moduli (GPa) = 86.52827 53.36655 69.92568
#
# Poissons Ratio (x) = 0.13192 0.16424
# Poissons Ratio (y) = 0.21389 0.29032
# Poissons Ratio (z) = 0.20323 0.22157
#
# Static dielectric constant tensor:
#      x y z
#    x 1.754780 -0.057610 -0.026320 
#    y -0.057610 1.947660 -0.033780 
#    z -0.026320 -0.033780 1.825080 
# 
# From -- ./inp_files/199106.got.cif
#   From: 2010.05.17/outbox.cif.g08.bks.cpg/sg2_100_cif.got.tgz:199106.got - 2010.06.03 11:33:40.
