data_PCOD9048439
_publ_section_title
;
Structure prediction by ZEFSAII (Michael W. Deem and Ramdas Pophale) SiO2 
 PCOD9048439
Probable space group: P -1
;
_chemical_formula_sum "Si O2"
_cell_formula_units_Z 14
_cell_length_a 8.064308
_cell_length_b 10.144019
_cell_length_c 11.490002
_cell_angle_alpha 113.298668
_cell_angle_beta 57.162193
_cell_angle_gamma 77.296799
_cell_volume 599.518414
_symmetry_space_group_name_H-M "P -1"
_symmetry_group_IT_number 2
_symmetry_cell_setting 'triclinic'
loop_
_space_group_symop_operation_xyz
x,y,z
-x,-y,-z
loop_
_atom_site_type_symbol
_atom_site_label
_atom_site_fract_x
_atom_site_fract_y
_atom_site_fract_z
Si Si1 0.777665 0.192392 0.500474
Si Si2 0.227424 0.824610 0.232935
Si Si3 0.838745 0.413933 0.958290
Si Si4 0.103522 0.309919 0.049229
Si Si5 0.639691 0.809619 0.437442
Si Si6 0.455489 0.046032 0.220979
Si Si7 0.067434 0.338811 0.338610
O O1 0.759380 0.232734 0.658879
O O2 0.529133 0.253945 0.556510
O O3 0.906735 0.270436 0.415305
O O4 0.954888 0.981941 0.359052
O O5 0.301341 0.664289 0.065669
O O6 0.353570 0.926354 0.209460
O O7 0.894358 0.371512 0.057870
O O8 0.098124 0.307546 0.757755
O O9 0.754682 0.609666 0.029805
O O10 0.264598 0.100723 0.924587
O O11 0.031159 0.379949 0.231099
O O12 0.639884 0.840306 0.585534
O O13 0.500000 0.000000 0.500000
O O14 0.342794 0.181367 0.205533
O O15 0.000000 0.500000 0.500000
#
# Coordination Sequence:
#
# PCOD9048439 Si02
#       7
#     2   2   2   2   2   2   2
#     4  10  19  32  62  90 119 152 202 245 293 357
#     4  10  17  34  58  93 113 152 199 249 299 344
#     4  11  22  37  64  88 123 154 202 254 291 353
#     4  11  23  41  57  88 122 161 196 247 304 348
#     4  12  18  37  64  92 117 153 199 247 295 348
#     4  11  22  38  65  88 121 157 200 248 298 356
#     4  11  24  43  61  85 123 162 200 245 299 359
#
# _framework density 23.352076
#
# number of rings (size 3 to 8) (size 9 to 14) (size 15 to 20)
#    0.000    1.143    4.286    3.857    0.000    0.571 
#    0.000   13.571    0.000    0.000    0.000    0.000 
#    0.000    0.000    0.000    0.000    0.000    0.000 
#
# Total GULP energy -78336.815334 kJ/mol
# GULP energy per Si atom -5595.486810 kJ/mol
# Density = 2.329893 g / cm^3
# Si number density = 23.352076 Si / 1000 Ang^3
#
#
#
# Elastic Constant Matrix: (Units=GPa)
#
#
# Indices 1 2 3 4 5 6 
#
# 1 103.9060 46.6686 27.0752 1.3787 29.5885 -1.8729
# 2 46.6686 100.3060 32.6087 -4.2530 21.3115 -19.6689
# 3 27.0752 32.6087 89.4135 6.8611 22.4391 -17.0032
# 4 1.3787 -4.2530 6.8611 42.3507 -10.4868 2.9867
# 5 29.5885 21.3115 22.4391 -10.4868 49.9948 -1.9672
# 6 -1.8729 -19.6689 -17.0032 2.9867 -1.9672 27.9973
#
#
#
# Elastic Compliance Matrix: (Units=1/GPa)
#
#
# Indices 1 2 3 4 5 6 
#
# 1 0.014227 -0.005827 -0.001333 -0.002006 -0.005922 -0.004153
# 2 -0.005827 0.015475 -0.001749 0.000932 -0.001806 0.009193
# 3 -0.001333 -0.001749 0.015733 -0.004805 -0.006208 0.008313
# 4 -0.002006 0.000932 -0.004805 0.026964 0.008418 -0.004683
# 5 -0.005922 -0.001806 -0.006208 0.008418 0.028659 -0.004319
# 6 -0.004153 0.009193 0.008313 -0.004683 -0.004319 0.047143
#
#
# Mechanical properties :
#
#
# Convention : Reuss Voigt Hill
#
# Bulk Modulus (GPa) = 36.21018 56.25892 46.23455
# Shear Modulus (GPa) = 28.53480 36.55342 32.54411
#
# Velocity S-wave (km/s) = 3.49942 3.96070 3.73718
# Velocity P-wave (km/s) = 5.64515 6.71268 6.20193
#
# Compressibility (1/GPa) = 0.02761654
#
# Stress axis : x y z
#
# Youngs Moduli (GPa) = 70.29065 64.61940 63.56114
#
# Poissons Ratio (x) = 0.37655 0.08470
# Poissons Ratio (y) = 0.40960 0.11119
# Poissons Ratio (z) = 0.09367 0.11304
#
# Static dielectric constant tensor:
#      x y z
#    x 1.961290 -0.015580 -0.044940 
#    y -0.015580 1.838570 0.048090 
#    z -0.044940 0.048090 1.920050 
# 
# From -- ./inp_files/306411.got.cif
#   From: 2010.05.17/outbox.cif.g08.bks.cpg/sg2_154_cif.got.tgz:306411.got - 2010.06.03 11:33:40.
