data_PCOD9048682
_publ_section_title
;
Structure prediction by ZEFSAII (Michael W. Deem and Ramdas Pophale) SiO2 
 PCOD9048682
Probable space group: P -1
;
_chemical_formula_sum "Si O2"
_cell_formula_units_Z 10
_cell_length_a 10.429669
_cell_length_b 7.946525
_cell_length_c 8.940048
_cell_angle_alpha 47.556232
_cell_angle_beta 61.397442
_cell_angle_gamma 41.944009
_cell_volume 365.061013
_symmetry_space_group_name_H-M "P -1"
_symmetry_group_IT_number 2
_symmetry_cell_setting 'triclinic'
loop_
_space_group_symop_operation_xyz
x,y,z
-x,-y,-z
loop_
_atom_site_type_symbol
_atom_site_label
_atom_site_fract_x
_atom_site_fract_y
_atom_site_fract_z
Si Si1 0.342551 0.557509 0.166990
Si Si2 0.868078 0.196350 0.313751
Si Si3 0.436949 0.779871 0.224022
Si Si4 0.872512 0.813400 0.056464
Si Si5 0.802519 0.787988 0.620192
O O1 0.376798 0.591577 0.301022
O O2 0.301928 0.332827 0.307603
O O3 0.500000 0.500000 0.000000
O O4 0.170356 0.901065 0.015919
O O5 0.661744 0.512156 0.274039
O O6 0.980953 0.263409 0.111113
O O7 0.830777 0.984977 0.387254
O O8 0.000000 0.000000 0.500000
O O9 0.325377 0.984963 0.306898
O O10 0.338143 0.025237 0.995804
O O11 0.985810 0.515125 0.267714
#
# Coordination Sequence:
#
# PCOD9048682 Si02
#       5
#     2   2   2   2   2
#     4  10  24  45  71 103 141 179 234 287 339 414
#     4  12  25  44  73 104 142 181 232 289 338 416
#     4  10  25  45  67 108 139 174 241 279 332 430
#     4  10  25  47  66 108 139 173 242 280 332 430
#     4  12  24  46  77  99 140 192 218 285 367 386
#
# _framework density 27.392682000000001
#
# number of rings (size 3 to 8) (size 9 to 14) (size 15 to 20)
#    1.200    0.000    2.000    3.000    0.000    6.400 
#    0.000    0.000    0.000    0.000    0.000    0.000 
#    0.000    0.000    0.000    0.000    0.000    0.000 
#
# Total GULP energy -55867.105433 kJ/mol
# GULP energy per Si atom -5586.710543 kJ/mol
# Density = 2.733033 g / cm^3
# Si number density = 27.392682 Si / 1000 Ang^3
#
#
#
# Elastic Constant Matrix: (Units=GPa)
#
#
# Indices 1 2 3 4 5 6 
#
# 1 128.0374 77.0199 58.1661 -39.9777 -8.9267 8.6278
# 2 77.0199 170.6392 34.1656 -37.3019 8.7621 -12.5173
# 3 58.1661 34.1656 123.9079 -34.4340 -31.0800 -1.3804
# 4 -39.9777 -37.3019 -34.4340 46.6758 7.8665 5.9616
# 5 -8.9267 8.7621 -31.0800 7.8665 50.9281 -32.4171
# 6 8.6278 -12.5173 -1.3804 5.9616 -32.4171 62.9336
#
#
#
# Elastic Compliance Matrix: (Units=1/GPa)
#
#
# Indices 1 2 3 4 5 6 
#
# 1 0.015177 -0.004442 -0.005165 0.007251 -0.004826 -0.006250
# 2 -0.004442 0.008804 0.000102 0.003568 -0.002223 0.000879
# 3 -0.005165 0.000102 0.014419 0.003486 0.011594 0.006686
# 4 0.007251 0.003568 0.003486 0.035224 -0.007309 -0.007309
# 5 -0.004826 -0.002223 0.011594 -0.007309 0.041836 0.022716
# 6 -0.006250 0.000879 0.006686 -0.007309 0.022716 0.029461
#
#
# Mechanical properties :
#
#
# Convention : Reuss Voigt Hill
#
# Bulk Modulus (GPa) = 51.57626 84.58752 68.08189
# Shear Modulus (GPa) = 29.34384 48.98967 39.16676
#
# Velocity S-wave (km/s) = 3.27651 4.23356 3.78541
# Velocity P-wave (km/s) = 5.76051 7.40568 6.63428
#
# Compressibility (1/GPa) = 0.01938876
#
# Stress axis : x y z
#
# Youngs Moduli (GPa) = 65.88795 113.59045 69.35487
#
# Poissons Ratio (x) = 0.50456 0.35822
# Poissons Ratio (y) = 0.29267 -0.00705
# Poissons Ratio (z) = 0.34031 -0.01155
#
# Static dielectric constant tensor:
#      x y z
#    x 2.337770 0.025130 -0.028930 
#    y 0.025130 2.140940 0.052320 
#    z -0.028930 0.052320 2.144800 
# 
# From -- ./inp_files/129393.got.cif
#   From: 2010.05.17/outbox.cif.g08.bks.cpg/sg2_65_cif.got.tgz:129393.got - 2010.06.03 11:33:40.
