data_PCOD9048897
_publ_section_title
;
Structure prediction by ZEFSAII (Michael W. Deem and Ramdas Pophale) SiO2 
 PCOD9048897
Probable space group: P -1
;
_chemical_formula_sum "Si O2"
_cell_formula_units_Z 15
_cell_length_a 21.128951
_cell_length_b 18.581827
_cell_length_c 12.986875
_cell_angle_alpha 24.203367
_cell_angle_beta 157.716607
_cell_angle_gamma 161.252715
_cell_volume 593.865943
_symmetry_space_group_name_H-M "P -1"
_symmetry_group_IT_number 2
_symmetry_cell_setting 'triclinic'
loop_
_space_group_symop_operation_xyz
x,y,z
-x,-y,-z
loop_
_atom_site_type_symbol
_atom_site_label
_atom_site_fract_x
_atom_site_fract_y
_atom_site_fract_z
Si Si1 0.838039 0.704810 0.195222
Si Si2 0.757687 0.910024 0.101614
Si Si3 0.433228 0.518789 0.489008
Si Si4 0.144867 0.956591 0.528454
Si Si5 0.009221 0.598878 0.090942
Si Si6 0.000000 0.500000 0.000000
Si Si7 0.124155 0.691723 0.526078
Si Si8 0.551497 0.817167 0.687343
O O1 0.698641 0.425783 0.360296
O O2 0.014329 0.851074 0.361442
O O3 0.976753 0.766223 0.221411
O O4 0.665244 0.742913 0.886944
O O5 0.599112 0.674084 0.236984
O O6 0.983679 0.959809 0.354085
O O7 0.649103 0.873375 0.876192
O O8 0.838040 0.141223 0.975414
O O9 0.500000 0.500000 0.500000
O O10 0.622764 0.780740 0.473268
O O11 0.196436 0.456414 0.212936
O O12 0.158147 0.777270 0.835708
O O13 0.889135 0.422369 0.237675
O O14 0.126935 0.582204 0.195482
O O15 0.000000 0.500000 0.500000
O O16 0.368168 0.936642 0.550527
#
# Coordination Sequence:
#
# PCOD9048897 Si02
#       8
#     2   2   2   2   2   1   2   2
#     4  10  24  46  69 102 136 184 234 286 343 412
#     4  11  23  47  71  99 141 181 238 284 344 419
#     4  12  25  43  74 104 131 189 238 281 349 417
#     4  11  24  44  72 101 141 182 228 293 343 417
#     4  12  25  47  70 104 145 181 230 294 345 419
#     4  12  24  46  70 102 144 186 218 296 356 396
#     4  12  25  46  71 105 146 181 231 288 353 416
#     4  10  24  45  75 100 134 192 233 286 348 409
#
# _framework density 25.258224999999999
#
# number of rings (size 3 to 8) (size 9 to 14) (size 15 to 20)
#    0.000    0.800    5.333    1.600    0.000    8.533 
#    2.400    0.000    0.000    0.000    0.000    0.000 
#    0.000    0.000    0.000    0.000    0.000    0.000 
#
# Total GULP energy -83761.707532 kJ/mol
# GULP energy per Si atom -5584.113835 kJ/mol
# Density = 2.520074 g / cm^3
# Si number density = 25.258225 Si / 1000 Ang^3
#
#
#
# Elastic Constant Matrix: (Units=GPa)
#
#
# Indices 1 2 3 4 5 6 
#
# 1 56.0629 18.6487 5.1955 -13.8389 -14.2674 -6.2429
# 2 18.6487 212.6017 40.8357 -41.1298 -16.9495 11.8548
# 3 5.1955 40.8357 79.4213 -32.1342 -35.3408 12.1865
# 4 -13.8389 -41.1298 -32.1342 53.7884 16.4426 -1.5540
# 5 -14.2674 -16.9495 -35.3408 16.4426 33.5112 -3.3441
# 6 -6.2429 11.8548 12.1865 -1.5540 -3.3441 42.5349
#
#
#
# Elastic Compliance Matrix: (Units=1/GPa)
#
#
# Indices 1 2 3 4 5 6 
#
# 1 0.022860 -0.001488 0.007168 0.004665 0.014553 0.003031
# 2 -0.001488 0.005809 -0.002111 0.003266 -0.001648 -0.001243
# 3 0.007168 -0.002111 0.030830 0.009541 0.029363 -0.004536
# 4 0.004665 0.003266 0.009541 0.028005 -0.000236 -0.001955
# 5 0.014553 -0.001648 0.029363 -0.000236 0.066223 -0.000620
# 6 0.003031 -0.001243 -0.004536 -0.001955 -0.000620 0.025481
#
#
# Mechanical properties :
#
#
# Convention : Reuss Voigt Hill
#
# Bulk Modulus (GPa) = 15.00673 53.04953 34.02813
# Shear Modulus (GPa) = 25.73571 44.86063 35.29817
#
# Velocity S-wave (km/s) = 3.19549 4.21893 3.74236
# Velocity P-wave (km/s) = 4.42370 6.69186 5.67230
#
# Compressibility (1/GPa) = 0.06663675
#
# Stress axis : x y z
#
# Youngs Moduli (GPa) = 43.74376 172.13473 32.43635
#
# Poissons Ratio (x) = 0.25620 -0.23249
# Poissons Ratio (y) = 0.06511 0.06846
# Poissons Ratio (z) = -0.31354 0.36332
#
# Static dielectric constant tensor:
#      x y z
#    x 1.980900 -0.024530 0.060880 
#    y -0.024530 1.970220 -0.005400 
#    z 0.060880 -0.005400 2.120450 
# 
# From -- ./inp_files/280142.got.cif
#   From: 2010.05.17/outbox.cif.g08.bks.cpg/sg2_141_cif.got.tgz:280142.got - 2010.06.03 11:33:40.
