data_PCOD9048061
_publ_section_title
;
Structure prediction by ZEFSAII (Michael W. Deem and Ramdas Pophale) SiO2 
 PCOD9048061
Probable space group: P -1
;
_chemical_formula_sum "Si O2"
_cell_formula_units_Z 14
_cell_length_a 12.065212
_cell_length_b 14.288119
_cell_length_c 7.540969
_cell_angle_alpha 128.306001
_cell_angle_beta 110.112945
_cell_angle_gamma 33.520083
_cell_volume 516.551037
_symmetry_space_group_name_H-M "P -1"
_symmetry_group_IT_number 2
_symmetry_cell_setting 'triclinic'
loop_
_space_group_symop_operation_xyz
x,y,z
-x,-y,-z
loop_
_atom_site_type_symbol
_atom_site_label
_atom_site_fract_x
_atom_site_fract_y
_atom_site_fract_z
Si Si1 0.061700 0.006183 0.230090
Si Si2 0.298653 0.177496 0.766821
Si Si3 0.126540 0.180685 0.971288
Si Si4 0.650962 0.251194 0.425438
Si Si5 0.771782 0.748695 0.587775
Si Si6 0.305223 0.566486 0.912849
Si Si7 0.527108 0.240354 0.970058
O O1 0.225399 0.973289 0.231393
O O2 0.206854 0.781307 0.141035
O O3 0.829161 0.204263 0.433971
O O4 0.000000 0.000000 0.000000
O O5 0.203666 0.241698 0.593909
O O6 0.385069 0.239945 0.900159
O O7 0.873635 0.721562 0.067056
O O8 0.521016 0.909370 0.620996
O O9 0.269893 0.111757 0.127337
O O10 0.897784 0.347288 0.132998
O O11 0.213495 0.981355 0.710851
O O12 0.459329 0.438119 0.676425
O O13 0.554757 0.286513 0.225491
O O14 0.000000 0.500000 0.500000
O O15 0.405342 0.426597 0.979500
#
# Coordination Sequence:
#
# PCOD9048061 Si02
#       7
#     2   2   2   2   2   2   2
#     4   9  22  47  70 100 138 173 229 293 348 412
#     4  11  26  44  69 105 146 187 234 290 350 420
#     4  11  25  45  68 102 147 181 229 291 345 415
#     4  10  24  44  72  99 137 184 223 291 351 404
#     4  11  25  43  71  99 142 194 236 286 350 421
#     4  11  25  43  74 103 131 184 236 278 354 428
#     4  11  23  43  71 100 138 179 232 289 345 418
#
# _framework density 27.102841000000002
#
# number of rings (size 3 to 8) (size 9 to 14) (size 15 to 20)
#    0.000    1.429    1.429    1.714    6.000    6.286 
#    0.000    7.143    3.143    0.000    0.000    0.000 
#    0.000    0.000    0.000    0.000    0.000    0.000 
#
# Total GULP energy -78293.389832 kJ/mol
# GULP energy per Si atom -5592.384988 kJ/mol
# Density = 2.704115 g / cm^3
# Si number density = 27.102841 Si / 1000 Ang^3
#
#
#
# Elastic Constant Matrix: (Units=GPa)
#
#
# Indices 1 2 3 4 5 6 
#
# 1 174.0738 40.2658 55.1357 0.6280 -24.8815 5.3193
# 2 40.2658 139.4600 35.5246 -7.6208 -2.7845 6.9837
# 3 55.1357 35.5246 123.4592 10.2296 -29.8296 -5.9388
# 4 0.6280 -7.6208 10.2296 51.2475 1.5414 -5.8977
# 5 -24.8815 -2.7845 -29.8296 1.5414 48.8584 -2.7342
# 6 5.3193 6.9837 -5.9388 -5.8977 -2.7342 18.9048
#
#
#
# Elastic Compliance Matrix: (Units=1/GPa)
#
#
# Indices 1 2 3 4 5 6 
#
# 1 0.007164 -0.001312 -0.002435 -0.000091 0.001976 -0.002039
# 2 -0.001312 0.008424 -0.002610 0.001459 -0.002018 -0.003399
# 3 -0.002435 -0.002610 0.011910 -0.002281 0.006267 0.005586
# 4 -0.000091 0.001459 -0.002281 0.020816 -0.001732 0.005013
# 5 0.001976 -0.002018 0.006267 -0.001732 0.025537 0.005311
# 6 -0.002039 -0.003399 0.005586 0.005013 0.005311 0.058813
#
#
# Mechanical properties :
#
#
# Convention : Reuss Voigt Hill
#
# Bulk Modulus (GPa) = 67.63782 77.64946 72.64364
# Shear Modulus (GPa) = 33.26541 44.20660 38.73600
#
# Velocity S-wave (km/s) = 3.50719 4.04303 3.78461
# Velocity P-wave (km/s) = 6.43512 7.10682 6.77929
#
# Compressibility (1/GPa) = 0.01478463
#
# Stress axis : x y z
#
# Youngs Moduli (GPa) = 139.57714 118.71200 83.95968
#
# Poissons Ratio (x) = 0.15571 0.20447
# Poissons Ratio (y) = 0.18307 0.21914
# Poissons Ratio (z) = 0.33992 0.30984
#
# Static dielectric constant tensor:
#      x y z
#    x 2.207710 0.039920 0.052890 
#    y 0.039920 2.240060 0.098870 
#    z 0.052890 0.098870 2.195200 
# 
# From -- ./inp_files/337338.got.cif
#   From: 2010.05.17/outbox.cif.g08.bks.cpg/sg2_169_cif.got.tgz:337338.got - 2010.06.03 11:33:40.
