data_PCOD9048141
_publ_section_title
;
Structure prediction by ZEFSAII (Michael W. Deem and Ramdas Pophale) SiO2 
 PCOD9048141
Probable space group: P -1
;
_chemical_formula_sum "Si O2"
_cell_formula_units_Z 10
_cell_length_a 5.678839
_cell_length_b 14.306046
_cell_length_c 8.046319
_cell_angle_alpha 54.875965
_cell_angle_beta 114.853883
_cell_angle_gamma 80.502721
_cell_volume 405.761237
_symmetry_space_group_name_H-M "P -1"
_symmetry_group_IT_number 2
_symmetry_cell_setting 'triclinic'
loop_
_space_group_symop_operation_xyz
x,y,z
-x,-y,-z
loop_
_atom_site_type_symbol
_atom_site_label
_atom_site_fract_x
_atom_site_fract_y
_atom_site_fract_z
Si Si1 0.868773 0.917203 0.133839
Si Si2 0.808876 0.152898 0.351819
Si Si3 0.229715 0.421469 0.403410
Si Si4 0.242288 0.581264 0.979045
Si Si5 0.781103 0.710179 0.147843
O O1 0.925539 0.795104 0.157480
O O2 0.081579 0.851543 0.425722
O O3 0.500000 0.000000 0.000000
O O4 0.000000 0.000000 0.000000
O O5 0.830626 0.270840 0.149304
O O6 0.459083 0.203939 0.157006
O O7 0.000000 0.000000 0.500000
O O8 0.355908 0.307506 0.699499
O O9 0.065068 0.391155 0.235100
O O10 0.982062 0.561290 0.281076
O O11 0.395097 0.479341 0.285816
O O12 0.500000 0.500000 0.000000
#
# Coordination Sequence:
#
# PCOD9048141 Si02
#       5
#     2   2   2   2   2
#     4  12  29  50  75 110 156 205 255 313 386 470
#     4  12  26  46  75 112 154 200 255 314 391 459
#     4  10  24  44  74 107 146 197 257 319 380 454
#     4  11  23  45  73 107 146 199 256 316 377 460
#     4  11  24  48  74 112 149 198 259 318 387 455
#
# _framework density 24.645036999999999
#
# number of rings (size 3 to 8) (size 9 to 14) (size 15 to 20)
#    0.000    0.800    6.000    0.000    2.800    4.800 
#    0.000    0.000    0.000    0.000    0.000    0.000 
#    0.000    0.000    0.000    0.000    0.000    0.000 
#
# Total GULP energy -55830.697233 kJ/mol
# GULP energy per Si atom -5583.069723 kJ/mol
# Density = 2.458894 g / cm^3
# Si number density = 24.645037 Si / 1000 Ang^3
#
#
#
# Elastic Constant Matrix: (Units=GPa)
#
#
# Indices 1 2 3 4 5 6 
#
# 1 63.9893 6.1037 47.6446 -4.9136 -24.2902 -0.0117
# 2 6.1037 178.2679 40.5676 -7.3282 8.1521 32.2891
# 3 47.6446 40.5676 119.1071 10.0194 -1.7002 18.8661
# 4 -4.9136 -7.3282 10.0194 63.7862 7.0464 1.3011
# 5 -24.2902 8.1521 -1.7002 7.0464 38.5068 -3.4100
# 6 -0.0117 32.2891 18.8661 1.3011 -3.4100 34.2735
#
#
#
# Elastic Compliance Matrix: (Units=1/GPa)
#
#
# Indices 1 2 3 4 5 6 
#
# 1 0.036785 -0.000658 -0.016236 0.002504 0.023212 0.011784
# 2 -0.000658 0.007305 -0.001363 0.001451 -0.002860 -0.006472
# 3 -0.016236 -0.001363 0.016857 -0.002828 -0.009474 -0.008836
# 4 0.002504 0.001451 -0.002828 0.016712 -0.001967 -0.000639
# 5 0.023212 -0.002860 -0.009474 -0.001967 0.042238 0.012195
# 6 0.011784 -0.006472 -0.008836 -0.000639 0.012195 0.041379
#
#
# Mechanical properties :
#
#
# Convention : Reuss Voigt Hill
#
# Bulk Modulus (GPa) = 40.92758 61.11069 51.01913
# Shear Modulus (GPa) = 24.27966 45.11652 34.69809
#
# Velocity S-wave (km/s) = 3.14215 4.28326 3.75629
# Velocity P-wave (km/s) = 5.45958 7.02224 6.28963
#
# Compressibility (1/GPa) = 0.02443340
#
# Stress axis : x y z
#
# Youngs Moduli (GPa) = 27.18504 136.89745 59.32254
#
# Poissons Ratio (x) = 0.09002 0.96318
# Poissons Ratio (y) = 0.01788 0.08084
# Poissons Ratio (z) = 0.44139 0.18656
#
# Static dielectric constant tensor:
#      x y z
#    x 2.081580 0.086530 0.049120 
#    y 0.086530 2.061350 0.034930 
#    z 0.049120 0.034930 1.927770 
# 
# From -- ./inp_files/30171.got.cif
#   From: 2010.05.17/outbox.cif.g08.bks.cpg/sg2_16_cif.got.tgz:30171.got - 2010.06.03 11:33:40.
