data_PCOD9048009
_publ_section_title
;
Structure prediction by ZEFSAII (Michael W. Deem and Ramdas Pophale) SiO2 
 PCOD9048009
Probable space group: P -1
;
_chemical_formula_sum "Si O2"
_cell_formula_units_Z 13
_cell_length_a 9.938721
_cell_length_b 13.648402
_cell_length_c 8.719974
_cell_angle_alpha 105.121332
_cell_angle_beta 96.035727
_cell_angle_gamma 31.330514
_cell_volume 577.206531
_symmetry_space_group_name_H-M "P -1"
_symmetry_group_IT_number 2
_symmetry_cell_setting 'triclinic'
loop_
_space_group_symop_operation_xyz
x,y,z
-x,-y,-z
loop_
_atom_site_type_symbol
_atom_site_label
_atom_site_fract_x
_atom_site_fract_y
_atom_site_fract_z
Si Si1 0.107134 0.671057 0.675723
Si Si2 0.469828 0.406614 0.896210
Si Si3 0.979890 0.034049 0.194360
Si Si4 0.500000 0.000000 0.000000
Si Si5 0.421986 0.325207 0.378516
Si Si6 0.256675 0.370533 0.069306
Si Si7 0.429939 0.099440 0.372446
O O1 0.233714 0.563270 0.810303
O O2 0.326749 0.490633 0.509794
O O3 0.036663 0.834550 0.726568
O O4 0.852915 0.764267 0.658507
O O5 0.757753 0.182017 0.782803
O O6 0.500000 0.500000 0.000000
O O7 0.385978 0.381571 0.004929
O O8 0.712255 0.155684 0.273867
O O9 0.000000 0.000000 0.000000
O O10 0.454512 0.147818 0.014649
O O11 0.593649 0.971233 0.182652
O O12 0.211352 0.433267 0.264035
O O13 0.424939 0.224257 0.445502
O O14 0.000000 0.500000 0.000000
O O15 0.500000 0.000000 0.500000
#
# Coordination Sequence:
#
# PCOD9048009 Si02
#       7
#     2   2   2   1   2   2   2
#     4  12  27  48  74 112 156 196 259 318 389 461
#     4  12  25  45  77 107 149 200 248 322 380 453
#     4  12  25  50  75 108 152 200 261 316 381 472
#     4  10  24  44  72 106 148 192 250 304 382 452
#     4  11  26  48  73 110 152 200 254 315 389 460
#     4  11  24  43  73 106 143 195 251 308 382 454
#     4  11  27  48  77 114 153 201 256 327 390 459
#
# _framework density 22.522266999999999
#
# number of rings (size 3 to 8) (size 9 to 14) (size 15 to 20)
#    0.000    0.615    3.077    3.692    8.615    3.077 
#    2.769    0.000    0.000    0.000    0.000    0.000 
#    0.000    0.000    0.000    0.000    0.000    0.000 
#
# Total GULP energy -72476.087711 kJ/mol
# GULP energy per Si atom -5575.083670 kJ/mol
# Density = 2.247101 g / cm^3
# Si number density = 22.522267 Si / 1000 Ang^3
#
#
#
# Elastic Constant Matrix: (Units=GPa)
#
#
# Indices 1 2 3 4 5 6 
#
# 1 157.0798 78.6773 33.1413 7.5104 5.8335 26.6143
# 2 78.6773 142.6254 46.7842 -11.1592 6.3652 33.1494
# 3 33.1413 46.7842 72.2228 3.5935 11.2609 27.4824
# 4 7.5104 -11.1592 3.5935 45.4606 7.4448 13.6791
# 5 5.8335 6.3652 11.2609 7.4448 17.2410 11.4913
# 6 26.6143 33.1494 27.4824 13.6791 11.4913 39.9320
#
#
#
# Elastic Compliance Matrix: (Units=1/GPa)
#
#
# Indices 1 2 3 4 5 6 
#
# 1 0.009199 -0.004835 -0.000712 -0.002487 0.000901 -0.001034
# 2 -0.004835 0.013192 -0.004000 0.006374 0.001729 -0.007657
# 3 -0.000712 -0.004000 0.021311 0.001363 -0.006475 -0.009476
# 4 -0.002487 0.006374 0.001363 0.028694 -0.006426 -0.012552
# 5 0.000901 0.001729 -0.006475 -0.006426 0.075454 -0.017092
# 6 -0.001034 -0.007657 -0.009476 -0.012552 -0.017092 0.047828
#
#
# Mechanical properties :
#
#
# Convention : Reuss Voigt Hill
#
# Bulk Modulus (GPa) = 40.63783 76.57040 58.60412
# Shear Modulus (GPa) = 22.42406 34.74840 28.58623
#
# Velocity S-wave (km/s) = 3.15880 3.93217 3.56651
# Velocity P-wave (km/s) = 5.60237 7.39509 6.56026
#
# Compressibility (1/GPa) = 0.02460761
#
# Stress axis : x y z
#
# Youngs Moduli (GPa) = 108.70755 75.80458 46.92387
#
# Poissons Ratio (x) = 0.36653 0.03342
# Poissons Ratio (y) = 0.52563 0.18768
# Poissons Ratio (z) = 0.07742 0.30320
#
# Static dielectric constant tensor:
#      x y z
#    x 1.727590 0.033320 0.194780 
#    y 0.033320 1.744740 -0.205310 
#    z 0.194780 -0.205310 1.282740 
# 
# From -- ./inp_files/181598.got.cif
#   From: 2010.05.17/outbox.cif.g08.bks.cpg/sg2_91_cif.got.tgz:181598.got - 2010.06.03 11:33:40.
