data_PCOD9048074
_publ_section_title
;
Structure prediction by ZEFSAII (Michael W. Deem and Ramdas Pophale) SiO2 
 PCOD9048074
Probable space group: P -1
;
_chemical_formula_sum "Si O2"
_cell_formula_units_Z 16
_cell_length_a 5.021119
_cell_length_b 13.127889
_cell_length_c 10.821561
_cell_angle_alpha 121.071349
_cell_angle_beta 88.866517
_cell_angle_gamma 101.427106
_cell_volume 595.970489
_symmetry_space_group_name_H-M "P -1"
_symmetry_group_IT_number 2
_symmetry_cell_setting 'triclinic'
loop_
_space_group_symop_operation_xyz
x,y,z
-x,-y,-z
loop_
_atom_site_type_symbol
_atom_site_label
_atom_site_fract_x
_atom_site_fract_y
_atom_site_fract_z
Si Si1 0.711785 0.921248 0.909952
Si Si2 0.410499 0.406601 0.667379
Si Si3 0.662291 0.639087 0.100219
Si Si4 0.985400 0.640836 0.587843
Si Si5 0.733987 0.674348 0.859638
Si Si6 0.525415 0.123250 0.709201
Si Si7 0.054746 0.035904 0.330554
Si Si8 0.757303 0.220210 0.529950
O O1 0.633834 0.795656 0.906313
O O2 0.779051 0.905938 0.755185
O O3 0.500000 0.000000 0.000000
O O4 0.000000 0.000000 0.000000
O O5 0.224553 0.358895 0.759897
O O6 0.259873 0.366456 0.515079
O O7 0.503366 0.551721 0.763333
O O8 0.681581 0.351433 0.645977
O O9 0.477192 0.739847 0.161773
O O10 0.500000 0.500000 0.000000
O O11 0.841899 0.668957 0.994404
O O12 0.946076 0.672397 0.748001
O O13 0.220495 0.748387 0.596910
O O14 0.000000 0.500000 0.500000
O O15 0.532461 0.135118 0.565934
O O16 0.786380 0.069059 0.702040
O O17 0.260603 0.038431 0.720589
O O18 0.000766 0.145302 0.487420
#
# Coordination Sequence:
#
# PCOD9048074 Si02
#       8
#     2   2   2   2   2   2   2   2
#     4  12  27  46  71 103 147 198 251 307 372 450
#     4  10  24  44  73 103 148 192 246 309 375 449
#     4   9  21  46  73 102 144 193 251 304 368 442
#     4  12  25  43  71 111 148 188 243 311 382 451
#     4  11  22  45  71 104 144 193 246 303 377 443
#     4  11  26  46  73 105 148 192 253 305 370 437
#     4  12  25  46  70 107 144 197 247 309 366 444
#     4  11  25  43  70 103 147 193 248 298 374 446
#
# _framework density 26.846965999999998
#
# number of rings (size 3 to 8) (size 9 to 14) (size 15 to 20)
#    0.000    1.000    2.500    3.375    5.250    2.000 
#    0.000    3.750    0.000    0.000    0.000    0.000 
#    0.000    0.000    0.000    0.000    0.000    0.000 
#
# Total GULP energy -89278.677318 kJ/mol
# GULP energy per Si atom -5579.917332 kJ/mol
# Density = 2.678586 g / cm^3
# Si number density = 26.846966 Si / 1000 Ang^3
#
#
#
# Elastic Constant Matrix: (Units=GPa)
#
#
# Indices 1 2 3 4 5 6 
#
# 1 141.6795 57.4537 59.0828 3.3879 -17.9920 -20.4483
# 2 57.4537 196.7426 63.7852 2.7279 -21.7089 12.5817
# 3 59.0828 63.7852 132.9624 -5.1865 -28.6512 7.5752
# 4 3.3879 2.7279 -5.1865 83.5301 14.3797 -26.3483
# 5 -17.9920 -21.7089 -28.6512 14.3797 32.0824 -2.0714
# 6 -20.4483 12.5817 7.5752 -26.3483 -2.0714 45.5593
#
#
#
# Elastic Compliance Matrix: (Units=1/GPa)
#
#
# Indices 1 2 3 4 5 6 
#
# 1 0.010614 -0.002234 -0.003797 0.001429 0.000853 0.006878
# 2 -0.002234 0.006774 -0.001592 -0.001764 0.002472 -0.003516
# 3 -0.003797 -0.001592 0.011810 -0.001605 0.007814 -0.003801
# 4 0.001429 -0.001764 -0.001605 0.016725 -0.008633 0.010676
# 5 0.000853 0.002472 0.007814 -0.008633 0.043871 -0.004597
# 6 0.006878 -0.003516 -0.003801 0.010676 -0.004597 0.032605
#
#
# Mechanical properties :
#
#
# Convention : Reuss Voigt Hill
#
# Bulk Modulus (GPa) = 71.68211 92.44756 82.06484
# Shear Modulus (GPa) = 35.13783 51.63853 43.38818
#
# Velocity S-wave (km/s) = 3.62169 4.39046 4.02447
# Velocity P-wave (km/s) = 6.65184 7.75959 7.22698
#
# Compressibility (1/GPa) = 0.01395048
#
# Stress axis : x y z
#
# Youngs Moduli (GPa) = 94.21111 147.63156 84.67565
#
# Poissons Ratio (x) = 0.32983 0.32152
# Poissons Ratio (y) = 0.21048 0.13485
# Poissons Ratio (z) = 0.35772 0.23510
#
# Static dielectric constant tensor:
#      x y z
#    x 2.244130 0.038810 0.092350 
#    y 0.038810 2.108890 -0.015540 
#    z 0.092350 -0.015540 2.267620 
# 
# From -- ./inp_files/365253.got.cif
#   From: 2010.05.17/outbox.cif.g08.bks.cpg/sg2_183_cif.got.tgz:365253.got - 2010.06.03 11:33:40.
