data_PCOD9048208
_publ_section_title
;
Structure prediction by ZEFSAII (Michael W. Deem and Ramdas Pophale) SiO2 
 PCOD9048208
Probable space group: P -1
;
_chemical_formula_sum "Si O2"
_cell_formula_units_Z 15
_cell_length_a 14.488141
_cell_length_b 6.313365
_cell_length_c 9.201830
_cell_angle_alpha 73.142502
_cell_angle_beta 120.272671
_cell_angle_gamma 86.371822
_cell_volume 672.958455
_symmetry_space_group_name_H-M "P -1"
_symmetry_group_IT_number 2
_symmetry_cell_setting 'triclinic'
loop_
_space_group_symop_operation_xyz
x,y,z
-x,-y,-z
loop_
_atom_site_type_symbol
_atom_site_label
_atom_site_fract_x
_atom_site_fract_y
_atom_site_fract_z
Si Si1 0.320322 0.510184 0.292934
Si Si2 0.110393 0.301240 0.157962
Si Si3 0.359505 0.439382 0.672944
Si Si4 0.979236 0.166358 0.313875
Si Si5 0.215717 0.452975 0.801163
Si Si6 0.562382 0.642797 0.859035
Si Si7 0.500000 0.000000 0.000000
Si Si8 0.814453 0.004645 0.999711
O O1 0.211307 0.417219 0.216827
O O2 0.355694 0.494995 0.490593
O O3 0.409963 0.348170 0.291236
O O4 0.285415 0.774271 0.159358
O O5 0.088774 0.195879 0.315980
O O6 0.135632 0.113320 0.088066
O O7 0.000000 0.500000 0.000000
O O8 0.242008 0.515294 0.645955
O O9 0.457457 0.536300 0.801481
O O10 0.400361 0.174156 0.797708
O O11 0.901059 0.403343 0.262504
O O12 0.907758 0.080822 0.150633
O O13 0.000000 0.000000 0.500000
O O14 0.220479 0.190886 0.895168
O O15 0.318351 0.510138 0.958912
O O16 0.538277 0.855886 0.904861
#
# Coordination Sequence:
#
# PCOD9048208 Si02
#       8
#     2   2   2   2   2   2   1   2
#     4  12  27  46  73 108 145 187 243 303 354 434
#     4  12  24  48  69 106 143 192 243 290 361 435
#     4  11  28  44  73 106 146 189 242 299 357 433
#     4  12  28  45  74 107 144 188 239 301 358 432
#     4  11  24  47  69 107 145 188 242 293 361 434
#     4  11  23  50  71 104 144 189 242 293 363 425
#     4  10  24  44  76  96 140 188 234 294 358 412
#     4  12  24  45  74  96 147 192 234 298 366 412
#
# _framework density 22.289638
#
# number of rings (size 3 to 8) (size 9 to 14) (size 15 to 20)
#    0.000    0.533    5.333    2.400    7.467    4.267 
#    0.000    0.000    0.000    0.000    0.000    0.000 
#    0.000    0.000    0.000    0.000    0.000    0.000 
#
# Total GULP energy -83568.046998 kJ/mol
# GULP energy per Si atom -5571.203133 kJ/mol
# Density = 2.223891 g / cm^3
# Si number density = 22.289638 Si / 1000 Ang^3
#
#
#
# Elastic Constant Matrix: (Units=GPa)
#
#
# Indices 1 2 3 4 5 6 
#
# 1 131.3202 42.8331 10.2358 4.1533 -35.6447 -3.2348
# 2 42.8331 86.3665 39.0518 2.7945 -17.4884 -27.2007
# 3 10.2358 39.0518 86.2800 7.6304 -28.7331 0.3410
# 4 4.1533 2.7945 7.6304 23.3874 -3.6946 -14.1933
# 5 -35.6447 -17.4884 -28.7331 -3.6946 41.1581 3.8339
# 6 -3.2348 -27.2007 0.3410 -14.1933 3.8339 32.0889
#
#
#
# Elastic Compliance Matrix: (Units=1/GPa)
#
#
# Indices 1 2 3 4 5 6 
#
# 1 0.016682 -0.017032 0.012787 -0.015706 0.016762 -0.021841
# 2 -0.017032 0.045641 -0.027724 0.038028 -0.016519 0.056060
# 3 0.012787 -0.027724 0.033153 -0.029348 0.023375 -0.038337
# 4 -0.015706 0.038028 -0.029348 0.092896 -0.016488 0.074023
# 5 0.016762 -0.016519 0.023375 -0.016488 0.049028 -0.025712
# 6 -0.021841 0.056060 -0.038337 0.074023 -0.025712 0.112703
#
#
# Mechanical properties :
#
#
# Convention : Reuss Voigt Hill
#
# Bulk Modulus (GPa) = 31.70556 54.24537 42.97546
# Shear Modulus (GPa) = 11.77711 33.44995 22.61353
#
# Velocity S-wave (km/s) = 2.30112 3.87808 3.18863
# Velocity P-wave (km/s) = 4.61686 6.66649 5.73400
#
# Compressibility (1/GPa) = 0.03154021
#
# Stress axis : x y z
#
# Youngs Moduli (GPa) = 59.94477 21.90993 30.16332
#
# Poissons Ratio (x) = 0.37316 -0.38571
# Poissons Ratio (y) = 1.02096 0.83623
# Poissons Ratio (z) = -0.76653 0.60742
#
# Static dielectric constant tensor:
#      x y z
#    x 1.925700 -0.031390 -0.004660 
#    y -0.031390 1.877920 -0.021710 
#    z -0.004660 -0.021710 1.864640 
# 
# From -- ./inp_files/36829.got.cif
#   From: 2010.05.17/outbox.cif.g08.bks.cpg/sg2_19_cif.got.tgz:36829.got - 2010.06.03 11:33:40.
