data_PCOD9048310
_publ_section_title
;
Structure prediction by ZEFSAII (Michael W. Deem and Ramdas Pophale) SiO2 
 PCOD9048310
Probable space group: P -1
;
_chemical_formula_sum "Si O2"
_cell_formula_units_Z 16
_cell_length_a 6.072221
_cell_length_b 12.149425
_cell_length_c 11.038574
_cell_angle_alpha 120.510150
_cell_angle_beta 78.739005
_cell_angle_gamma 87.623949
_cell_volume 678.502378
_symmetry_space_group_name_H-M "P -1"
_symmetry_group_IT_number 2
_symmetry_cell_setting 'triclinic'
loop_
_space_group_symop_operation_xyz
x,y,z
-x,-y,-z
loop_
_atom_site_type_symbol
_atom_site_label
_atom_site_fract_x
_atom_site_fract_y
_atom_site_fract_z
Si Si1 0.668390 0.222811 0.283205
Si Si2 0.563050 0.417197 0.183949
Si Si3 0.596856 0.854899 0.324022
Si Si4 0.872538 0.411779 0.552362
Si Si5 0.735313 0.246167 0.853229
Si Si6 0.048398 0.007624 0.769531
Si Si7 0.903967 0.594020 0.169981
Si Si8 0.766264 0.825367 0.558278
O O1 0.627247 0.304191 0.211738
O O2 0.744083 0.319332 0.430784
O O3 0.856619 0.091904 0.189310
O O4 0.428948 0.186273 0.330370
O O5 0.318916 0.500644 0.295643
O O6 0.762590 0.505593 0.216518
O O7 0.573045 0.348195 0.012674
O O8 0.359306 0.849470 0.284271
O O9 0.710045 0.706596 0.205838
O O10 0.642853 0.867050 0.467995
O O11 0.732600 0.950024 0.292488
O O12 0.000000 0.500000 0.500000
O O13 0.071883 0.315110 0.546090
O O14 0.886541 0.325131 0.798228
O O15 0.883103 0.145385 0.875403
O O16 0.927976 0.920562 0.642797
O O17 0.000000 0.500000 0.000000
#
# Coordination Sequence:
#
# PCOD9048310 Si02
#       8
#     2   2   2   2   2   2   2   2
#     4  11  24  43  70 102 133 183 230 284 340 410
#     4  11  23  45  72 102 141 183 226 277 349 414
#     4  11  23  42  69  98 136 180 231 286 343 401
#     4  11  24  43  68 103 141 175 226 280 345 411
#     4  10  24  46  68 101 140 183 229 285 335 411
#     4  10  24  45  66  98 138 178 240 281 341 405
#     4   9  22  41  64  98 138 179 226 273 337 408
#     4  11  24  43  69 103 135 180 229 291 342 403
#
# _framework density 23.58135
#
# number of rings (size 3 to 8) (size 9 to 14) (size 15 to 20)
#    0.000    1.500    1.250    2.250    1.750   11.500 
#    4.500    3.750    0.000    0.000    0.000    0.000 
#    0.000    0.000    0.000    0.000    0.000    0.000 
#
# Total GULP energy -89340.047672 kJ/mol
# GULP energy per Si atom -5583.752980 kJ/mol
# Density = 2.352768 g / cm^3
# Si number density = 23.581350 Si / 1000 Ang^3
#
#
#
# Elastic Constant Matrix: (Units=GPa)
#
#
# Indices 1 2 3 4 5 6 
#
# 1 80.0178 30.2079 22.5145 -13.5468 9.6375 31.9609
# 2 30.2079 125.7580 11.7682 -9.1819 -0.3783 22.9080
# 3 22.5145 11.7682 71.7284 5.6173 -13.5160 7.9896
# 4 -13.5468 -9.1819 5.6173 27.4247 -2.8605 9.8799
# 5 9.6375 -0.3783 -13.5160 -2.8605 46.9963 13.1668
# 6 31.9609 22.9080 7.9896 9.8799 13.1668 45.0953
#
#
#
# Elastic Compliance Matrix: (Units=1/GPa)
#
#
# Indices 1 2 3 4 5 6 
#
# 1 0.028644 0.000120 -0.008215 0.024645 0.000081 -0.024330
# 2 0.000120 0.009709 -0.000969 0.006171 0.002055 -0.006797
# 3 -0.008215 -0.000969 0.017983 -0.008767 0.005337 0.003492
# 4 0.024645 0.006171 -0.008767 0.065902 0.006390 -0.035353
# 5 0.000081 0.002055 0.005337 0.006390 0.026321 -0.011132
# 6 -0.024330 -0.006797 0.003492 -0.035353 -0.011132 0.053248
#
#
# Mechanical properties :
#
#
# Convention : Reuss Voigt Hill
#
# Bulk Modulus (GPa) = 26.17462 45.16504 35.66983
# Shear Modulus (GPa) = 21.48955 38.10417 29.79686
#
# Velocity S-wave (km/s) = 3.02204 4.02414 3.55854
# Velocity P-wave (km/s) = 4.82709 6.38639 5.66069
#
# Compressibility (1/GPa) = 0.03820494
#
# Stress axis : x y z
#
# Youngs Moduli (GPa) = 34.91139 103.00124 55.60960
#
# Poissons Ratio (x) = -0.01234 0.45686
# Poissons Ratio (y) = -0.00418 0.05391
# Poissons Ratio (z) = 0.28681 0.09986
#
# Static dielectric constant tensor:
#      x y z
#    x 1.896120 -0.012220 -0.120750 
#    y -0.012220 1.837480 0.134680 
#    z -0.120750 0.134680 1.566020 
# 
# From -- ./inp_files/365203.got.cif
#   From: 2010.05.17/outbox.cif.g08.bks.cpg/sg2_183_cif.got.tgz:365203.got - 2010.06.03 11:33:40.
