data_PCOD9048822
_publ_section_title
;
Structure prediction by ZEFSAII (Michael W. Deem and Ramdas Pophale) SiO2 
 PCOD9048822
Probable space group: P -1
;
_chemical_formula_sum "Si O2"
_cell_formula_units_Z 16
_cell_length_a 4.994044
_cell_length_b 10.359938
_cell_length_c 15.837883
_cell_angle_alpha 57.108753
_cell_angle_beta 118.981395
_cell_angle_gamma 101.123613
_cell_volume 599.152893
_symmetry_space_group_name_H-M "P -1"
_symmetry_group_IT_number 2
_symmetry_cell_setting 'triclinic'
loop_
_space_group_symop_operation_xyz
x,y,z
-x,-y,-z
loop_
_atom_site_type_symbol
_atom_site_label
_atom_site_fract_x
_atom_site_fract_y
_atom_site_fract_z
Si Si1 0.291241 0.598869 0.027446
Si Si2 0.265160 0.900571 0.449413
Si Si3 0.176585 0.722848 0.257624
Si Si4 0.313320 0.038185 0.235923
Si Si5 0.262102 0.708571 0.799478
Si Si6 0.874107 0.725889 0.580677
Si Si7 0.018565 0.828134 0.025304
Si Si8 0.201084 0.448323 0.628910
O O1 0.562959 0.462450 0.126489
O O2 0.287765 0.709873 0.068405
O O3 0.278411 0.707877 0.903922
O O4 0.000000 0.500000 0.000000
O O5 0.009660 0.850564 0.492895
O O6 0.504817 0.755601 0.505886
O O7 0.500000 0.000000 0.500000
O O8 0.152651 0.994235 0.314686
O O9 0.970180 0.740944 0.135559
O O10 0.446572 0.588079 0.329547
O O11 0.940622 0.701912 0.303434
O O12 0.356141 0.872411 0.254419
O O13 0.571897 0.147889 0.262597
O O14 0.162987 0.143200 0.099590
O O15 0.949329 0.723396 0.693092
O O16 0.086289 0.575650 0.634913
O O17 0.000000 0.000000 0.000000
O O18 0.000000 0.500000 0.500000
#
# Coordination Sequence:
#
# PCOD9048822 Si02
#       8
#     2   2   2   2   2   2   2   2
#     4  11  24  43  70 102 143 181 249 293 364 440
#     4  12  26  45  69 108 147 183 246 298 367 445
#     4  11  26  46  74 106 147 188 249 298 359 444
#     4  11  24  46  70 106 142 192 242 300 373 431
#     4  11  26  42  72 106 140 196 236 308 367 442
#     4  12  27  45  73 106 144 189 244 301 373 432
#     4  10  24  45  73 105 140 193 240 304 366 432
#     4  12  25  48  75 104 147 194 242 303 366 433
#
# _framework density 26.704367000000001
#
# number of rings (size 3 to 8) (size 9 to 14) (size 15 to 20)
#    0.000    0.750    2.500    3.750    5.250    3.000 
#    0.000    4.375    0.000    0.000    0.000    0.000 
#    0.000    0.000    0.000    0.000    0.000    0.000 
#
# Total GULP energy -89286.638773 kJ/mol
# GULP energy per Si atom -5580.414923 kJ/mol
# Density = 2.664359 g / cm^3
# Si number density = 26.704367 Si / 1000 Ang^3
#
#
#
# Elastic Constant Matrix: (Units=GPa)
#
#
# Indices 1 2 3 4 5 6 
#
# 1 101.0579 19.0625 36.0287 -5.7385 -19.2760 -11.6662
# 2 19.0625 112.6306 -0.8779 -4.5823 -11.3231 -19.4788
# 3 36.0287 -0.8779 187.3491 18.1657 -17.0318 3.2022
# 4 -5.7385 -4.5823 18.1657 38.0943 -0.6010 -10.3047
# 5 -19.2760 -11.3231 -17.0318 -0.6010 41.7533 -0.0133
# 6 -11.6662 -19.4788 3.2022 -10.3047 -0.0133 29.2099
#
#
#
# Elastic Compliance Matrix: (Units=1/GPa)
#
#
# Indices 1 2 3 4 5 6 
#
# 1 0.012949 -0.000280 -0.002672 0.005192 0.004889 0.007112
# 2 -0.000280 0.010806 -0.000137 0.003638 0.002800 0.008394
# 3 -0.002672 -0.000137 0.006454 -0.004401 0.001297 -0.003418
# 4 0.005192 0.003638 -0.004401 0.034215 0.002086 0.017054
# 5 0.004889 0.002800 0.001297 0.002086 0.027528 0.004427
# 6 0.007112 0.008394 -0.003418 0.017054 0.004427 0.049066
#
#
# Mechanical properties :
#
#
# Convention : Reuss Voigt Hill
#
# Bulk Modulus (GPa) = 41.61229 56.60712 49.10971
# Shear Modulus (GPa) = 32.21517 44.93312 38.57414
#
# Velocity S-wave (km/s) = 3.47704 4.10642 3.80477
# Velocity P-wave (km/s) = 5.63349 6.61266 6.14261
#
# Compressibility (1/GPa) = 0.02403136
#
# Stress axis : x y z
#
# Youngs Moduli (GPa) = 77.22496 92.54018 154.94440
#
# Poissons Ratio (x) = 0.02588 0.41402
# Poissons Ratio (y) = 0.02160 0.02126
# Poissons Ratio (z) = 0.20635 0.01270
#
# Static dielectric constant tensor:
#      x y z
#    x 2.163160 0.015000 0.054500 
#    y 0.015000 2.218020 -0.044030 
#    z 0.054500 -0.044030 2.143160 
# 
# From -- ./inp_files/482669.got.cif
#   From: 2010.05.17/outbox.cif.g08.bks.cpg/sg2_242_cif.got.tgz:482669.got - 2010.06.03 11:33:40.
