data_PCOD9048856
_publ_section_title
;
Structure prediction by ZEFSAII (Michael W. Deem and Ramdas Pophale) SiO2 
 PCOD9048856
Probable space group: P -1
;
_chemical_formula_sum "Si O2"
_cell_formula_units_Z 15
_cell_length_a 9.138469
_cell_length_b 10.526299
_cell_length_c 8.517856
_cell_angle_alpha 113.061870
_cell_angle_beta 130.895228
_cell_angle_gamma 67.894590
_cell_volume 561.342998
_symmetry_space_group_name_H-M "P -1"
_symmetry_group_IT_number 2
_symmetry_cell_setting 'triclinic'
loop_
_space_group_symop_operation_xyz
x,y,z
-x,-y,-z
loop_
_atom_site_type_symbol
_atom_site_label
_atom_site_fract_x
_atom_site_fract_y
_atom_site_fract_z
Si Si1 0.139563 0.253971 0.368104
Si Si2 0.331694 0.573094 0.298801
Si Si3 0.392599 0.400921 0.763073
Si Si4 0.323044 0.307829 0.990513
Si Si5 0.223949 0.871237 0.457399
Si Si6 0.500000 0.000000 0.500000
Si Si7 0.762084 0.173126 0.207534
Si Si8 0.148287 0.099308 0.976556
O O1 0.215552 0.402149 0.512213
O O2 0.936462 0.249682 0.312375
O O3 0.323935 0.132709 0.485804
O O4 0.107746 0.202071 0.143989
O O5 0.500000 0.500000 0.500000
O O6 0.425274 0.642496 0.248344
O O7 0.241173 0.447480 0.097928
O O8 0.209147 0.705566 0.361639
O O9 0.500000 0.500000 0.000000
O O10 0.288511 0.324675 0.790613
O O11 0.561243 0.277853 0.150936
O O12 0.251425 0.178135 0.956511
O O13 0.425588 0.906379 0.548498
O O14 0.196463 0.908097 0.637797
O O15 0.057349 0.934139 0.247507
O O16 0.731008 0.059116 0.994635
#
# Coordination Sequence:
#
# PCOD9048856 Si02
#       8
#     2   2   2   2   2   1   2   2
#     4  12  26  45  73 109 150 191 246 303 377 440
#     4  11  22  46  73 103 145 197 250 297 369 432
#     4  10  24  45  74 102 137 194 244 306 359 438
#     4  11  25  45  74 103 150 195 247 305 372 432
#     4  12  26  46  77 105 151 196 250 306 364 446
#     4  12  26  44  78 104 146 200 238 306 376 430
#     4  12  26  45  72 113 152 193 247 307 366 447
#     4  12  27  45  71 113 150 198 243 306 375 441
#
# _framework density 26.721632
#
# number of rings (size 3 to 8) (size 9 to 14) (size 15 to 20)
#    0.000    0.533    4.000    3.600    5.600    0.533 
#    0.000    2.667    0.000    0.000    0.000    0.000 
#    0.000    0.000    0.000    0.000    0.000    0.000 
#
# Total GULP energy -83507.374868 kJ/mol
# GULP energy per Si atom -5567.158325 kJ/mol
# Density = 2.666081 g / cm^3
# Si number density = 26.721632 Si / 1000 Ang^3
#
#
#
# Elastic Constant Matrix: (Units=GPa)
#
#
# Indices 1 2 3 4 5 6 
#
# 1 135.4066 8.2564 51.4250 29.3703 2.2286 10.5980
# 2 8.2564 67.0175 8.5359 19.4461 0.2213 -4.8244
# 3 51.4250 8.5359 123.1544 36.9262 -5.8120 -3.8359
# 4 29.3703 19.4461 36.9262 44.7127 5.9426 0.8625
# 5 2.2286 0.2213 -5.8120 5.9426 46.8453 2.5812
# 6 10.5980 -4.8244 -3.8359 0.8625 2.5812 40.5969
#
#
#
# Elastic Compliance Matrix: (Units=1/GPa)
#
#
# Indices 1 2 3 4 5 6 
#
# 1 0.009531 0.000114 -0.002938 -0.003808 -0.000189 -0.002659
# 2 0.000114 0.017550 0.001641 -0.009262 0.001162 0.002334
# 3 -0.002938 0.001641 0.012205 -0.009264 0.002703 0.002140
# 4 -0.003808 -0.009262 -0.009264 0.037314 -0.005580 -0.001420
# 5 -0.000189 0.001162 0.002703 -0.005580 0.022441 -0.000866
# 6 -0.002659 0.002334 0.002140 -0.001420 -0.000866 0.025891
#
#
# Mechanical properties :
#
#
# Convention : Reuss Voigt Hill
#
# Bulk Modulus (GPa) = 27.08610 51.33480 39.21045
# Shear Modulus (GPa) = 35.81529 43.58838 39.70184
#
# Velocity S-wave (km/s) = 3.66500 4.04320 3.85873
# Velocity P-wave (km/s) = 5.29792 6.40697 5.87866
#
# Compressibility (1/GPa) = 0.03691931
#
# Stress axis : x y z
#
# Youngs Moduli (GPa) = 104.91984 56.97968 81.93536
#
# Poissons Ratio (x) = -0.00650 0.24071
# Poissons Ratio (y) = -0.01196 -0.13442
# Poissons Ratio (z) = 0.30824 -0.09348
#
# Static dielectric constant tensor:
#      x y z
#    x 2.006990 0.000440 0.009460 
#    y 0.000440 2.412150 -0.029470 
#    z 0.009460 -0.029470 2.222470 
# 
# From -- ./inp_files/190502.got.cif
#   From: 2010.05.17/outbox.cif.g08.bks.cpg/sg2_96_cif.got.tgz:190502.got - 2010.06.03 11:33:40.
