data_PCOD9048976
_publ_section_title
;
Structure prediction by ZEFSAII (Michael W. Deem and Ramdas Pophale) SiO2 
 PCOD9048976
Probable space group: P -1
;
_chemical_formula_sum "Si O2"
_cell_formula_units_Z 14
_cell_length_a 18.329981
_cell_length_b 7.164110
_cell_length_c 7.498656
_cell_angle_alpha 77.472818
_cell_angle_beta 75.242919
_cell_angle_gamma 133.853538
_cell_volume 566.971824
_symmetry_space_group_name_H-M "P -1"
_symmetry_group_IT_number 2
_symmetry_cell_setting 'triclinic'
loop_
_space_group_symop_operation_xyz
x,y,z
-x,-y,-z
loop_
_atom_site_type_symbol
_atom_site_label
_atom_site_fract_x
_atom_site_fract_y
_atom_site_fract_z
Si Si1 0.586090 0.992898 0.514358
Si Si2 0.020747 0.864353 0.642285
Si Si3 0.369166 0.840248 0.135016
Si Si4 0.906890 0.059533 0.052478
Si Si5 0.583557 0.653810 0.091532
Si Si6 0.199982 0.185587 0.197203
Si Si7 0.169531 0.683998 0.877822
O O1 0.636343 0.130938 0.655857
O O2 0.500000 0.000000 0.500000
O O3 0.708974 0.181038 0.289761
O O4 0.495290 0.625857 0.659829
O O5 0.105761 0.904091 0.455533
O O6 0.894923 0.515776 0.857431
O O7 0.000000 0.000000 0.500000
O O8 0.909830 0.944447 0.256046
O O9 0.268073 0.492551 0.194427
O O10 0.500000 0.000000 0.000000
O O11 0.820462 0.067750 0.153325
O O12 0.864413 0.880135 0.933785
O O13 0.050114 0.416285 0.875669
O O14 0.500000 0.500000 0.000000
O O15 0.699238 0.761388 0.939164
O O16 0.376605 0.048126 0.969932
#
# Coordination Sequence:
#
# PCOD9048976 Si02
#       7
#     2   2   2   2   2   2   2
#     4  11  25  47  84 117 162 216 266 342 402 487
#     4  10  25  45  79 113 156 213 256 337 393 483
#     4  11  25  49  76 118 162 214 277 324 406 482
#     4   9  24  48  78 118 159 212 265 333 406 485
#     4  10  24  45  80 115 154 217 261 335 396 473
#     4  12  25  47  83 118 162 206 277 328 410 486
#     4   9  23  51  74 120 163 204 274 323 414 485
#
# _framework density 24.692585000000001
#
# number of rings (size 3 to 8) (size 9 to 14) (size 15 to 20)
#    0.857    0.857    2.857    0.000    6.000    5.714 
#    0.000    1.429    0.000    1.714    0.000    0.000 
#    0.000    0.000    0.000    0.000    0.000    0.000 
#
# Total GULP energy -78271.868473 kJ/mol
# GULP energy per Si atom -5590.847748 kJ/mol
# Density = 2.463638 g / cm^3
# Si number density = 24.692585 Si / 1000 Ang^3
#
#
#
# Elastic Constant Matrix: (Units=GPa)
#
#
# Indices 1 2 3 4 5 6 
#
# 1 144.3094 64.8268 83.1621 -17.4106 1.1191 9.3570
# 2 64.8268 143.4592 80.2422 23.1126 -14.7129 2.5534
# 3 83.1621 80.2422 189.0208 -3.3397 -10.6683 13.2945
# 4 -17.4106 23.1126 -3.3397 55.3733 10.8654 -7.7267
# 5 1.1191 -14.7129 -10.6683 10.8654 54.7568 -7.5910
# 6 9.3570 2.5534 13.2945 -7.7267 -7.5910 38.4963
#
#
#
# Elastic Compliance Matrix: (Units=1/GPa)
#
#
# Indices 1 2 3 4 5 6 
#
# 1 0.011746 -0.004891 -0.003117 0.006105 -0.003500 -0.000919
# 2 -0.004891 0.012653 -0.003155 -0.007792 0.004538 0.000770
# 3 -0.003117 -0.003155 0.008153 0.000505 0.000475 -0.001654
# 4 0.006105 -0.007792 0.000505 0.024934 -0.006716 0.002539
# 5 -0.003500 0.004538 0.000475 -0.006716 0.021431 0.003264
# 6 -0.000919 0.000770 -0.001654 0.002539 0.003264 0.027873
#
#
# Mechanical properties :
#
#
# Convention : Reuss Voigt Hill
#
# Bulk Modulus (GPa) = 97.78526 103.69462 100.73994
# Shear Modulus (GPa) = 37.72917 46.29584 42.01250
#
# Velocity S-wave (km/s) = 3.91315 4.33470 4.12930
# Velocity P-wave (km/s) = 7.75268 8.19379 7.97628
#
# Compressibility (1/GPa) = 0.01022649
#
# Stress axis : x y z
#
# Youngs Moduli (GPa) = 85.13586 79.03529 122.65308
#
# Poissons Ratio (x) = 0.38654 0.38226
# Poissons Ratio (y) = 0.41638 0.38699
# Poissons Ratio (z) = 0.26533 0.24937
#
# Static dielectric constant tensor:
#      x y z
#    x 2.008760 -0.012100 -0.022510 
#    y -0.012100 2.109000 0.011540 
#    z -0.022510 0.011540 1.947810 
# 
# From -- ./inp_files/344523.got.cif
#   From: 2010.05.17/outbox.cif.g08.bks.cpg/sg2_173_cif.got.tgz:344523.got - 2010.06.03 11:33:40.
