data_PCOD9048210
_publ_section_title
;
Structure prediction by ZEFSAII (Michael W. Deem and Ramdas Pophale) SiO2 
 PCOD9048210
Probable space group: P -1
;
_chemical_formula_sum "Si O2"
_cell_formula_units_Z 15
_cell_length_a 25.937600
_cell_length_b 5.346348
_cell_length_c 11.488885
_cell_angle_alpha 91.916814
_cell_angle_beta 149.369993
_cell_angle_gamma 72.066734
_cell_volume 678.514596
_symmetry_space_group_name_H-M "P -1"
_symmetry_group_IT_number 2
_symmetry_cell_setting 'triclinic'
loop_
_space_group_symop_operation_xyz
x,y,z
-x,-y,-z
loop_
_atom_site_type_symbol
_atom_site_label
_atom_site_fract_x
_atom_site_fract_y
_atom_site_fract_z
Si Si1 0.294313 0.286288 0.800857
Si Si2 0.500000 0.000000 0.000000
Si Si3 0.140555 0.983842 0.482989
Si Si4 0.898490 0.836780 0.841202
Si Si5 0.300147 0.195941 0.431485
Si Si6 0.672682 0.229612 0.729473
Si Si7 0.889710 0.179523 0.041857
Si Si8 0.448861 0.875543 0.305343
O O1 0.221912 0.643863 0.678998
O O2 0.207119 0.161281 0.619376
O O3 0.379056 0.197324 0.851064
O O4 0.377371 0.114067 0.070646
O O5 0.584081 0.856980 0.279264
O O6 0.113312 0.974025 0.291929
O O7 0.012646 0.159618 0.305396
O O8 0.766849 0.899411 0.610720
O O9 0.930158 0.904163 0.029590
O O10 0.000000 0.500000 0.000000
O O11 0.200856 0.533116 0.207944
O O12 0.327715 0.999645 0.365727
O O13 0.802801 0.187550 0.972269
O O14 0.564345 0.558941 0.483391
O O15 0.639470 0.185496 0.793232
O O16 0.500000 0.000000 0.500000
#
# Coordination Sequence:
#
# PCOD9048210 Si02
#       8
#     2   1   2   2   2   2   2   2
#     4  12  29  45  73 108 147 193 235 302 373 425
#     4  12  24  42  66 104 154 184 232 298 358 436
#     4  12  26  45  67 107 150 188 238 294 358 436
#     4  11  21  40  67 100 145 200 238 280 348 438
#     4  11  23  41  68 106 144 184 244 291 367 425
#     4  10  24  44  77 103 129 187 249 306 349 442
#     4  11  23  41  70 100 144 191 241 292 355 434
#     4  11  25  50  76  99 139 187 250 302 366 434
#
# _framework density 22.107113999999999
#
# number of rings (size 3 to 8) (size 9 to 14) (size 15 to 20)
#    0.000    0.800    2.667    4.400    7.467    1.600 
#    0.000    1.333    0.000    0.000    0.000    0.000 
#    0.000    0.000    0.000    0.000    0.000    0.000 
#
# Total GULP energy -83623.578564 kJ/mol
# GULP energy per Si atom -5574.905238 kJ/mol
# Density = 2.205680 g / cm^3
# Si number density = 22.107114 Si / 1000 Ang^3
#
#
#
# Elastic Constant Matrix: (Units=GPa)
#
#
# Indices 1 2 3 4 5 6 
#
# 1 111.3560 9.1220 29.9233 -11.4984 22.4779 5.6721
# 2 9.1220 66.1470 18.9755 -22.1069 9.1460 -3.2222
# 3 29.9233 18.9755 84.9994 -17.9671 8.9533 -3.8630
# 4 -11.4984 -22.1069 -17.9671 29.0381 -1.1911 -2.1666
# 5 22.4779 9.1460 8.9533 -1.1911 42.9881 -3.8244
# 6 5.6721 -3.2222 -3.8630 -2.1666 -3.8244 28.2169
#
#
#
# Elastic Compliance Matrix: (Units=1/GPa)
#
#
# Indices 1 2 3 4 5 6 
#
# 1 0.011346 0.000889 -0.003159 0.002746 -0.005670 -0.003169
# 2 0.000889 0.021350 -0.001156 0.015930 -0.004078 0.002771
# 3 -0.003159 -0.001156 0.014886 0.007273 -0.000734 0.003000
# 4 0.002746 0.015930 0.007273 0.052397 -0.004381 0.005692
# 5 -0.005670 -0.004078 -0.000734 -0.004381 0.027478 0.003961
# 6 -0.003169 0.002771 0.003000 0.005692 0.003961 0.037778
#
#
# Mechanical properties :
#
#
# Convention : Reuss Voigt Hill
#
# Bulk Modulus (GPa) = 24.55301 42.06044 33.30673
# Shear Modulus (GPa) = 26.93032 33.68072 30.30552
#
# Velocity S-wave (km/s) = 3.49402 3.90747 3.70651
# Velocity P-wave (km/s) = 5.23527 6.27892 5.78070
#
# Compressibility (1/GPa) = 0.04072820
#
# Stress axis : x y z
#
# Youngs Moduli (GPa) = 88.13939 46.83905 67.17677
#
# Poissons Ratio (x) = -0.04163 0.21221
# Poissons Ratio (y) = -0.07833 0.07768
# Poissons Ratio (z) = 0.27844 0.05416
#
# Static dielectric constant tensor:
#      x y z
#    x 1.821590 0.061990 0.028160 
#    y 0.061990 1.922720 0.031510 
#    z 0.028160 0.031510 1.839860 
# 
# From -- ./inp_files/475902.got.cif
#   From: 2010.05.17/outbox.cif.g08.bks.cpg/sg2_238_cif.got.tgz:475902.got - 2010.06.03 11:33:40.
