data_PCOD9048100
_publ_section_title
;
Structure prediction by ZEFSAII (Michael W. Deem and Ramdas Pophale) SiO2 
 PCOD9048100
Probable space group: P -1
;
_chemical_formula_sum "Si O2"
_cell_formula_units_Z 14
_cell_length_a 16.357990
_cell_length_b 5.367254
_cell_length_c 11.132731
_cell_angle_alpha 108.447126
_cell_angle_beta 141.164242
_cell_angle_gamma 64.488838
_cell_volume 552.860251
_symmetry_space_group_name_H-M "P -1"
_symmetry_group_IT_number 2
_symmetry_cell_setting 'triclinic'
loop_
_space_group_symop_operation_xyz
x,y,z
-x,-y,-z
loop_
_atom_site_type_symbol
_atom_site_label
_atom_site_fract_x
_atom_site_fract_y
_atom_site_fract_z
Si Si1 0.494375 0.101307 0.874564
Si Si2 0.115707 0.890550 0.412278
Si Si3 0.725982 0.957703 0.774690
Si Si4 0.483818 0.236492 0.373767
Si Si5 0.276154 0.637947 0.784340
Si Si6 0.901239 0.681205 0.735755
Si Si7 0.843957 0.321941 0.109515
O O1 0.368359 0.384023 0.771756
O O2 0.492772 0.846682 0.750321
O O3 0.627026 0.201263 0.021802
O O4 0.500000 0.000000 0.000000
O O5 0.172758 0.842780 0.604889
O O6 0.149557 0.583568 0.352452
O O7 0.164665 0.092184 0.409652
O O8 0.952530 0.038755 0.242889
O O9 0.665926 0.786328 0.772132
O O10 0.869512 0.828412 0.850664
O O11 0.610299 0.003202 0.546131
O O12 0.734066 0.231138 0.892249
O O13 0.500000 0.500000 0.500000
O O14 0.211827 0.522964 0.806947
O O15 0.057708 0.576529 0.851120
#
# Coordination Sequence:
#
# PCOD9048100 Si02
#       7
#     2   2   2   2   2   2   2
#     4  11  27  44  74 108 148 201 253 319 374 446
#     4  10  25  44  71 109 149 197 244 305 386 446
#     4  11  24  47  68 105 147 196 257 304 385 445
#     4  11  27  44  75 107 149 200 254 319 376 448
#     4  11  24  47  71 103 154 192 257 305 383 453
#     4  10  25  44  72 106 152 193 247 306 379 452
#     4  10  24  44  73 110 147 197 249 311 378 460
#
# _framework density 25.322852999999999
#
# number of rings (size 3 to 8) (size 9 to 14) (size 15 to 20)
#    0.857    0.571    1.429    1.714    8.000    4.571 
#    0.000    0.000    0.000    0.000    0.000    0.000 
#    0.000    0.000    0.000    0.000    0.000    0.000 
#
# Total GULP energy -78169.450897 kJ/mol
# GULP energy per Si atom -5583.532207 kJ/mol
# Density = 2.526522 g / cm^3
# Si number density = 25.322853 Si / 1000 Ang^3
#
#
#
# Elastic Constant Matrix: (Units=GPa)
#
#
# Indices 1 2 3 4 5 6 
#
# 1 117.1567 13.0274 29.6042 7.9766 -10.0535 -20.0311
# 2 13.0274 95.8558 24.8666 16.5049 -8.0070 -1.5383
# 3 29.6042 24.8666 99.3608 -1.6815 -13.7697 -9.8061
# 4 7.9766 16.5049 -1.6815 42.0958 -5.1328 -6.6756
# 5 -10.0535 -8.0070 -13.7697 -5.1328 30.9479 19.4274
# 6 -20.0311 -1.5383 -9.8061 -6.6756 19.4274 30.5962
#
#
#
# Elastic Compliance Matrix: (Units=1/GPa)
#
#
# Indices 1 2 3 4 5 6 
#
# 1 0.010373 -0.000692 -0.002585 -0.000951 -0.002840 0.007524
# 2 -0.000692 0.012366 -0.002904 -0.005058 0.003350 -0.003993
# 3 -0.002585 -0.002904 0.012196 0.002627 0.004342 -0.000113
# 4 -0.000951 -0.005058 0.002627 0.026963 0.000585 0.005477
# 5 -0.002840 0.003350 0.004342 0.000585 0.057188 -0.036484
# 6 0.007524 -0.003993 -0.000113 0.005477 -0.036484 0.061733
#
#
# Mechanical properties :
#
#
# Convention : Reuss Voigt Hill
#
# Bulk Modulus (GPa) = 44.29813 49.70774 47.00293
# Shear Modulus (GPa) = 24.91199 37.05299 30.98249
#
# Velocity S-wave (km/s) = 3.13992 3.82936 3.50165
# Velocity P-wave (km/s) = 5.53866 6.26292 5.91189
#
# Compressibility (1/GPa) = 0.02257432
#
# Stress axis : x y z
#
# Youngs Moduli (GPa) = 96.40371 80.86365 81.99249
#
# Poissons Ratio (x) = 0.05597 0.21191
# Poissons Ratio (y) = 0.06672 0.23811
# Poissons Ratio (z) = 0.24916 0.23484
#
# Static dielectric constant tensor:
#      x y z
#    x 2.077130 -0.025320 0.021770 
#    y -0.025320 2.021820 -0.071980 
#    z 0.021770 -0.071980 2.028470 
# 
# From -- ./inp_files/459281.got.cif
#   From: 2010.05.17/outbox.cif.g08.bks.cpg/sg2_230_cif.got.tgz:459281.got - 2010.06.03 11:33:40.
