data_PCOD9048989
_publ_section_title
;
Structure prediction by ZEFSAII (Michael W. Deem and Ramdas Pophale) SiO2 
 PCOD9048989
Probable space group: P -1
;
_chemical_formula_sum "Si O2"
_cell_formula_units_Z 14
_cell_length_a 8.484964
_cell_length_b 4.822771
_cell_length_c 18.048332
_cell_angle_alpha 119.842152
_cell_angle_beta 61.880112
_cell_angle_gamma 112.633628
_cell_volume 553.994291
_symmetry_space_group_name_H-M "P -1"
_symmetry_group_IT_number 2
_symmetry_cell_setting 'triclinic'
loop_
_space_group_symop_operation_xyz
x,y,z
-x,-y,-z
loop_
_atom_site_type_symbol
_atom_site_label
_atom_site_fract_x
_atom_site_fract_y
_atom_site_fract_z
Si Si1 0.159783 0.445841 0.809142
Si Si2 0.851402 0.736206 0.554714
Si Si3 0.021866 0.977262 0.080588
Si Si4 0.872772 0.009672 0.737863
Si Si5 0.632049 0.522937 0.904615
Si Si6 0.547034 0.423528 0.750289
Si Si7 0.621082 0.082205 0.557640
O O1 0.083809 0.743657 0.831786
O O2 0.375040 0.554178 0.775329
O O3 0.073585 0.344028 0.896576
O O4 0.076397 0.120677 0.737595
O O5 0.883631 0.012910 0.647134
O O6 0.680963 0.466036 0.581248
O O7 0.000000 0.500000 0.500000
O O8 0.212513 0.110950 0.487126
O O9 0.232856 0.122173 0.074004
O O10 0.000000 0.000000 0.000000
O O11 0.747667 0.658027 0.735538
O O12 0.764231 0.261492 0.833919
O O13 0.511308 0.419054 0.845092
O O14 0.500000 0.500000 0.000000
O O15 0.538031 0.095297 0.660612
O O16 0.500000 0.000000 0.500000
#
# Coordination Sequence:
#
# PCOD9048989 Si02
#       7
#     2   2   2   2   2   2   2
#     4  11  25  41  69  94 137 185 228 294 363 417
#     4  11  24  45  76 104 147 189 237 299 374 433
#     4  11  24  44  62 101 136 174 245 297 346 432
#     4  10  24  46  64 104 143 180 244 296 353 438
#     4  11  23  42  72  95 141 193 234 298 359 422
#     4  11  24  44  70  99 144 187 237 297 363 424
#     4  11  25  46  71 111 147 183 244 301 361 447
#
# _framework density 25.271018999999999
#
# number of rings (size 3 to 8) (size 9 to 14) (size 15 to 20)
#    0.000    1.143    2.857    2.143    6.000    1.714 
#    2.571    0.000    0.000    0.000    0.000    0.000 
#    0.000    0.000    0.000    0.000    0.000    0.000 
#
# Total GULP energy -77990.224281 kJ/mol
# GULP energy per Si atom -5570.730306 kJ/mol
# Density = 2.521350 g / cm^3
# Si number density = 25.271019 Si / 1000 Ang^3
#
#
#
# Elastic Constant Matrix: (Units=GPa)
#
#
# Indices 1 2 3 4 5 6 
#
# 1 134.4321 21.8587 52.1603 -0.6711 27.5853 -10.6204
# 2 21.8587 88.3487 17.3781 0.7292 -1.7886 -22.6196
# 3 52.1603 17.3781 136.9423 -1.2088 30.3963 2.6327
# 4 -0.6711 0.7292 -1.2088 25.9798 3.1353 1.9561
# 5 27.5853 -1.7886 30.3963 3.1353 52.9220 4.4122
# 6 -10.6204 -22.6196 2.6327 1.9561 4.4122 35.1940
#
#
#
# Elastic Compliance Matrix: (Units=1/GPa)
#
#
# Indices 1 2 3 4 5 6 
#
# 1 0.009704 -0.001222 -0.002753 0.000402 -0.003775 0.002800
# 2 -0.001222 0.014296 -0.001873 -0.001372 0.001540 0.008843
# 3 -0.002753 -0.001873 0.009524 0.001077 -0.003970 -0.002309
# 4 0.000402 -0.001372 0.001077 0.039148 -0.002973 -0.002644
# 5 -0.003775 0.001540 -0.003970 -0.002973 0.023592 -0.002645
# 6 0.002800 0.008843 -0.002309 -0.002644 -0.002645 0.035593
#
#
# Mechanical properties :
#
#
# Convention : Reuss Voigt Hill
#
# Bulk Modulus (GPa) = 45.81442 60.27969 53.04705
# Shear Modulus (GPa) = 33.15021 40.70755 36.92888
#
# Velocity S-wave (km/s) = 3.62579 4.01788 3.82686
# Velocity P-wave (km/s) = 5.97470 6.74015 6.36893
#
# Compressibility (1/GPa) = 0.02182719
#
# Stress axis : x y z
#
# Youngs Moduli (GPa) = 103.05532 69.94992 105.00167
#
# Poissons Ratio (x) = 0.08549 0.28910
# Poissons Ratio (y) = 0.12595 0.19662
# Poissons Ratio (z) = 0.28374 0.13098
#
# Static dielectric constant tensor:
#      x y z
#    x 2.114390 -0.002890 0.031000 
#    y -0.002890 2.107750 -0.118740 
#    z 0.031000 -0.118740 2.245590 
# 
# From -- ./inp_files/553916.got.cif
#   From: 2010.05.17/outbox.cif.g08.bks.cpg/sg2_277_cif.got.tgz:553916.got - 2010.06.03 11:33:40.
