data_PCOD9048107
_publ_section_title
;
Structure prediction by ZEFSAII (Michael W. Deem and Ramdas Pophale) SiO2 
 PCOD9048107
Probable space group: P -1
;
_chemical_formula_sum "Si O2"
_cell_formula_units_Z 14
_cell_length_a 10.189687
_cell_length_b 8.284117
_cell_length_c 18.851590
_cell_angle_alpha 140.953011
_cell_angle_beta 35.660082
_cell_angle_gamma 117.495281
_cell_volume 518.582600
_symmetry_space_group_name_H-M "P -1"
_symmetry_group_IT_number 2
_symmetry_cell_setting 'triclinic'
loop_
_space_group_symop_operation_xyz
x,y,z
-x,-y,-z
loop_
_atom_site_type_symbol
_atom_site_label
_atom_site_fract_x
_atom_site_fract_y
_atom_site_fract_z
Si Si1 0.900963 0.878119 0.092669
Si Si2 0.604052 0.832458 0.081967
Si Si3 0.917235 0.685620 0.503784
Si Si4 0.597795 0.501400 0.839656
Si Si5 0.786344 0.757035 0.297439
Si Si6 0.384426 0.279272 0.492044
Si Si7 0.884247 0.975637 0.822337
O O1 0.782009 0.939162 0.084803
O O2 0.028447 0.034592 0.137244
O O3 0.638559 0.975291 0.284419
O O4 0.100727 0.544251 0.896470
O O5 0.543253 0.644837 0.103664
O O6 0.324906 0.087497 0.268599
O O7 0.699813 0.636065 0.903106
O O8 0.770302 0.730413 0.509846
O O9 0.170201 0.715880 0.385914
O O10 0.030256 0.345919 0.353458
O O11 0.401476 0.773712 0.973880
O O12 0.788461 0.649970 0.339947
O O13 0.960129 0.904926 0.253113
O O14 0.500000 0.000000 0.500000
O O15 0.500000 0.500000 0.500000
#
# Coordination Sequence:
#
# PCOD9048107 Si02
#       7
#     2   2   2   2   2   2   2
#     4  11  23  45  69 105 135 184 232 293 342 412
#     4  10  24  44  73  97 139 182 245 278 346 419
#     4  11  24  45  69 101 139 189 226 288 352 416
#     4  11  24  46  67 101 140 191 229 287 339 428
#     4  12  24  41  68 102 141 187 226 289 356 414
#     4  11  23  44  69 102 142 178 236 289 344 420
#     4  12  25  46  69 106 149 171 238 293 352 413
#
# _framework density 26.996663000000002
#
# number of rings (size 3 to 8) (size 9 to 14) (size 15 to 20)
#    0.000    0.857    4.286    2.143    2.000    1.143 
#   10.286    0.000    0.000    0.000    0.000    0.000 
#    0.000    0.000    0.000    0.000    0.000    0.000 
#
# Total GULP energy -78301.795977 kJ/mol
# GULP energy per Si atom -5592.985427 kJ/mol
# Density = 2.693522 g / cm^3
# Si number density = 26.996663 Si / 1000 Ang^3
#
#
#
# Elastic Constant Matrix: (Units=GPa)
#
#
# Indices 1 2 3 4 5 6 
#
# 1 107.2853 16.0642 11.9451 1.2420 -17.3640 -9.5991
# 2 16.0642 101.3400 9.7003 1.2348 -1.1816 6.8412
# 3 11.9451 9.7003 153.2569 27.4214 -23.8914 -7.1414
# 4 1.2420 1.2348 27.4214 44.6789 -12.7951 -5.9894
# 5 -17.3640 -1.1816 -23.8914 -12.7951 62.3155 1.6061
# 6 -9.5991 6.8412 -7.1414 -5.9894 1.6061 32.4755
#
#
#
# Elastic Compliance Matrix: (Units=1/GPa)
#
#
# Indices 1 2 3 4 5 6 
#
# 1 0.010398 -0.001836 -0.000301 0.001247 0.002913 0.003480
# 2 -0.001836 0.010419 -0.000674 -0.000380 -0.000575 -0.002927
# 3 -0.000301 -0.000674 0.007657 -0.003979 0.001999 0.000904
# 4 0.001247 -0.000380 -0.003979 0.026563 0.004159 0.004267
# 5 0.002913 -0.000575 0.001999 0.004159 0.018436 0.001277
# 6 0.003480 -0.002927 0.000904 0.004267 0.001277 0.033360
#
#
# Mechanical properties :
#
#
# Convention : Reuss Voigt Hill
#
# Bulk Modulus (GPa) = 43.76138 48.58905 46.17521
# Shear Modulus (GPa) = 41.64198 49.50549 45.57374
#
# Velocity S-wave (km/s) = 3.93171 4.28689 4.11314
# Velocity P-wave (km/s) = 6.07093 6.52231 6.30066
#
# Compressibility (1/GPa) = 0.02285120
#
# Stress axis : x y z
#
# Youngs Moduli (GPa) = 96.17462 95.98005 130.60404
#
# Poissons Ratio (x) = 0.17618 0.03932
# Poissons Ratio (y) = 0.17653 0.08808
# Poissons Ratio (z) = 0.02896 0.06473
#
# Static dielectric constant tensor:
#      x y z
#    x 2.165880 -0.046880 -0.048620 
#    y -0.046880 2.173540 0.004340 
#    z -0.048620 0.004340 2.177880 
# 
# From -- ./inp_files/594229.got.cif
#   From: 2010.05.17/outbox.cif.g08.bks.cpg/sg2_298_cif.got.tgz:594229.got - 2010.06.03 11:33:40.
