data_PCOD9048944
_publ_section_title
;
Structure prediction by ZEFSAII (Michael W. Deem and Ramdas Pophale) SiO2 
 PCOD9048944
Probable space group: P -1
;
_chemical_formula_sum "Si O2"
_cell_formula_units_Z 8
_cell_length_a 5.046778
_cell_length_b 13.966408
_cell_length_c 5.196649
_cell_angle_alpha 112.060617
_cell_angle_beta 92.276549
_cell_angle_gamma 115.764895
_cell_volume 296.543707
_symmetry_space_group_name_H-M "P -1"
_symmetry_group_IT_number 2
_symmetry_cell_setting 'triclinic'
loop_
_space_group_symop_operation_xyz
x,y,z
-x,-y,-z
loop_
_atom_site_type_symbol
_atom_site_label
_atom_site_fract_x
_atom_site_fract_y
_atom_site_fract_z
Si Si1 0.815359 0.803162 0.232228
Si Si2 0.311305 0.995460 0.741408
Si Si3 0.027674 0.352637 0.246125
Si Si4 0.599988 0.390236 0.634698
O O1 0.762039 0.897329 0.167691
O O2 0.508208 0.688720 0.194770
O O3 0.006027 0.755431 0.033915
O O4 0.997979 0.874206 0.564599
O O5 0.500000 0.000000 0.500000
O O6 0.500000 0.000000 0.000000
O O7 0.296487 0.380015 0.487907
O O8 0.253094 0.662125 0.612371
O O9 0.838294 0.528795 0.802989
#
# Coordination Sequence:
#
# PCOD9048944 Si02
#       4
#     2   2   2   2
#     4  11  27  46  80 110 161 205 266 324 402 469
#     4  11  30  51  77 116 156 210 276 332 396 468
#     4  10  24  45  76 117 157 202 259 321 398 481
#     4  10  24  45  76 117 157 202 259 321 398 481
#
# _framework density 26.977471999999999
#
# number of rings (size 3 to 8) (size 9 to 14) (size 15 to 20)
#    0.000    1.500    0.000    0.750   14.000    2.000 
#    0.000   11.250    0.000    4.500    0.000    0.000 
#    0.000    0.000    0.000    0.000    0.000    0.000 
#
# Total GULP energy -44987.281570 kJ/mol
# GULP energy per Si atom -5623.410196 kJ/mol
# Density = 2.691607 g / cm^3
# Si number density = 26.977472 Si / 1000 Ang^3
#
#
#
# Elastic Constant Matrix: (Units=GPa)
#
#
# Indices 1 2 3 4 5 6 
#
# 1 103.5310 41.9915 39.3231 -3.4533 -20.1003 -10.1598
# 2 41.9915 135.8795 63.2537 11.2218 -21.4395 -21.4879
# 3 39.3231 63.2537 145.1961 -3.2757 -3.7065 -29.8758
# 4 -3.4533 11.2218 -3.2757 48.9212 -13.2535 0.4871
# 5 -20.1003 -21.4395 -3.7065 -13.2535 55.9550 5.4659
# 6 -10.1598 -21.4879 -29.8758 0.4871 5.4659 48.5278
#
#
#
# Elastic Compliance Matrix: (Units=1/GPa)
#
#
# Indices 1 2 3 4 5 6 
#
# 1 0.012273 -0.002394 -0.002191 0.002336 0.003929 -0.000305
# 2 -0.002394 0.010593 -0.003601 -0.002245 0.002258 0.001740
# 3 -0.002191 -0.003601 0.009893 0.000823 -0.001729 0.004224
# 4 0.002336 -0.002245 0.000823 0.022671 0.005486 -0.000844
# 5 0.003929 0.002258 -0.001729 0.005486 0.021501 -0.001719
# 6 -0.000305 0.001740 0.004224 -0.000844 -0.001719 0.024116
#
#
# Mechanical properties :
#
#
# Convention : Reuss Voigt Hill
#
# Bulk Modulus (GPa) = 61.02587 74.86036 67.94312
# Shear Modulus (GPa) = 40.69004 46.68335 43.68670
#
# Velocity S-wave (km/s) = 3.88789 4.16439 4.02851
# Velocity P-wave (km/s) = 6.54404 7.13669 6.84678
#
# Compressibility (1/GPa) = 0.01638649
#
# Stress axis : x y z
#
# Youngs Moduli (GPa) = 81.48002 94.40465 101.08312
#
# Poissons Ratio (x) = 0.22603 0.22144
# Poissons Ratio (y) = 0.19508 0.36401
# Poissons Ratio (z) = 0.17849 0.33996
#
# Static dielectric constant tensor:
#      x y z
#    x 2.100040 0.047530 0.058370 
#    y 0.047530 2.087500 -0.006610 
#    z 0.058370 -0.006610 2.079620 
# 
# From -- ./inp_files/1407.got.cif
#   From: 2010.05.17/outbox.cif.g08.bks.cpg/sg2_1_cif.got.tgz:1407.got - 2010.06.03 11:33:40.
