data_PCOD9048707
_publ_section_title
;
Structure prediction by ZEFSAII (Michael W. Deem and Ramdas Pophale) SiO2 
 PCOD9048707
Probable space group: P -1
;
_chemical_formula_sum "Si O2"
_cell_formula_units_Z 12
_cell_length_a 9.330605
_cell_length_b 9.383587
_cell_length_c 9.437615
_cell_angle_alpha 101.787584
_cell_angle_beta 64.604545
_cell_angle_gamma 136.102320
_cell_volume 510.286381
_symmetry_space_group_name_H-M "P -1"
_symmetry_group_IT_number 2
_symmetry_cell_setting 'triclinic'
loop_
_space_group_symop_operation_xyz
x,y,z
-x,-y,-z
loop_
_atom_site_type_symbol
_atom_site_label
_atom_site_fract_x
_atom_site_fract_y
_atom_site_fract_z
Si Si1 0.518234 0.685119 0.053969
Si Si2 0.563346 0.179070 0.354040
Si Si3 0.119587 0.894078 0.855118
Si Si4 0.770464 0.438859 0.582401
Si Si5 0.950990 0.110505 0.452983
Si Si6 0.794759 0.479935 0.082174
O O1 0.330017 0.608312 0.230944
O O2 0.749475 0.898042 0.066317
O O3 0.500000 0.500000 0.000000
O O4 0.428816 0.702904 0.953551
O O5 0.707331 0.130621 0.242151
O O6 0.599302 0.243122 0.514934
O O7 0.685212 0.395081 0.266119
O O8 0.294143 0.991394 0.411064
O O9 0.056857 0.901334 0.720698
O O10 0.914319 0.696356 0.999884
O O11 0.000000 0.500000 0.500000
O O12 0.845466 0.647430 0.545995
O O13 0.000000 0.000000 0.500000
O O14 0.000000 0.500000 0.000000
#
# Coordination Sequence:
#
# PCOD9048707 Si02
#       6
#     2   2   2   2   2   2
#     4  12  27  44  74 103 152 195 236 301 380 432
#     4  11  24  44  78 107 142 189 253 307 353 441
#     4  11  23  49  73 102 146 198 243 296 373 444
#     4  12  23  47  79 105 144 197 252 297 362 446
#     4  12  26  42  73 111 143 189 248 306 369 426
#     4  10  24  45  71 107 141 188 243 297 364 440
#
# _framework density 23.516206
#
# number of rings (size 3 to 8) (size 9 to 14) (size 15 to 20)
#    0.000    0.667    5.000    2.500    2.333    6.667 
#    0.000    0.000    0.000    0.000    0.000    0.000 
#    0.000    0.000    0.000    0.000    0.000    0.000 
#
# Total GULP energy -67041.716976 kJ/mol
# GULP energy per Si atom -5586.809748 kJ/mol
# Density = 2.346268 g / cm^3
# Si number density = 23.516206 Si / 1000 Ang^3
#
#
#
# Elastic Constant Matrix: (Units=GPa)
#
#
# Indices 1 2 3 4 5 6 
#
# 1 99.3221 20.9797 10.4372 7.5028 22.4833 -6.8190
# 2 20.9797 112.6720 16.1307 3.1321 20.7084 -4.0869
# 3 10.4372 16.1307 96.9710 -4.0705 11.0537 -10.2180
# 4 7.5028 3.1321 -4.0705 52.5382 -4.5920 4.9930
# 5 22.4833 20.7084 11.0537 -4.5920 25.2906 -5.9759
# 6 -6.8190 -4.0869 -10.2180 4.9930 -5.9759 37.3297
#
#
#
# Elastic Compliance Matrix: (Units=1/GPa)
#
#
# Indices 1 2 3 4 5 6 
#
# 1 0.013061 -0.000138 -0.000072 -0.002976 -0.011804 0.000859
# 2 -0.000138 0.010619 -0.000869 -0.001398 -0.008511 -0.000276
# 3 -0.000072 -0.000869 0.011121 0.000400 -0.003463 0.002328
# 4 -0.002976 -0.001398 0.000400 0.020378 0.006790 -0.002226
# 5 -0.011804 -0.008511 -0.003463 0.006790 0.060884 0.004803
# 6 0.000859 -0.000276 0.002328 -0.002226 0.004803 0.028619
#
#
# Mechanical properties :
#
#
# Convention : Reuss Voigt Hill
#
# Bulk Modulus (GPa) = 30.63469 44.89559 37.76514
# Shear Modulus (GPa) = 31.70164 40.45955 36.08060
#
# Velocity S-wave (km/s) = 3.67560 4.15239 3.92125
# Velocity P-wave (km/s) = 5.57393 6.49019 6.04943
#
# Compressibility (1/GPa) = 0.03264273
#
# Stress axis : x y z
#
# Youngs Moduli (GPa) = 76.56531 94.17414 89.91623
#
# Poissons Ratio (x) = 0.01303 0.00644
# Poissons Ratio (y) = 0.01059 0.07815
# Poissons Ratio (z) = 0.00548 0.08185
#
# Static dielectric constant tensor:
#      x y z
#    x 1.889320 0.025160 -0.012690 
#    y 0.025160 1.943080 -0.012890 
#    z -0.012690 -0.012890 1.846150 
# 
# From -- ./inp_files/151289.got.cif
#   From: 2010.05.17/outbox.cif.g08.bks.cpg/sg2_76_cif.got.tgz:151289.got - 2010.06.03 11:33:40.
