data_PCOD9048474
_publ_section_title
;
Structure prediction by ZEFSAII (Michael W. Deem and Ramdas Pophale) SiO2 
 PCOD9048474
Probable space group: P -1
;
_chemical_formula_sum "Si O2"
_cell_formula_units_Z 15
_cell_length_a 24.037182
_cell_length_b 9.611904
_cell_length_c 11.518917
_cell_angle_alpha 41.911385
_cell_angle_beta 31.646151
_cell_angle_gamma 28.701962
_cell_volume 670.565322
_symmetry_space_group_name_H-M "P -1"
_symmetry_group_IT_number 2
_symmetry_cell_setting 'triclinic'
loop_
_space_group_symop_operation_xyz
x,y,z
-x,-y,-z
loop_
_atom_site_type_symbol
_atom_site_label
_atom_site_fract_x
_atom_site_fract_y
_atom_site_fract_z
Si Si1 0.166905 0.699437 0.402346
Si Si2 0.365247 0.811566 0.907953
Si Si3 0.448349 0.709505 0.572544
Si Si4 0.049479 0.696407 0.081142
Si Si5 0.133352 0.464108 0.825138
Si Si6 0.383262 0.114416 0.876910
Si Si7 0.767976 0.808622 0.515685
Si Si8 0.500000 0.000000 0.000000
O O1 0.183243 0.563109 0.580929
O O2 0.192791 0.484719 0.395383
O O3 0.270843 0.752648 0.163622
O O4 0.000000 0.000000 0.500000
O O5 0.436311 0.631017 0.772370
O O6 0.263580 0.135493 0.836917
O O7 0.429694 0.851193 0.879858
O O8 0.500000 0.500000 0.500000
O O9 0.557975 0.753744 0.368529
O O10 0.293968 0.006621 0.609441
O O11 0.914319 0.733539 0.335848
O O12 0.072647 0.655863 0.927715
O O13 0.207229 0.392840 0.035722
O O14 0.000000 0.000000 0.000000
O O15 0.000000 0.500000 0.000000
O O16 0.465910 0.006443 0.919142
O O17 0.636183 0.976777 0.736394
#
# Coordination Sequence:
#
# PCOD9048474 Si02
#       8
#     2   2   2   2   2   2   2   1
#     4  12  23  38  71 108 139 196 240 294 375 435
#     4  11  23  41  71 103 142 192 247 301 364 436
#     4  11  23  44  73 102 146 203 242 291 380 447
#     4  11  23  41  72 106 140 192 245 305 378 429
#     4  11  20  42  63 100 149 178 238 306 351 444
#     4  10  24  45  69 101 149 194 245 314 367 437
#     4  11  24  44  70 104 152 188 239 309 363 448
#     4  10  26  46  68  96 148 192 244 294 378 430
#
# _framework density 22.369185000000002
#
# number of rings (size 3 to 8) (size 9 to 14) (size 15 to 20)
#    0.000    1.067    4.000    2.000    3.733    2.667 
#    0.000    4.000    0.000    0.000    0.000    0.000 
#    0.000    0.000    0.000    0.000    0.000    0.000 
#
# Total GULP energy -83509.285818 kJ/mol
# GULP energy per Si atom -5567.285721 kJ/mol
# Density = 2.231827 g / cm^3
# Si number density = 22.369185 Si / 1000 Ang^3
#
#
#
# Elastic Constant Matrix: (Units=GPa)
#
#
# Indices 1 2 3 4 5 6 
#
# 1 110.4635 37.1353 45.0176 2.1087 0.1518 17.8849
# 2 37.1353 111.7537 26.6656 -0.1934 -8.2603 18.0498
# 3 45.0176 26.6656 189.5394 -4.9331 -1.1316 2.9344
# 4 2.1087 -0.1934 -4.9331 34.5410 -2.4014 -5.5999
# 5 0.1518 -8.2603 -1.1316 -2.4014 48.6094 3.3996
# 6 17.8849 18.0498 2.9344 -5.5999 3.3996 45.2044
#
#
#
# Elastic Compliance Matrix: (Units=1/GPa)
#
#
# Indices 1 2 3 4 5 6 
#
# 1 0.011525 -0.002739 -0.002343 -0.001647 -0.000393 -0.003488
# 2 -0.002739 0.010740 -0.000804 -0.000288 0.002034 -0.003341
# 3 -0.002343 -0.000804 0.005960 0.001152 -0.000004 0.001004
# 4 -0.001647 -0.000288 0.001152 0.029996 0.001163 0.004320
# 5 -0.000393 0.002034 -0.000004 0.001163 0.021123 -0.002101
# 6 -0.003488 -0.003341 0.001004 0.004320 -0.002101 0.025464
#
#
# Mechanical properties :
#
#
# Convention : Reuss Voigt Hill
#
# Bulk Modulus (GPa) = 60.78147 69.93261 65.35704
# Shear Modulus (GPa) = 40.96173 45.86683 43.41428
#
# Velocity S-wave (km/s) = 4.28386 4.53310 4.41024
# Velocity P-wave (km/s) = 7.19024 7.66351 7.43064
#
# Compressibility (1/GPa) = 0.01645238
#
# Stress axis : x y z
#
# Youngs Moduli (GPa) = 86.76532 93.11165 167.78478
#
# Poissons Ratio (x) = 0.25505 0.39316
# Poissons Ratio (y) = 0.23767 0.13489
# Poissons Ratio (z) = 0.20331 0.07486
#
# Static dielectric constant tensor:
#      x y z
#    x 1.879690 0.084140 0.035430 
#    y 0.084140 2.030850 0.064410 
#    z 0.035430 0.064410 1.809250 
# 
# From -- ./inp_files/474389.got.cif
#   From: 2010.05.17/outbox.cif.g08.bks.cpg/sg2_238_cif.got.tgz:474389.got - 2010.06.03 11:33:40.
