data_PCOD9048954
_publ_section_title
;
Structure prediction by ZEFSAII (Michael W. Deem and Ramdas Pophale) SiO2 
 PCOD9048954
Probable space group: P -1
;
_chemical_formula_sum "Si O2"
_cell_formula_units_Z 12
_cell_length_a 13.493348
_cell_length_b 5.450827
_cell_length_c 15.682328
_cell_angle_alpha 116.742765
_cell_angle_beta 149.769593
_cell_angle_gamma 58.948128
_cell_volume 497.486111
_symmetry_space_group_name_H-M "P -1"
_symmetry_group_IT_number 2
_symmetry_cell_setting 'triclinic'
loop_
_space_group_symop_operation_xyz
x,y,z
-x,-y,-z
loop_
_atom_site_type_symbol
_atom_site_label
_atom_site_fract_x
_atom_site_fract_y
_atom_site_fract_z
Si Si1 0.401201 0.157095 0.641793
Si Si2 0.252627 0.762630 0.009491
Si Si3 0.377498 0.824440 0.937651
Si Si4 0.955465 0.959615 0.557955
Si Si5 0.129716 0.431152 0.327760
Si Si6 0.177239 0.257330 0.140366
O O1 0.532954 0.372402 0.803610
O O2 0.287706 0.223823 0.477470
O O3 0.222521 0.187758 0.582050
O O4 0.578707 0.851576 0.722221
O O5 0.128599 0.971486 0.022954
O O6 0.304158 0.943642 0.996669
O O7 0.104573 0.585478 0.838355
O O8 0.173186 0.811238 0.736812
O O9 0.500000 0.500000 0.000000
O O10 0.500000 0.000000 0.000000
O O11 0.873884 0.254733 0.596126
O O12 0.000000 0.000000 0.500000
O O13 0.182346 0.349338 0.256358
O O14 0.000000 0.500000 0.000000
#
# Coordination Sequence:
#
# PCOD9048954 Si02
#       6
#     2   2   2   2   2   2
#     4  10  26  46  73 110 146 196 258 310 392 463
#     4  10  24  47  73 111 148 196 258 310 394 457
#     4  12  26  47  78 108 155 209 258 322 394 463
#     4  12  28  48  74 110 152 200 259 323 387 467
#     4  12  24  49  75 105 153 199 254 320 387 464
#     4  10  24  45  77 107 153 195 254 317 393 462
#
# _framework density 24.121275000000001
#
# number of rings (size 3 to 8) (size 9 to 14) (size 15 to 20)
#    1.000    0.000    1.667    4.000    2.333    2.667 
#    0.000    0.000    0.000    0.000    0.000    0.000 
#    0.000    0.000    0.000    0.000    0.000    0.000 
#
# Total GULP energy -66954.366551 kJ/mol
# GULP energy per Si atom -5579.530546 kJ/mol
# Density = 2.406637 g / cm^3
# Si number density = 24.121275 Si / 1000 Ang^3
#
#
#
# Elastic Constant Matrix: (Units=GPa)
#
#
# Indices 1 2 3 4 5 6 
#
# 1 146.7610 22.7183 62.1453 -20.3521 -19.9066 -3.0426
# 2 22.7183 65.4485 37.0668 -7.5470 6.7866 -8.8460
# 3 62.1453 37.0668 203.8025 -27.2469 1.0078 2.9074
# 4 -20.3521 -7.5470 -27.2469 46.1737 -4.1060 -0.4113
# 5 -19.9066 6.7866 1.0078 -4.1060 57.0331 4.3168
# 6 -3.0426 -8.8460 2.9074 -0.4113 4.3168 26.7796
#
#
#
# Elastic Compliance Matrix: (Units=1/GPa)
#
#
# Indices 1 2 3 4 5 6 
#
# 1 0.008818 -0.001989 -0.001983 0.002707 0.003542 0.000031
# 2 -0.001989 0.018914 -0.002878 0.000276 -0.003395 0.006886
# 3 -0.001983 -0.002878 0.006381 0.002391 -0.000154 -0.001807
# 4 0.002707 0.000276 0.002391 0.024541 0.002629 0.000092
# 5 0.003542 -0.003395 -0.000154 0.002629 0.019656 -0.003831
# 6 0.000031 0.006886 -0.001807 0.000092 -0.003831 0.040435
#
#
# Mechanical properties :
#
#
# Convention : Reuss Voigt Hill
#
# Bulk Modulus (GPa) = 48.98834 73.31920 61.15377
# Shear Modulus (GPa) = 35.90676 45.60271 40.75474
#
# Velocity S-wave (km/s) = 3.86241 4.35277 4.11490
# Velocity P-wave (km/s) = 6.34384 7.46487 6.92707
#
# Compressibility (1/GPa) = 0.02041302
#
# Stress axis : x y z
#
# Youngs Moduli (GPa) = 113.40665 52.87055 156.71146
#
# Poissons Ratio (x) = 0.10514 0.31080
# Poissons Ratio (y) = 0.22552 0.45105
# Poissons Ratio (z) = 0.22491 0.15217
#
# Static dielectric constant tensor:
#      x y z
#    x 1.926540 -0.166210 0.050860 
#    y -0.166210 1.833830 0.047350 
#    z 0.050860 0.047350 1.910870 
# 
# From -- ./inp_files/511110.got.cif
#   From: 2010.05.17/outbox.cif.g08.bks.cpg/sg2_256_cif.got.tgz:511110.got - 2010.06.03 11:33:40.
