data_PCOD9048959
_publ_section_title
;
Structure prediction by ZEFSAII (Michael W. Deem and Ramdas Pophale) SiO2 
 PCOD9048959
Probable space group: P -1
;
_chemical_formula_sum "Si O2"
_cell_formula_units_Z 12
_cell_length_a 10.369505
_cell_length_b 13.248483
_cell_length_c 9.170614
_cell_angle_alpha 81.710520
_cell_angle_beta 76.900625
_cell_angle_gamma 148.104932
_cell_volume 490.428912
_symmetry_space_group_name_H-M "P -1"
_symmetry_group_IT_number 2
_symmetry_cell_setting 'triclinic'
loop_
_space_group_symop_operation_xyz
x,y,z
-x,-y,-z
loop_
_atom_site_type_symbol
_atom_site_label
_atom_site_fract_x
_atom_site_fract_y
_atom_site_fract_z
Si Si1 0.163708 0.005819 0.495295
Si Si2 0.702849 0.830459 0.016041
Si Si3 0.882112 0.460525 0.693526
Si Si4 0.131517 0.279118 0.629716
Si Si5 0.968204 0.707921 0.804302
Si Si6 0.079846 0.421077 0.842406
O O1 0.427330 0.565064 0.067336
O O2 0.963661 0.780985 0.500426
O O3 0.122279 0.926363 0.682014
O O4 0.000000 0.000000 0.500000
O O5 0.477752 0.746145 0.187939
O O6 0.879277 0.018206 0.806994
O O7 0.000000 0.000000 0.000000
O O8 0.080381 0.693399 0.671562
O O9 0.000000 0.500000 0.500000
O O10 0.871347 0.367221 0.842740
O O11 0.500000 0.500000 0.500000
O O12 0.089390 0.346856 0.724947
O O13 0.455722 0.722645 0.698101
O O14 0.022784 0.704932 0.954807
#
# Coordination Sequence:
#
# PCOD9048959 Si02
#       6
#     2   2   2   2   2   2
#     4  12  25  46  73 112 153 203 260 318 389 458
#     4  10  24  45  77 109 156 196 259 319 385 454
#     4  10  24  47  79 115 154 209 259 313 395 467
#     4  12  25  45  74 111 154 201 257 325 377 463
#     4  10  25  48  74 111 157 201 260 322 385 459
#     4  12  26  46  77 113 156 204 263 316 391 464
#
# _framework density 24.468378999999999
#
# number of rings (size 3 to 8) (size 9 to 14) (size 15 to 20)
#    1.000    0.000    3.333    2.500    2.333    4.667 
#    0.000    0.000    0.000    0.000    0.000    0.000 
#    0.000    0.000    0.000    0.000    0.000    0.000 
#
# Total GULP energy -67083.396939 kJ/mol
# GULP energy per Si atom -5590.283078 kJ/mol
# Density = 2.441269 g / cm^3
# Si number density = 24.468379 Si / 1000 Ang^3
#
#
#
# Elastic Constant Matrix: (Units=GPa)
#
#
# Indices 1 2 3 4 5 6 
#
# 1 156.0854 26.2560 63.0768 22.3718 19.1909 -2.3419
# 2 26.2560 83.1605 27.3979 23.2674 2.0552 0.3754
# 3 63.0768 27.3979 105.8462 -0.8051 7.5459 -6.4099
# 4 22.3718 23.2674 -0.8051 41.7255 -6.4623 5.2823
# 5 19.1909 2.0552 7.5459 -6.4623 51.1245 -3.2655
# 6 -2.3419 0.3754 -6.4099 5.2823 -3.2655 39.7123
#
#
#
# Elastic Compliance Matrix: (Units=1/GPa)
#
#
# Indices 1 2 3 4 5 6 
#
# 1 0.010102 0.000695 -0.005971 -0.006523 -0.003751 0.000185
# 2 0.000695 0.016031 -0.004515 -0.009663 -0.001439 0.000328
# 3 -0.005971 -0.004515 0.014215 0.006011 0.001166 0.001281
# 4 -0.006523 -0.009663 0.006011 0.034338 0.006074 -0.003391
# 5 -0.003751 -0.001439 0.001166 0.006074 0.021683 0.000956
# 6 0.000185 0.000328 0.001281 -0.003391 0.000956 0.025925
#
#
# Mechanical properties :
#
#
# Convention : Reuss Voigt Hill
#
# Bulk Modulus (GPa) = 48.15595 64.28373 56.21984
# Shear Modulus (GPa) = 33.60299 41.73655 37.66977
#
# Velocity S-wave (km/s) = 3.70986 4.13453 3.92794
# Velocity P-wave (km/s) = 6.17044 7.00869 6.60288
#
# Compressibility (1/GPa) = 0.02076586
#
# Stress axis : x y z
#
# Youngs Moduli (GPa) = 98.99274 62.38031 70.35051
#
# Poissons Ratio (x) = -0.04334 0.42005
# Poissons Ratio (y) = -0.06877 0.31760
# Poissons Ratio (z) = 0.59106 0.28162
#
# Static dielectric constant tensor:
#      x y z
#    x -0.810010 -1.360250 -2.384390 
#    y -1.360250 1.335780 -1.093730 
#    z -2.384390 -1.093730 -0.091750 
# 
# From -- ./inp_files/177612.got.cif
#   From: 2010.05.17/outbox.cif.g08.bks.cpg/sg2_89_cif.got.tgz:177612.got - 2010.06.03 11:33:40.
