data_PCOD9048582
_publ_section_title
;
Structure prediction by ZEFSAII (Michael W. Deem and Ramdas Pophale) SiO2 
 PCOD9048582
Probable space group: P -1
;
_chemical_formula_sum "Si O2"
_cell_formula_units_Z 15
_cell_length_a 15.196597
_cell_length_b 9.619132
_cell_length_c 5.611246
_cell_angle_alpha 45.693135
_cell_angle_beta 79.669517
_cell_angle_gamma 80.473007
_cell_volume 576.512333
_symmetry_space_group_name_H-M "P -1"
_symmetry_group_IT_number 2
_symmetry_cell_setting 'triclinic'
loop_
_space_group_symop_operation_xyz
x,y,z
-x,-y,-z
loop_
_atom_site_type_symbol
_atom_site_label
_atom_site_fract_x
_atom_site_fract_y
_atom_site_fract_z
Si Si1 0.128867 0.128269 0.202468
Si Si2 0.310150 0.459243 0.440358
Si Si3 0.565615 0.888942 0.283957
Si Si4 0.840647 0.568289 0.814505
Si Si5 0.760065 0.222821 0.526800
Si Si6 0.045708 0.854920 0.966413
Si Si7 0.607187 0.199250 0.263241
Si Si8 0.000000 0.500000 0.500000
O O1 0.182342 0.973985 0.190297
O O2 0.090234 0.985694 0.593719
O O3 0.181571 0.283172 0.135029
O O4 0.043690 0.247676 0.976959
O O5 0.373072 0.270847 0.694432
O O6 0.226931 0.382977 0.426290
O O7 0.280402 0.620071 0.456334
O O8 0.367431 0.587986 0.081442
O O9 0.495336 0.796386 0.609148
O O10 0.618002 0.041870 0.233107
O O11 0.500000 0.000000 0.000000
O O12 0.942102 0.587533 0.659489
O O13 0.821172 0.354179 0.173063
O O14 0.678696 0.147471 0.498592
O O15 0.083351 0.659403 0.305196
O O16 0.000000 0.000000 0.000000
#
# Coordination Sequence:
#
# PCOD9048582 Si02
#       8
#     2   2   2   2   2   2   2   1
#     4  11  25  43  65  97 131 179 225 281 338 397
#     4  11  26  45  69 101 137 182 220 277 337 400
#     4  11  24  45  75 103 135 177 221 275 334 403
#     4  11  26  42  69  99 136 177 231 283 333 403
#     4  11  25  43  68 100 139 177 224 279 337 398
#     4  11  25  41  68  94 130 174 230 284 337 395
#     4  10  24  45  70 102 136 176 219 277 324 415
#     4  12  24  46  68  98 134 180 230 282 340 388
#
# _framework density 26.018523999999999
#
# number of rings (size 3 to 8) (size 9 to 14) (size 15 to 20)
#    0.000    1.067    2.667    2.000    3.733    9.067 
#    0.000    0.000    0.000    0.000    0.000    0.000 
#    0.000    0.000    0.000    0.000    0.000    0.000 
#
# Total GULP energy -83778.158524 kJ/mol
# GULP energy per Si atom -5585.210568 kJ/mol
# Density = 2.595930 g / cm^3
# Si number density = 26.018524 Si / 1000 Ang^3
#
#
#
# Elastic Constant Matrix: (Units=GPa)
#
#
# Indices 1 2 3 4 5 6 
#
# 1 102.8990 54.2748 30.0179 -15.6955 15.0347 -3.2977
# 2 54.2748 165.5489 3.6077 -16.0285 27.4593 -10.0732
# 3 30.0179 3.6077 63.3285 -15.7144 -8.4864 -11.1677
# 4 -15.6955 -16.0285 -15.7144 39.9774 -2.3477 3.2654
# 5 15.0347 27.4593 -8.4864 -2.3477 53.1956 -5.5255
# 6 -3.2977 -10.0732 -11.1677 3.2654 -5.5255 52.9591
#
#
#
# Elastic Compliance Matrix: (Units=1/GPa)
#
#
# Indices 1 2 3 4 5 6 
#
# 1 0.014544 -0.004057 -0.007109 0.001242 -0.003281 -0.001784
# 2 -0.004057 0.008022 0.001887 0.002115 -0.002466 0.001283
# 3 -0.007109 0.001887 0.022261 0.006643 0.005374 0.004762
# 4 0.001242 0.002115 0.006643 0.028999 0.000916 0.000188
# 5 -0.003281 -0.002466 0.005374 0.000916 0.022179 0.002717
# 6 -0.001784 0.001283 0.004762 0.000188 0.002717 0.020292
#
#
# Mechanical properties :
#
#
# Convention : Reuss Voigt Hill
#
# Bulk Modulus (GPa) = 38.06923 56.39748 47.23335
# Shear Modulus (GPa) = 34.81647 45.48482 40.15065
#
# Velocity S-wave (km/s) = 3.66203 4.18565 3.93256
# Velocity P-wave (km/s) = 5.70473 6.71435 6.23003
#
# Compressibility (1/GPa) = 0.02626793
#
# Stress axis : x y z
#
# Youngs Moduli (GPa) = 68.75817 124.66430 44.92184
#
# Poissons Ratio (x) = 0.50581 0.31933
# Poissons Ratio (y) = 0.27898 -0.08476
# Poissons Ratio (z) = 0.48878 -0.23523
#
# Static dielectric constant tensor:
#      x y z
#    x 2.030550 0.033350 -0.217280 
#    y 0.033350 2.073200 0.249760 
#    z -0.217280 0.249760 1.555350 
# 
# From -- ./inp_files/89580.got.cif
#   From: 2010.05.17/outbox.cif.g08.bks.cpg/sg2_45_cif.got.tgz:89580.got - 2010.06.03 11:33:40.
