data_PCOD9048473
_publ_section_title
;
Structure prediction by ZEFSAII (Michael W. Deem and Ramdas Pophale) SiO2 
 PCOD9048473
Probable space group: P -1
;
_chemical_formula_sum "Si O2"
_cell_formula_units_Z 16
_cell_length_a 18.165635
_cell_length_b 8.094635
_cell_length_c 8.543614
_cell_angle_alpha 38.763444
_cell_angle_beta 84.728894
_cell_angle_gamma 65.607890
_cell_volume 655.421489
_symmetry_space_group_name_H-M "P -1"
_symmetry_group_IT_number 2
_symmetry_cell_setting 'triclinic'
loop_
_space_group_symop_operation_xyz
x,y,z
-x,-y,-z
loop_
_atom_site_type_symbol
_atom_site_label
_atom_site_fract_x
_atom_site_fract_y
_atom_site_fract_z
Si Si1 0.440312 0.509261 0.869088
Si Si2 0.346813 0.167764 0.201359
Si Si3 0.750287 0.186965 0.854098
Si Si4 0.424980 0.748657 0.215309
Si Si5 0.094018 0.737823 0.250821
Si Si6 0.160656 0.052590 0.661074
Si Si7 0.024311 0.866746 0.764915
Si Si8 0.820173 0.807760 0.787042
O O1 0.516495 0.241137 0.939515
O O2 0.393177 0.847395 0.536594
O O3 0.500000 0.500000 0.000000
O O4 0.379515 0.401510 0.035542
O O5 0.244153 0.318012 0.133652
O O6 0.368260 0.064476 0.091904
O O7 0.790231 0.974179 0.842079
O O8 0.644870 0.347432 0.742017
O O9 0.806355 0.348184 0.730376
O O10 0.773605 0.044780 0.131216
O O11 0.500000 0.500000 0.500000
O O12 0.099531 0.425258 0.432112
O O13 0.069051 0.903379 0.302504
O O14 0.000000 0.000000 0.000000
O O15 0.194353 0.997178 0.514824
O O16 0.094998 0.934471 0.772872
O O17 0.079494 0.488153 0.023521
O O18 0.000000 0.000000 0.500000
#
# Coordination Sequence:
#
# PCOD9048473 Si02
#       8
#     2   2   2   2   2   2   2   2
#     4  11  23  42  73 105 140 186 237 303 369 444
#     4  10  24  45  69 101 148 184 237 302 367 440
#     4  11  25  46  72 103 139 190 239 292 372 434
#     4   9  22  48  71 101 140 187 237 302 365 442
#     4  12  24  44  66 100 142 181 236 295 351 434
#     4  12  25  44  70  98 143 188 237 301 358 435
#     4  12  26  43  71  98 141 193 238 299 365 433
#     4  11  26  44  68 105 137 188 243 300 359 441
#
# _framework density 24.411771999999999
#
# number of rings (size 3 to 8) (size 9 to 14) (size 15 to 20)
#    0.000    1.000    2.500    2.625    5.250    2.000 
#   18.000    0.000    0.000    0.000    0.000    0.000 
#    0.000    0.000    0.000    0.000    0.000    0.000 
#
# Total GULP energy -89105.706227 kJ/mol
# GULP energy per Si atom -5569.106639 kJ/mol
# Density = 2.435621 g / cm^3
# Si number density = 24.411772 Si / 1000 Ang^3
#
#
#
# Elastic Constant Matrix: (Units=GPa)
#
#
# Indices 1 2 3 4 5 6 
#
# 1 188.3700 16.2109 46.5118 0.0271 5.5464 -13.0771
# 2 16.2109 89.0254 33.5742 12.7599 6.0889 -2.1494
# 3 46.5118 33.5742 77.1725 12.1420 7.6296 -3.9251
# 4 0.0271 12.7599 12.1420 43.1225 3.5922 5.2401
# 5 5.5464 6.0889 7.6296 3.5922 40.3935 5.7368
# 6 -13.0771 -2.1494 -3.9251 5.2401 5.7368 33.1822
#
#
#
# Elastic Compliance Matrix: (Units=1/GPa)
#
#
# Indices 1 2 3 4 5 6 
#
# 1 0.006421 0.000297 -0.003972 0.000823 -0.000540 0.002043
# 2 0.000297 0.013747 -0.005623 -0.002515 -0.000956 0.000905
# 3 -0.003972 -0.005623 0.018612 -0.003552 -0.001973 0.001174
# 4 0.000823 -0.002515 -0.003552 0.025501 -0.000740 -0.004158
# 5 -0.000540 -0.000956 -0.001973 -0.000740 0.026110 -0.004905
# 6 0.002043 0.000905 0.001174 -0.004158 -0.004905 0.032644
#
#
# Mechanical properties :
#
#
# Convention : Reuss Voigt Hill
#
# Bulk Modulus (GPa) = 49.54408 60.79574 55.16991
# Shear Modulus (GPa) = 33.70199 40.55770 37.12985
#
# Velocity S-wave (km/s) = 3.71962 4.08045 3.90421
# Velocity P-wave (km/s) = 6.22790 6.86720 6.55535
#
# Compressibility (1/GPa) = 0.02018404
#
# Stress axis : x y z
#
# Youngs Moduli (GPa) = 155.72851 72.74246 53.72930
#
# Poissons Ratio (x) = -0.02159 0.21339
# Poissons Ratio (y) = -0.04621 0.30214
# Poissons Ratio (z) = 0.61848 0.40906
#
# Static dielectric constant tensor:
#      x y z
#    x 1.922420 0.031470 -0.071160 
#    y 0.031470 2.284740 -0.012150 
#    z -0.071160 -0.012150 1.969580 
# 
# From -- ./inp_files/55525.got.cif
#   From: 2010.05.17/outbox.cif.g08.bks.cpg/sg2_28_cif.got.tgz:55525.got - 2010.06.03 11:33:40.
