data_PCOD9048921
_publ_section_title
;
Structure prediction by ZEFSAII (Michael W. Deem and Ramdas Pophale) SiO2 
 PCOD9048921
Probable space group: P -1
;
_chemical_formula_sum "Si O2"
_cell_formula_units_Z 14
_cell_length_a 17.337098
_cell_length_b 18.131110
_cell_length_c 5.556751
_cell_angle_alpha 124.901086
_cell_angle_beta 63.395199
_cell_angle_gamma 155.697782
_cell_volume 575.368584
_symmetry_space_group_name_H-M "P -1"
_symmetry_group_IT_number 2
_symmetry_cell_setting 'triclinic'
loop_
_space_group_symop_operation_xyz
x,y,z
-x,-y,-z
loop_
_atom_site_type_symbol
_atom_site_label
_atom_site_fract_x
_atom_site_fract_y
_atom_site_fract_z
Si Si1 0.886626 0.372684 0.174522
Si Si2 0.782790 0.071876 0.683739
Si Si3 0.349396 0.688594 0.455842
Si Si4 0.915535 0.699862 0.669262
Si Si5 0.829427 0.956458 0.751903
Si Si6 0.400915 0.606936 0.864968
Si Si7 0.387285 0.414648 0.751332
O O1 0.700194 0.261923 0.269450
O O2 0.000000 0.500000 0.500000
O O3 0.832645 0.217842 0.971528
O O4 0.000000 0.500000 0.000000
O O5 0.890848 0.163377 0.452108
O O6 0.554478 0.848324 0.569394
O O7 0.868166 0.068153 0.706279
O O8 0.171953 0.460516 0.347764
O O9 0.370274 0.681659 0.131230
O O10 0.747977 0.556696 0.440714
O O11 0.998210 0.869377 0.976973
O O12 0.622081 0.795473 0.844670
O O13 0.787306 0.818011 0.456378
O O14 0.355397 0.491673 0.923149
O O15 0.500000 0.500000 0.500000
O O16 0.500000 0.500000 0.000000
#
# Coordination Sequence:
#
# PCOD9048921 Si02
#       7
#     2   2   2   2   2   2   2
#     4  12  27  48  75 113 151 193 251 311 370 450
#     4  12  25  47  74 107 150 198 249 308 379 444
#     4  12  25  47  74 107 150 198 249 308 379 444
#     4  12  24  44  72 108 148 196 248 310 368 446
#     4  11  24  45  76 107 151 199 252 309 379 440
#     4  11  24  45  76 107 151 199 252 309 379 440
#     4  10  24  45  75 111 151 195 252 312 371 445
#
# _framework density 24.332228000000001
#
# number of rings (size 3 to 8) (size 9 to 14) (size 15 to 20)
#    0.000    0.571    4.286    3.857    4.000    0.571 
#    0.000    5.000    0.000    0.000    0.000    0.000 
#    0.000    0.000    0.000    0.000    0.000    0.000 
#
# Total GULP energy -78214.262941 kJ/mol
# GULP energy per Si atom -5586.733067 kJ/mol
# Density = 2.427685 g / cm^3
# Si number density = 24.332228 Si / 1000 Ang^3
#
#
#
# Elastic Constant Matrix: (Units=GPa)
#
#
# Indices 1 2 3 4 5 6 
#
# 1 34.7584 10.3219 14.8598 -4.7290 -2.1741 -2.9363
# 2 10.3219 117.4918 38.9204 8.7407 -5.1738 6.9608
# 3 14.8598 38.9204 162.8524 22.2644 -6.7468 -2.9367
# 4 -4.7290 8.7407 22.2644 45.9993 9.8415 -7.4321
# 5 -2.1741 -5.1738 -6.7468 9.8415 62.2247 6.6479
# 6 -2.9363 6.9608 -2.9367 -7.4321 6.6479 34.6340
#
#
#
# Elastic Compliance Matrix: (Units=1/GPa)
#
#
# Indices 1 2 3 4 5 6 
#
# 1 0.032023 -0.002545 -0.003117 0.006195 -0.000887 0.004462
# 2 -0.002545 0.009711 -0.001829 -0.001945 0.001144 -0.002959
# 3 -0.003117 -0.001829 0.007436 -0.003881 0.001194 -0.000328
# 4 0.006195 -0.001945 -0.003881 0.026984 -0.005426 0.007419
# 5 -0.000887 0.001144 0.001194 -0.005426 0.017630 -0.004752
# 6 0.004462 -0.002959 -0.000328 0.007419 -0.004752 0.032323
#
#
# Mechanical properties :
#
#
# Convention : Reuss Voigt Hill
#
# Bulk Modulus (GPa) = 29.24983 49.25632 39.25307
# Shear Modulus (GPa) = 32.79022 45.30495 39.04758
#
# Velocity S-wave (km/s) = 3.67496 4.31969 4.01030
# Velocity P-wave (km/s) = 5.48217 6.72063 6.13274
#
# Compressibility (1/GPa) = 0.03418823
#
# Stress axis : x y z
#
# Youngs Moduli (GPa) = 31.22791 102.97617 134.47906
#
# Poissons Ratio (x) = 0.26207 0.41917
# Poissons Ratio (y) = 0.07948 0.24593
# Poissons Ratio (z) = 0.09734 0.18832
#
# Static dielectric constant tensor:
#      x y z
#    x 1.997370 -0.015420 0.003410 
#    y -0.015420 2.002090 -0.128690 
#    z 0.003410 -0.128690 2.039790 
# 
# From -- ./inp_files/53896.got.cif
#   From: 2010.05.17/outbox.cif.g08.bks.cpg/sg2_27_cif.got.tgz:53896.got - 2010.06.03 11:33:40.
