data_PCOD9048978
_publ_section_title
;
Structure prediction by ZEFSAII (Michael W. Deem and Ramdas Pophale) SiO2 
 PCOD9048978
Probable space group: P -1
;
_chemical_formula_sum "Si O2"
_cell_formula_units_Z 12
_cell_length_a 6.370851
_cell_length_b 4.609920
_cell_length_c 18.613809
_cell_angle_alpha 116.177183
_cell_angle_beta 122.889812
_cell_angle_gamma 80.413660
_cell_volume 410.027385
_symmetry_space_group_name_H-M "P -1"
_symmetry_group_IT_number 2
_symmetry_cell_setting 'triclinic'
loop_
_space_group_symop_operation_xyz
x,y,z
-x,-y,-z
loop_
_atom_site_type_symbol
_atom_site_label
_atom_site_fract_x
_atom_site_fract_y
_atom_site_fract_z
Si Si1 0.119025 0.355229 0.155933
Si Si2 0.186712 0.237442 0.948708
Si Si3 0.960409 0.704825 0.297436
Si Si4 0.486080 0.860582 0.134126
Si Si5 0.220935 0.435180 0.589215
Si Si6 0.535783 0.832822 0.587714
O O1 0.703986 0.795827 0.223398
O O2 0.058361 0.423789 0.235029
O O3 0.369859 0.192128 0.168534
O O4 0.909823 0.077384 0.060348
O O5 0.384723 0.120716 0.917354
O O6 0.954852 0.330017 0.865353
O O7 0.298145 0.533732 0.050259
O O8 0.892898 0.599883 0.355162
O O9 0.188026 0.989280 0.358259
O O10 0.440954 0.713787 0.636656
O O11 0.345050 0.099525 0.561981
O O12 0.000000 0.500000 0.500000
O O13 0.500000 0.500000 0.500000
#
# Coordination Sequence:
#
# PCOD9048978 Si02
#       6
#     2   2   2   2   2   2
#     4  11  25  50  78 120 170 227 288 355 428 514
#     4  10  24  45  82 119 167 228 293 347 424 524
#     4  11  31  55  87 131 179 222 296 369 438 518
#     4  10  24  50  79 122 170 229 285 358 432 511
#     4  12  32  59  92 126 169 232 294 371 454 538
#     4  12  32  59  92 127 169 228 298 370 449 545
#
# _framework density 29.26634
#
# number of rings (size 3 to 8) (size 9 to 14) (size 15 to 20)
#    0.000    1.000    0.000    2.000    7.000   19.333 
#    6.000    0.000    0.000    0.000    0.000    1.167 
#    0.000    0.000    0.000    0.000    0.000    0.000 
#
# Total GULP energy -67381.845210 kJ/mol
# GULP energy per Si atom -5615.153768 kJ/mol
# Density = 2.919973 g / cm^3
# Si number density = 29.266340 Si / 1000 Ang^3
#
#
#
# Elastic Constant Matrix: (Units=GPa)
#
#
# Indices 1 2 3 4 5 6 
#
# 1 239.7133 101.4640 112.0688 -27.4939 -32.2715 -27.3369
# 2 101.4640 198.4063 99.2674 -9.5042 -3.3686 3.5929
# 3 112.0688 99.2674 177.8721 -5.6215 -8.6903 9.5304
# 4 -27.4939 -9.5042 -5.6215 72.1684 4.3789 -1.8065
# 5 -32.2715 -3.3686 -8.6903 4.3789 75.7579 -1.2472
# 6 -27.3369 3.5929 9.5304 -1.8065 -1.2472 96.6376
#
#
#
# Elastic Compliance Matrix: (Units=1/GPa)
#
#
# Indices 1 2 3 4 5 6 
#
# 1 0.007637 -0.001973 -0.003652 0.002271 0.002659 0.002671
# 2 -0.001973 0.007534 -0.002972 0.000047 -0.000858 -0.000555
# 3 -0.003652 -0.002972 0.009623 -0.001047 -0.000555 -0.001898
# 4 0.002271 0.000047 -0.001047 0.014671 0.000018 0.001018
# 5 0.002659 -0.000858 -0.000555 0.000018 0.014247 0.001023
# 6 0.002671 -0.000555 -0.001898 0.001018 0.001023 0.011344
#
#
# Mechanical properties :
#
#
# Convention : Reuss Voigt Hill
#
# Bulk Modulus (GPa) = 131.58069 137.95465 134.76767
# Shear Modulus (GPa) = 58.97392 69.12554 64.04973
#
# Velocity S-wave (km/s) = 4.49383 4.86526 4.68323
# Velocity P-wave (km/s) = 8.48430 8.87699 8.68287
#
# Compressibility (1/GPa) = 0.00759990
#
# Stress axis : x y z
#
# Youngs Moduli (GPa) = 130.93885 132.73419 103.91289
#
# Poissons Ratio (x) = 0.26185 0.37952
# Poissons Ratio (y) = 0.25831 0.30886
# Poissons Ratio (z) = 0.47822 0.39452
#
# Static dielectric constant tensor:
#      x y z
#    x 2.303950 0.046300 0.063580 
#    y 0.046300 2.224730 -0.014210 
#    z 0.063580 -0.014210 2.282250 
# 
# From -- ./inp_files/603910.got.cif
#   From: 2010.05.17/outbox.cif.g08.bks.cpg/sg2_302_cif.got.tgz:603910.got - 2010.06.03 11:33:40.
