data_PCOD9048290
_publ_section_title
;
Structure prediction by ZEFSAII (Michael W. Deem and Ramdas Pophale) SiO2 
 PCOD9048290
Probable space group: P -1
;
_chemical_formula_sum "Si O2"
_cell_formula_units_Z 12
_cell_length_a 11.746721
_cell_length_b 8.321218
_cell_length_c 5.161354
_cell_angle_alpha 74.052218
_cell_angle_beta 82.932123
_cell_angle_gamma 107.487538
_cell_volume 450.891668
_symmetry_space_group_name_H-M "P -1"
_symmetry_group_IT_number 2
_symmetry_cell_setting 'triclinic'
loop_
_space_group_symop_operation_xyz
x,y,z
-x,-y,-z
loop_
_atom_site_type_symbol
_atom_site_label
_atom_site_fract_x
_atom_site_fract_y
_atom_site_fract_z
Si Si1 0.306786 0.963804 0.464042
Si Si2 0.348632 0.800970 0.026553
Si Si3 0.046070 0.874204 0.728112
Si Si4 0.892035 0.541450 0.667812
Si Si5 0.222445 0.205387 0.712495
Si Si6 0.539205 0.620969 0.182766
O O1 0.342057 0.946492 0.171128
O O2 0.162665 0.847113 0.573264
O O3 0.305568 0.149640 0.499363
O O4 0.371018 0.879158 0.696757
O O5 0.218805 0.636617 0.142464
O O6 0.454777 0.739434 0.132915
O O7 0.946342 0.676806 0.837789
O O8 0.116140 0.011455 0.878763
O O9 0.000000 0.000000 0.500000
O O10 0.834882 0.656994 0.448642
O O11 0.000000 0.500000 0.500000
O O12 0.314576 0.286729 0.880609
O O13 0.500000 0.500000 0.500000
O O14 0.500000 0.500000 0.000000
#
# Coordination Sequence:
#
# PCOD9048290 Si02
#       6
#     2   2   2   2   2   2
#     4  10  24  45  66 104 139 179 233 279 346 404
#     4  12  25  43  72 106 136 182 235 282 340 408
#     4   8  18  41  66  97 139 185 225 275 343 407
#     4  11  19  40  73 102 142 179 232 283 341 415
#     4   9  22  45  68 101 139 186 227 284 348 409
#     4  12  26  46  73 103 139 179 231 291 346 407
#
# _framework density 26.613932999999999
#
# number of rings (size 3 to 8) (size 9 to 14) (size 15 to 20)
#    1.000    0.667    3.333    1.000    0.000    3.333 
#    0.000    3.333    0.000    0.000    0.000    0.000 
#    0.000    0.000    0.000    0.000    0.000    0.000 
#
# Total GULP energy -67173.736948 kJ/mol
# GULP energy per Si atom -5597.811412 kJ/mol
# Density = 2.655336 g / cm^3
# Si number density = 26.613933 Si / 1000 Ang^3
#
#
#
# Elastic Constant Matrix: (Units=GPa)
#
#
# Indices 1 2 3 4 5 6 
#
# 1 168.6700 72.9959 42.6225 -9.7575 16.6831 11.8426
# 2 72.9959 158.4280 57.9677 -7.2653 3.6330 32.3770
# 3 42.6225 57.9677 102.2245 -9.1206 11.8160 24.4595
# 4 -9.7575 -7.2653 -9.1206 29.7989 7.9215 11.4121
# 5 16.6831 3.6330 11.8160 7.9215 42.4068 -5.1347
# 6 11.8426 32.3770 24.4595 11.4121 -5.1347 68.3756
#
#
#
# Elastic Compliance Matrix: (Units=1/GPa)
#
#
# Indices 1 2 3 4 5 6 
#
# 1 0.007973 -0.003101 -0.000932 0.002480 -0.003102 -0.000226
# 2 -0.003101 0.009642 -0.003456 0.001193 0.000779 -0.002933
# 3 -0.000932 -0.003456 0.014472 0.006517 -0.005175 -0.004855
# 4 0.002480 0.001193 0.006517 0.044492 -0.012622 -0.011700
# 5 -0.003102 0.000779 -0.005175 -0.012622 0.029300 0.006326
# 6 -0.000226 -0.002933 -0.004855 -0.011700 0.006326 0.020218
#
#
# Mechanical properties :
#
#
# Convention : Reuss Voigt Hill
#
# Bulk Modulus (GPa) = 58.45212 86.27719 72.36466
# Shear Modulus (GPa) = 34.06518 45.16535 39.61527
#
# Velocity S-wave (km/s) = 3.58156 4.12400 3.86231
# Velocity P-wave (km/s) = 6.25412 7.42731 6.86582
#
# Compressibility (1/GPa) = 0.01710802
#
# Stress axis : x y z
#
# Youngs Moduli (GPa) = 125.43087 103.71475 69.09849
#
# Poissons Ratio (x) = 0.32167 0.06437
# Poissons Ratio (y) = 0.38902 0.23882
# Poissons Ratio (z) = 0.11684 0.35846
#
# Static dielectric constant tensor:
#      x y z
#    x 2.107410 0.016710 -0.078070 
#    y 0.016710 2.111320 0.046530 
#    z -0.078070 0.046530 2.109060 
# 
# From -- ./inp_files/41248.got.cif
#   From: 2010.05.17/outbox.cif.g08.bks.cpg/sg2_21_cif.got.tgz:41248.got - 2010.06.03 11:33:40.
