data_PCOD9048733
_publ_section_title
;
Structure prediction by ZEFSAII (Michael W. Deem and Ramdas Pophale) SiO2 
 PCOD9048733
Probable space group: P -1
;
_chemical_formula_sum "Si O2"
_cell_formula_units_Z 14
_cell_length_a 25.340139
_cell_length_b 31.983534
_cell_length_c 16.129938
_cell_angle_alpha 17.341310
_cell_angle_beta 16.317312
_cell_angle_gamma 9.260472
_cell_volume 583.224351
_symmetry_space_group_name_H-M "P -1"
_symmetry_group_IT_number 2
_symmetry_cell_setting 'triclinic'
loop_
_space_group_symop_operation_xyz
x,y,z
-x,-y,-z
loop_
_atom_site_type_symbol
_atom_site_label
_atom_site_fract_x
_atom_site_fract_y
_atom_site_fract_z
Si Si1 0.169519 0.280231 0.864485
Si Si2 0.947448 0.699972 0.183638
Si Si3 0.242146 0.852981 0.754454
Si Si4 0.787400 0.348564 0.423251
Si Si5 0.685232 0.468609 0.667791
Si Si6 0.624573 0.306152 0.462260
Si Si7 0.637304 0.832474 0.690746
O O1 0.171550 0.216634 0.890269
O O2 0.472723 0.204951 0.550585
O O3 0.802584 0.588456 0.861325
O O4 0.147497 0.170083 0.173332
O O5 0.000000 0.500000 0.500000
O O6 0.677702 0.944551 0.190957
O O7 0.285013 0.587060 0.892062
O O8 0.361284 0.696412 0.788011
O O9 0.239084 0.745708 0.037216
O O10 0.880830 0.152795 0.706248
O O11 0.500000 0.500000 0.500000
O O12 0.629509 0.552882 0.342990
O O13 0.576527 0.606502 0.484059
O O14 0.025774 0.319780 0.479655
O O15 0.000000 0.000000 0.500000
O O16 0.500000 0.000000 0.500000
#
# Coordination Sequence:
#
# PCOD9048733 Si02
#       7
#     2   2   2   2   2   2   2
#     4  11  24  47  66 107 140 190 241 297 361 428
#     4  12  25  43  75 105 143 188 246 298 360 429
#     4  10  24  45  71  99 145 180 242 296 357 432
#     4  12  25  43  70 100 140 190 236 296 358 427
#     4  10  25  45  72 105 138 190 236 298 364 425
#     4  12  27  48  71 106 148 189 242 301 364 436
#     4  11  25  44  72 104 148 184 234 303 361 426
#
# _framework density 24.004486
#
# number of rings (size 3 to 8) (size 9 to 14) (size 15 to 20)
#    0.000    0.857    2.857    3.000   10.000    0.571 
#    0.000    2.143    0.000    0.000    0.000    0.000 
#    0.000    0.000    0.000    0.000    0.000    0.000 
#
# Total GULP energy -78197.518151 kJ/mol
# GULP energy per Si atom -5585.537011 kJ/mol
# Density = 2.394985 g / cm^3
# Si number density = 24.004486 Si / 1000 Ang^3
#
#
#
# Elastic Constant Matrix: (Units=GPa)
#
#
# Indices 1 2 3 4 5 6 
#
# 1 166.9652 49.6362 19.8598 3.5188 31.5549 -3.7581
# 2 49.6362 91.4802 7.1336 -3.4005 19.2728 1.8088
# 3 19.8598 7.1336 59.5587 0.8315 0.2553 -7.7328
# 4 3.5188 -3.4005 0.8315 36.9437 -1.7525 6.9850
# 5 31.5549 19.2728 0.2553 -1.7525 41.1688 6.4847
# 6 -3.7581 1.8088 -7.7328 6.9850 6.4847 43.9761
#
#
#
# Elastic Compliance Matrix: (Units=1/GPa)
#
#
# Indices 1 2 3 4 5 6 
#
# 1 0.008253 -0.003336 -0.002119 -0.001561 -0.005047 0.001462
# 2 -0.003336 0.013628 -0.000611 0.001537 -0.003650 -0.000659
# 3 -0.002119 -0.000611 0.017955 -0.000750 0.001306 0.002928
# 4 -0.001561 0.001537 -0.000750 0.028482 0.002517 -0.005224
# 5 -0.005047 -0.003650 0.001306 0.002517 0.030752 -0.004986
# 6 0.001462 -0.000659 0.002928 -0.005224 -0.004986 0.024972
#
#
# Mechanical properties :
#
#
# Convention : Reuss Voigt Hill
#
# Bulk Modulus (GPa) = 36.09708 52.36257 44.22983
# Shear Modulus (GPa) = 34.38566 40.50936 37.44751
#
# Velocity S-wave (km/s) = 3.78890 4.11247 3.95400
# Velocity P-wave (km/s) = 5.84904 6.66415 6.26986
#
# Compressibility (1/GPa) = 0.02770307
#
# Stress axis : x y z
#
# Youngs Moduli (GPa) = 121.16995 73.37664 55.69483
#
# Poissons Ratio (x) = 0.24480 0.11802
# Poissons Ratio (y) = 0.40425 0.03404
# Poissons Ratio (z) = 0.25676 0.04485
#
# Static dielectric constant tensor:
#      x y z
#    x 2.029840 0.021040 0.031640 
#    y 0.021040 1.963130 -0.072260 
#    z 0.031640 -0.072260 2.078180 
# 
# From -- ./inp_files/425381.got.cif
#   From: 2010.05.17/outbox.cif.g08.bks.cpg/sg2_213_cif.got.tgz:425381.got - 2010.06.03 11:33:40.
