data_PCOD9048013
_publ_section_title
;
Structure prediction by ZEFSAII (Michael W. Deem and Ramdas Pophale) SiO2 
 PCOD9048013
Probable space group: P -1
;
_chemical_formula_sum "Si O2"
_cell_formula_units_Z 16
_cell_length_a 13.611381
_cell_length_b 9.691105
_cell_length_c 9.843750
_cell_angle_alpha 34.246619
_cell_angle_beta 68.021946
_cell_angle_gamma 69.629756
_cell_volume 675.757081
_symmetry_space_group_name_H-M "P -1"
_symmetry_group_IT_number 2
_symmetry_cell_setting 'triclinic'
loop_
_space_group_symop_operation_xyz
x,y,z
-x,-y,-z
loop_
_atom_site_type_symbol
_atom_site_label
_atom_site_fract_x
_atom_site_fract_y
_atom_site_fract_z
Si Si1 0.255592 0.786633 0.299942
Si Si2 0.446076 0.701047 0.466388
Si Si3 0.172479 0.886809 0.825012
Si Si4 0.361206 0.549092 0.926202
Si Si5 0.501711 0.122426 0.253086
Si Si6 0.013559 0.862301 0.464742
Si Si7 0.232613 0.206293 0.751306
Si Si8 0.992392 0.379322 0.748922
O O1 0.340505 0.810449 0.356476
O O2 0.134872 0.845950 0.364951
O O3 0.266183 0.488947 0.504645
O O4 0.275655 0.992916 0.007849
O O5 0.500000 0.500000 0.500000
O O6 0.415797 0.592090 0.717285
O O7 0.519124 0.919130 0.293745
O O8 0.245204 0.684374 0.871733
O O9 0.240181 0.094715 0.686073
O O10 0.114990 0.755115 0.084689
O O11 0.072031 0.002062 0.701426
O O12 0.414483 0.674983 0.928380
O O13 0.386294 0.262256 0.172670
O O14 0.500000 0.000000 0.500000
O O15 0.983094 0.581538 0.707458
O O16 0.000000 0.000000 0.500000
O O17 0.105738 0.234818 0.826003
O O18 0.000000 0.500000 0.500000
#
# Coordination Sequence:
#
# PCOD9048013 Si02
#       8
#     2   2   2   2   2   2   2   2
#     4  11  26  45  69 108 147 190 245 303 364 442
#     4  11  26  47  75 100 142 190 239 307 373 435
#     4  12  23  40  74 101 142 190 238 295 356 434
#     4  10  24  44  72 108 137 185 243 300 367 437
#     4   9  22  47  71  99 144 176 241 305 365 435
#     4  11  24  42  65 102 148 186 235 292 365 430
#     4  11  24  43  69 104 147 190 248 296 360 435
#     4  11  22  43  67  98 143 193 241 289 352 428
#
# _framework density 23.677147000000001
#
# number of rings (size 3 to 8) (size 9 to 14) (size 15 to 20)
#    0.000    1.250    2.500    2.625    3.500    7.000 
#    0.000    0.000    0.000    0.000    0.000    0.000 
#    0.000    0.000    0.000    0.000    0.000    0.000 
#
# Total GULP energy -89382.897675 kJ/mol
# GULP energy per Si atom -5586.431105 kJ/mol
# Density = 2.362326 g / cm^3
# Si number density = 23.677147 Si / 1000 Ang^3
#
#
#
# Elastic Constant Matrix: (Units=GPa)
#
#
# Indices 1 2 3 4 5 6 
#
# 1 95.0707 46.3713 41.6785 -1.4281 17.2736 4.7415
# 2 46.3713 173.1819 60.9872 -21.2710 2.7368 14.3994
# 3 41.6785 60.9872 120.5856 -10.8480 18.0986 2.1538
# 4 -1.4281 -21.2710 -10.8480 27.7928 1.5569 7.6699
# 5 17.2736 2.7368 18.0986 1.5569 39.8066 -1.8241
# 6 4.7415 14.3994 2.1538 7.6699 -1.8241 44.2438
#
#
#
# Elastic Compliance Matrix: (Units=1/GPa)
#
#
# Indices 1 2 3 4 5 6 
#
# 1 0.014005 -0.002935 -0.002893 -0.002355 -0.004476 -0.000181
# 2 -0.002935 0.008610 -0.002978 0.006104 0.001644 -0.003333
# 3 -0.002893 -0.002978 0.011584 0.002266 -0.003888 0.000162
# 4 -0.002355 0.006104 0.002266 0.044215 -0.002598 -0.009617
# 5 -0.004476 0.001644 -0.003888 -0.002598 0.028901 0.001776
# 6 -0.000181 -0.003333 0.000162 -0.009617 0.001776 0.025439
#
#
# Mechanical properties :
#
#
# Convention : Reuss Voigt Hill
#
# Bulk Modulus (GPa) = 60.29053 76.32357 68.30705
# Shear Modulus (GPa) = 32.07297 38.35538 35.21417
#
# Velocity S-wave (km/s) = 3.68448 4.02920 3.86069
# Velocity P-wave (km/s) = 6.60450 7.34514 6.98464
#
# Compressibility (1/GPa) = 0.01658635
#
# Stress axis : x y z
#
# Youngs Moduli (GPa) = 71.40192 116.14818 86.32897
#
# Poissons Ratio (x) = 0.34085 0.24977
# Poissons Ratio (y) = 0.20953 0.25711
# Poissons Ratio (z) = 0.20658 0.34592
#
# Static dielectric constant tensor:
#      x y z
#    x 1.959950 0.022200 -0.043480 
#    y 0.022200 1.929280 -0.065600 
#    z -0.043480 -0.065600 2.016290 
# 
# From -- ./inp_files/106635.got.cif
#   From: 2010.05.17/outbox.cif.g08.bks.cpg/sg2_54_cif.got.tgz:106635.got - 2010.06.03 11:33:40.
