data_PCOD9048832
_publ_section_title
;
Structure prediction by ZEFSAII (Michael W. Deem and Ramdas Pophale) SiO2 
 PCOD9048832
Probable space group: P -1
;
_chemical_formula_sum "Si O2"
_cell_formula_units_Z 14
_cell_length_a 6.453233
_cell_length_b 26.861956
_cell_length_c 5.326230
_cell_angle_alpha 53.188550
_cell_angle_beta 79.177582
_cell_angle_gamma 56.465824
_cell_volume 601.796389
_symmetry_space_group_name_H-M "P -1"
_symmetry_group_IT_number 2
_symmetry_cell_setting 'triclinic'
loop_
_space_group_symop_operation_xyz
x,y,z
-x,-y,-z
loop_
_atom_site_type_symbol
_atom_site_label
_atom_site_fract_x
_atom_site_fract_y
_atom_site_fract_z
Si Si1 0.953826 0.226071 0.659362
Si Si2 0.967306 0.108962 0.695236
Si Si3 0.422884 0.329621 0.679597
Si Si4 0.850543 0.504522 0.770594
Si Si5 0.662944 0.909497 0.729590
Si Si6 0.776909 0.035116 0.656388
Si Si7 0.886268 0.660999 0.783814
O O1 0.722697 0.267175 0.784766
O O2 0.859855 0.187227 0.611029
O O3 0.010883 0.286077 0.375541
O O4 0.229329 0.153807 0.896378
O O5 0.081773 0.110789 0.401943
O O6 0.800907 0.076670 0.763676
O O7 0.194408 0.039440 0.016090
O O8 0.271802 0.326235 0.479127
O O9 0.391167 0.410230 0.434205
O O10 0.291115 0.326362 0.973799
O O11 0.000000 0.500000 0.500000
O O12 0.872366 0.426514 0.002556
O O13 0.000000 0.500000 0.000000
O O14 0.480233 0.902164 0.607650
O O15 0.500000 0.000000 0.500000
O O16 0.000000 0.000000 0.500000
#
# Coordination Sequence:
#
# PCOD9048832 Si02
#       7
#     2   2   2   2   2   2   2
#     4  12  28  43  68 104 143 181 238 299 361 421
#     4  11  25  43  66  94 129 174 232 292 359 423
#     4  10  24  46  71 106 149 189 233 291 356 429
#     4   8  16  39  71 101 140 188 234 279 343 429
#     4  12  25  46  63  93 131 175 232 294 345 422
#     4  11  23  45  70  91 119 173 237 286 359 418
#     4  10  24  45  73 107 146 190 234 292 358 418
#
# _framework density 23.263680999999998
#
# number of rings (size 3 to 8) (size 9 to 14) (size 15 to 20)
#    0.000    1.429    2.857    0.429    4.000    4.000 
#    0.000    0.000    0.000   10.286    0.000    0.000 
#    0.000    0.000    0.000    0.000    0.000    0.000 
#
# Total GULP energy -78047.234960 kJ/mol
# GULP energy per Si atom -5574.802497 kJ/mol
# Density = 2.321073 g / cm^3
# Si number density = 23.263681 Si / 1000 Ang^3
#
#
#
# Elastic Constant Matrix: (Units=GPa)
#
#
# Indices 1 2 3 4 5 6 
#
# 1 47.8787 48.6690 26.2321 -21.6502 -5.7971 11.0195
# 2 48.6690 150.0536 68.6387 -30.4264 -11.6207 13.1862
# 3 26.2321 68.6387 92.7597 -9.2249 -12.7453 20.2970
# 4 -21.6502 -30.4264 -9.2249 50.5055 7.1343 -8.5117
# 5 -5.7971 -11.6207 -12.7453 7.1343 40.4082 -4.2260
# 6 11.0195 13.1862 20.2970 -8.5117 -4.2260 33.0735
#
#
#
# Elastic Compliance Matrix: (Units=1/GPa)
#
#
# Indices 1 2 3 4 5 6 
#
# 1 0.035768 -0.008490 -0.001822 0.009028 -0.000011 -0.005092
# 2 -0.008490 0.013490 -0.007951 0.003601 -0.000144 0.003238
# 3 -0.001822 -0.007951 0.019106 -0.003987 0.003288 -0.008554
# 4 0.009028 0.003601 -0.003987 0.026287 -0.003111 0.004371
# 5 -0.000011 -0.000144 0.003288 -0.003111 0.026355 0.000610
# 6 -0.005092 0.003238 -0.008554 0.004371 0.000610 0.037094
#
#
# Mechanical properties :
#
#
# Convention : Reuss Voigt Hill
#
# Bulk Modulus (GPa) = 31.40996 64.19684 47.80340
# Shear Modulus (GPa) = 24.36196 34.60759 29.48478
#
# Velocity S-wave (km/s) = 3.23957 3.86116 3.56394
# Velocity P-wave (km/s) = 5.24635 6.89444 6.12607
#
# Compressibility (1/GPa) = 0.03183704
#
# Stress axis : x y z
#
# Youngs Moduli (GPa) = 27.95797 74.13166 52.33909
#
# Poissons Ratio (x) = 0.62941 0.09536
# Poissons Ratio (y) = 0.23738 0.41614
# Poissons Ratio (z) = 0.05094 0.58941
#
# Static dielectric constant tensor:
#      x y z
#    x 2.004850 0.067540 0.087950 
#    y 0.067540 1.927610 0.056550 
#    z 0.087950 0.056550 2.561460 
# 
# From -- ./inp_files/14269.got.cif
#   From: 2010.05.17/outbox.cif.g08.bks.cpg/sg2_8_cif.got.tgz:14269.got - 2010.06.03 11:33:40.
