data_PCOD9048652
_publ_section_title
;
Structure prediction by ZEFSAII (Michael W. Deem and Ramdas Pophale) SiO2 
 PCOD9048652
Probable space group: P -1
;
_chemical_formula_sum "Si O2"
_cell_formula_units_Z 16
_cell_length_a 9.358530
_cell_length_b 11.750111
_cell_length_c 14.257752
_cell_angle_alpha 109.173402
_cell_angle_beta 114.230227
_cell_angle_gamma 126.925132
_cell_volume 702.600184
_symmetry_space_group_name_H-M "P -1"
_symmetry_group_IT_number 2
_symmetry_cell_setting 'triclinic'
loop_
_space_group_symop_operation_xyz
x,y,z
-x,-y,-z
loop_
_atom_site_type_symbol
_atom_site_label
_atom_site_fract_x
_atom_site_fract_y
_atom_site_fract_z
Si Si1 0.852100 0.207776 0.127551
Si Si2 0.626733 0.817715 0.968477
Si Si3 0.558639 0.395360 0.497745
Si Si4 0.610218 0.834634 0.184910
Si Si5 0.781414 0.214158 0.911800
Si Si6 0.201551 0.190798 0.522384
Si Si7 0.341588 0.701432 0.673698
Si Si8 0.645694 0.550585 0.898003
O O1 0.094887 0.396956 0.321921
O O2 0.919234 0.322834 0.082068
O O3 0.500000 0.000000 0.000000
O O4 0.877752 0.080937 0.078605
O O5 0.380188 0.674292 0.781806
O O6 0.703574 0.728915 0.972475
O O7 0.556457 0.810326 0.053757
O O8 0.500000 0.500000 0.500000
O O9 0.349257 0.216956 0.481212
O O10 0.511761 0.293345 0.361215
O O11 0.368123 0.759519 0.153098
O O12 0.581154 0.673967 0.157480
O O13 0.941905 0.097812 0.375309
O O14 0.515388 0.942529 0.779321
O O15 0.046943 0.318580 0.961047
O O16 0.484263 0.430676 0.720057
O O17 0.000000 0.000000 0.500000
O O18 0.000000 0.500000 0.500000
#
# Coordination Sequence:
#
# PCOD9048652 Si02
#       8
#     2   2   2   2   2   2   2   2
#     4  11  22  41  67  97 132 178 218 282 351 412
#     4  11  24  41  69 100 137 171 229 286 346 406
#     4  12  24  41  72 102 135 181 233 285 355 411
#     4  11  24  45  71  92 138 189 225 277 349 417
#     4  11  24  42  67  96 140 172 233 278 347 411
#     4  10  24  45  70  99 139 182 235 283 348 417
#     4  11  28  42  67 106 142 178 226 292 354 417
#     4  11  24  44  69 101 130 177 235 289 337 412
#
# _framework density 22.772554
#
# number of rings (size 3 to 8) (size 9 to 14) (size 15 to 20)
#    0.000    1.000    2.500    3.750    7.000    1.000 
#    0.000    0.000    0.000    2.250    0.000    0.000 
#    0.000    0.000    0.000    0.000    0.000    0.000 
#
# Total GULP energy -89224.556541 kJ/mol
# GULP energy per Si atom -5576.534784 kJ/mol
# Density = 2.272072 g / cm^3
# Si number density = 22.772554 Si / 1000 Ang^3
#
#
#
# Elastic Constant Matrix: (Units=GPa)
#
#
# Indices 1 2 3 4 5 6 
#
# 1 101.6560 26.4806 40.0682 -4.3056 6.7263 -10.6162
# 2 26.4806 81.6175 23.3158 -10.0490 3.5994 -3.8695
# 3 40.0682 23.3158 124.5190 -8.6154 10.1177 6.9733
# 4 -4.3056 -10.0490 -8.6154 31.4226 13.4314 -4.2865
# 5 6.7263 3.5994 10.1177 13.4314 33.8023 -1.3281
# 6 -10.6162 -3.8695 6.9733 -4.2865 -1.3281 42.0894
#
#
#
# Elastic Compliance Matrix: (Units=1/GPa)
#
#
# Indices 1 2 3 4 5 6 
#
# 1 0.012420 -0.002681 -0.003514 0.000948 -0.001372 0.003522
# 2 -0.002681 0.014307 -0.001325 0.005124 -0.002578 0.001299
# 3 -0.003514 -0.001325 0.010035 0.002981 -0.003445 -0.002476
# 4 0.000948 0.005124 0.002981 0.042864 -0.018501 0.003998
# 5 -0.001372 -0.002578 -0.003445 -0.018501 0.038487 -0.000682
# 6 0.003522 0.001299 -0.002476 0.003998 -0.000682 0.025562
#
#
# Mechanical properties :
#
#
# Convention : Reuss Voigt Hill
#
# Bulk Modulus (GPa) = 46.04109 54.16908 50.10508
# Shear Modulus (GPa) = 30.12853 35.99138 33.05995
#
# Velocity S-wave (km/s) = 3.64128 3.97983 3.81431
# Velocity P-wave (km/s) = 6.15957 6.70502 6.43807
#
# Compressibility (1/GPa) = 0.02171973
#
# Stress axis : x y z
#
# Youngs Moduli (GPa) = 80.51849 69.89646 99.65433
#
# Poissons Ratio (x) = 0.18742 0.35023
# Poissons Ratio (y) = 0.21590 0.13202
# Poissons Ratio (z) = 0.28298 0.09260
#
# Static dielectric constant tensor:
#      x y z
#    x 1.916600 0.040830 0.022680 
#    y 0.040830 1.918990 -0.001930 
#    z 0.022680 -0.001930 1.879280 
# 
# From -- ./inp_files/500590.got.cif
#   From: 2010.05.17/outbox.cif.g08.bks.cpg/sg2_251_cif.got.tgz:500590.got - 2010.06.03 11:33:40.
