data_PCOD9048001
_publ_section_title
;
Structure prediction by ZEFSAII (Michael W. Deem and Ramdas Pophale) SiO2 
 PCOD9048001
Probable space group: P -1
;
_chemical_formula_sum "Si O2"
_cell_formula_units_Z 16
_cell_length_a 17.978164
_cell_length_b 8.693526
_cell_length_c 5.102445
_cell_angle_alpha 53.411329
_cell_angle_beta 100.260929
_cell_angle_gamma 110.598701
_cell_volume 598.857863
_symmetry_space_group_name_H-M "P -1"
_symmetry_group_IT_number 2
_symmetry_cell_setting 'triclinic'
loop_
_space_group_symop_operation_xyz
x,y,z
-x,-y,-z
loop_
_atom_site_type_symbol
_atom_site_label
_atom_site_fract_x
_atom_site_fract_y
_atom_site_fract_z
Si Si1 0.107840 0.896515 0.614004
Si Si2 0.164438 0.609477 0.592483
Si Si3 0.262140 0.186135 0.346055
Si Si4 0.274750 0.436132 0.595145
Si Si5 0.579402 0.038692 0.840985
Si Si6 0.555279 0.578395 0.205704
Si Si7 0.666699 0.151499 0.283696
Si Si8 0.029149 0.189141 0.030709
O O1 0.121470 0.773272 0.493110
O O2 0.045096 0.768580 0.911815
O O3 0.196121 0.010390 0.643108
O O4 0.076971 0.087929 0.358303
O O5 0.209980 0.557880 0.421372
O O6 0.249041 0.695210 0.722403
O O7 0.091800 0.401533 0.780546
O O8 0.283323 0.365309 0.379352
O O9 0.326271 0.073489 0.463957
O O10 0.237491 0.259147 0.976981
O O11 0.366159 0.490312 0.693267
O O12 0.595640 0.135170 0.463452
O O13 0.644516 0.172614 0.949385
O O14 0.500000 0.000000 0.000000
O O15 0.585525 0.816881 0.031775
O O16 0.500000 0.500000 0.500000
O O17 0.500000 0.500000 0.000000
O O18 0.000000 0.000000 0.000000
#
# Coordination Sequence:
#
# PCOD9048001 Si02
#       8
#     2   2   2   2   2   2   2   2
#     4  10  24  44  72 105 148 191 245 298 370 431
#     4  11  26  44  73 110 146 191 257 297 369 450
#     4  11  21  45  71  97 141 193 236 297 365 426
#     4  12  24  44  71 103 146 189 243 304 366 428
#     4  12  26  46  71 100 147 189 244 309 377 435
#     4  12  26  44  72 104 142 192 246 304 371 445
#     4  11  24  47  67 106 140 195 243 310 364 440
#     4  11  23  48  74 106 150 196 238 305 373 440
#
# _framework density 26.717524999999998
#
# number of rings (size 3 to 8) (size 9 to 14) (size 15 to 20)
#    0.000    0.750    3.750    3.000    3.500    1.500 
#    9.000    0.000    0.000    0.000    0.000    0.000 
#    0.000    0.000    0.000    0.000    0.000    0.000 
#
# Total GULP energy -89211.646443 kJ/mol
# GULP energy per Si atom -5575.727903 kJ/mol
# Density = 2.665671 g / cm^3
# Si number density = 26.717525 Si / 1000 Ang^3
#
#
#
# Elastic Constant Matrix: (Units=GPa)
#
#
# Indices 1 2 3 4 5 6 
#
# 1 185.6846 17.6251 29.0790 -10.0004 -54.5177 -18.3716
# 2 17.6251 131.9716 17.7084 -5.6628 -15.1393 -10.0460
# 3 29.0790 17.7084 81.3901 16.5533 -28.3388 -3.7217
# 4 -10.0004 -5.6628 16.5533 38.3179 -5.9794 3.1610
# 5 -54.5177 -15.1393 -28.3388 -5.9794 43.9804 -16.6966
# 6 -18.3716 -10.0460 -3.7217 3.1610 -16.6966 44.3701
#
#
#
# Elastic Compliance Matrix: (Units=1/GPa)
#
#
# Indices 1 2 3 4 5 6 
#
# 1 0.015819 0.002581 0.004307 0.005970 0.031230 0.018822
# 2 0.002581 0.008869 -0.000013 0.002880 0.009013 0.006262
# 3 0.004307 -0.000013 0.020073 -0.005090 0.022200 0.012181
# 4 0.005970 0.002880 -0.005090 0.031641 0.011179 0.004650
# 5 0.031230 0.009013 0.022200 0.011179 0.100876 0.053997
# 6 0.018822 0.006262 0.012181 0.004650 0.053997 0.052759
#
#
# Mechanical properties :
#
#
# Convention : Reuss Voigt Hill
#
# Bulk Modulus (GPa) = 17.09111 58.65236 37.87174
# Shear Modulus (GPa) = 21.20535 47.64260 34.42398
#
# Velocity S-wave (km/s) = 2.82030 4.22737 3.59338
# Velocity P-wave (km/s) = 4.12508 6.76964 5.60555
#
# Compressibility (1/GPa) = 0.05850994
#
# Stress axis : x y z
#
# Youngs Moduli (GPa) = 63.21475 112.75796 49.81938
#
# Poissons Ratio (x) = -0.29103 -0.21457
# Poissons Ratio (y) = -0.16316 0.00065
# Poissons Ratio (z) = -0.27226 0.00147
#
# Static dielectric constant tensor:
#      x y z
#    x 2.269840 0.001460 -0.068450 
#    y 0.001460 2.077280 -0.018480 
#    z -0.068450 -0.018480 2.245680 
# 
# From -- ./inp_files/106318.got.cif
#   From: 2010.05.17/outbox.cif.g08.bks.cpg/sg2_54_cif.got.tgz:106318.got - 2010.06.03 11:33:40.
