data_PCOD9048025
_publ_section_title
;
Structure prediction by ZEFSAII (Michael W. Deem and Ramdas Pophale) SiO2 
 PCOD9048025
Probable space group: P -1
;
_chemical_formula_sum "Si O2"
_cell_formula_units_Z 11
_cell_length_a 10.879983
_cell_length_b 6.885422
_cell_length_c 13.491163
_cell_angle_alpha 124.538370
_cell_angle_beta 32.415465
_cell_angle_gamma 111.723172
_cell_volume 432.603344
_symmetry_space_group_name_H-M "P -1"
_symmetry_group_IT_number 2
_symmetry_cell_setting 'triclinic'
loop_
_space_group_symop_operation_xyz
x,y,z
-x,-y,-z
loop_
_atom_site_type_symbol
_atom_site_label
_atom_site_fract_x
_atom_site_fract_y
_atom_site_fract_z
Si Si1 0.000000 0.000000 0.500000
Si Si2 0.174831 0.076468 0.985302
Si Si3 0.375140 0.019623 0.487494
Si Si4 0.047983 0.357175 0.685621
Si Si5 0.650222 0.167997 0.995385
Si Si6 0.222565 0.617425 0.391881
O O1 0.200156 0.779713 0.355881
O O2 0.832366 0.793294 0.533233
O O3 0.418051 0.049922 0.753293
O O4 0.070333 0.363404 0.162878
O O5 0.241588 0.917704 0.995041
O O6 0.000000 0.000000 0.000000
O O7 0.217502 0.822710 0.537820
O O8 0.500000 0.000000 0.500000
O O9 0.218742 0.287319 0.643060
O O10 0.867232 0.175706 0.773161
O O11 0.473564 0.431855 0.184876
O O12 0.500000 0.000000 0.000000
O O13 0.000000 0.500000 0.500000
#
# Coordination Sequence:
#
# PCOD9048025 Si02
#       6
#     1   2   2   2   2   2
#     4  10  24  44  72 110 146 194 242 306 384 430
#     4  12  29  50  75 111 154 204 252 306 384 451
#     4  11  26  48  76 107 149 202 249 311 375 447
#     4  11  26  47  74 107 153 189 253 313 367 457
#     4  12  26  45  76 111 149 199 247 310 382 447
#     4  11  25  43  74 107 152 185 253 307 372 448
#
# _framework density 25.427447999999998
#
# number of rings (size 3 to 8) (size 9 to 14) (size 15 to 20)
#    0.000    0.727    1.818    4.364   12.727    5.091 
#    0.000    0.000    0.000    0.000    0.000    0.000 
#    0.000    0.000    0.000    0.000    0.000    0.000 
#
# Total GULP energy -61318.690925 kJ/mol
# GULP energy per Si atom -5574.426448 kJ/mol
# Density = 2.536957 g / cm^3
# Si number density = 25.427448 Si / 1000 Ang^3
#
#
#
# Elastic Constant Matrix: (Units=GPa)
#
#
# Indices 1 2 3 4 5 6 
#
# 1 233.1770 77.2805 30.4700 12.6816 -23.7768 -33.7383
# 2 77.2805 134.6587 62.8631 21.7144 -11.3489 -23.6594
# 3 30.4700 62.8631 105.7339 17.9376 -20.8371 -25.8566
# 4 12.6816 21.7144 17.9376 63.9266 -9.8617 -18.7049
# 5 -23.7768 -11.3489 -20.8371 -9.8617 42.7590 7.2602
# 6 -33.7383 -23.6594 -25.8566 -18.7049 7.2602 64.5859
#
#
#
# Elastic Compliance Matrix: (Units=1/GPa)
#
#
# Indices 1 2 3 4 5 6 
#
# 1 0.005823 -0.003465 0.001345 0.000717 0.002764 0.002208
# 2 -0.003465 0.012637 -0.006649 -0.002152 -0.002273 -0.000210
# 3 0.001345 -0.006649 0.015063 -0.000320 0.005643 0.003570
# 4 0.000717 -0.002152 -0.000320 0.018071 0.003102 0.004343
# 5 0.002764 -0.002273 0.005643 0.003102 0.027675 0.000658
# 6 0.002208 -0.000210 0.003570 0.004343 0.000658 0.019173
#
#
# Mechanical properties :
#
#
# Convention : Reuss Voigt Hill
#
# Bulk Modulus (GPa) = 62.55689 90.53299 76.54494
# Shear Modulus (GPa) = 41.21760 54.45139 47.83449
#
# Velocity S-wave (km/s) = 4.03052 4.63259 4.34200
# Velocity P-wave (km/s) = 6.80556 8.01850 7.43680
#
# Compressibility (1/GPa) = 0.01598545
#
# Stress axis : x y z
#
# Youngs Moduli (GPa) = 171.71867 79.13294 66.38885
#
# Poissons Ratio (x) = 0.27416 -0.08928
# Poissons Ratio (y) = 0.59492 0.44143
# Poissons Ratio (z) = -0.23092 0.52617
#
# Static dielectric constant tensor:
#      x y z
#    x 1.902350 0.131000 -0.250920 
#    y 0.131000 2.049770 -0.014980 
#    z -0.250920 -0.014980 1.762850 
# 
# From -- ./inp_files/510541.got.cif
#   From: 2010.05.17/outbox.cif.g08.bks.cpg/sg2_256_cif.got.tgz:510541.got - 2010.06.03 11:33:40.
