data_PCOD9048820
_publ_section_title
;
Structure prediction by ZEFSAII (Michael W. Deem and Ramdas Pophale) SiO2 
 PCOD9048820
Probable space group: P -1
;
_chemical_formula_sum "Si O2"
_cell_formula_units_Z 16
_cell_length_a 8.730492
_cell_length_b 19.291116
_cell_length_c 21.168365
_cell_angle_alpha 19.325589
_cell_angle_beta 37.718118
_cell_angle_gamma 37.455537
_cell_volume 701.773165
_symmetry_space_group_name_H-M "P -1"
_symmetry_group_IT_number 2
_symmetry_cell_setting 'triclinic'
loop_
_space_group_symop_operation_xyz
x,y,z
-x,-y,-z
loop_
_atom_site_type_symbol
_atom_site_label
_atom_site_fract_x
_atom_site_fract_y
_atom_site_fract_z
Si Si1 0.203176 0.598594 0.084621
Si Si2 0.387021 0.351878 0.434907
Si Si3 0.813978 0.413917 0.044112
Si Si4 0.456199 0.874841 0.185932
Si Si5 0.189165 0.964809 0.872797
Si Si6 0.087181 0.771880 0.700687
Si Si7 0.094852 0.553710 0.580059
Si Si8 0.351953 0.790022 0.101615
O O1 0.503754 0.479542 0.090536
O O2 0.044675 0.460872 0.295250
O O3 0.114735 0.630861 0.013514
O O4 0.172176 0.824562 0.937278
O O5 0.372785 0.127457 0.663708
O O6 0.618347 0.320954 0.336686
O O7 0.422577 0.538280 0.311131
O O8 0.113454 0.422896 0.427562
O O9 0.919595 0.230232 0.219371
O O10 0.918429 0.615504 0.862290
O O11 0.225147 0.755585 0.360432
O O12 0.696461 0.674373 0.296185
O O13 0.500000 0.000000 0.000000
O O14 0.448688 0.064569 0.074986
O O15 0.910621 0.098547 0.872303
O O16 0.298390 0.805252 0.031464
O O17 0.000000 0.000000 0.500000
#
# Coordination Sequence:
#
# PCOD9048820 Si02
#       8
#     2   2   2   2   2   2   2   2
#     4  11  21  47  73 105 146 192 241 303 372 428
#     4  12  24  43  73 100 138 188 247 292 362 436
#     4  10  24  45  73 104 144 185 243 312 363 430
#     4  11  25  43  66 102 151 189 237 297 358 430
#     4  11  22  40  70 102 137 187 237 292 355 429
#     4  11  24  48  72 105 141 186 245 308 367 434
#     4  11  23  43  68 103 142 190 239 292 355 440
#     4  11  22  42  66  99 141 189 238 288 356 428
#
# _framework density 22.799389999999999
#
# number of rings (size 3 to 8) (size 9 to 14) (size 15 to 20)
#    0.000    1.000    3.750    2.625    0.000    5.000 
#    2.250    1.875    0.000    0.000    0.000    0.000 
#    0.000    0.000    0.000    0.000    0.000    0.000 
#
# Total GULP energy -89566.976781 kJ/mol
# GULP energy per Si atom -5597.936049 kJ/mol
# Density = 2.274750 g / cm^3
# Si number density = 22.799390 Si / 1000 Ang^3
#
#
#
# Elastic Constant Matrix: (Units=GPa)
#
#
# Indices 1 2 3 4 5 6 
#
# 1 107.1739 30.9275 52.6592 -1.3541 0.3726 11.4068
# 2 30.9275 57.5523 37.8015 2.5156 -1.8616 9.3856
# 3 52.6592 37.8015 156.6118 17.4280 -10.3478 16.8038
# 4 -1.3541 2.5156 17.4280 26.9155 -3.2988 -7.3107
# 5 0.3726 -1.8616 -10.3478 -3.2988 42.7960 4.0972
# 6 11.4068 9.3856 16.8038 -7.3107 4.0972 41.1906
#
#
#
# Elastic Compliance Matrix: (Units=1/GPa)
#
#
# Indices 1 2 3 4 5 6 
#
# 1 0.012403 -0.004506 -0.003441 0.003066 -0.000864 -0.000374
# 2 -0.004506 0.022602 -0.003559 -0.000700 0.000358 -0.002610
# 3 -0.003441 -0.003559 0.009683 -0.006840 0.002034 -0.003603
# 4 0.003066 -0.000700 -0.006840 0.044596 0.000775 0.009939
# 5 -0.000864 0.000358 0.002034 0.000775 0.024223 -0.002944
# 6 -0.000374 -0.002610 -0.003603 0.009939 -0.002944 0.028502
#
#
# Mechanical properties :
#
#
# Convention : Reuss Voigt Hill
#
# Bulk Modulus (GPa) = 46.13131 62.67938 54.40534
# Shear Modulus (GPa) = 29.02788 35.51040 32.26914
#
# Velocity S-wave (km/s) = 3.57205 3.95082 3.76620
# Velocity P-wave (km/s) = 6.10657 6.95437 6.54421
#
# Compressibility (1/GPa) = 0.02167725
#
# Stress axis : x y z
#
# Youngs Moduli (GPa) = 80.62433 44.24325 103.27066
#
# Poissons Ratio (x) = 0.19936 0.35534
# Poissons Ratio (y) = 0.36330 0.36752
# Poissons Ratio (z) = 0.27742 0.15745
#
# Static dielectric constant tensor:
#      x y z
#    x 1.883140 -0.008740 -0.009490 
#    y -0.008740 1.859950 0.009690 
#    z -0.009490 0.009690 1.839940 
# 
# From -- ./inp_files/591163.got.cif
#   From: 2010.05.17/outbox.cif.g08.bks.cpg/sg2_296_cif.got.tgz:591163.got - 2010.06.03 11:33:40.
