data_PCOD9048084
_publ_section_title
;
Structure prediction by ZEFSAII (Michael W. Deem and Ramdas Pophale) SiO2 
 PCOD9048084
Probable space group: P -1
;
_chemical_formula_sum "Si O2"
_cell_formula_units_Z 16
_cell_length_a 14.096588
_cell_length_b 5.036932
_cell_length_c 13.736145
_cell_angle_alpha 69.341043
_cell_angle_beta 139.232427
_cell_angle_gamma 96.765667
_cell_volume 577.832932
_symmetry_space_group_name_H-M "P -1"
_symmetry_group_IT_number 2
_symmetry_cell_setting 'triclinic'
loop_
_space_group_symop_operation_xyz
x,y,z
-x,-y,-z
loop_
_atom_site_type_symbol
_atom_site_label
_atom_site_fract_x
_atom_site_fract_y
_atom_site_fract_z
Si Si1 0.306280 0.148114 0.432189
Si Si2 0.409913 0.124322 0.729831
Si Si3 0.103663 0.621180 0.872051
Si Si4 0.005280 0.259438 0.686255
Si Si5 0.612598 0.179570 0.630953
Si Si6 0.130648 0.725204 0.101446
Si Si7 0.565983 0.504226 0.940084
Si Si8 0.132035 0.165940 0.604135
O O1 0.321243 0.210518 0.548606
O O2 0.489568 0.000416 0.579119
O O3 0.206191 0.443785 0.265566
O O4 0.275735 0.907200 0.363416
O O5 0.464550 0.364500 0.804669
O O6 0.290411 0.992443 0.714159
O O7 0.545789 0.845883 0.858037
O O8 0.047747 0.368995 0.807243
O O9 0.982819 0.933909 0.716868
O O10 0.106597 0.598383 0.993409
O O11 0.260036 0.631395 0.939626
O O12 0.137161 0.230981 0.713295
O O13 0.890439 0.522731 0.509010
O O14 0.500000 0.500000 0.500000
O O15 0.722671 0.147282 0.811265
O O16 0.000000 0.000000 0.000000
O O17 0.500000 0.500000 0.000000
O O18 0.000000 0.000000 0.500000
#
# Coordination Sequence:
#
# PCOD9048084 Si02
#       8
#     2   2   2   2   2   2   2   2
#     4  10  24  44  73 105 144 193 253 309 365 449
#     4  12  28  43  79 108 146 194 249 298 378 444
#     4  12  26  46  74 105 151 196 240 299 388 433
#     4  11  25  45  74 101 141 193 244 292 375 445
#     4   9  21  44  71  97 145 185 242 307 371 431
#     4  11  27  44  71 104 154 194 253 311 370 440
#     4  12  27  48  74 114 149 189 247 313 371 448
#     4  11  25  48  75 104 144 190 245 308 367 446
#
# _framework density 27.689661999999998
#
# number of rings (size 3 to 8) (size 9 to 14) (size 15 to 20)
#    0.000    1.000    1.250    3.375   15.750    1.500 
#    0.000    0.000    0.000    0.000    0.000    0.000 
#    0.000    0.000    0.000    0.000    0.000    0.000 
#
# Total GULP energy -89229.392435 kJ/mol
# GULP energy per Si atom -5576.837027 kJ/mol
# Density = 2.762664 g / cm^3
# Si number density = 27.689662 Si / 1000 Ang^3
#
#
#
# Elastic Constant Matrix: (Units=GPa)
#
#
# Indices 1 2 3 4 5 6 
#
# 1 110.7020 34.2716 39.6504 4.1167 -10.4565 -37.5939
# 2 34.2716 176.3588 73.7957 11.0107 -19.3512 -33.7304
# 3 39.6504 73.7957 145.4877 -2.4691 -17.7428 -28.9983
# 4 4.1167 11.0107 -2.4691 61.1454 -7.0496 -1.2685
# 5 -10.4565 -19.3512 -17.7428 -7.0496 62.3040 13.8438
# 6 -37.5939 -33.7304 -28.9983 -1.2685 13.8438 45.2823
#
#
#
# Elastic Compliance Matrix: (Units=1/GPa)
#
#
# Indices 1 2 3 4 5 6 
#
# 1 0.012942 0.000061 -0.001674 -0.000811 -0.000571 0.009870
# 2 0.000061 0.007854 -0.003234 -0.001409 0.000565 0.003618
# 3 -0.001674 -0.003234 0.009526 0.001251 0.001126 0.001992
# 4 -0.000811 -0.001409 0.001251 0.016914 0.001927 -0.001037
# 5 -0.000571 0.000565 0.001126 0.001927 0.017711 -0.004692
# 6 0.009870 0.003618 0.001992 -0.001037 -0.004692 0.035653
#
#
# Mechanical properties :
#
#
# Convention : Reuss Voigt Hill
#
# Bulk Modulus (GPa) = 48.48046 80.88710 64.68378
# Shear Modulus (GPa) = 42.67305 52.73506 47.70406
#
# Velocity S-wave (km/s) = 3.92997 4.36880 4.15518
# Velocity P-wave (km/s) = 6.17571 7.39756 6.81408
#
# Compressibility (1/GPa) = 0.02062687
#
# Stress axis : x y z
#
# Youngs Moduli (GPa) = 77.26801 127.33143 104.97810
#
# Poissons Ratio (x) = -0.00781 0.17577
# Poissons Ratio (y) = -0.00474 0.33952
# Poissons Ratio (z) = 0.12938 0.41181
#
# Static dielectric constant tensor:
#      x y z
#    x 2.690280 -0.016420 -0.121370 
#    y -0.016420 2.492400 0.288050 
#    z -0.121370 0.288050 2.408830 
# 
# From -- ./inp_files/441846.got.cif
#   From: 2010.05.17/outbox.cif.g08.bks.cpg/sg2_221_cif.got.tgz:441846.got - 2010.06.03 11:33:40.
