data_PCOD9048365
_publ_section_title
;
Structure prediction by ZEFSAII (Michael W. Deem and Ramdas Pophale) SiO2 
 PCOD9048365
Probable space group: P -1
;
_chemical_formula_sum "Si O2"
_cell_formula_units_Z 14
_cell_length_a 10.276775
_cell_length_b 12.120303
_cell_length_c 6.742704
_cell_angle_alpha 54.233711
_cell_angle_beta 90.033371
_cell_angle_gamma 108.726963
_cell_volume 625.972352
_symmetry_space_group_name_H-M "P -1"
_symmetry_group_IT_number 2
_symmetry_cell_setting 'triclinic'
loop_
_space_group_symop_operation_xyz
x,y,z
-x,-y,-z
loop_
_atom_site_type_symbol
_atom_site_label
_atom_site_fract_x
_atom_site_fract_y
_atom_site_fract_z
Si Si1 0.597522 0.070997 0.232268
Si Si2 0.854748 0.223573 0.344871
Si Si3 0.181065 0.331766 0.227720
Si Si4 0.873233 0.932515 0.726971
Si Si5 0.542915 0.800099 0.234468
Si Si6 0.274179 0.570622 0.693252
Si Si7 0.195418 0.283611 0.737266
O O1 0.748496 0.179454 0.205039
O O2 0.500000 0.000000 0.500000
O O3 0.609380 0.941889 0.230597
O O4 0.526470 0.153411 0.002971
O O5 0.816179 0.331455 0.374332
O O6 0.018523 0.299888 0.201531
O O7 0.825267 0.066356 0.618248
O O8 0.228138 0.213523 0.239082
O O9 0.169280 0.299777 0.491973
O O10 0.279438 0.494441 0.984264
O O11 0.910019 0.863199 0.996000
O O12 0.000000 0.000000 0.500000
O O13 0.422546 0.675826 0.492331
O O14 0.657693 0.738699 0.230283
O O15 0.205381 0.430052 0.697076
#
# Coordination Sequence:
#
# PCOD9048365 Si02
#       7
#     2   2   2   2   2   2   2
#     4  11  23  43  68  99 133 169 224 285 327 386
#     4  11  22  44  70  96 135 170 222 280 332 390
#     4  10  24  45  67  99 135 178 218 273 341 395
#     4   9  21  42  65  96 130 170 223 270 328 389
#     4  11  25  43  68 100 130 179 229 267 337 393
#     4  11  25  44  63 103 134 179 222 269 338 394
#     4  11  24  43  66  97 140 176 221 272 330 407
#
# _framework density 22.365203999999999
#
# number of rings (size 3 to 8) (size 9 to 14) (size 15 to 20)
#    0.000    1.429    1.429    2.571    4.000    4.571 
#    7.714    0.000    0.000    0.000    0.000    0.000 
#    0.000    0.000    0.000    0.000    0.000    0.000 
#
# Total GULP energy -78246.774323 kJ/mol
# GULP energy per Si atom -5589.055309 kJ/mol
# Density = 2.231430 g / cm^3
# Si number density = 22.365204 Si / 1000 Ang^3
#
#
#
# Elastic Constant Matrix: (Units=GPa)
#
#
# Indices 1 2 3 4 5 6 
#
# 1 86.4688 48.3526 52.0381 -2.0701 -3.3657 -8.5574
# 2 48.3526 145.7524 59.4433 -5.6000 17.1855 -31.7062
# 3 52.0381 59.4433 166.5275 5.9347 -13.1406 -5.4039
# 4 -2.0701 -5.6000 5.9347 42.1883 -0.0706 8.6335
# 5 -3.3657 17.1855 -13.1406 -0.0706 33.0606 -1.2764
# 6 -8.5574 -31.7062 -5.4039 8.6335 -1.2764 37.9706
#
#
#
# Elastic Compliance Matrix: (Units=1/GPa)
#
#
# Indices 1 2 3 4 5 6 
#
# 1 0.016064 -0.004392 -0.003296 0.000798 0.002586 -0.000611
# 2 -0.004392 0.012586 -0.003476 0.000146 -0.008034 0.008722
# 3 -0.003296 -0.003476 0.008646 -0.001437 0.004831 -0.001926
# 4 0.000798 0.000146 -0.001437 0.025117 -0.000730 -0.005638
# 5 0.002586 -0.008034 0.004831 -0.000730 0.036449 -0.004047
# 6 -0.000611 0.008722 -0.001926 -0.005638 -0.004047 0.034353
#
#
# Mechanical properties :
#
#
# Convention : Reuss Voigt Hill
#
# Bulk Modulus (GPa) = 66.81540 79.82405 73.31973
# Shear Modulus (GPa) = 31.14632 38.57154 34.85893
#
# Velocity S-wave (km/s) = 3.73584 4.15736 3.95222
# Velocity P-wave (km/s) = 6.96765 7.66900 7.32672
#
# Compressibility (1/GPa) = 0.01496661
#
# Stress axis : x y z
#
# Youngs Moduli (GPa) = 62.25161 79.45379 115.66221
#
# Poissons Ratio (x) = 0.34895 0.38125
# Poissons Ratio (y) = 0.27340 0.40209
# Poissons Ratio (z) = 0.20520 0.27621
#
# Static dielectric constant tensor:
#      x y z
#    x 1.838850 -0.005030 -0.006780 
#    y -0.005030 1.842480 -0.009530 
#    z -0.006780 -0.009530 1.881190 
# 
# From -- ./inp_files/68195.got.cif
#   From: 2010.05.17/outbox.cif.g08.bks.cpg/sg2_35_cif.got.tgz:68195.got - 2010.06.03 11:33:40.
