data_PCOD9048286
_publ_section_title
;
Structure prediction by ZEFSAII (Michael W. Deem and Ramdas Pophale) SiO2 
 PCOD9048286
Probable space group: P -1
;
_chemical_formula_sum "Si O2"
_cell_formula_units_Z 14
_cell_length_a 11.657434
_cell_length_b 11.313668
_cell_length_c 11.167281
_cell_angle_alpha 40.497947
_cell_angle_beta 46.741751
_cell_angle_gamma 38.335505
_cell_volume 578.676987
_symmetry_space_group_name_H-M "P -1"
_symmetry_group_IT_number 2
_symmetry_cell_setting 'triclinic'
loop_
_space_group_symop_operation_xyz
x,y,z
-x,-y,-z
loop_
_atom_site_type_symbol
_atom_site_label
_atom_site_fract_x
_atom_site_fract_y
_atom_site_fract_z
Si Si1 0.172163 0.419359 0.527448
Si Si2 0.441997 0.561191 0.132205
Si Si3 0.089000 0.132542 0.191560
Si Si4 0.200195 0.981812 0.857777
Si Si5 0.891714 0.536204 0.200639
Si Si6 0.534969 0.260004 0.660871
Si Si7 0.725317 0.179624 0.345364
O O1 0.317099 0.467496 0.329939
O O2 0.105500 0.539221 0.609268
O O3 0.000000 0.500000 0.500000
O O4 0.232497 0.175160 0.697804
O O5 0.617956 0.439684 0.189589
O O6 0.500000 0.500000 0.000000
O O7 0.319375 0.819001 0.007649
O O8 0.023159 0.318871 0.197099
O O9 0.929408 0.082027 0.331862
O O10 0.292987 0.916979 0.242071
O O11 0.057674 0.283439 0.982665
O O12 0.257572 0.914497 0.727500
O O13 0.000000 0.000000 0.000000
O O14 0.671992 0.680736 0.204885
O O15 0.500000 0.500000 0.500000
O O16 0.599460 0.169436 0.547794
#
# Coordination Sequence:
#
# PCOD9048286 Si02
#       7
#     2   2   2   2   2   2   2
#     4  12  25  44  74 105 143 193 243 299 368 439
#     4  10  24  45  66 102 145 184 242 300 362 434
#     4  11  26  47  74 104 145 195 241 300 371 436
#     4  11  24  44  72 107 143 194 244 301 370 436
#     4  11  26  49  68 108 147 187 247 301 362 439
#     4  12  25  45  73 105 142 188 243 301 367 434
#     4  11  24  44  71 103 140 190 243 302 364 437
#
# _framework density 24.193117000000001
#
# number of rings (size 3 to 8) (size 9 to 14) (size 15 to 20)
#    0.000    0.857    4.286    1.714    4.000    4.571 
#    5.143    0.000    0.000    0.000    0.000    0.000 
#    0.000    0.000    0.000    0.000    0.000    0.000 
#
# Total GULP energy -78201.270359 kJ/mol
# GULP energy per Si atom -5585.805026 kJ/mol
# Density = 2.413805 g / cm^3
# Si number density = 24.193117 Si / 1000 Ang^3
#
#
#
# Elastic Constant Matrix: (Units=GPa)
#
#
# Indices 1 2 3 4 5 6 
#
# 1 65.7144 26.2056 14.2075 -14.5401 15.7462 -17.4706
# 2 26.2056 86.9640 39.5814 -7.8086 2.6100 -6.1934
# 3 14.2075 39.5814 138.2026 -5.6447 -2.2841 4.6351
# 4 -14.5401 -7.8086 -5.6447 52.0898 3.2259 16.4763
# 5 15.7462 2.6100 -2.2841 3.2259 46.1060 -0.8802
# 6 -17.4706 -6.1934 4.6351 16.4763 -0.8802 51.1829
#
#
#
# Elastic Compliance Matrix: (Units=1/GPa)
#
#
# Indices 1 2 3 4 5 6 
#
# 1 0.021489 -0.005120 -0.000887 0.003868 -0.007260 0.005426
# 2 -0.005120 0.014740 -0.003684 0.000240 0.000721 0.000305
# 3 -0.000887 -0.003684 0.008478 0.000602 0.000857 -0.001695
# 4 0.003868 0.000240 0.000602 0.022457 -0.002990 -0.005986
# 5 -0.007260 0.000721 0.000857 -0.002990 0.024359 -0.001087
# 6 0.005426 0.000305 -0.001695 -0.005986 -0.001087 0.023488
#
#
# Mechanical properties :
#
#
# Convention : Reuss Voigt Hill
#
# Bulk Modulus (GPa) = 39.48608 50.09664 44.79136
# Shear Modulus (GPa) = 35.00576 43.93485 39.47031
#
# Velocity S-wave (km/s) = 3.80798 4.26609 4.04353
# Velocity P-wave (km/s) = 5.97419 6.70954 6.35251
#
# Compressibility (1/GPa) = 0.02532538
#
# Stress axis : x y z
#
# Youngs Moduli (GPa) = 46.53582 67.84167 117.95884
#
# Poissons Ratio (x) = 0.34737 0.10458
# Poissons Ratio (y) = 0.23827 0.43453
# Poissons Ratio (z) = 0.04126 0.24991
#
# Static dielectric constant tensor:
#      x y z
#    x 1.898730 -0.014390 0.003610 
#    y -0.014390 2.125930 0.013860 
#    z 0.003610 0.013860 1.956090 
# 
# From -- ./inp_files/424880.got.cif
#   From: 2010.05.17/outbox.cif.g08.bks.cpg/sg2_213_cif.got.tgz:424880.got - 2010.06.03 11:33:40.
