data_PCOD9048098
_publ_section_title
;
Structure prediction by ZEFSAII (Michael W. Deem and Ramdas Pophale) SiO2 
 PCOD9048098
Probable space group: P -1
;
_chemical_formula_sum "Si O2"
_cell_formula_units_Z 16
_cell_length_a 21.571891
_cell_length_b 12.388578
_cell_length_c 5.371327
_cell_angle_alpha 132.960200
_cell_angle_beta 119.823227
_cell_angle_gamma 37.939663
_cell_volume 643.311018
_symmetry_space_group_name_H-M "P -1"
_symmetry_group_IT_number 2
_symmetry_cell_setting 'triclinic'
loop_
_space_group_symop_operation_xyz
x,y,z
-x,-y,-z
loop_
_atom_site_type_symbol
_atom_site_label
_atom_site_fract_x
_atom_site_fract_y
_atom_site_fract_z
Si Si1 0.828669 0.792045 0.752479
Si Si2 0.811141 0.524391 0.554024
Si Si3 0.993574 0.257281 0.834210
Si Si4 0.489561 0.370566 0.610816
Si Si5 0.309066 0.604766 0.278036
Si Si6 0.103967 0.840895 0.189316
Si Si7 0.591634 0.776185 0.450633
Si Si8 0.284613 0.940780 0.551529
O O1 0.831477 0.612439 0.513583
O O2 0.775019 0.914399 0.580778
O O3 0.936593 0.714396 0.881965
O O4 0.764618 0.941449 0.099712
O O5 0.886985 0.460128 0.823181
O O6 0.691384 0.704986 0.659870
O O7 0.847120 0.310881 0.190882
O O8 0.971997 0.166123 0.856752
O O9 0.051885 0.076635 0.451496
O O10 0.398008 0.543233 0.517826
O O11 0.454798 0.277687 0.545033
O O12 0.598598 0.180169 0.411510
O O13 0.500000 0.500000 0.000000
O O14 0.202498 0.722857 0.376724
O O15 0.284808 0.761921 0.267860
O O16 0.356447 0.386955 0.927985
O O17 0.500000 0.000000 0.500000
#
# Coordination Sequence:
#
# PCOD9048098 Si02
#       8
#     2   2   2   2   2   2   2   2
#     4  12  29  48  79 110 153 200 256 317 380 453
#     4  11  26  47  73 108 155 196 254 312 391 449
#     4  11  24  45  78 106 147 200 257 311 380 457
#     4  12  25  43  76 106 149 197 256 314 378 449
#     4  11  24  45  74 107 149 194 255 311 377 451
#     4  10  24  44  73 109 148 194 254 312 383 452
#     4  11  26  46  72 108 153 198 248 313 387 454
#     4  12  27  47  76 111 149 197 259 312 377 449
#
# _framework density 24.871328999999999
#
# number of rings (size 3 to 8) (size 9 to 14) (size 15 to 20)
#    0.000    0.750    2.500    3.375    7.000    5.000 
#    0.000    0.000    0.000    0.000    0.000    0.000 
#    0.000    0.000    0.000    0.000    0.000    0.000 
#
# Total GULP energy -89582.469512 kJ/mol
# GULP energy per Si atom -5598.904344 kJ/mol
# Density = 2.481472 g / cm^3
# Si number density = 24.871329 Si / 1000 Ang^3
#
#
#
# Elastic Constant Matrix: (Units=GPa)
#
#
# Indices 1 2 3 4 5 6 
#
# 1 140.3566 54.0135 24.4122 -8.4557 21.3793 -24.7910
# 2 54.0135 160.9256 52.3459 -9.0670 5.8186 -14.7253
# 3 24.4122 52.3459 70.6375 4.5987 -3.6772 -10.1741
# 4 -8.4557 -9.0670 4.5987 41.2633 0.6307 7.6849
# 5 21.3793 5.8186 -3.6772 0.6307 37.1141 -2.7508
# 6 -24.7910 -14.7253 -10.1741 7.6849 -2.7508 58.1943
#
#
#
# Elastic Compliance Matrix: (Units=1/GPa)
#
#
# Indices 1 2 3 4 5 6 
#
# 1 0.009613 -0.002173 -0.001650 0.001224 -0.005170 0.002851
# 2 -0.002173 0.009114 -0.006200 0.002269 -0.000833 -0.000042
# 3 -0.001650 -0.006200 0.020113 -0.004381 0.004140 0.002019
# 4 0.001224 0.002269 -0.004381 0.026105 -0.002177 -0.003221
# 5 -0.005170 -0.000833 0.004140 -0.002177 0.030503 0.000040
# 6 0.002851 -0.000042 0.002019 -0.003221 0.000040 0.019168
#
#
# Mechanical properties :
#
#
# Convention : Reuss Voigt Hill
#
# Bulk Modulus (GPa) = 53.21007 70.38476 61.79742
# Shear Modulus (GPa) = 35.47924 43.39088 39.43506
#
# Velocity S-wave (km/s) = 3.78102 4.18139 3.98623
# Velocity P-wave (km/s) = 6.36412 7.18839 6.78878
#
# Compressibility (1/GPa) = 0.01879343
#
# Stress axis : x y z
#
# Youngs Moduli (GPa) = 104.02969 109.71715 49.71814
#
# Poissons Ratio (x) = 0.23841 0.08204
# Poissons Ratio (y) = 0.22605 0.30827
# Poissons Ratio (z) = 0.17166 0.68029
#
# Static dielectric constant tensor:
#      x y z
#    x 2.090890 -0.107020 0.004270 
#    y -0.107020 2.055640 -0.025810 
#    z 0.004270 -0.025810 2.080960 
# 
# From -- ./inp_files/118914.got.cif
#   From: 2010.05.17/outbox.cif.g08.bks.cpg/sg2_60_cif.got.tgz:118914.got - 2010.06.03 11:33:40.
