data_PCOD9048618
_publ_section_title
;
Structure prediction by ZEFSAII (Michael W. Deem and Ramdas Pophale) SiO2 
 PCOD9048618
Probable space group: P -1
;
_chemical_formula_sum "Si O2"
_cell_formula_units_Z 12
_cell_length_a 11.806538
_cell_length_b 6.171786
_cell_length_c 9.323205
_cell_angle_alpha 126.618885
_cell_angle_beta 103.478380
_cell_angle_gamma 96.710198
_cell_volume 500.945806
_symmetry_space_group_name_H-M "P -1"
_symmetry_group_IT_number 2
_symmetry_cell_setting 'triclinic'
loop_
_space_group_symop_operation_xyz
x,y,z
-x,-y,-z
loop_
_atom_site_type_symbol
_atom_site_label
_atom_site_fract_x
_atom_site_fract_y
_atom_site_fract_z
Si Si1 0.049777 0.138642 0.920486
Si Si2 0.841927 0.206602 0.700245
Si Si3 0.443390 0.680447 0.939287
Si Si4 0.621525 0.980329 0.730234
Si Si5 0.632733 0.424236 0.428612
Si Si6 0.128272 0.745296 0.600500
O O1 0.928178 0.070055 0.759734
O O2 0.140359 0.001861 0.814226
O O3 0.110342 0.468227 0.104267
O O4 0.000000 0.000000 0.000000
O O5 0.868933 0.164848 0.527890
O O6 0.699373 0.098030 0.658573
O O7 0.411479 0.501299 0.711963
O O8 0.500000 0.500000 0.000000
O O9 0.500000 0.000000 0.000000
O O10 0.344635 0.767040 0.042840
O O11 0.654457 0.688827 0.648045
O O12 0.472900 0.846980 0.640816
O O13 0.755735 0.362886 0.401560
O O14 0.000000 0.500000 0.500000
#
# Coordination Sequence:
#
# PCOD9048618 Si02
#       6
#     2   2   2   2   2   2
#     4  11  25  47  72 102 144 189 248 304 373 442
#     4  11  26  43  73 108 138 197 240 310 371 449
#     4  10  24  45  71 105 147 199 250 306 369 449
#     4  10  24  45  70 106 149 184 250 293 385 440
#     4  10  25  44  73 106 148 195 239 313 370 449
#     4  12  25  45  74 104 149 188 249 303 371 445
#
# _framework density 23.954687
#
# number of rings (size 3 to 8) (size 9 to 14) (size 15 to 20)
#    0.000    1.333    1.667    1.500    2.333   12.000 
#    0.000    0.000    0.000    0.000    0.000    0.000 
#    0.000    0.000    0.000    0.000    0.000    0.000 
#
# Total GULP energy -66887.501631 kJ/mol
# GULP energy per Si atom -5573.958469 kJ/mol
# Density = 2.390016 g / cm^3
# Si number density = 23.954687 Si / 1000 Ang^3
#
#
#
# Elastic Constant Matrix: (Units=GPa)
#
#
# Indices 1 2 3 4 5 6 
#
# 1 152.4871 57.5878 35.7342 -4.4674 -28.4784 15.5283
# 2 57.5878 115.5168 41.9071 -25.0861 0.5173 6.0548
# 3 35.7342 41.9071 87.5262 -4.5544 -34.3027 -5.5937
# 4 -4.4674 -25.0861 -4.5544 51.7881 -5.2041 -3.8974
# 5 -28.4784 0.5173 -34.3027 -5.2041 48.4818 1.4501
# 6 15.5283 6.0548 -5.5937 -3.8974 1.4501 50.2750
#
#
#
# Elastic Compliance Matrix: (Units=1/GPa)
#
#
# Indices 1 2 3 4 5 6 
#
# 1 0.009790 -0.005333 0.000807 -0.001226 0.006323 -0.002569
# 2 -0.005333 0.015635 -0.008461 0.005459 -0.008685 -0.000504
# 3 0.000807 -0.008461 0.021408 -0.000378 0.015591 0.002673
# 4 -0.001226 0.005459 -0.000378 0.022045 0.001280 0.001351
# 5 0.006323 -0.008685 0.015591 0.001280 0.035605 -0.000100
# 6 -0.002569 -0.000504 0.002673 0.001351 -0.000100 0.021150
#
#
# Mechanical properties :
#
#
# Convention : Reuss Voigt Hill
#
# Bulk Modulus (GPa) = 47.93945 69.55428 58.74686
# Shear Modulus (GPa) = 31.53402 44.79572 38.16487
#
# Velocity S-wave (km/s) = 3.63216 4.32906 3.99583
# Velocity P-wave (km/s) = 6.13565 7.35435 6.77247
#
# Compressibility (1/GPa) = 0.02085965
#
# Stress axis : x y z
#
# Youngs Moduli (GPa) = 102.15015 63.95718 46.71171
#
# Poissons Ratio (x) = 0.34107 -0.03769
# Poissons Ratio (y) = 0.54475 0.39521
# Poissons Ratio (z) = -0.08242 0.54112
#
# Static dielectric constant tensor:
#      x y z
#    x 1.910450 -0.025040 0.055290 
#    y -0.025040 1.941230 -0.020420 
#    z 0.055290 -0.020420 1.965750 
# 
# From -- ./inp_files/230034.got.cif
#   From: 2010.05.17/outbox.cif.g08.bks.cpg/sg2_116_cif.got.tgz:230034.got - 2010.06.03 11:33:40.
