data_PCOD9048804
_publ_section_title
;
Structure prediction by ZEFSAII (Michael W. Deem and Ramdas Pophale) SiO2 
 PCOD9048804
Probable space group: P -1
;
_chemical_formula_sum "Si O2"
_cell_formula_units_Z 16
_cell_length_a 12.979034
_cell_length_b 5.445922
_cell_length_c 14.825349
_cell_angle_alpha 74.968448
_cell_angle_beta 132.238943
_cell_angle_gamma 84.805168
_cell_volume 695.951556
_symmetry_space_group_name_H-M "P -1"
_symmetry_group_IT_number 2
_symmetry_cell_setting 'triclinic'
loop_
_space_group_symop_operation_xyz
x,y,z
-x,-y,-z
loop_
_atom_site_type_symbol
_atom_site_label
_atom_site_fract_x
_atom_site_fract_y
_atom_site_fract_z
Si Si1 0.758294 0.335092 0.150287
Si Si2 0.910213 0.329271 0.416202
Si Si3 0.792483 0.070407 0.834341
Si Si4 0.960632 0.389141 0.894183
Si Si5 0.481991 0.877338 0.904485
Si Si6 0.046290 0.114292 0.245391
Si Si7 0.470335 0.096639 0.679463
Si Si8 0.300149 0.706246 0.555317
O O1 0.858290 0.417258 0.275135
O O2 0.672392 0.173315 0.170062
O O3 0.875729 0.155118 0.162687
O O4 0.624691 0.592875 0.005992
O O5 0.762014 0.375094 0.382129
O O6 0.000000 0.500000 0.500000
O O7 0.000000 0.000000 0.500000
O O8 0.800415 0.368381 0.820068
O O9 0.635715 0.042039 0.746090
O O10 0.876525 0.993296 0.794942
O O11 0.897524 0.896848 0.993614
O O12 0.956897 0.576041 0.789848
O O13 0.000000 0.500000 0.000000
O O14 0.478291 0.050586 0.796868
O O15 0.500000 0.000000 0.000000
O O16 0.154660 0.912964 0.399686
O O17 0.376764 0.418776 0.576158
O O18 0.402541 0.882897 0.619222
#
# Coordination Sequence:
#
# PCOD9048804 Si02
#       8
#     2   2   2   2   2   2   2   2
#     4  11  25  45  72 111 144 188 244 310 369 444
#     4  12  25  46  75 104 148 193 242 304 366 435
#     4  10  24  45  73 102 142 194 242 304 365 434
#     4   9  21  43  69 101 134 178 249 300 362 418
#     4  11  26  46  74 108 146 190 243 306 380 444
#     4  11  25  43  72 104 144 186 252 297 361 435
#     4  12  28  49  73 103 154 195 242 302 370 439
#     4  12  28  46  72 109 145 198 245 296 372 438
#
# _framework density 22.990103999999999
#
# number of rings (size 3 to 8) (size 9 to 14) (size 15 to 20)
#    0.000    1.000    2.500    2.250    8.750    5.000 
#    0.000    0.000    0.000    0.000    0.000    0.000 
#    0.000    0.000    0.000    0.000    0.000    0.000 
#
# Total GULP energy -89326.226042 kJ/mol
# GULP energy per Si atom -5582.889128 kJ/mol
# Density = 2.293778 g / cm^3
# Si number density = 22.990104 Si / 1000 Ang^3
#
#
#
# Elastic Constant Matrix: (Units=GPa)
#
#
# Indices 1 2 3 4 5 6 
#
# 1 148.2759 55.2526 48.0579 -0.7643 28.0941 2.4057
# 2 55.2526 96.7752 30.4882 15.5512 19.2668 13.7264
# 3 48.0579 30.4882 61.2953 -12.0462 6.1195 1.7516
# 4 -0.7643 15.5512 -12.0462 39.0389 6.4925 6.3062
# 5 28.0941 19.2668 6.1195 6.4925 41.6934 5.2134
# 6 2.4057 13.7264 1.7516 6.3062 5.2134 28.4411
#
#
#
# Elastic Compliance Matrix: (Units=1/GPa)
#
#
# Indices 1 2 3 4 5 6 
#
# 1 0.011125 -0.003631 -0.006420 0.000202 -0.005171 0.002110
# 2 -0.003631 0.017013 -0.006705 -0.007628 -0.002577 -0.005327
# 3 -0.006420 -0.006705 0.026568 0.010506 0.001957 -0.000545
# 4 0.000202 -0.007628 0.010506 0.032979 -0.002816 -0.003779
# 5 -0.005171 -0.002577 0.001957 -0.002816 0.029207 -0.003169
# 6 0.002110 -0.005327 -0.000545 -0.003779 -0.003169 0.039005
#
#
# Mechanical properties :
#
#
# Convention : Reuss Voigt Hill
#
# Bulk Modulus (GPa) = 47.18510 63.77152 55.47831
# Shear Modulus (GPa) = 25.44849 33.33784 29.39317
#
# Velocity S-wave (km/s) = 3.33067 3.81214 3.57951
# Velocity P-wave (km/s) = 5.94641 6.86844 6.42399
#
# Compressibility (1/GPa) = 0.02119313
#
# Stress axis : x y z
#
# Youngs Moduli (GPa) = 89.88922 58.77788 37.63885
#
# Poissons Ratio (x) = 0.21343 0.24166
# Poissons Ratio (y) = 0.32640 0.25237
# Poissons Ratio (z) = 0.57713 0.39411
#
# Static dielectric constant tensor:
#      x y z
#    x 1.865280 -0.023300 -0.004160 
#    y -0.023300 2.215170 -0.072860 
#    z -0.004160 -0.072860 1.892740 
# 
# From -- ./inp_files/510842.got.cif
#   From: 2010.05.17/outbox.cif.g08.bks.cpg/sg2_256_cif.got.tgz:510842.got - 2010.06.03 11:33:40.
