data_PCOD9048119
_publ_section_title
;
Structure prediction by ZEFSAII (Michael W. Deem and Ramdas Pophale) SiO2 
 PCOD9048119
Probable space group: P -1
;
_chemical_formula_sum "Si O2"
_cell_formula_units_Z 15
_cell_length_a 11.527780
_cell_length_b 7.928052
_cell_length_c 9.365197
_cell_angle_alpha 133.200995
_cell_angle_beta 113.931306
_cell_angle_gamma 69.538797
_cell_volume 566.956684
_symmetry_space_group_name_H-M "P -1"
_symmetry_group_IT_number 2
_symmetry_cell_setting 'triclinic'
loop_
_space_group_symop_operation_xyz
x,y,z
-x,-y,-z
loop_
_atom_site_type_symbol
_atom_site_label
_atom_site_fract_x
_atom_site_fract_y
_atom_site_fract_z
Si Si1 0.623072 0.710293 0.889652
Si Si2 0.069741 0.665007 0.523849
Si Si3 0.253220 0.802975 0.372680
Si Si4 0.000000 0.000000 0.500000
Si Si5 0.634275 0.455158 0.334386
Si Si6 0.413670 0.211754 0.754980
Si Si7 0.080757 0.977854 0.170123
Si Si8 0.336487 0.089932 0.247095
O O1 0.680736 0.453122 0.718635
O O2 0.470291 0.720034 0.793038
O O3 0.683446 0.889413 0.920321
O O4 0.636389 0.746038 0.085113
O O5 0.219229 0.628100 0.605008
O O6 0.000000 0.500000 0.500000
O O7 0.015571 0.932018 0.697634
O O8 0.002336 0.698413 0.356609
O O9 0.353363 0.994528 0.525915
O O10 0.166953 0.770536 0.168712
O O11 0.153341 0.934280 0.510388
O O12 0.618442 0.564080 0.230666
O O13 0.598542 0.684105 0.544615
O O14 0.565547 0.132002 0.795803
O O15 0.198565 0.122255 0.271404
O O16 0.000000 0.000000 0.000000
#
# Coordination Sequence:
#
# PCOD9048119 Si02
#       8
#     2   2   2   1   2   2   2   2
#     4  12  28  42  73 113 141 189 243 304 370 444
#     4  11  23  43  70 103 137 191 246 293 367 437
#     4  11  24  49  71 104 144 191 242 298 373 432
#     4  10  24  44  74 100 144 192 242 304 360 444
#     4  12  23  45  74 103 143 193 244 301 368 440
#     4  12  26  46  73 104 148 188 245 308 366 432
#     4  11  26  45  71 101 142 190 239 301 362 444
#     4  12  24  47  70 106 149 189 240 307 371 432
#
# _framework density 26.457046999999999
#
# number of rings (size 3 to 8) (size 9 to 14) (size 15 to 20)
#    0.000    0.533    4.000    4.000    5.600    2.133 
#    0.000    1.333    0.000    0.000    0.000    0.000 
#    0.000    0.000    0.000    0.000    0.000    0.000 
#
# Total GULP energy -83548.864347 kJ/mol
# GULP energy per Si atom -5569.924290 kJ/mol
# Density = 2.639683 g / cm^3
# Si number density = 26.457047 Si / 1000 Ang^3
#
#
#
# Elastic Constant Matrix: (Units=GPa)
#
#
# Indices 1 2 3 4 5 6 
#
# 1 109.1616 53.4760 22.5475 -8.0515 -13.0710 -28.7942
# 2 53.4760 155.4441 17.8411 -22.8249 12.2241 -28.9169
# 3 22.5475 17.8411 86.8545 -11.9732 -3.3042 -16.3609
# 4 -8.0515 -22.8249 -11.9732 35.4309 -0.5716 -8.1100
# 5 -13.0710 12.2241 -3.3042 -0.5716 37.4735 -5.9737
# 6 -28.7942 -28.9169 -16.3609 -8.1100 -5.9737 47.9475
#
#
#
# Elastic Compliance Matrix: (Units=1/GPa)
#
#
# Indices 1 2 3 4 5 6 
#
# 1 0.014065 -0.003608 -0.000954 0.002321 0.007187 0.007233
# 2 -0.003608 0.009707 0.000579 0.006616 -0.003546 0.004563
# 3 -0.000954 0.000579 0.013609 0.006077 0.001672 0.005656
# 4 0.002321 0.006616 0.006077 0.038350 0.002035 0.014198
# 5 0.007187 -0.003546 0.001672 0.002035 0.031649 0.007036
# 6 0.007233 0.004563 0.005656 0.014198 0.007036 0.033160
#
#
# Mechanical properties :
#
#
# Convention : Reuss Voigt Hill
#
# Bulk Modulus (GPa) = 33.99601 59.90994 46.95297
# Shear Modulus (GPa) = 31.58343 41.34342 36.46342
#
# Velocity S-wave (km/s) = 3.45884 3.95734 3.71646
# Velocity P-wave (km/s) = 5.36925 6.60107 6.01676
#
# Compressibility (1/GPa) = 0.02941521
#
# Stress axis : x y z
#
# Youngs Moduli (GPa) = 71.09853 103.01806 73.48036
#
# Poissons Ratio (x) = 0.37169 0.07012
# Poissons Ratio (y) = 0.25652 -0.04257
# Poissons Ratio (z) = 0.06785 -0.05968
#
# Static dielectric constant tensor:
#      x y z
#    x 2.177340 0.130330 -0.041660 
#    y 0.130330 1.994920 0.117500 
#    z -0.041660 0.117500 2.022150 
# 
# From -- ./inp_files/246148.got.cif
#   From: 2010.05.17/outbox.cif.g08.bks.cpg/sg2_124_cif.got.tgz:246148.got - 2010.06.03 11:33:40.
