data_PCOD9048823
_publ_section_title
;
Structure prediction by ZEFSAII (Michael W. Deem and Ramdas Pophale) SiO2 
 PCOD9048823
Probable space group: P -1
;
_chemical_formula_sum "Si O2"
_cell_formula_units_Z 12
_cell_length_a 27.089323
_cell_length_b 7.033297
_cell_length_c 5.463474
_cell_angle_alpha 135.477010
_cell_angle_beta 118.190843
_cell_angle_gamma 43.130748
_cell_volume 496.510859
_symmetry_space_group_name_H-M "P -1"
_symmetry_group_IT_number 2
_symmetry_cell_setting 'triclinic'
loop_
_space_group_symop_operation_xyz
x,y,z
-x,-y,-z
loop_
_atom_site_type_symbol
_atom_site_label
_atom_site_fract_x
_atom_site_fract_y
_atom_site_fract_z
Si Si1 0.656910 0.416454 0.154956
Si Si2 0.307069 0.437570 0.125977
Si Si3 0.901707 0.705028 0.200384
Si Si4 0.954258 0.957486 0.167791
Si Si5 0.834968 0.418947 0.973811
Si Si6 0.577809 0.128133 0.817684
O O1 0.699077 0.364028 0.456700
O O2 0.585659 0.829597 0.405007
O O3 0.695178 0.391128 0.972938
O O4 0.632351 0.182811 0.880656
O O5 0.244864 0.404446 0.963231
O O6 0.385899 0.058483 0.007204
O O7 0.917918 0.814572 0.088327
O O8 0.868381 0.036371 0.599276
O O9 0.847230 0.618471 0.989945
O O10 0.981059 0.347541 0.133505
O O11 0.000000 0.000000 0.500000
O O12 0.889183 0.323511 0.232705
O O13 0.500000 0.500000 0.000000
#
# Coordination Sequence:
#
# PCOD9048823 Si02
#       6
#     2   2   2   2   2   2
#     4  10  25  44  70 101 142 178 234 275 343 402
#     4  10  28  44  70 101 141 183 230 280 343 407
#     4  11  26  43  63  96 125 172 219 277 341 401
#     4  11  25  43  69  96 128 170 226 281 342 400
#     4  12  27  41  68  91 136 172 223 278 340 401
#     4  10  24  45  73 105 141 182 229 282 337 405
#
# _framework density 24.168655000000001
#
# number of rings (size 3 to 8) (size 9 to 14) (size 15 to 20)
#    1.000    0.333    1.667    1.500   11.667    1.333 
#    0.000    0.000    0.000    0.000    0.000    0.000 
#    0.000    0.000    0.000    0.000    0.000    0.000 
#
# Total GULP energy -67052.841761 kJ/mol
# GULP energy per Si atom -5587.736813 kJ/mol
# Density = 2.411365 g / cm^3
# Si number density = 24.168655 Si / 1000 Ang^3
#
#
#
# Elastic Constant Matrix: (Units=GPa)
#
#
# Indices 1 2 3 4 5 6 
#
# 1 125.0637 3.7985 10.1967 -23.2533 1.7241 24.8900
# 2 3.7985 60.0715 20.3027 -0.8741 -7.9803 -5.3592
# 3 10.1967 20.3027 78.5727 -1.0629 1.4184 9.0566
# 4 -23.2533 -0.8741 -1.0629 28.6637 9.7470 2.1100
# 5 1.7241 -7.9803 1.4184 9.7470 33.9886 5.0340
# 6 24.8900 -5.3592 9.0566 2.1100 5.0340 34.8266
#
#
#
# Elastic Compliance Matrix: (Units=1/GPa)
#
#
# Indices 1 2 3 4 5 6 
#
# 1 0.012026 -0.001873 0.000191 0.011390 -0.002962 -0.009194
# 2 -0.001873 0.019767 -0.005612 -0.003255 0.005119 0.005297
# 3 0.000191 -0.005612 0.014741 0.001440 -0.001662 -0.004680
# 4 0.011390 -0.003255 0.001440 0.049630 -0.014157 -0.009976
# 5 -0.002962 0.005119 -0.001662 -0.014157 0.035032 -0.000869
# 6 -0.009194 0.005297 -0.004680 -0.009976 -0.000869 0.038047
#
#
# Mechanical properties :
#
#
# Convention : Reuss Voigt Hill
#
# Bulk Modulus (GPa) = 31.30255 36.92263 34.11259
# Shear Modulus (GPa) = 25.70972 34.78979 30.24976
#
# Velocity S-wave (km/s) = 3.26508 3.79814 3.54165
# Velocity P-wave (km/s) = 5.21480 5.87747 5.55602
#
# Compressibility (1/GPa) = 0.03194628
#
# Stress axis : x y z
#
# Youngs Moduli (GPa) = 83.15576 50.58896 67.83670
#
# Poissons Ratio (x) = 0.09475 -0.01293
# Poissons Ratio (y) = 0.15574 0.38068
# Poissons Ratio (z) = -0.01585 0.28389
#
# Static dielectric constant tensor:
#      x y z
#    x 1.882590 0.024670 -0.020280 
#    y 0.024670 2.005590 0.006590 
#    z -0.020280 0.006590 1.970240 
# 
# From -- ./inp_files/5427.got.cif
#   From: 2010.05.17/outbox.cif.g08.bks.cpg/sg2_3_cif.got.tgz:5427.got - 2010.06.03 11:33:40.
