data_PCOD9048949
_publ_section_title
;
Structure prediction by ZEFSAII (Michael W. Deem and Ramdas Pophale) SiO2 
 PCOD9048949
Probable space group: P -1
;
_chemical_formula_sum "Si O2"
_cell_formula_units_Z 16
_cell_length_a 16.116125
_cell_length_b 5.331494
_cell_length_c 17.973589
_cell_angle_alpha 68.303934
_cell_angle_beta 151.833958
_cell_angle_gamma 112.175599
_cell_volume 672.639583
_symmetry_space_group_name_H-M "P -1"
_symmetry_group_IT_number 2
_symmetry_cell_setting 'triclinic'
loop_
_space_group_symop_operation_xyz
x,y,z
-x,-y,-z
loop_
_atom_site_type_symbol
_atom_site_label
_atom_site_fract_x
_atom_site_fract_y
_atom_site_fract_z
Si Si1 0.384399 0.746459 0.395919
Si Si2 0.413538 0.625815 0.744041
Si Si3 0.113483 0.959151 0.405502
Si Si4 0.127226 0.685462 0.786812
Si Si5 0.158732 0.460673 0.686146
Si Si6 0.861687 0.239864 0.939311
Si Si7 0.370211 0.819270 0.095727
Si Si8 0.051745 0.806663 0.214543
O O1 0.500000 0.500000 0.500000
O O2 0.293562 0.815680 0.238378
O O3 0.214372 0.674460 0.322505
O O4 0.500000 0.000000 0.500000
O O5 0.265988 0.786636 0.570091
O O6 0.327378 0.470138 0.765945
O O7 0.491472 0.401224 0.780146
O O8 0.550478 0.879483 0.850345
O O9 0.120162 0.993204 0.318675
O O10 0.930249 0.793383 0.309224
O O11 0.076166 0.238469 0.383351
O O12 0.188966 0.681927 0.751160
O O13 0.093610 0.403501 0.837441
O O14 0.275598 0.837507 0.940023
O O15 0.000000 0.500000 0.500000
O O16 0.769837 0.287664 0.940155
O O17 0.000000 0.500000 0.000000
O O18 0.968183 0.983429 0.066945
#
# Coordination Sequence:
#
# PCOD9048949 Si02
#       8
#     2   2   2   2   2   2   2   2
#     4  12  30  47  75 115 152 187 246 324 383 441
#     4  11  28  45  74 112 155 192 243 316 381 428
#     4  10  24  45  77 103 145 202 248 300 356 461
#     4  11  24  45  77 104 147 198 257 298 357 460
#     4   9  23  45  71 108 148 198 251 295 368 445
#     4  12  27  54  81 105 151 206 257 307 380 472
#     4  12  28  47  73 112 150 192 246 316 383 428
#     4  11  25  49  74 107 144 201 253 296 375 453
#
# _framework density 23.786885999999999
#
# number of rings (size 3 to 8) (size 9 to 14) (size 15 to 20)
#    0.000    1.000    1.250    2.625   14.000    4.000 
#    0.000    0.000    0.000    0.000    0.000    0.000 
#    0.000    0.000    0.000    0.000    0.000    0.000 
#
# Total GULP energy -89376.213638 kJ/mol
# GULP energy per Si atom -5586.013352 kJ/mol
# Density = 2.373275 g / cm^3
# Si number density = 23.786886 Si / 1000 Ang^3
#
#
#
# Elastic Constant Matrix: (Units=GPa)
#
#
# Indices 1 2 3 4 5 6 
#
# 1 125.2748 17.1199 33.9322 -4.5803 10.9243 -4.1933
# 2 17.1199 85.8406 47.4199 -7.7629 13.9002 -2.7982
# 3 33.9322 47.4199 130.8119 -22.6308 -4.7094 -5.1216
# 4 -4.5803 -7.7629 -22.6308 39.8917 -10.3177 0.9593
# 5 10.9243 13.9002 -4.7094 -10.3177 49.8650 -3.2697
# 6 -4.1933 -2.7982 -5.1216 0.9593 -3.2697 30.0214
#
#
#
# Elastic Compliance Matrix: (Units=1/GPa)
#
#
# Indices 1 2 3 4 5 6 
#
# 1 0.008858 -0.000077 -0.002511 -0.001040 -0.002333 0.000581
# 2 -0.000077 0.015802 -0.006227 -0.001852 -0.005368 -0.000126
# 3 -0.002511 -0.006227 0.011903 0.006471 0.004842 0.001420
# 4 -0.001040 -0.001852 0.006471 0.030222 0.007651 0.000654
# 5 -0.002333 -0.005368 0.004842 0.007651 0.024259 0.002397
# 6 0.000581 -0.000126 0.001420 0.000654 0.002397 0.033862
#
#
# Mechanical properties :
#
#
# Convention : Reuss Voigt Hill
#
# Bulk Modulus (GPa) = 52.81701 59.87459 56.34580
# Shear Modulus (GPa) = 33.59163 40.18598 36.88880
#
# Velocity S-wave (km/s) = 3.76199 4.11471 3.94230
# Velocity P-wave (km/s) = 6.41269 6.91378 6.66794
#
# Compressibility (1/GPa) = 0.01893330
#
# Stress axis : x y z
#
# Youngs Moduli (GPa) = 112.89224 63.28174 84.01534
#
# Poissons Ratio (x) = 0.00485 0.21097
# Poissons Ratio (y) = 0.00866 0.52316
# Poissons Ratio (z) = 0.28349 0.39406
#
# Static dielectric constant tensor:
#      x y z
#    x 1.925210 -0.147670 0.010610 
#    y -0.147670 2.300670 -0.038750 
#    z 0.010610 -0.038750 1.967360 
# 
# From -- ./inp_files/571651.got.cif
#   From: 2010.05.17/outbox.cif.g08.bks.cpg/sg2_286_cif.got.tgz:571651.got - 2010.06.03 11:33:40.
