data_PCOD9048034
_publ_section_title
;
Structure prediction by ZEFSAII (Michael W. Deem and Ramdas Pophale) SiO2 
 PCOD9048034
Probable space group: P -1
;
_chemical_formula_sum "Si O2"
_cell_formula_units_Z 15
_cell_length_a 20.149108
_cell_length_b 5.397460
_cell_length_c 14.136951
_cell_angle_alpha 53.512487
_cell_angle_beta 28.496176
_cell_angle_gamma 50.259097
_cell_volume 561.776748
_symmetry_space_group_name_H-M "P -1"
_symmetry_group_IT_number 2
_symmetry_cell_setting 'triclinic'
loop_
_space_group_symop_operation_xyz
x,y,z
-x,-y,-z
loop_
_atom_site_type_symbol
_atom_site_label
_atom_site_fract_x
_atom_site_fract_y
_atom_site_fract_z
Si Si1 0.131847 0.392815 0.931872
Si Si2 0.158386 0.375641 0.281019
Si Si3 0.207633 0.912866 0.621782
Si Si4 0.289089 0.733174 0.356594
Si Si5 0.995412 0.408499 0.301723
Si Si6 0.500000 0.000000 0.000000
Si Si7 0.338300 0.781501 0.865763
Si Si8 0.510897 0.916739 0.232945
O O1 0.194463 0.693923 0.775073
O O2 0.000000 0.500000 0.000000
O O3 0.065311 0.351119 0.125129
O O4 0.248727 0.051818 0.842637
O O5 0.228726 0.642335 0.097106
O O6 0.000000 0.500000 0.500000
O O7 0.115438 0.243850 0.265966
O O8 0.272977 0.125471 0.264228
O O9 0.253236 0.702398 0.517306
O O10 0.338863 0.062272 0.439859
O O11 0.064728 0.200716 0.706079
O O12 0.151721 0.694681 0.481090
O O13 0.458880 0.642145 0.144906
O O14 0.522908 0.013650 0.086910
O O15 0.438086 0.475414 0.751712
O O16 0.405437 0.980918 0.809577
#
# Coordination Sequence:
#
# PCOD9048034 Si02
#       8
#     2   2   2   2   2   1   2   2
#     4  12  26  49  77 107 154 197 262 317 379 452
#     4  12  24  43  71 111 150 194 250 317 388 459
#     4  11  26  47  72 111 144 203 254 310 378 450
#     4  11  23  44  70 109 146 196 250 312 383 455
#     4  12  25  44  77 108 151 202 251 317 390 453
#     4  10  24  44  72 112 152 202 248 312 378 468
#     4  12  28  51  75 113 152 202 256 316 382 452
#     4  11  28  49  77 111 153 202 256 312 386 451
#
# _framework density 26.700998999999999
#
# number of rings (size 3 to 8) (size 9 to 14) (size 15 to 20)
#    0.000    0.533    4.000    3.200    5.600    2.667 
#    0.000    0.000    0.000    0.000    0.000    0.000 
#    0.000    0.000    0.000    0.000    0.000    0.000 
#
# Total GULP energy -83762.271919 kJ/mol
# GULP energy per Si atom -5584.151461 kJ/mol
# Density = 2.664023 g / cm^3
# Si number density = 26.700999 Si / 1000 Ang^3
#
#
#
# Elastic Constant Matrix: (Units=GPa)
#
#
# Indices 1 2 3 4 5 6 
#
# 1 160.8476 38.5987 14.9642 -3.7567 -21.2128 -2.5372
# 2 38.5987 95.6034 -14.6997 12.1871 14.3598 -23.4665
# 3 14.9642 -14.6997 72.4033 -12.7651 -10.9259 -1.2239
# 4 -3.7567 12.1871 -12.7651 36.0738 0.1271 1.6832
# 5 -21.2128 14.3598 -10.9259 0.1271 37.6405 -5.3512
# 6 -2.5372 -23.4665 -1.2239 1.6832 -5.3512 47.6230
#
#
#
# Elastic Compliance Matrix: (Units=1/GPa)
#
#
# Indices 1 2 3 4 5 6 
#
# 1 0.008435 -0.005206 -0.001533 0.002146 0.006067 -0.001550
# 2 -0.005206 0.016568 0.002448 -0.005588 -0.007487 0.007306
# 3 -0.001533 0.002448 0.015918 0.004555 0.003051 0.001716
# 4 0.002146 -0.005588 0.004555 0.031578 0.004105 -0.003177
# 5 0.006067 -0.007487 0.003051 0.004105 0.033766 0.000362
# 6 -0.001550 0.007306 0.001716 -0.003177 0.000362 0.024713
#
#
# Mechanical properties :
#
#
# Convention : Reuss Voigt Hill
#
# Bulk Modulus (GPa) = 30.92121 45.17564 38.04843
# Shear Modulus (GPa) = 33.25821 43.60020 38.42920
#
# Velocity S-wave (km/s) = 3.53311 4.04531 3.79785
# Velocity P-wave (km/s) = 5.31502 6.22697 5.78898
#
# Compressibility (1/GPa) = 0.03234026
#
# Stress axis : x y z
#
# Youngs Moduli (GPa) = 118.55540 60.35558 62.82228
#
# Poissons Ratio (x) = 0.31423 0.09628
# Poissons Ratio (y) = 0.61724 -0.15382
# Poissons Ratio (z) = 0.18170 -0.14778
#
# Static dielectric constant tensor:
#      x y z
#    x 1.929540 0.136920 0.218040 
#    y 0.136920 2.355560 -0.201860 
#    z 0.218040 -0.201860 1.504190 
# 
# From -- ./inp_files/539677.got.cif
#   From: 2010.05.17/outbox.cif.g08.bks.cpg/sg2_270_cif.got.tgz:539677.got - 2010.06.03 11:33:40.
