data_PCOD9048415
_publ_section_title
;
Structure prediction by ZEFSAII (Michael W. Deem and Ramdas Pophale) SiO2 
 PCOD9048415
Probable space group: P -1
;
_chemical_formula_sum "Si O2"
_cell_formula_units_Z 12
_cell_length_a 9.101280
_cell_length_b 12.254569
_cell_length_c 5.134288
_cell_angle_alpha 102.756014
_cell_angle_beta 68.206649
_cell_angle_gamma 117.322179
_cell_volume 471.511456
_symmetry_space_group_name_H-M "P -1"
_symmetry_group_IT_number 2
_symmetry_cell_setting 'triclinic'
loop_
_space_group_symop_operation_xyz
x,y,z
-x,-y,-z
loop_
_atom_site_type_symbol
_atom_site_label
_atom_site_fract_x
_atom_site_fract_y
_atom_site_fract_z
Si Si1 0.730702 0.425030 0.855328
Si Si2 0.496292 0.217656 0.281881
Si Si3 0.058958 0.393438 0.560626
Si Si4 0.835054 0.027828 0.693421
Si Si5 0.348454 0.386615 0.682251
Si Si6 0.181407 0.825012 0.724529
O O1 0.800463 0.469772 0.539681
O O2 0.901713 0.405953 0.824787
O O3 0.579231 0.310508 0.033005
O O4 0.692149 0.542858 0.016363
O O5 0.419506 0.282421 0.579965
O O6 0.644724 0.187198 0.303908
O O7 0.336830 0.097376 0.221357
O O8 0.170050 0.336232 0.611935
O O9 0.967792 0.305818 0.331506
O O10 0.792165 0.096951 0.516329
O O11 0.870594 0.109064 0.972373
O O12 0.000000 0.000000 0.500000
O O13 0.500000 0.500000 0.500000
#
# Coordination Sequence:
#
# PCOD9048415 Si02
#       6
#     2   2   2   2   2   2
#     4  10  25  44  74 107 153 199 257 307 384 445
#     4  11  26  47  76 111 155 197 254 320 384 453
#     4  11  25  44  77 107 152 205 257 311 383 455
#     4  12  28  54  81 113 148 204 259 320 383 459
#     4  10  24  45  68 111 151 198 252 308 380 451
#     4  12  28  50  79 113 153 202 257 316 385 455
#
# _framework density 25.450073
#
# number of rings (size 3 to 8) (size 9 to 14) (size 15 to 20)
#    0.000    1.000    0.000    4.000   16.333    4.000 
#    3.000    0.000    0.000    0.000    0.000    0.000 
#    0.000    0.000    0.000    0.000    0.000    0.000 
#
# Total GULP energy -67123.299128 kJ/mol
# GULP energy per Si atom -5593.608261 kJ/mol
# Density = 2.539215 g / cm^3
# Si number density = 25.450073 Si / 1000 Ang^3
#
#
#
# Elastic Constant Matrix: (Units=GPa)
#
#
# Indices 1 2 3 4 5 6 
#
# 1 131.9773 31.2923 28.4068 9.6735 -14.9027 12.9473
# 2 31.2923 119.6665 53.4540 -9.4873 -1.0834 13.1525
# 3 28.4068 53.4540 129.5581 5.8728 -7.7442 4.9225
# 4 9.6735 -9.4873 5.8728 56.2065 -0.1232 -10.9842
# 5 -14.9027 -1.0834 -7.7442 -0.1232 45.2707 5.7410
# 6 12.9473 13.1525 4.9225 -10.9842 5.7410 39.1205
#
#
#
# Elastic Compliance Matrix: (Units=1/GPa)
#
#
# Indices 1 2 3 4 5 6 
#
# 1 0.009060 -0.001791 -0.000812 -0.002445 0.003232 -0.003455
# 2 -0.001791 0.011109 -0.004272 0.002267 -0.000814 -0.001849
# 3 -0.000812 -0.004272 0.009820 -0.001641 0.001329 -0.000187
# 4 -0.002445 0.002267 -0.001641 0.019957 -0.001752 0.006114
# 5 0.003232 -0.000814 0.001329 -0.001752 0.023987 -0.004975
# 6 -0.003455 -0.001849 -0.000187 0.006114 -0.004975 0.029797
#
#
# Mechanical properties :
#
#
# Convention : Reuss Voigt Hill
#
# Bulk Modulus (GPa) = 61.58296 67.50091 64.54194
# Shear Modulus (GPa) = 40.68582 45.98947 43.33764
#
# Velocity S-wave (km/s) = 4.00265 4.25555 4.13104
# Velocity P-wave (km/s) = 6.75365 7.12227 6.94040
#
# Compressibility (1/GPa) = 0.01623826
#
# Stress axis : x y z
#
# Youngs Moduli (GPa) = 110.38004 90.02058 101.83311
#
# Poissons Ratio (x) = 0.16124 0.08270
# Poissons Ratio (y) = 0.19771 0.43500
# Poissons Ratio (z) = 0.08964 0.38454
#
# Static dielectric constant tensor:
#      x y z
#    x 2.026330 0.003990 0.035670 
#    y 0.003990 2.033650 0.031740 
#    z 0.035670 0.031740 2.031170 
# 
# From -- ./inp_files/22110.got.cif
#   From: 2010.05.17/outbox.cif.g08.bks.cpg/sg2_12_cif.got.tgz:22110.got - 2010.06.03 11:33:40.
