data_PCOD9048980
_publ_section_title
;
Structure prediction by ZEFSAII (Michael W. Deem and Ramdas Pophale) SiO2 
 PCOD9048980
Probable space group: P -1
;
_chemical_formula_sum "Si O2"
_cell_formula_units_Z 13
_cell_length_a 9.649269
_cell_length_b 27.246015
_cell_length_c 28.337396
_cell_angle_alpha 10.161496
_cell_angle_beta 28.087246
_cell_angle_gamma 29.283580
_cell_volume 618.166150
_symmetry_space_group_name_H-M "P -1"
_symmetry_group_IT_number 2
_symmetry_cell_setting 'triclinic'
loop_
_space_group_symop_operation_xyz
x,y,z
-x,-y,-z
loop_
_atom_site_type_symbol
_atom_site_label
_atom_site_fract_x
_atom_site_fract_y
_atom_site_fract_z
Si Si1 0.322970 0.881837 0.000232
Si Si2 0.288084 0.250089 0.308634
Si Si3 0.131109 0.929942 0.476179
Si Si4 0.545902 0.398261 0.870667
Si Si5 0.136501 0.553986 0.582738
Si Si6 0.698566 0.416291 0.385151
Si Si7 0.500000 0.000000 0.000000
O O1 0.520110 0.145321 0.683595
O O2 0.301679 0.714802 0.116083
O O3 0.501250 0.682847 0.172922
O O4 0.000000 0.000000 0.000000
O O5 0.130713 0.122536 0.431441
O O6 0.017897 0.369419 0.309598
O O7 0.500000 0.000000 0.500000
O O8 0.500000 0.500000 0.000000
O O9 0.323301 0.645979 0.688314
O O10 0.000000 0.000000 0.500000
O O11 0.348283 0.164619 0.172842
O O12 0.789111 0.514399 0.722343
O O13 0.256705 0.568057 0.586872
O O14 0.218609 0.824082 0.272193
O O15 0.285442 0.260195 0.798311
#
# Coordination Sequence:
#
# PCOD9048980 Si02
#       7
#     2   2   2   2   2   2   1
#     4  12  26  46  74 101 148 192 235 295 365 414
#     4  12  26  46  74 100 141 184 234 294 360 423
#     4  12  27  47  73 102 142 183 238 296 357 432
#     4  12  25  49  69 105 140 187 236 296 353 434
#     4  11  26  42  74  95 143 182 236 280 353 407
#     4  12  26  48  69 108 141 183 246 295 346 441
#     4  10  24  46  62 104 138 182 230 286 334 420
#
# _framework density 21.029944
#
# number of rings (size 3 to 8) (size 9 to 14) (size 15 to 20)
#    0.000    0.308    3.077    4.615   10.769    0.000 
#    0.000    0.000    0.000    0.000    0.000    0.000 
#    0.000    0.000    0.000    0.000    0.000    0.000 
#
# Total GULP energy -72467.431784 kJ/mol
# GULP energy per Si atom -5574.417830 kJ/mol
# Density = 2.098208 g / cm^3
# Si number density = 21.029944 Si / 1000 Ang^3
#
#
#
# Elastic Constant Matrix: (Units=GPa)
#
#
# Indices 1 2 3 4 5 6 
#
# 1 89.2513 47.9232 22.7644 4.1914 4.0998 -2.6235
# 2 47.9232 150.1859 60.0840 -4.5013 10.3417 -2.3535
# 3 22.7644 60.0840 193.7333 10.4602 11.8721 -7.4570
# 4 4.1914 -4.5013 10.4602 42.4483 -11.8725 4.4562
# 5 4.0998 10.3417 11.8721 -11.8725 25.3031 0.5775
# 6 -2.6235 -2.3535 -7.4570 4.4562 0.5775 27.5785
#
#
#
# Elastic Compliance Matrix: (Units=1/GPa)
#
#
# Indices 1 2 3 4 5 6 
#
# 1 0.013757 -0.004333 0.000010 -0.002420 -0.001630 0.001367
# 2 -0.004333 0.009104 -0.002361 0.001726 -0.001089 -0.000530
# 3 0.000010 -0.002361 0.006348 -0.003004 -0.003472 0.002074
# 4 -0.002420 0.001726 -0.003004 0.029575 0.015110 -0.005990
# 5 -0.001630 -0.001089 -0.003472 0.015110 0.049055 -0.004655
# 6 0.001367 -0.000530 0.002074 -0.005990 -0.004655 0.037971
#
#
# Mechanical properties :
#
#
# Convention : Reuss Voigt Hill
#
# Bulk Modulus (GPa) = 63.12635 77.19042 70.15838
# Shear Modulus (GPa) = 30.40295 39.22591 34.81443
#
# Velocity S-wave (km/s) = 3.80636 4.32353 4.07316
# Velocity P-wave (km/s) = 7.02854 7.85548 7.45349
#
# Compressibility (1/GPa) = 0.01584125
#
# Stress axis : x y z
#
# Youngs Moduli (GPa) = 72.69141 109.84150 157.53906
#
# Poissons Ratio (x) = 0.47591 -0.00164
# Poissons Ratio (y) = 0.31495 0.37199
# Poissons Ratio (z) = -0.00075 0.25936
#
# Static dielectric constant tensor:
#      x y z
#    x 1.732760 0.016910 0.013590 
#    y 0.016910 1.795690 -0.011220 
#    z 0.013590 -0.011220 1.709180 
# 
# From -- ./inp_files/201216.got.cif
#   From: 2010.05.17/outbox.cif.g08.bks.cpg/sg2_101_cif.got.tgz:201216.got - 2010.06.03 11:33:40.
