data_PCOD9048160
_publ_section_title
;
Structure prediction by ZEFSAII (Michael W. Deem and Ramdas Pophale) SiO2 
 PCOD9048160
Probable space group: P -1
;
_chemical_formula_sum "Si O2"
_cell_formula_units_Z 16
_cell_length_a 11.997610
_cell_length_b 9.236011
_cell_length_c 18.783569
_cell_angle_alpha 29.902129
_cell_angle_beta 132.789779
_cell_angle_gamma 134.005576
_cell_volume 728.892618
_symmetry_space_group_name_H-M "P -1"
_symmetry_group_IT_number 2
_symmetry_cell_setting 'triclinic'
loop_
_space_group_symop_operation_xyz
x,y,z
-x,-y,-z
loop_
_atom_site_type_symbol
_atom_site_label
_atom_site_fract_x
_atom_site_fract_y
_atom_site_fract_z
Si Si1 0.270557 0.835413 0.357226
Si Si2 0.083499 0.925534 0.638320
Si Si3 0.061832 0.067254 0.281560
Si Si4 0.337352 0.682482 0.159185
Si Si5 0.007058 0.730837 0.168806
Si Si6 0.428842 0.332092 0.613208
Si Si7 0.212142 0.201691 0.827822
Si Si8 0.472248 0.711113 0.664510
O O1 0.345935 0.561672 0.518379
O O2 0.165317 0.776842 0.265409
O O3 0.168322 0.898958 0.353184
O O4 0.420940 0.132005 0.289088
O O5 0.029697 0.564154 0.769991
O O6 0.012009 0.050207 0.623278
O O7 0.273863 0.045042 0.661607
O O8 0.000000 0.000000 0.500000
O O9 0.172563 0.410455 0.197220
O O10 0.911248 0.020124 0.184903
O O11 0.423965 0.717051 0.258438
O O12 0.452929 0.544104 0.222444
O O13 0.320835 0.998915 0.989480
O O14 0.876237 0.711688 0.180349
O O15 0.000000 0.000000 0.000000
O O16 0.500000 0.500000 0.500000
O O17 0.297974 0.519535 0.691801
O O18 0.500000 0.000000 0.500000
#
# Coordination Sequence:
#
# PCOD9048160 Si02
#       8
#     2   2   2   2   2   2   2   2
#     4  10  24  46  68 101 136 185 227 291 349 411
#     4  12  25  45  71 104 134 184 236 290 353 419
#     4  10  24  44  74  99 140 178 242 286 351 413
#     4  11  23  44  69 102 140 183 227 292 350 416
#     4  11  26  46  70 101 142 180 236 291 352 418
#     4  12  26  42  69 102 147 181 234 288 360 414
#     4  11  25  44  72 103 138 188 236 285 354 424
#     4  11  23  42  70 101 141 177 235 291 349 418
#
# _framework density 21.951107
#
# number of rings (size 3 to 8) (size 9 to 14) (size 15 to 20)
#    0.000    1.000    2.500    3.000    3.500    5.500 
#    0.000    1.250    0.000    0.000    0.000    0.000 
#    0.000    0.000    0.000    0.000    0.000    0.000 
#
# Total GULP energy -89344.264420 kJ/mol
# GULP energy per Si atom -5584.016526 kJ/mol
# Density = 2.190115 g / cm^3
# Si number density = 21.951107 Si / 1000 Ang^3
#
#
#
# Elastic Constant Matrix: (Units=GPa)
#
#
# Indices 1 2 3 4 5 6 
#
# 1 93.7684 45.7324 37.5733 2.1688 -22.6358 3.0324
# 2 45.7324 136.2453 46.3967 11.3246 -7.6829 14.8213
# 3 37.5733 46.3967 120.2771 13.7507 3.8003 8.7539
# 4 2.1688 11.3246 13.7507 31.5759 -0.1269 0.9801
# 5 -22.6358 -7.6829 3.8003 -0.1269 31.7783 -6.1253
# 6 3.0324 14.8213 8.7539 0.9801 -6.1253 34.6022
#
#
#
# Elastic Compliance Matrix: (Units=1/GPa)
#
#
# Indices 1 2 3 4 5 6 
#
# 1 0.017507 -0.004103 -0.004818 0.002306 0.012764 0.003636
# 2 -0.004103 0.009912 -0.001994 -0.002300 -0.000969 -0.003488
# 3 -0.004818 -0.001994 0.011396 -0.003862 -0.005778 -0.002520
# 4 0.002306 -0.002300 -0.003862 0.033990 0.001902 0.001134
# 5 0.012764 -0.000969 -0.005778 0.001902 0.042614 0.008248
# 6 0.003636 -0.003488 -0.002520 0.001134 0.008248 0.032141
#
#
# Mechanical properties :
#
#
# Convention : Reuss Voigt Hill
#
# Bulk Modulus (GPa) = 58.87790 67.74396 63.31093
# Shear Modulus (GPa) = 28.56305 34.29716 31.43011
#
# Velocity S-wave (km/s) = 3.61115 3.95705 3.78805
# Velocity P-wave (km/s) = 6.65340 7.19764 6.93086
#
# Compressibility (1/GPa) = 0.01698430
#
# Stress axis : x y z
#
# Youngs Moduli (GPa) = 57.12150 100.88686 87.75132
#
# Poissons Ratio (x) = 0.41395 0.42275
# Poissons Ratio (y) = 0.23438 0.17500
# Poissons Ratio (z) = 0.27519 0.20120
#
# Static dielectric constant tensor:
#      x y z
#    x 1.853400 -0.007260 0.014940 
#    y -0.007260 1.924260 -0.018710 
#    z 0.014940 -0.018710 1.818100 
# 
# From -- ./inp_files/566384.got.cif
#   From: 2010.05.17/outbox.cif.g08.bks.cpg/sg2_284_cif.got.tgz:566384.got - 2010.06.03 11:33:40.
