data_PCOD9048587
_publ_section_title
;
Structure prediction by ZEFSAII (Michael W. Deem and Ramdas Pophale) SiO2 
 PCOD9048587
Probable space group: P -1
;
_chemical_formula_sum "Si O2"
_cell_formula_units_Z 12
_cell_length_a 15.074462
_cell_length_b 9.048933
_cell_length_c 8.195178
_cell_angle_alpha 73.722540
_cell_angle_beta 99.963979
_cell_angle_gamma 39.430855
_cell_volume 524.324370
_symmetry_space_group_name_H-M "P -1"
_symmetry_group_IT_number 2
_symmetry_cell_setting 'triclinic'
loop_
_space_group_symop_operation_xyz
x,y,z
-x,-y,-z
loop_
_atom_site_type_symbol
_atom_site_label
_atom_site_fract_x
_atom_site_fract_y
_atom_site_fract_z
Si Si1 0.016221 0.269109 0.718986
Si Si2 0.649630 0.624725 0.513438
Si Si3 0.620598 0.780386 0.950780
Si Si4 0.361957 0.670935 0.551845
Si Si5 0.370697 0.543161 0.111896
Si Si6 0.998259 0.366800 0.296760
O O1 0.022723 0.290765 0.520065
O O2 0.027333 0.411653 0.778442
O O3 0.824559 0.472684 0.626610
O O4 0.183068 0.912237 0.926829
O O5 0.678402 0.450030 0.438297
O O6 0.629861 0.561702 0.693643
O O7 0.474951 0.983806 0.299042
O O8 0.610093 0.613819 0.970930
O O9 0.823447 0.539033 0.118324
O O10 0.500000 0.000000 0.000000
O O11 0.500000 0.500000 0.500000
O O12 0.465794 0.579006 0.773215
O O13 0.177968 0.041001 0.364362
#
# Coordination Sequence:
#
# PCOD9048587 Si02
#       6
#     2   2   2   2   2   2
#     4  11  24  43  72 104 139 184 230 281 354 402
#     4  11  23  46  69 102 141 179 234 279 347 411
#     4  12  25  43  70 104 138 182 231 283 349 406
#     4  10  24  45  70 102 139 184 227 281 347 406
#     4  11  25  44  69 101 141 185 228 286 339 416
#     4  11  25  44  69 104 143 179 231 289 336 418
#
# _framework density 22.886597999999999
#
# number of rings (size 3 to 8) (size 9 to 14) (size 15 to 20)
#    0.000    1.000    1.667    4.000    4.667    4.667 
#    0.000    7.500    0.000    0.000    0.000    0.000 
#    0.000    0.000    0.000    0.000    0.000    0.000 
#
# Total GULP energy -67228.084083 kJ/mol
# GULP energy per Si atom -5602.340340 kJ/mol
# Density = 2.283451 g / cm^3
# Si number density = 22.886598 Si / 1000 Ang^3
#
#
#
# Elastic Constant Matrix: (Units=GPa)
#
#
# Indices 1 2 3 4 5 6 
#
# 1 110.7033 52.5971 40.4758 -3.9134 23.1430 34.5834
# 2 52.5971 128.9041 48.6800 -28.9078 16.3037 32.4176
# 3 40.4758 48.6800 145.1378 -31.0928 13.7693 12.5497
# 4 -3.9134 -28.9078 -31.0928 39.1535 -1.5874 1.2661
# 5 23.1430 16.3037 13.7693 -1.5874 51.7942 2.9302
# 6 34.5834 32.4176 12.5497 1.2661 2.9302 52.1253
#
#
#
# Elastic Compliance Matrix: (Units=1/GPa)
#
#
# Indices 1 2 3 4 5 6 
#
# 1 0.014446 -0.003421 -0.002558 -0.003082 -0.004424 -0.006517
# 2 -0.003421 0.013142 -0.000909 0.008755 -0.001770 -0.005798
# 3 -0.002558 -0.000909 0.009392 0.006500 -0.000862 -0.000108
# 4 -0.003082 0.008755 0.006500 0.036978 -0.001647 -0.005771
# 5 -0.004424 -0.001770 -0.000862 -0.001647 0.021847 0.003055
# 6 -0.006517 -0.005798 -0.000108 -0.005771 0.003055 0.027109
#
#
# Mechanical properties :
#
#
# Convention : Reuss Voigt Hill
#
# Bulk Modulus (GPa) = 43.09699 74.25011 58.67355
# Shear Modulus (GPa) = 34.62010 44.81408 39.71709
#
# Velocity S-wave (km/s) = 3.89354 4.42983 4.17032
# Velocity P-wave (km/s) = 6.25175 7.66013 6.99150
#
# Compressibility (1/GPa) = 0.02320347
#
# Stress axis : x y z
#
# Youngs Moduli (GPa) = 69.22526 76.09022 106.47358
#
# Poissons Ratio (x) = 0.26029 0.27239
# Poissons Ratio (y) = 0.23681 0.09679
# Poissons Ratio (z) = 0.17710 0.06917
#
# Static dielectric constant tensor:
#      x y z
#    x 1.842110 0.000450 -0.032460 
#    y 0.000450 1.953600 0.179830 
#    z -0.032460 0.179830 1.959700 
# 
# From -- ./inp_files/147367.got.cif
#   From: 2010.05.17/outbox.cif.g08.bks.cpg/sg2_74_cif.got.tgz:147367.got - 2010.06.03 11:33:40.
