data_PCOD9048932
_publ_section_title
;
Structure prediction by ZEFSAII (Michael W. Deem and Ramdas Pophale) SiO2 
 PCOD9048932
Probable space group: P -1
;
_chemical_formula_sum "Si O2"
_cell_formula_units_Z 15
_cell_length_a 11.366725
_cell_length_b 21.755549
_cell_length_c 8.449185
_cell_angle_alpha 130.068156
_cell_angle_beta 142.225568
_cell_angle_gamma 28.234483
_cell_volume 595.390684
_symmetry_space_group_name_H-M "P -1"
_symmetry_group_IT_number 2
_symmetry_cell_setting 'triclinic'
loop_
_space_group_symop_operation_xyz
x,y,z
-x,-y,-z
loop_
_atom_site_type_symbol
_atom_site_label
_atom_site_fract_x
_atom_site_fract_y
_atom_site_fract_z
Si Si1 0.192186 0.703005 0.239862
Si Si2 0.745653 0.983711 0.664168
Si Si3 0.466551 0.094983 0.211312
Si Si4 0.500000 0.500000 0.000000
Si Si5 0.561195 0.736419 0.719767
Si Si6 0.833680 0.296636 0.420954
Si Si7 0.747411 0.547641 0.108903
Si Si8 0.347027 0.253808 0.804378
O O1 0.295716 0.759837 0.437766
O O2 0.089064 0.721644 0.341244
O O3 0.463439 0.554684 0.224787
O O4 0.909402 0.774730 0.937689
O O5 0.662305 0.029067 0.468976
O O6 0.658438 0.095448 0.843455
O O7 0.500000 0.000000 0.500000
O O8 0.062718 0.825863 0.738305
O O9 0.541009 0.144136 0.259131
O O10 0.500000 0.000000 0.000000
O O11 0.592776 0.558055 0.114592
O O12 0.619009 0.720983 0.943005
O O13 0.892174 0.599555 0.767834
O O14 0.459113 0.419714 0.202907
O O15 0.051748 0.289751 0.554930
O O16 0.719257 0.653473 0.237751
#
# Coordination Sequence:
#
# PCOD9048932 Si02
#       8
#     2   2   2   1   2   2   2   2
#     4  12  27  48  73 106 150 193 246 299 376 437
#     4  10  24  45  76 108 146 193 247 302 367 435
#     4  12  24  50  74 105 152 196 243 306 369 437
#     4  12  30  48  70 110 148 200 244 310 370 440
#     4  12  27  48  75 112 147 197 249 303 374 446
#     4  11  24  50  75 107 147 201 241 303 372 441
#     4  12  28  47  74 107 150 194 248 306 371 440
#     4  11  24  45  75 110 145 192 247 305 362 442
#
# _framework density 25.193542999999998
#
# number of rings (size 3 to 8) (size 9 to 14) (size 15 to 20)
#    0.000    0.533    5.333    1.200    7.467    2.667 
#    0.000    0.000    0.000    0.000    0.000    0.000 
#    0.000    0.000    0.000    0.000    0.000    0.000 
#
# Total GULP energy -83785.742428 kJ/mol
# GULP energy per Si atom -5585.716162 kJ/mol
# Density = 2.513620 g / cm^3
# Si number density = 25.193543 Si / 1000 Ang^3
#
#
#
# Elastic Constant Matrix: (Units=GPa)
#
#
# Indices 1 2 3 4 5 6 
#
# 1 146.9551 68.3300 15.4128 19.0906 21.8081 38.7288
# 2 68.3300 94.7640 15.0747 28.5129 11.4393 36.6982
# 3 15.4128 15.0747 53.3948 12.9894 19.6321 8.5829
# 4 19.0906 28.5129 12.9894 49.6726 4.1081 9.4371
# 5 21.8081 11.4393 19.6321 4.1081 33.2343 14.3939
# 6 38.7288 36.6982 8.5829 9.4371 14.3939 47.0739
#
#
#
# Elastic Compliance Matrix: (Units=1/GPa)
#
#
# Indices 1 2 3 4 5 6 
#
# 1 0.011160 -0.006568 0.000578 0.000232 -0.004159 -0.002942
# 2 -0.006568 0.021577 -0.001948 -0.007629 0.003579 -0.010628
# 3 0.000578 -0.001948 0.025514 -0.004907 -0.015027 0.001969
# 4 0.000232 -0.007629 -0.004907 0.025363 0.001797 0.001017
# 5 -0.004159 0.003579 -0.015027 0.001797 0.044880 -0.010712
# 6 -0.002942 -0.010628 0.001969 0.001017 -0.010712 0.034662
#
#
# Mechanical properties :
#
#
# Convention : Reuss Voigt Hill
#
# Bulk Modulus (GPa) = 23.59797 54.74991 39.17394
# Shear Modulus (GPa) = 25.88577 39.08258 32.48417
#
# Velocity S-wave (km/s) = 3.20890 3.94292 3.59470
# Velocity P-wave (km/s) = 4.80796 6.51979 5.72818
#
# Compressibility (1/GPa) = 0.04237653
#
# Stress axis : x y z
#
# Youngs Moduli (GPa) = 89.60342 46.34538 39.19470
#
# Poissons Ratio (x) = 0.30438 -0.02266
# Poissons Ratio (y) = 0.58849 0.07634
# Poissons Ratio (z) = -0.05181 0.09027
#
# Static dielectric constant tensor:
#      x y z
#    x 1.957040 -0.022050 0.062490 
#    y -0.022050 2.043700 -0.048770 
#    z 0.062490 -0.048770 1.994160 
# 
# From -- ./inp_files/282372.got.cif
#   From: 2010.05.17/outbox.cif.g08.bks.cpg/sg2_142_cif.got.tgz:282372.got - 2010.06.03 11:33:40.
