data_PCOD9048647
_publ_section_title
;
Structure prediction by ZEFSAII (Michael W. Deem and Ramdas Pophale) SiO2 
 PCOD9048647
Probable space group: P -1
;
_chemical_formula_sum "Si O2"
_cell_formula_units_Z 16
_cell_length_a 12.551698
_cell_length_b 13.159645
_cell_length_c 5.305174
_cell_angle_alpha 97.420525
_cell_angle_beta 85.497919
_cell_angle_gamma 124.938586
_cell_volume 712.323206
_symmetry_space_group_name_H-M "P -1"
_symmetry_group_IT_number 2
_symmetry_cell_setting 'triclinic'
loop_
_space_group_symop_operation_xyz
x,y,z
-x,-y,-z
loop_
_atom_site_type_symbol
_atom_site_label
_atom_site_fract_x
_atom_site_fract_y
_atom_site_fract_z
Si Si1 0.008065 0.935084 0.725489
Si Si2 0.398385 0.784552 0.443762
Si Si3 0.594239 0.001105 0.780900
Si Si4 0.522286 0.384875 0.785676
Si Si5 0.940272 0.723813 0.346293
Si Si6 0.860471 0.143380 0.050606
Si Si7 0.107132 0.646598 0.557750
Si Si8 0.349369 0.455172 0.692344
O O1 0.137295 0.936030 0.744134
O O2 0.915266 0.789424 0.603331
O O3 0.000000 0.000000 0.500000
O O4 0.000000 0.000000 0.000000
O O5 0.383132 0.892892 0.383050
O O6 0.454017 0.723283 0.248057
O O7 0.249722 0.676928 0.502057
O O8 0.511811 0.860938 0.651493
O O9 0.731696 0.052141 0.891217
O O10 0.500000 0.000000 0.000000
O O11 0.382226 0.353337 0.714637
O O12 0.608960 0.483019 0.573387
O O13 0.565088 0.445161 0.073432
O O14 0.801445 0.603759 0.261177
O O15 0.046676 0.697722 0.396761
O O16 0.011344 0.810986 0.120959
O O17 0.872806 0.268433 0.175303
O O18 0.000000 0.500000 0.500000
#
# Coordination Sequence:
#
# PCOD9048647 Si02
#       8
#     2   2   2   2   2   2   2   2
#     4  11  24  44  68  99 136 180 230 287 345 422
#     4  11  24  41  71 101 137 189 238 287 356 416
#     4  11  24  45  64  95 144 184 239 291 340 426
#     4  10  24  46  69 100 134 182 233 288 346 420
#     4  11  24  42  70 101 141 183 224 293 362 417
#     4  11  24  44  69 101 144 185 233 293 362 419
#     4  11  24  40  65 107 143 183 234 291 360 426
#     4  10  24  45  70  98 140 175 232 291 351 419
#
# _framework density 22.461714000000001
#
# number of rings (size 3 to 8) (size 9 to 14) (size 15 to 20)
#    0.000    1.250    3.750    0.750    7.000    2.500 
#    2.250    0.000    0.000    0.000    0.000    0.000 
#    0.000    0.000    0.000    0.000    0.000    0.000 
#
# Total GULP energy -89074.341797 kJ/mol
# GULP energy per Si atom -5567.146362 kJ/mol
# Density = 2.241059 g / cm^3
# Si number density = 22.461714 Si / 1000 Ang^3
#
#
#
# Elastic Constant Matrix: (Units=GPa)
#
#
# Indices 1 2 3 4 5 6 
#
# 1 72.7671 20.1379 15.4863 9.1056 12.5350 8.3722
# 2 20.1379 63.8955 18.0976 14.7908 10.8812 -0.9216
# 3 15.4863 18.0976 91.2802 8.0631 5.7073 -1.1403
# 4 9.1056 14.7908 8.0631 30.9693 -4.8968 -4.1359
# 5 12.5350 10.8812 5.7073 -4.8968 36.1231 7.2107
# 6 8.3722 -0.9216 -1.1403 -4.1359 7.2107 48.1847
#
#
#
# Elastic Compliance Matrix: (Units=1/GPa)
#
#
# Indices 1 2 3 4 5 6 
#
# 1 0.016531 -0.003081 -0.001582 -0.004053 -0.004583 -0.002631
# 2 -0.003081 0.020450 -0.002331 -0.009092 -0.006157 0.001012
# 3 -0.001582 -0.002331 0.011893 -0.001599 -0.000948 0.000516
# 4 -0.004053 -0.009092 -0.001599 0.040053 0.009321 0.002535
# 5 -0.004583 -0.006157 -0.000948 0.009321 0.033244 -0.003519
# 6 -0.002631 0.001012 0.000516 0.002535 -0.003519 0.021986
#
#
# Mechanical properties :
#
#
# Convention : Reuss Voigt Hill
#
# Bulk Modulus (GPa) = 28.66565 37.26514 32.96540
# Shear Modulus (GPa) = 29.45102 34.67015 32.06058
#
# Velocity S-wave (km/s) = 3.62493 3.93303 3.78212
# Velocity P-wave (km/s) = 5.50544 6.10340 5.81212
#
# Compressibility (1/GPa) = 0.03488496
#
# Stress axis : x y z
#
# Youngs Moduli (GPa) = 60.49183 48.90041 84.08481
#
# Poissons Ratio (x) = 0.15068 0.13302
# Poissons Ratio (y) = 0.18640 0.19599
# Poissons Ratio (z) = 0.09570 0.11398
#
# Static dielectric constant tensor:
#      x y z
#    x 1.825720 -0.116980 0.023010 
#    y -0.116980 2.053000 -0.089110 
#    z 0.023010 -0.089110 1.957920 
# 
# From -- ./inp_files/71293.got.cif
#   From: 2010.05.17/outbox.cif.g08.bks.cpg/sg2_36_cif.got.tgz:71293.got - 2010.06.03 11:33:40.
