data_PCOD9048481
_publ_section_title
;
Structure prediction by ZEFSAII (Michael W. Deem and Ramdas Pophale) SiO2 
 PCOD9048481
Probable space group: P -1
;
_chemical_formula_sum "Si O2"
_cell_formula_units_Z 14
_cell_length_a 19.123282
_cell_length_b 15.513333
_cell_length_c 9.473202
_cell_angle_alpha 48.751231
_cell_angle_beta 133.385964
_cell_angle_gamma 162.026439
_cell_volume 630.024987
_symmetry_space_group_name_H-M "P -1"
_symmetry_group_IT_number 2
_symmetry_cell_setting 'triclinic'
loop_
_space_group_symop_operation_xyz
x,y,z
-x,-y,-z
loop_
_atom_site_type_symbol
_atom_site_label
_atom_site_fract_x
_atom_site_fract_y
_atom_site_fract_z
Si Si1 0.603974 0.787237 0.594487
Si Si2 0.690954 0.606494 0.142138
Si Si3 0.347645 0.804912 0.747819
Si Si4 0.864317 0.466270 0.796605
Si Si5 0.682175 0.422619 0.815653
Si Si6 0.989012 0.620670 0.493408
Si Si7 0.781014 0.730419 0.826847
O O1 0.405481 0.577175 0.667406
O O2 0.527631 0.780398 0.363702
O O3 0.643710 0.701584 0.685263
O O4 0.846946 0.103825 0.647040
O O5 0.500000 0.500000 0.000000
O O6 0.709793 0.585831 0.028599
O O7 0.947022 0.938043 0.162079
O O8 0.255135 0.660774 0.623440
O O9 0.139069 0.666220 0.649017
O O10 0.597008 0.137911 0.745112
O O11 0.364132 0.720104 0.973668
O O12 0.873836 0.571331 0.819480
O O13 0.958284 0.616472 0.618185
O O14 0.000000 0.500000 0.000000
O O15 0.736246 0.601255 0.771898
#
# Coordination Sequence:
#
# PCOD9048481 Si02
#       7
#     2   2   2   2   2   2   2
#     4  11  24  45  71 102 141 178 230 287 343 408
#     4   9  22  46  70  96 139 178 232 282 334 414
#     4  11  25  47  69 101 137 182 243 282 344 412
#     4  12  24  47  69 101 140 184 228 289 350 405
#     4  12  25  44  69 101 143 179 227 286 347 414
#     4  11  25  46  72 100 139 183 234 290 340 414
#     4  10  24  45  69 103 138 182 228 281 346 411
#
# _framework density 22.221342
#
# number of rings (size 3 to 8) (size 9 to 14) (size 15 to 20)
#    0.000    1.143    2.857    2.143    8.000    0.571 
#   15.429    0.000    0.000    0.000    0.000    0.000 
#    0.000    0.000    0.000    0.000    0.000    0.000 
#
# Total GULP energy -78204.114966 kJ/mol
# GULP energy per Si atom -5586.008212 kJ/mol
# Density = 2.217077 g / cm^3
# Si number density = 22.221342 Si / 1000 Ang^3
#
#
#
# Elastic Constant Matrix: (Units=GPa)
#
#
# Indices 1 2 3 4 5 6 
#
# 1 124.5557 35.6354 36.6615 0.6031 -3.9797 -4.5671
# 2 35.6354 90.8758 41.5556 3.1681 -15.3535 8.1949
# 3 36.6615 41.5556 106.6722 2.5391 -2.9230 8.2333
# 4 0.6031 3.1681 2.5391 32.4008 5.9849 -0.4914
# 5 -3.9797 -15.3535 -2.9230 5.9849 44.9174 0.7707
# 6 -4.5671 8.1949 8.2333 -0.4914 0.7707 34.7119
#
#
#
# Elastic Compliance Matrix: (Units=1/GPa)
#
#
# Indices 1 2 3 4 5 6 
#
# 1 0.009669 -0.003030 -0.002362 0.000420 -0.000433 0.002563
# 2 -0.003030 0.015487 -0.004563 -0.002082 0.005059 -0.003114
# 3 -0.002362 -0.004563 0.012108 -0.000324 -0.000902 -0.002090
# 4 0.000420 -0.002082 -0.000324 0.032023 -0.004983 0.001188
# 5 -0.000433 0.005059 -0.000902 -0.004983 0.024588 -0.001654
# 6 0.002563 -0.003114 -0.002090 0.001188 -0.001654 0.030430
#
#
# Mechanical properties :
#
#
# Convention : Reuss Voigt Hill
#
# Bulk Modulus (GPa) = 57.62711 61.08986 59.35849
# Shear Modulus (GPa) = 33.33308 36.28944 34.81126
#
# Velocity S-wave (km/s) = 3.87725 4.04553 3.96228
# Velocity P-wave (km/s) = 6.78481 7.02659 6.90676
#
# Compressibility (1/GPa) = 0.01735294
#
# Stress axis : x y z
#
# Youngs Moduli (GPa) = 103.42413 64.56977 82.58747
#
# Poissons Ratio (x) = 0.19566 0.19510
# Poissons Ratio (y) = 0.31340 0.37687
# Poissons Ratio (z) = 0.24432 0.29465
#
# Static dielectric constant tensor:
#      x y z
#    x 1.838760 0.001910 0.017200 
#    y 0.001910 1.807540 -0.006050 
#    z 0.017200 -0.006050 1.868140 
# 
# From -- ./inp_files/38943.got.cif
#   From: 2010.05.17/outbox.cif.g08.bks.cpg/sg2_20_cif.got.tgz:38943.got - 2010.06.03 11:33:40.
