data_PCOD9048725
_publ_section_title
;
Structure prediction by ZEFSAII (Michael W. Deem and Ramdas Pophale) SiO2 
 PCOD9048725
Probable space group: P -1
;
_chemical_formula_sum "Si O2"
_cell_formula_units_Z 14
_cell_length_a 23.272509
_cell_length_b 8.667397
_cell_length_c 16.945485
_cell_angle_alpha 141.548607
_cell_angle_beta 20.453756
_cell_angle_gamma 148.789588
_cell_volume 615.810703
_symmetry_space_group_name_H-M "P -1"
_symmetry_group_IT_number 2
_symmetry_cell_setting 'triclinic'
loop_
_space_group_symop_operation_xyz
x,y,z
-x,-y,-z
loop_
_atom_site_type_symbol
_atom_site_label
_atom_site_fract_x
_atom_site_fract_y
_atom_site_fract_z
Si Si1 0.487677 0.219924 0.444047
Si Si2 0.125550 0.495166 0.406595
Si Si3 0.108357 0.198424 0.564691
Si Si4 0.225937 0.719412 0.030110
Si Si5 0.451228 0.310803 0.067092
Si Si6 0.846917 0.602465 0.235775
Si Si7 0.912321 0.134065 0.257945
O O1 0.500000 0.500000 0.500000
O O2 0.620595 0.331978 0.396715
O O3 0.254667 0.968574 0.636093
O O4 0.614314 0.159769 0.196392
O O5 0.140439 0.707322 0.542689
O O6 0.000000 0.500000 0.500000
O O7 0.336276 0.596245 0.139773
O O8 0.015545 0.152987 0.438144
O O9 0.317162 0.361282 0.316838
O O10 0.142208 0.254048 0.636486
O O11 0.965936 0.296454 0.759332
O O12 0.133071 0.382722 0.043531
O O13 0.328288 0.960778 0.063916
O O14 0.500000 0.500000 0.000000
O O15 0.902298 0.854082 0.198585
O O16 0.000000 0.500000 0.000000
#
# Coordination Sequence:
#
# PCOD9048725 Si02
#       7
#     2   2   2   2   2   2   2
#     4  10  24  45  71  97 139 189 245 283 348 421
#     4  12  24  44  70 109 148 175 227 307 362 421
#     4  12  25  44  73 111 144 185 236 295 371 414
#     4  12  23  43  75 105 139 187 244 292 352 425
#     4  12  25  43  73 106 145 188 235 289 358 434
#     4  11  24  49  72 100 147 187 236 301 350 422
#     4  11  24  45  75 103 137 187 243 290 353 426
#
# _framework density 22.734258000000001
#
# number of rings (size 3 to 8) (size 9 to 14) (size 15 to 20)
#    0.000    0.571    7.143    1.286    0.000    2.857 
#    5.143    2.143    0.000    0.000    0.000    0.000 
#    0.000    0.000    0.000    0.000    0.000    0.000 
#
# Total GULP energy -78332.994394 kJ/mol
# GULP energy per Si atom -5595.213885 kJ/mol
# Density = 2.268251 g / cm^3
# Si number density = 22.734258 Si / 1000 Ang^3
#
#
#
# Elastic Constant Matrix: (Units=GPa)
#
#
# Indices 1 2 3 4 5 6 
#
# 1 73.2134 24.8519 42.9895 -6.0693 -29.8312 7.9346
# 2 24.8519 100.1607 32.3705 -8.1064 -8.7591 -2.8669
# 3 42.9895 32.3705 131.3424 -3.8524 -13.8121 2.9115
# 4 -6.0693 -8.1064 -3.8524 40.9873 2.7463 1.2945
# 5 -29.8312 -8.7591 -13.8121 2.7463 42.8985 -0.5242
# 6 7.9346 -2.8669 2.9115 1.2945 -0.5242 31.6333
#
#
#
# Elastic Compliance Matrix: (Units=1/GPa)
#
#
# Indices 1 2 3 4 5 6 
#
# 1 0.024702 -0.003065 -0.005620 0.001731 0.014561 -0.005786
# 2 -0.003065 0.011494 -0.001874 0.001614 -0.000468 0.001909
# 3 -0.005620 -0.001874 0.009783 -0.000218 -0.001123 0.000330
# 4 0.001731 0.001614 -0.000218 0.025004 -0.000154 -0.001293
# 5 0.014561 -0.000468 -0.001123 -0.000154 0.032952 -0.003039
# 6 -0.005786 0.001909 0.000330 -0.001293 -0.003039 0.033209
#
#
# Mechanical properties :
#
#
# Convention : Reuss Voigt Hill
#
# Bulk Modulus (GPa) = 40.22074 56.12670 48.17372
# Shear Modulus (GPa) = 30.02105 36.73746 33.37926
#
# Velocity S-wave (km/s) = 3.63784 4.02425 3.83591
# Velocity P-wave (km/s) = 5.94771 6.80695 6.39178
#
# Compressibility (1/GPa) = 0.02486279
#
# Stress axis : x y z
#
# Youngs Moduli (GPa) = 40.48187 86.99838 102.21721
#
# Poissons Ratio (x) = 0.26667 0.57442
# Poissons Ratio (y) = 0.12408 0.19154
# Poissons Ratio (z) = 0.22749 0.16302
#
# Static dielectric constant tensor:
#      x y z
#    x 1.830120 -0.008830 0.017750 
#    y -0.008830 1.950550 -0.002250 
#    z 0.017750 -0.002250 1.863230 
# 
# From -- ./inp_files/107207.got.cif
#   From: 2010.05.17/outbox.cif.g08.bks.cpg/sg2_54_cif.got.tgz:107207.got - 2010.06.03 11:33:40.
