data_PCOD9048268
_publ_section_title
;
Structure prediction by ZEFSAII (Michael W. Deem and Ramdas Pophale) SiO2 
 PCOD9048268
Probable space group: P -1
;
_chemical_formula_sum "Si O2"
_cell_formula_units_Z 14
_cell_length_a 14.083930
_cell_length_b 18.670731
_cell_length_c 5.316038
_cell_angle_alpha 87.826784
_cell_angle_beta 102.741760
_cell_angle_gamma 151.412404
_cell_volume 615.022039
_symmetry_space_group_name_H-M "P -1"
_symmetry_group_IT_number 2
_symmetry_cell_setting 'triclinic'
loop_
_space_group_symop_operation_xyz
x,y,z
-x,-y,-z
loop_
_atom_site_type_symbol
_atom_site_label
_atom_site_fract_x
_atom_site_fract_y
_atom_site_fract_z
Si Si1 0.489154 0.578723 0.671266
Si Si2 0.122217 0.241297 0.941248
Si Si3 0.303548 0.236419 0.740768
Si Si4 0.967728 0.573320 0.729251
Si Si5 0.738427 0.372353 0.115270
Si Si6 0.227066 0.028882 0.827248
Si Si7 0.005942 0.748272 0.514037
O O1 0.529774 0.651698 0.939367
O O2 0.238568 0.401875 0.510603
O O3 0.359853 0.391370 0.185449
O O4 0.590958 0.683347 0.477389
O O5 0.043161 0.267622 0.807151
O O6 0.160250 0.211611 0.733512
O O7 0.935557 0.084517 0.018633
O O8 0.193019 0.086848 0.699065
O O9 0.819014 0.454876 0.419325
O O10 0.070387 0.715765 0.678306
O O11 0.147865 0.630349 0.853944
O O12 0.826807 0.477729 0.916442
O O13 0.482917 0.195014 0.997222
O O14 0.167249 0.918020 0.653736
#
# Coordination Sequence:
#
# PCOD9048268 Si02
#       7
#     2   2   2   2   2   2   2
#     4  10  24  45  65  87 133 186 231 261 314 392
#     4  10  26  40  65  94 141 178 224 266 326 390
#     4  10  24  45  65  87 133 186 231 261 314 392
#     4  10  24  49  76  98 128 173 222 269 331 408
#     4  10  24  49  76  98 128 173 222 269 331 408
#     4  12  26  40  68 102 137 171 221 279 334 380
#     4  12  26  40  68 102 137 171 221 279 334 380
#
# _framework density 22.763413
#
# number of rings (size 3 to 8) (size 9 to 14) (size 15 to 20)
#    0.857    0.571    0.000    3.429    8.000    2.857 
#    0.000    0.714    0.000    0.000    0.000    0.000 
#    0.000    0.000    0.000    0.000    0.000    0.000 
#
# Total GULP energy -78159.666062 kJ/mol
# GULP energy per Si atom -5582.833290 kJ/mol
# Density = 2.271160 g / cm^3
# Si number density = 22.763413 Si / 1000 Ang^3
#
#
#
# Elastic Constant Matrix: (Units=GPa)
#
#
# Indices 1 2 3 4 5 6 
#
# 1 62.6755 26.7223 25.3435 3.0824 23.2721 -17.1765
# 2 26.7223 93.9717 15.1675 -28.8997 10.3672 -5.5160
# 3 25.3435 15.1675 72.2744 -22.0624 1.9157 1.1743
# 4 3.0824 -28.8997 -22.0624 47.5639 -5.9210 4.9707
# 5 23.2721 10.3672 1.9157 -5.9210 31.2398 -5.9348
# 6 -17.1765 -5.5160 1.1743 4.9707 -5.9348 47.6738
#
#
#
# Elastic Compliance Matrix: (Units=1/GPa)
#
#
# Indices 1 2 3 4 5 6 
#
# 1 0.048230 -0.014201 -0.021689 -0.027404 -0.032208 0.015116
# 2 -0.014201 0.017550 0.005945 0.015582 0.006577 -0.004038
# 3 -0.021689 0.005945 0.025955 0.019735 0.014817 -0.007979
# 4 -0.027404 0.015582 0.019735 0.045098 0.020548 -0.010701
# 5 -0.032208 0.006577 0.014817 0.020548 0.055586 -0.006431
# 6 0.015116 -0.004038 -0.007979 -0.010701 -0.006431 0.026466
#
#
# Mechanical properties :
#
#
# Convention : Reuss Voigt Hill
#
# Bulk Modulus (GPa) = 31.40383 40.37647 35.89015
# Shear Modulus (GPa) = 17.27769 36.07470 26.67620
#
# Velocity S-wave (km/s) = 2.75800 3.98523 3.42700
# Velocity P-wave (km/s) = 4.89569 6.24116 5.60892
#
# Compressibility (1/GPa) = 0.03184325
#
# Stress axis : x y z
#
# Youngs Moduli (GPa) = 20.73411 56.98108 38.52778
#
# Poissons Ratio (x) = 0.80920 0.83563
# Poissons Ratio (y) = 0.29445 -0.22903
# Poissons Ratio (z) = 0.44970 -0.33873
#
# Static dielectric constant tensor:
#      x y z
#    x 1.892070 -0.039280 -0.017240 
#    y -0.039280 1.806530 0.008100 
#    z -0.017240 0.008100 1.966110 
# 
# From -- ./inp_files/99766.got.cif
#   From: 2010.05.17/outbox.cif.g08.bks.cpg/sg2_50_cif.got.tgz:99766.got - 2010.06.03 11:33:40.
