data_PCOD9048175
_publ_section_title
;
Structure prediction by ZEFSAII (Michael W. Deem and Ramdas Pophale) SiO2 
 PCOD9048175
Probable space group: P -1
;
_chemical_formula_sum "Si O2"
_cell_formula_units_Z 16
_cell_length_a 11.124784
_cell_length_b 14.534716
_cell_length_c 9.712122
_cell_angle_alpha 135.395192
_cell_angle_beta 45.568437
_cell_angle_gamma 138.805233
_cell_volume 678.913609
_symmetry_space_group_name_H-M "P -1"
_symmetry_group_IT_number 2
_symmetry_cell_setting 'triclinic'
loop_
_space_group_symop_operation_xyz
x,y,z
-x,-y,-z
loop_
_atom_site_type_symbol
_atom_site_label
_atom_site_fract_x
_atom_site_fract_y
_atom_site_fract_z
Si Si1 0.731122 0.109234 0.438738
Si Si2 0.383955 0.584682 0.230390
Si Si3 0.663205 0.378995 0.374534
Si Si4 0.690065 0.827552 0.061355
Si Si5 0.691132 0.843701 0.759130
Si Si6 0.860847 0.184283 0.940546
Si Si7 0.961861 0.711160 0.818835
Si Si8 0.023211 0.281500 0.618232
O O1 0.835404 0.227633 0.357057
O O2 0.827522 0.198827 0.595739
O O3 0.500000 0.000000 0.500000
O O4 0.801553 0.988081 0.219693
O O5 0.403184 0.616536 0.411519
O O6 0.490210 0.729099 0.201334
O O7 0.158388 0.468581 0.254899
O O8 0.500000 0.500000 0.000000
O O9 0.480255 0.302031 0.335840
O O10 0.826506 0.549027 0.377336
O O11 0.745455 0.264132 0.175119
O O12 0.646574 0.846603 0.959327
O O13 0.820634 0.747986 0.880065
O O14 0.875787 0.820765 0.580606
O O15 0.734905 0.002894 0.826865
O O16 0.966018 0.274427 0.815208
O O17 0.008196 0.209296 0.973480
#
# Coordination Sequence:
#
# PCOD9048175 Si02
#       8
#     2   2   2   2   2   2   2   2
#     4  12  26  43  74 102 145 195 253 309 376 427
#     4  10  24  44  75 107 146 193 256 303 370 447
#     4  12  28  49  75 111 159 194 246 315 381 445
#     4  11  24  44  76 106 146 196 252 310 370 445
#     4  12  26  48  78 109 155 197 254 304 374 459
#     4  12  29  44  74 110 158 198 245 310 380 443
#     4  11  23  49  70 105 148 194 252 313 364 448
#     4  12  27  50  73 110 149 206 254 303 375 456
#
# _framework density 23.567062
#
# number of rings (size 3 to 8) (size 9 to 14) (size 15 to 20)
#    0.000    0.500    3.750    3.375   10.500    1.500 
#    0.000    0.000    0.000    0.000    0.000    0.000 
#    0.000    0.000    0.000    0.000    0.000    0.000 
#
# Total GULP energy -89538.969910 kJ/mol
# GULP energy per Si atom -5596.185619 kJ/mol
# Density = 2.351342 g / cm^3
# Si number density = 23.567062 Si / 1000 Ang^3
#
#
#
# Elastic Constant Matrix: (Units=GPa)
#
#
# Indices 1 2 3 4 5 6 
#
# 1 81.2149 29.8445 31.3403 -8.9301 7.6385 12.1592
# 2 29.8445 146.2763 43.2739 -12.4256 -9.3133 16.6363
# 3 31.3403 43.2739 115.7414 -13.5395 5.8711 -2.4653
# 4 -8.9301 -12.4256 -13.5395 52.7617 -8.9282 1.5324
# 5 7.6385 -9.3133 5.8711 -8.9282 41.9304 8.8613
# 6 12.1592 16.6363 -2.4653 1.5324 8.8613 40.2736
#
#
#
# Elastic Compliance Matrix: (Units=1/GPa)
#
#
# Indices 1 2 3 4 5 6 
#
# 1 0.015042 -0.001669 -0.003314 0.001138 -0.001614 -0.003743
# 2 -0.001669 0.008967 -0.002979 0.001873 0.004029 -0.004340
# 3 -0.003314 -0.002979 0.010955 0.001105 -0.002056 0.003312
# 4 0.001138 0.001873 0.001105 0.020822 0.005115 -0.002967
# 5 -0.001614 0.004029 -0.002056 0.005115 0.028035 -0.007666
# 6 -0.003743 -0.004340 0.003312 -0.002967 -0.007666 0.029756
#
#
# Mechanical properties :
#
#
# Convention : Reuss Voigt Hill
#
# Bulk Modulus (GPa) = 52.51589 61.35001 56.93295
# Shear Modulus (GPa) = 36.80597 42.91141 39.85869
#
# Velocity S-wave (km/s) = 3.95619 4.27174 4.11699
# Velocity P-wave (km/s) = 6.57271 7.10063 6.84177
#
# Compressibility (1/GPa) = 0.01904186
#
# Stress axis : x y z
#
# Youngs Moduli (GPa) = 66.47836 111.51614 91.28250
#
# Poissons Ratio (x) = 0.18613 0.30250
# Poissons Ratio (y) = 0.11096 0.27189
# Poissons Ratio (z) = 0.22030 0.33215
#
# Static dielectric constant tensor:
#      x y z
#    x 1.958960 -0.038890 -0.055510 
#    y -0.038890 2.000900 0.007660 
#    z -0.055510 0.007660 1.916350 
# 
# From -- ./inp_files/274307.got.cif
#   From: 2010.05.17/outbox.cif.g08.bks.cpg/sg2_138_cif.got.tgz:274307.got - 2010.06.03 11:33:40.
