data_PCOD9048895
_publ_section_title
;
Structure prediction by ZEFSAII (Michael W. Deem and Ramdas Pophale) SiO2 
 PCOD9048895
Probable space group: P -1
;
_chemical_formula_sum "Si O2"
_cell_formula_units_Z 16
_cell_length_a 9.674543
_cell_length_b 9.428940
_cell_length_c 17.518468
_cell_angle_alpha 37.155304
_cell_angle_beta 74.326108
_cell_angle_gamma 52.250431
_cell_volume 679.199170
_symmetry_space_group_name_H-M "P -1"
_symmetry_group_IT_number 2
_symmetry_cell_setting 'triclinic'
loop_
_space_group_symop_operation_xyz
x,y,z
-x,-y,-z
loop_
_atom_site_type_symbol
_atom_site_label
_atom_site_fract_x
_atom_site_fract_y
_atom_site_fract_z
Si Si1 0.582772 0.608593 0.495762
Si Si2 0.870567 0.420401 0.407593
Si Si3 0.014985 0.713248 0.182187
Si Si4 0.239515 0.660946 0.701787
Si Si5 0.941934 0.330480 0.131553
Si Si6 0.713458 0.374034 0.014608
Si Si7 0.780976 0.772045 0.763294
Si Si8 0.413345 0.361405 0.350398
O O1 0.500000 0.500000 0.500000
O O2 0.730836 0.586342 0.430318
O O3 0.662026 0.476842 0.624030
O O4 0.374475 0.972807 0.384666
O O5 0.754523 0.471556 0.325480
O O6 0.965622 0.563700 0.313967
O O7 0.043024 0.040916 0.561012
O O8 0.038580 0.553635 0.166785
O O9 0.227280 0.577238 0.230237
O O10 0.841914 0.092939 0.053447
O O11 0.215659 0.515263 0.840966
O O12 0.419009 0.639169 0.696069
O O13 0.857334 0.233732 0.127018
O O14 0.140277 0.104501 0.249657
O O15 0.000000 0.500000 0.000000
O O16 0.500000 0.500000 0.000000
O O17 0.681054 0.681555 0.866101
O O18 0.500000 0.000000 0.500000
#
# Coordination Sequence:
#
# PCOD9048895 Si02
#       8
#     2   2   2   2   2   2   2   2
#     4  12  24  40  70 106 145 185 234 292 358 439
#     4  11  23  39  70 103 139 190 231 286 363 433
#     4  12  25  45  71 103 145 186 234 299 362 428
#     4  11  22  43  68 102 147 186 232 288 363 429
#     4  10  24  45  74  98 134 190 245 291 345 429
#     4  11  27  47  70 101 135 188 244 302 355 414
#     4  11  23  47  69  96 146 187 238 291 354 434
#     4  12  25  43  67 112 151 184 229 298 371 430
#
# _framework density 23.557155000000002
#
# number of rings (size 3 to 8) (size 9 to 14) (size 15 to 20)
#    0.000    0.750    5.000    1.875    5.250    1.500 
#    0.000    0.625    0.000    0.000    0.000    0.000 
#    0.000    0.000    0.000    0.000    0.000    0.000 
#
# Total GULP energy -89308.001695 kJ/mol
# GULP energy per Si atom -5581.750106 kJ/mol
# Density = 2.350354 g / cm^3
# Si number density = 23.557155 Si / 1000 Ang^3
#
#
#
# Elastic Constant Matrix: (Units=GPa)
#
#
# Indices 1 2 3 4 5 6 
#
# 1 184.1134 50.1927 37.2784 13.4591 -0.4935 -9.7189
# 2 50.1927 108.9978 20.2021 9.5644 -2.2552 5.1583
# 3 37.2784 20.2021 52.8419 16.1098 -0.3730 -3.5497
# 4 13.4591 9.5644 16.1098 40.2344 -11.6819 -4.5982
# 5 -0.4935 -2.2552 -0.3730 -11.6819 38.2648 13.3256
# 6 -9.7189 5.1583 -3.5497 -4.5982 13.3256 40.9725
#
#
#
# Elastic Compliance Matrix: (Units=1/GPa)
#
#
# Indices 1 2 3 4 5 6 
#
# 1 0.007024 -0.002625 -0.003753 -0.000249 -0.000845 0.001918
# 2 -0.002625 0.011034 -0.002311 -0.000749 0.001314 -0.002723
# 3 -0.003753 -0.002311 0.025317 -0.009099 -0.003288 0.001642
# 4 -0.000249 -0.000749 -0.009099 0.031508 0.009601 -0.000340
# 5 -0.000845 0.001314 -0.003288 0.009601 0.032648 -0.010191
# 6 0.001918 -0.002723 0.001642 -0.000340 -0.010191 0.028623
#
#
# Mechanical properties :
#
#
# Convention : Reuss Voigt Hill
#
# Bulk Modulus (GPa) = 38.46888 62.36659 50.41774
# Shear Modulus (GPa) = 30.82642 39.77966 35.30304
#
# Velocity S-wave (km/s) = 3.62135 4.11377 3.87539
# Velocity P-wave (km/s) = 5.81817 7.00687 6.44000
#
# Compressibility (1/GPa) = 0.02599504
#
# Stress axis : x y z
#
# Youngs Moduli (GPa) = 142.36398 90.63136 39.49975
#
# Poissons Ratio (x) = 0.23795 0.14824
# Poissons Ratio (y) = 0.37377 0.09130
# Poissons Ratio (z) = 0.53427 0.20949
#
# Static dielectric constant tensor:
#      x y z
#    x 1.951230 -0.032720 -0.014430 
#    y -0.032720 1.948910 -0.044070 
#    z -0.014430 -0.044070 1.996800 
# 
# From -- ./inp_files/245842.got.cif
#   From: 2010.05.17/outbox.cif.g08.bks.cpg/sg2_123_cif.got.tgz:245842.got - 2010.06.03 11:33:40.
