data_PCOD9048506
_publ_section_title
;
Structure prediction by ZEFSAII (Michael W. Deem and Ramdas Pophale) SiO2 
 PCOD9048506
Probable space group: P -1
;
_chemical_formula_sum "Si O2"
_cell_formula_units_Z 12
_cell_length_a 15.375143
_cell_length_b 7.241916
_cell_length_c 7.587062
_cell_angle_alpha 59.860475
_cell_angle_beta 66.313208
_cell_angle_gamma 109.124843
_cell_volume 497.621589
_symmetry_space_group_name_H-M "P -1"
_symmetry_group_IT_number 2
_symmetry_cell_setting 'triclinic'
loop_
_space_group_symop_operation_xyz
x,y,z
-x,-y,-z
loop_
_atom_site_type_symbol
_atom_site_label
_atom_site_fract_x
_atom_site_fract_y
_atom_site_fract_z
Si Si1 0.816914 0.178709 0.448637
Si Si2 0.698893 0.276345 0.042131
Si Si3 0.355001 0.726810 0.306372
Si Si4 0.598502 0.566189 0.038115
Si Si5 0.327605 0.224717 0.740738
Si Si6 0.088530 0.666216 0.090089
O O1 0.711818 0.212213 0.530201
O O2 0.938327 0.429697 0.346381
O O3 0.737502 0.855311 0.725414
O O4 0.875742 0.210500 0.196249
O O5 0.712904 0.332865 0.795142
O O6 0.610900 0.332035 0.152718
O O7 0.843519 0.464470 0.899020
O O8 0.637864 0.951859 0.290022
O O9 0.343234 0.467705 0.507598
O O10 0.500000 0.000000 0.000000
O O11 0.500000 0.500000 0.000000
O O12 0.596520 0.653998 0.195655
O O13 0.174072 0.944714 0.014641
#
# Coordination Sequence:
#
# PCOD9048506 Si02
#       6
#     2   2   2   2   2   2
#     4  11  22  45  75 109 144 188 251 293 363 434
#     4  10  24  45  69 107 141 192 238 300 360 424
#     4  12  25  44  74 105 149 192 237 297 362 438
#     4  12  25  44  76 107 146 197 236 301 365 436
#     4  10  25  48  70 108 144 192 244 295 369 425
#     4   9  23  45  74 108 140 190 246 304 357 424
#
# _framework density 24.114709000000001
#
# number of rings (size 3 to 8) (size 9 to 14) (size 15 to 20)
#    1.000    0.333    1.667    3.000    0.000    6.000 
#    0.000    3.333    0.000    0.000    0.000    0.000 
#    0.000    0.000    0.000    0.000    0.000    0.000 
#
# Total GULP energy -66972.060372 kJ/mol
# GULP energy per Si atom -5581.005031 kJ/mol
# Density = 2.405982 g / cm^3
# Si number density = 24.114709 Si / 1000 Ang^3
#
#
#
# Elastic Constant Matrix: (Units=GPa)
#
#
# Indices 1 2 3 4 5 6 
#
# 1 124.6411 37.3215 50.7278 -30.6279 -11.8501 0.3751
# 2 37.3215 88.8041 24.5046 -19.6276 -11.9613 -8.4991
# 3 50.7278 24.5046 112.9503 -20.5056 -17.3215 4.6381
# 4 -30.6279 -19.6276 -20.5056 37.5898 -3.7037 0.4160
# 5 -11.8501 -11.9613 -17.3215 -3.7037 41.7561 -7.1222
# 6 0.3751 -8.4991 4.6381 0.4160 -7.1222 49.7653
#
#
#
# Elastic Compliance Matrix: (Units=1/GPa)
#
#
# Indices 1 2 3 4 5 6 
#
# 1 0.011949 -0.002308 -0.003308 0.006921 0.001980 0.000050
# 2 -0.002308 0.014546 -0.000524 0.005822 0.004344 0.003123
# 3 -0.003308 -0.000524 0.011802 0.003874 0.004045 -0.000618
# 4 0.006921 0.005822 0.003874 0.038255 0.008894 0.001534
# 5 0.001980 0.004344 0.004045 0.008894 0.028976 0.004422
# 6 0.000050 0.003123 -0.000618 0.001534 0.004422 0.021305
#
#
# Mechanical properties :
#
#
# Convention : Reuss Voigt Hill
#
# Bulk Modulus (GPa) = 38.43630 61.27814 49.85722
# Shear Modulus (GPa) = 33.83267 40.07834 36.95551
#
# Velocity S-wave (km/s) = 3.74971 4.08117 3.91895
# Velocity P-wave (km/s) = 5.89243 6.90465 6.41852
#
# Compressibility (1/GPa) = 0.02601707
#
# Stress axis : x y z
#
# Youngs Moduli (GPa) = 83.68792 68.74647 84.73239
#
# Poissons Ratio (x) = 0.15866 0.28027
# Poissons Ratio (y) = 0.19314 0.04444
# Poissons Ratio (z) = 0.27681 0.03605
#
# Static dielectric constant tensor:
#      x y z
#    x 1.973020 0.017960 -0.056610 
#    y 0.017960 2.044170 0.036460 
#    z -0.056610 0.036460 1.963770 
# 
# From -- ./inp_files/324369.got.cif
#   From: 2010.05.17/outbox.cif.g08.bks.cpg/sg2_163_cif.got.tgz:324369.got - 2010.06.03 11:33:40.
