data_PCOD9048464
_publ_section_title
;
Structure prediction by ZEFSAII (Michael W. Deem and Ramdas Pophale) SiO2 
 PCOD9048464
Probable space group: P -1
;
_chemical_formula_sum "Si O2"
_cell_formula_units_Z 16
_cell_length_a 12.136273
_cell_length_b 8.886041
_cell_length_c 11.063984
_cell_angle_alpha 108.605812
_cell_angle_beta 51.376781
_cell_angle_gamma 134.849247
_cell_volume 644.886906
_symmetry_space_group_name_H-M "P -1"
_symmetry_group_IT_number 2
_symmetry_cell_setting 'triclinic'
loop_
_space_group_symop_operation_xyz
x,y,z
-x,-y,-z
loop_
_atom_site_type_symbol
_atom_site_label
_atom_site_fract_x
_atom_site_fract_y
_atom_site_fract_z
Si Si1 0.403175 0.088035 0.123440
Si Si2 0.705907 0.525019 0.627650
Si Si3 0.949421 0.699134 0.892973
Si Si4 0.028125 0.617041 0.304051
Si Si5 0.388629 0.082646 0.602989
Si Si6 0.445722 0.318423 0.380028
Si Si7 0.216398 0.192555 0.129477
Si Si8 0.125490 0.307532 0.783050
O O1 0.501743 0.257355 0.207532
O O2 0.368276 0.171378 0.051614
O O3 0.196375 0.875414 0.264437
O O4 0.500000 0.000000 0.000000
O O5 0.510117 0.283243 0.665963
O O6 0.707208 0.672938 0.567593
O O7 0.735178 0.635640 0.761620
O O8 0.877794 0.531464 0.491721
O O9 0.892349 0.495061 0.808619
O O10 0.808888 0.735209 0.959668
O O11 0.169112 0.898307 0.750571
O O12 0.943623 0.686951 0.037292
O O13 0.906902 0.574312 0.257339
O O14 0.392621 0.161094 0.485610
O O15 0.500000 0.000000 0.500000
O O16 0.648836 0.558756 0.334188
O O17 0.010982 0.945125 0.222627
#
# Coordination Sequence:
#
# PCOD9048464 Si02
#       8
#     2   2   2   2   2   2   2   2
#     4  10  24  45  69 101 136 183 235 283 346 415
#     4  11  24  46  69 105 137 182 237 278 346 414
#     4  12  25  44  71 104 143 179 230 288 349 405
#     4  11  24  43  72  99 139 185 230 283 343 414
#     4  12  25  43  67 109 139 179 227 290 344 397
#     4  11  24  44  75  99 138 184 236 284 333 420
#     4  10  26  43  72 100 138 183 226 292 345 406
#     4  11  23  47  70 101 134 190 233 276 344 418
#
# _framework density 24.810551
#
# number of rings (size 3 to 8) (size 9 to 14) (size 15 to 20)
#    0.000    1.000    2.500    2.625    5.250    7.000 
#    0.000   10.000    0.000    0.000    0.000    0.000 
#    0.000    0.000    0.000    0.000    0.000    0.000 
#
# Total GULP energy -89594.734089 kJ/mol
# GULP energy per Si atom -5599.670881 kJ/mol
# Density = 2.475408 g / cm^3
# Si number density = 24.810551 Si / 1000 Ang^3
#
#
#
# Elastic Constant Matrix: (Units=GPa)
#
#
# Indices 1 2 3 4 5 6 
#
# 1 99.0488 13.5034 25.8154 12.8087 -19.5402 -14.5100
# 2 13.5034 99.1317 10.3045 11.8855 -2.9271 4.1624
# 3 25.8154 10.3045 69.9681 7.7343 -11.9599 -8.4492
# 4 12.8087 11.8855 7.7343 39.7542 -4.3299 -7.6056
# 5 -19.5402 -2.9271 -11.9599 -4.3299 19.8552 11.2170
# 6 -14.5100 4.1624 -8.4492 -7.6056 11.2170 40.8644
#
#
#
# Elastic Compliance Matrix: (Units=1/GPa)
#
#
# Indices 1 2 3 4 5 6 
#
# 1 0.013411 -0.001030 -0.002655 -0.002162 0.010372 0.001068
# 2 -0.001030 0.010831 -0.001056 -0.003097 0.000651 -0.002443
# 3 -0.002655 -0.001056 0.016788 -0.001254 0.006761 0.000547
# 4 -0.002162 -0.003097 -0.001254 0.027892 0.000251 0.004411
# 5 0.010372 0.000651 0.006761 0.000251 0.073303 -0.015060
# 6 0.001068 -0.002443 0.000547 0.004411 -0.015060 0.030167
#
#
# Mechanical properties :
#
#
# Convention : Reuss Voigt Hill
#
# Bulk Modulus (GPa) = 31.70008 40.82169 36.26089
# Shear Modulus (GPa) = 25.98873 34.66312 30.32592
#
# Velocity S-wave (km/s) = 3.24000 3.74185 3.49993
# Velocity P-wave (km/s) = 5.17701 5.92939 5.56593
#
# Compressibility (1/GPa) = 0.03154566
#
# Stress axis : x y z
#
# Youngs Moduli (GPa) = 74.56688 92.32903 59.56694
#
# Poissons Ratio (x) = 0.09511 0.15818
# Poissons Ratio (y) = 0.07681 0.06292
# Poissons Ratio (z) = 0.19801 0.09753
#
# Static dielectric constant tensor:
#      x y z
#    x 1.942490 -0.003860 0.000910 
#    y -0.003860 1.952910 -0.010930 
#    z 0.000910 -0.010930 1.995900 
# 
# From -- ./inp_files/261537.got.cif
#   From: 2010.05.17/outbox.cif.g08.bks.cpg/sg2_131_cif.got.tgz:261537.got - 2010.06.03 11:33:40.
