data_PCOD9048206
_publ_section_title
;
Structure prediction by ZEFSAII (Michael W. Deem and Ramdas Pophale) SiO2 
 PCOD9048206
Probable space group: P -1
;
_chemical_formula_sum "Si O2"
_cell_formula_units_Z 16
_cell_length_a 9.230101
_cell_length_b 11.966638
_cell_length_c 14.716638
_cell_angle_alpha 127.078091
_cell_angle_beta 137.044795
_cell_angle_gamma 81.143554
_cell_volume 750.230904
_symmetry_space_group_name_H-M "P -1"
_symmetry_group_IT_number 2
_symmetry_cell_setting 'triclinic'
loop_
_space_group_symop_operation_xyz
x,y,z
-x,-y,-z
loop_
_atom_site_type_symbol
_atom_site_label
_atom_site_fract_x
_atom_site_fract_y
_atom_site_fract_z
Si Si1 0.278320 0.336874 0.371129
Si Si2 0.545404 0.943534 0.089275
Si Si3 0.680752 0.136653 0.580018
Si Si4 0.437497 0.117508 0.273228
Si Si5 0.502906 0.665027 0.331112
Si Si6 0.129839 0.566870 0.463335
Si Si7 0.934525 0.961555 0.558226
Si Si8 0.391470 0.590046 0.785270
O O1 0.500000 0.500000 0.500000
O O2 0.244527 0.180164 0.224501
O O3 0.347948 0.313333 0.494390
O O4 0.078814 0.391292 0.318167
O O5 0.397162 0.984057 0.115198
O O6 0.485599 0.758736 0.963070
O O7 0.837806 0.045981 0.298512
O O8 0.500000 0.000000 0.000000
O O9 0.506657 0.077910 0.381827
O O10 0.711205 0.302968 0.716665
O O11 0.500000 0.000000 0.500000
O O12 0.911602 0.114231 0.657787
O O13 0.700127 0.285674 0.452553
O O14 0.680550 0.799359 0.401653
O O15 0.434261 0.484940 0.178958
O O16 0.300304 0.608607 0.652458
O O17 0.869239 0.547285 0.356238
O O18 0.000000 0.000000 0.500000
#
# Coordination Sequence:
#
# PCOD9048206 Si02
#       8
#     2   2   2   2   2   2   2   2
#     4   8  16  29  55  85 114 151 202 247 290 353
#     4  12  24  36  57  92 128 153 192 254 304 350
#     4   9  19  37  65  86 109 154 213 247 283 356
#     4  10  17  34  58  84 114 152 199 245 296 350
#     4   9  19  36  63  88 112 159 208 247 289 360
#     4   9  17  32  56  82 116 159 198 233 296 364
#     4  11  22  39  65  89 117 162 208 242 296 363
#     4  10  20  33  54  87 123 154 192 241 300 354
#
# _framework density 21.326768000000001
#
# number of rings (size 3 to 8) (size 9 to 14) (size 15 to 20)
#    0.000    2.250    2.500    0.750    3.500    0.000 
#    0.000    1.875    0.000    0.000    0.000    0.000 
#    0.000    0.000    0.000    0.000    0.000    0.000 
#
# Total GULP energy -89092.376873 kJ/mol
# GULP energy per Si atom -5568.273555 kJ/mol
# Density = 2.127823 g / cm^3
# Si number density = 21.326768 Si / 1000 Ang^3
#
#
#
# Elastic Constant Matrix: (Units=GPa)
#
#
# Indices 1 2 3 4 5 6 
#
# 1 123.7641 53.0776 24.9841 6.7377 -34.1662 -12.9605
# 2 53.0776 87.6781 27.9477 13.9843 -20.9250 -10.3025
# 3 24.9841 27.9477 45.9932 18.4719 -24.0192 -5.5907
# 4 6.7377 13.9843 18.4719 31.6123 -15.0997 -14.3221
# 5 -34.1662 -20.9250 -24.0192 -15.0997 30.7055 12.3168
# 6 -12.9605 -10.3025 -5.5907 -14.3221 12.3168 65.0224
#
#
#
# Elastic Compliance Matrix: (Units=1/GPa)
#
#
# Indices 1 2 3 4 5 6 
#
# 1 0.014808 -0.006666 0.002077 0.006742 0.016717 0.000392
# 2 -0.006666 0.017650 -0.007248 -0.003239 -0.002927 0.000686
# 3 0.002077 -0.007248 0.043543 -0.011656 0.027622 -0.004790
# 4 0.006742 -0.003239 -0.011656 0.050429 0.017953 0.007535
# 5 0.016717 -0.002927 0.027622 0.017953 0.082163 -0.006366
# 6 0.000392 0.000686 -0.004790 0.007535 -0.006366 0.018020
#
#
# Mechanical properties :
#
#
# Convention : Reuss Voigt Hill
#
# Bulk Modulus (GPa) = 19.11103 52.16159 35.63631
# Shear Modulus (GPa) = 18.67549 35.56310 27.11930
#
# Velocity S-wave (km/s) = 2.96240 4.08797 3.56983
# Velocity P-wave (km/s) = 4.54771 6.84057 5.80840
#
# Compressibility (1/GPa) = 0.05232580
#
# Stress axis : x y z
#
# Youngs Moduli (GPa) = 67.52883 56.65786 22.96596
#
# Poissons Ratio (x) = 0.37769 -0.04770
# Poissons Ratio (y) = 0.45015 0.16646
# Poissons Ratio (z) = -0.14024 0.41067
#
# Static dielectric constant tensor:
#      x y z
#    x 1.864130 -0.044750 -0.011710 
#    y -0.044750 1.776550 0.046440 
#    z -0.011710 0.046440 1.789150 
# 
# From -- ./inp_files/354276.got.cif
#   From: 2010.05.17/outbox.cif.g08.bks.cpg/sg2_178_cif.got.tgz:354276.got - 2010.06.03 11:33:40.
