data_PCOD9048882
_publ_section_title
;
Structure prediction by ZEFSAII (Michael W. Deem and Ramdas Pophale) SiO2 
 PCOD9048882
Probable space group: P -1
;
_chemical_formula_sum "Si O2"
_cell_formula_units_Z 15
_cell_length_a 24.747672
_cell_length_b 5.303144
_cell_length_c 6.658917
_cell_angle_alpha 77.597458
_cell_angle_beta 139.472926
_cell_angle_gamma 103.211725
_cell_volume 551.683022
_symmetry_space_group_name_H-M "P -1"
_symmetry_group_IT_number 2
_symmetry_cell_setting 'triclinic'
loop_
_space_group_symop_operation_xyz
x,y,z
-x,-y,-z
loop_
_atom_site_type_symbol
_atom_site_label
_atom_site_fract_x
_atom_site_fract_y
_atom_site_fract_z
Si Si1 0.421180 0.676526 0.483134
Si Si2 0.924194 0.499632 0.030924
Si Si3 0.000000 0.000000 0.500000
Si Si4 0.332653 0.572152 0.626228
Si Si5 0.389817 0.222741 0.164592
Si Si6 0.223940 0.883163 0.462631
Si Si7 0.810921 0.662214 0.997128
Si Si8 0.884401 0.872757 0.547669
O O1 0.413778 0.636665 0.708425
O O2 0.384900 0.420106 0.303142
O O3 0.516299 0.731824 0.666858
O O4 0.376370 0.931657 0.256707
O O5 0.835510 0.377842 0.713956
O O6 0.901313 0.644168 0.147611
O O7 0.945175 0.725345 0.889634
O O8 0.972475 0.254376 0.251071
O O9 0.933290 0.055294 0.488493
O O10 0.315108 0.788955 0.701051
O O11 0.261224 0.542400 0.256528
O O12 0.334036 0.314615 0.808630
O O13 0.213370 0.073803 0.213126
O O14 0.178936 0.989457 0.511675
O O15 0.827068 0.676381 0.273545
#
# Coordination Sequence:
#
# PCOD9048882 Si02
#       8
#     2   2   1   2   2   2   2   2
#     4  10  24  45  74 109 151 194 246 303 362 430
#     4  10  24  46  66  99 129 175 223 290 350 427
#     4  12  24  46  74  96 132 180 232 282 368 430
#     4  11  25  44  74 103 141 194 238 294 365 430
#     4  10  24  46  71 113 150 191 250 303 357 433
#     4  10  24  46  65 100 140 174 233 291 353 423
#     4  10  24  46  65 100 141 176 236 291 357 426
#     4  11  25  46  70  96 138 179 225 299 356 430
#
# _framework density 27.189526999999998
#
# number of rings (size 3 to 8) (size 9 to 14) (size 15 to 20)
#    0.000    1.600    1.333    0.800    5.600    5.333 
#    0.000    4.000    0.000    0.000    0.000    0.000 
#    0.000    0.000    0.000    0.000    0.000    0.000 
#
# Total GULP energy -83761.490312 kJ/mol
# GULP energy per Si atom -5584.099354 kJ/mol
# Density = 2.712764 g / cm^3
# Si number density = 27.189527 Si / 1000 Ang^3
#
#
#
# Elastic Constant Matrix: (Units=GPa)
#
#
# Indices 1 2 3 4 5 6 
#
# 1 185.1845 67.8809 49.0574 -22.3005 -44.5724 -24.5183
# 2 67.8809 115.7236 41.4142 -31.8608 -22.6324 -24.3521
# 3 49.0574 41.4142 105.3917 -2.8653 -23.7721 -26.0498
# 4 -22.3005 -31.8608 -2.8653 44.0849 1.7391 4.5985
# 5 -44.5724 -22.6324 -23.7721 1.7391 42.1130 4.8730
# 6 -24.5183 -24.3521 -26.0498 4.5985 4.8730 44.9542
#
#
#
# Elastic Compliance Matrix: (Units=1/GPa)
#
#
# Indices 1 2 3 4 5 6 
#
# 1 0.008771 -0.002397 -0.001004 0.002159 0.007118 0.001911
# 2 -0.002397 0.014925 -0.002859 0.008863 0.003055 0.003883
# 3 -0.001004 -0.002859 0.013344 -0.002445 0.004408 0.005408
# 4 0.002159 0.008863 -0.002445 0.029742 0.004318 0.001051
# 5 0.007118 0.003055 0.004408 0.004318 0.034782 0.003879
# 6 0.001911 0.003883 0.005408 0.001051 0.003879 0.027996
#
#
# Mechanical properties :
#
#
# Convention : Reuss Voigt Hill
#
# Bulk Modulus (GPa) = 40.78456 80.33387 60.55921
# Shear Modulus (GPa) = 33.27685 42.76023 38.01854
#
# Velocity S-wave (km/s) = 3.50220 3.97000 3.74341
# Velocity P-wave (km/s) = 5.60237 7.11509 6.40356
#
# Compressibility (1/GPa) = 0.02451908
#
# Stress axis : x y z
#
# Youngs Moduli (GPa) = 114.01438 67.00092 74.93972
#
# Poissons Ratio (x) = 0.16058 0.07526
# Poissons Ratio (y) = 0.27326 0.21429
# Poissons Ratio (z) = 0.11450 0.19159
#
# Static dielectric constant tensor:
#      x y z
#    x 2.115030 -0.109690 0.063230 
#    y -0.109690 2.035330 0.005740 
#    z 0.063230 0.005740 2.100510 
# 
# From -- ./inp_files/7756.got.cif
#   From: 2010.05.17/outbox.cif.g08.bks.cpg/sg2_4_cif.got.tgz:7756.got - 2010.06.03 11:33:40.
