data_PCOD9048643
_publ_section_title
;
Structure prediction by ZEFSAII (Michael W. Deem and Ramdas Pophale) SiO2 
 PCOD9048643
Probable space group: P -1
;
_chemical_formula_sum "Si O2"
_cell_formula_units_Z 14
_cell_length_a 7.579115
_cell_length_b 15.377399
_cell_length_c 14.242608
_cell_angle_alpha 26.317453
_cell_angle_beta 56.617333
_cell_angle_gamma 72.046749
_cell_volume 532.314069
_symmetry_space_group_name_H-M "P -1"
_symmetry_group_IT_number 2
_symmetry_cell_setting 'triclinic'
loop_
_space_group_symop_operation_xyz
x,y,z
-x,-y,-z
loop_
_atom_site_type_symbol
_atom_site_label
_atom_site_fract_x
_atom_site_fract_y
_atom_site_fract_z
Si Si1 0.965104 0.630456 0.470562
Si Si2 0.106113 0.094221 0.232988
Si Si3 0.527928 0.424411 0.692742
Si Si4 0.118722 0.698131 0.555202
Si Si5 0.349584 0.975373 0.444731
Si Si6 0.618789 0.859771 0.162400
Si Si7 0.342002 0.621650 0.904361
O O1 0.676031 0.515831 0.657604
O O2 0.000000 0.500000 0.500000
O O3 0.028055 0.562415 0.616312
O O4 0.137936 0.899407 0.142415
O O5 0.888831 0.081062 0.368441
O O6 0.029007 0.883737 0.390525
O O7 0.283263 0.047351 0.295884
O O8 0.252315 0.319001 0.911823
O O9 0.661026 0.651807 0.373345
O O10 0.503770 0.220070 0.829450
O O11 0.410812 0.816624 0.342314
O O12 0.946632 0.553755 0.830725
O O13 0.388089 0.760600 0.658962
O O14 0.572498 0.187823 0.224189
O O15 0.500000 0.500000 0.000000
#
# Coordination Sequence:
#
# PCOD9048643 Si02
#       7
#     2   2   2   2   2   2   2
#     4  12  23  42  68  97 138 186 232 289 352 421
#     4  11  22  44  69 102 137 189 233 290 353 421
#     4  11  23  43  68  98 143 182 235 289 351 432
#     4  12  23  42  68  97 138 182 232 291 353 420
#     4  10  24  45  70  97 143 180 235 295 353 421
#     4  11  24  42  65 102 139 185 235 290 354 420
#     4  11  23  45  69 104 135 182 235 295 354 424
#
# _framework density 26.300263000000001
#
# number of rings (size 3 to 8) (size 9 to 14) (size 15 to 20)
#    0.000    0.857    4.286    3.429    0.000    0.571 
#    5.143    0.000    0.000    0.000    0.000    0.000 
#    0.000    0.000    0.000    0.000    0.000    0.000 
#
# Total GULP energy -78068.934412 kJ/mol
# GULP energy per Si atom -5576.352458 kJ/mol
# Density = 2.624040 g / cm^3
# Si number density = 26.300263 Si / 1000 Ang^3
#
#
#
# Elastic Constant Matrix: (Units=GPa)
#
#
# Indices 1 2 3 4 5 6 
#
# 1 86.3375 11.4738 20.3988 -6.7863 8.4656 3.5778
# 2 11.4738 83.2312 30.3823 -2.0473 -6.1859 -3.5243
# 3 20.3988 30.3823 194.1919 -9.1178 -3.1272 -1.9006
# 4 -6.7863 -2.0473 -9.1178 34.8156 0.2732 -0.5009
# 5 8.4656 -6.1859 -3.1272 0.2732 43.8030 -3.2330
# 6 3.5778 -3.5243 -1.9006 -0.5009 -3.2330 34.4851
#
#
#
# Elastic Compliance Matrix: (Units=1/GPa)
#
#
# Indices 1 2 3 4 5 6 
#
# 1 0.012556 -0.001589 -0.001036 0.002080 -0.002868 -0.001761
# 2 -0.001589 0.013132 -0.001838 -0.000013 0.002149 0.001607
# 3 -0.001036 -0.001838 0.005609 0.001160 0.000354 0.000279
# 4 0.002080 -0.000013 0.001160 0.029438 -0.000488 0.000229
# 5 -0.002868 0.002149 0.000354 -0.000488 0.023920 0.002772
# 6 -0.001761 0.001607 0.000279 0.000229 0.002772 0.029623
#
#
# Mechanical properties :
#
#
# Convention : Reuss Voigt Hill
#
# Bulk Modulus (GPa) = 44.70145 54.25225 49.47685
# Shear Modulus (GPa) = 38.26649 42.72112 40.49381
#
# Velocity S-wave (km/s) = 3.81857 4.03471 3.92812
# Velocity P-wave (km/s) = 6.03949 6.50984 6.27907
#
# Compressibility (1/GPa) = 0.02237064
#
# Stress axis : x y z
#
# Youngs Moduli (GPa) = 79.64247 76.14889 178.29015
#
# Poissons Ratio (x) = 0.12102 0.18472
# Poissons Ratio (y) = 0.12657 0.32768
# Poissons Ratio (z) = 0.08252 0.13995
#
# Static dielectric constant tensor:
#      x y z
#    x 2.802220 -0.062060 -0.129200 
#    y -0.062060 2.147260 -0.034520 
#    z -0.129200 -0.034520 2.100280 
# 
# From -- ./inp_files/504896.got.cif
#   From: 2010.05.17/outbox.cif.g08.bks.cpg/sg2_253_cif.got.tgz:504896.got - 2010.06.03 11:33:40.
