data_PCOD9048002
_publ_section_title
;
Structure prediction by ZEFSAII (Michael W. Deem and Ramdas Pophale) SiO2 
 PCOD9048002
Probable space group: P -1
;
_chemical_formula_sum "Si O2"
_cell_formula_units_Z 16
_cell_length_a 9.892927
_cell_length_b 12.384972
_cell_length_c 21.640989
_cell_angle_alpha 153.816033
_cell_angle_beta 132.825345
_cell_angle_gamma 36.527826
_cell_volume 687.718662
_symmetry_space_group_name_H-M "P -1"
_symmetry_group_IT_number 2
_symmetry_cell_setting 'triclinic'
loop_
_space_group_symop_operation_xyz
x,y,z
-x,-y,-z
loop_
_atom_site_type_symbol
_atom_site_label
_atom_site_fract_x
_atom_site_fract_y
_atom_site_fract_z
Si Si1 0.095382 0.300171 0.489068
Si Si2 0.122592 0.552173 0.304085
Si Si3 0.774330 0.252399 0.447560
Si Si4 0.460195 0.338336 0.699585
Si Si5 0.803995 0.793876 0.128512
Si Si6 0.493328 0.755142 0.834855
Si Si7 0.317600 0.404556 0.829479
Si Si8 0.611888 0.098026 0.877640
O O1 0.279015 0.321875 0.594512
O O2 0.000000 0.500000 0.500000
O O3 0.879592 0.379211 0.501751
O O4 0.268089 0.934451 0.348079
O O5 0.116295 0.777407 0.467029
O O6 0.283858 0.475990 0.256366
O O7 0.889065 0.620210 0.242729
O O8 0.235951 0.237906 0.218581
O O9 0.500000 0.500000 0.500000
O O10 0.836353 0.948232 0.276665
O O11 0.448424 0.597748 0.792784
O O12 0.374680 0.376829 0.761584
O O13 0.617734 0.740808 0.067734
O O14 0.698801 0.062706 0.183432
O O15 0.000000 0.500000 0.000000
O O16 0.500000 0.000000 0.000000
O O17 0.519704 0.146714 0.804189
O O18 0.271410 0.726870 0.996879
#
# Coordination Sequence:
#
# PCOD9048002 Si02
#       8
#     2   2   2   2   2   2   2   2
#     4  11  27  46  74 106 153 202 246 321 390 461
#     4  11  24  48  73 108 147 202 254 319 381 456
#     4  12  24  48  76 110 148 200 261 316 382 459
#     4  11  25  48  70 115 148 196 263 309 390 465
#     4  11  26  47  75 108 150 201 256 313 393 460
#     4  11  25  46  74 107 156 197 255 321 378 464
#     4  11  24  45  71 109 148 194 253 315 378 466
#     4  10  24  44  72 105 148 197 255 311 378 460
#
# _framework density 23.265328
#
# number of rings (size 3 to 8) (size 9 to 14) (size 15 to 20)
#    0.000    1.000    3.750    2.625    7.000    0.000 
#    4.500    1.250    0.000    0.000    0.000    0.000 
#    0.000    0.000    0.000    0.000    0.000    0.000 
#
# Total GULP energy -89396.235030 kJ/mol
# GULP energy per Si atom -5587.264689 kJ/mol
# Density = 2.321237 g / cm^3
# Si number density = 23.265328 Si / 1000 Ang^3
#
#
#
# Elastic Constant Matrix: (Units=GPa)
#
#
# Indices 1 2 3 4 5 6 
#
# 1 1082.0295 693.5218 998.0192 -543.9897 125.7134 324.9165
# 2 693.5218 586.9379 693.1403 -389.6777 86.5493 237.1686
# 3 998.0192 693.1403 1100.2245 -578.7554 120.8958 311.1235
# 4 -543.9897 -389.6777 -578.7554 346.9780 -72.7154 -184.1728
# 5 125.7134 86.5493 120.8958 -72.7154 54.3001 41.9638
# 6 324.9165 237.1686 311.1235 -184.1728 41.9638 158.3584
#
#
#
# Elastic Compliance Matrix: (Units=1/GPa)
#
#
# Indices 1 2 3 4 5 6 
#
# 1 0.007354 -0.002219 -0.004153 0.000203 -0.001718 -0.002914
# 2 -0.002219 0.008919 -0.001275 0.002753 -0.000201 -0.003046
# 3 -0.004153 -0.001275 0.010549 0.011180 0.001307 0.002361
# 4 0.000203 0.002753 0.011180 0.029226 0.004531 0.006284
# 5 -0.001718 -0.000201 0.001307 0.004531 0.026190 -0.000414
# 6 -0.002914 -0.003046 0.002361 0.006284 -0.000414 0.019635
#
#
# Mechanical properties :
#
#
# Convention : Reuss Voigt Hill
#
# Bulk Modulus (GPa) = 86.74137 837.61716 462.17927
# Shear Modulus (GPa) = 41.31931 137.56136 89.44033
#
# Velocity S-wave (km/s) = 4.21884 7.69776 6.20702
# Velocity P-wave (km/s) = 7.81639 20.97182 15.82582
#
# Compressibility (1/GPa) = 0.01152852
#
# Stress axis : x y z
#
# Youngs Moduli (GPa) = 135.98335 112.12133 94.79436
#
# Poissons Ratio (x) = 0.24879 0.39367
# Poissons Ratio (y) = 0.30174 0.12085
# Poissons Ratio (z) = 0.56473 0.14294
#
# Static dielectric constant tensor:
#      x y z
#    x 1.797030 -0.024720 0.029110 
#    y -0.024720 1.943240 0.059650 
#    z 0.029110 0.059650 2.009650 
# 
# From -- ./inp_files/589731.got.cif
#   From: 2010.05.17/outbox.cif.g08.bks.cpg/sg2_295_cif.got.tgz:589731.got - 2010.06.03 11:33:40.
