data_PCOD9048091
_publ_section_title
;
Structure prediction by ZEFSAII (Michael W. Deem and Ramdas Pophale) SiO2 
 PCOD9048091
Probable space group: P -1
;
_chemical_formula_sum "Si O2"
_cell_formula_units_Z 10
_cell_length_a 9.467921
_cell_length_b 7.853841
_cell_length_c 10.018142
_cell_angle_alpha 127.217932
_cell_angle_beta 47.034223
_cell_angle_gamma 99.058055
_cell_volume 390.402960
_symmetry_space_group_name_H-M "P -1"
_symmetry_group_IT_number 2
_symmetry_cell_setting 'triclinic'
loop_
_space_group_symop_operation_xyz
x,y,z
-x,-y,-z
loop_
_atom_site_type_symbol
_atom_site_label
_atom_site_fract_x
_atom_site_fract_y
_atom_site_fract_z
Si Si1 0.094401 0.185303 0.066284
Si Si2 0.194024 0.838040 0.394712
Si Si3 0.193144 0.232819 0.750700
Si Si4 0.628025 0.699406 0.881441
Si Si5 0.360615 0.380050 0.467996
O O1 0.228320 0.167326 0.103871
O O2 0.882779 0.431332 0.314312
O O3 0.249521 0.195230 0.851452
O O4 0.000000 0.000000 0.000000
O O5 0.229873 0.578671 0.299738
O O6 0.149677 0.010160 0.632074
O O7 0.409626 0.784959 0.146949
O O8 0.000000 0.000000 0.500000
O O9 0.347121 0.229289 0.530949
O O10 0.000000 0.500000 0.000000
O O11 0.570616 0.721957 0.772530
O O12 0.500000 0.500000 0.500000
#
# Coordination Sequence:
#
# PCOD9048091 Si02
#       5
#     2   2   2   2   2
#     4  11  25  47  74 108 154 201 261 315 380 460
#     4  11  25  46  81 111 154 201 259 324 389 456
#     4  10  24  44  73 106 153 198 253 312 383 449
#     4  11  27  48  76 114 155 203 260 317 388 463
#     4  11  26  45  74 110 156 200 256 318 387 461
#
# _framework density 25.614557999999999
#
# number of rings (size 3 to 8) (size 9 to 14) (size 15 to 20)
#    0.000    1.200    0.000    4.200   14.000    3.200 
#    0.000    0.000    0.000    0.000    0.000    0.000 
#    0.000    0.000    0.000    0.000    0.000    0.000 
#
# Total GULP energy -55919.742626 kJ/mol
# GULP energy per Si atom -5591.974263 kJ/mol
# Density = 2.555626 g / cm^3
# Si number density = 25.614558 Si / 1000 Ang^3
#
#
#
# Elastic Constant Matrix: (Units=GPa)
#
#
# Indices 1 2 3 4 5 6 
#
# 1 192.9242 60.0799 75.9057 -1.9036 13.2722 -10.3555
# 2 60.0799 117.2000 69.1219 -2.9545 -3.3737 -0.4243
# 3 75.9057 69.1219 151.0450 5.3662 18.7119 -21.3678
# 4 -1.9036 -2.9545 5.3662 59.2408 -21.1277 -0.0411
# 5 13.2722 -3.3737 18.7119 -21.1277 51.2539 13.7345
# 6 -10.3555 -0.4243 -21.3678 -0.0411 13.7345 41.1110
#
#
#
# Elastic Compliance Matrix: (Units=1/GPa)
#
#
# Indices 1 2 3 4 5 6 
#
# 1 0.006890 -0.002441 -0.001941 -0.000336 -0.001716 0.001275
# 2 -0.002441 0.014554 -0.007565 0.004166 0.007959 -0.007052
# 3 -0.001941 -0.007565 0.013871 -0.005209 -0.009869 0.009934
# 4 -0.000336 0.004166 -0.005209 0.022321 0.013394 -0.007201
# 5 -0.001716 0.007959 -0.009869 0.013394 0.034123 -0.016866
# 6 0.001275 -0.007052 0.009934 -0.007201 -0.016866 0.035364
#
#
# Mechanical properties :
#
#
# Convention : Reuss Voigt Hill
#
# Bulk Modulus (GPa) = 87.55344 96.82049 92.18696
# Shear Modulus (GPa) = 32.29497 47.39193 39.84345
#
# Velocity S-wave (km/s) = 3.55463 4.30606 3.94826
# Velocity P-wave (km/s) = 7.14861 7.91226 7.54011
#
# Compressibility (1/GPa) = 0.01142160
#
# Stress axis : x y z
#
# Youngs Moduli (GPa) = 145.13244 68.70934 72.09346
#
# Poissons Ratio (x) = 0.16770 0.13992
# Poissons Ratio (y) = 0.35424 0.54541
# Poissons Ratio (z) = 0.28167 0.51980
#
# Static dielectric constant tensor:
#      x y z
#    x 2.013160 0.114020 0.027180 
#    y 0.114020 2.086770 0.033320 
#    z 0.027180 0.033320 2.090920 
# 
# From -- ./inp_files/148427.got.cif
#   From: 2010.05.17/outbox.cif.g08.bks.cpg/sg2_75_cif.got.tgz:148427.got - 2010.06.03 11:33:40.
