data_PCOD9048988
_publ_section_title
;
Structure prediction by ZEFSAII (Michael W. Deem and Ramdas Pophale) SiO2 
 PCOD9048988
Probable space group: P -1
;
_chemical_formula_sum "Si O2"
_cell_formula_units_Z 12
_cell_length_a 10.287903
_cell_length_b 7.252304
_cell_length_c 8.652530
_cell_angle_alpha 67.338358
_cell_angle_beta 121.732130
_cell_angle_gamma 84.631549
_cell_volume 469.212338
_symmetry_space_group_name_H-M "P -1"
_symmetry_group_IT_number 2
_symmetry_cell_setting 'triclinic'
loop_
_space_group_symop_operation_xyz
x,y,z
-x,-y,-z
loop_
_atom_site_type_symbol
_atom_site_label
_atom_site_fract_x
_atom_site_fract_y
_atom_site_fract_z
Si Si1 0.321363 0.654099 0.765654
Si Si2 0.163531 0.366382 0.893840
Si Si3 0.009580 0.815113 0.947948
Si Si4 0.680506 0.822024 0.642318
Si Si5 0.585678 0.592626 0.395128
Si Si6 0.718083 0.076662 0.078011
O O1 0.333718 0.604306 0.608392
O O2 0.290164 0.880334 0.757529
O O3 0.500000 0.500000 0.000000
O O4 0.178495 0.567059 0.753388
O O5 0.002915 0.374210 0.887911
O O6 0.291369 0.311591 0.135458
O O7 0.214536 0.164699 0.871094
O O8 0.838123 0.890272 0.724231
O O9 0.165580 0.799500 0.951147
O O10 0.000000 0.000000 0.000000
O O11 0.684755 0.696744 0.528760
O O12 0.500000 0.000000 0.500000
O O13 0.500000 0.500000 0.500000
O O14 0.458210 0.790099 0.152659
#
# Coordination Sequence:
#
# PCOD9048988 Si02
#       6
#     2   2   2   2   2   2
#     4  10  22  36  55  86 117 151 195 240 283 349
#     4   9  19  36  60  86 111 149 201 225 290 343
#     4   8  17  33  61  86 112 152 198 224 282 359
#     4  10  17  34  59  88 111 147 189 240 285 332
#     4  11  22  38  55  84 118 146 198 247 289 337
#     4  10  19  39  61  82 118 156 191 236 283 351
#
# _framework density 25.574774000000001
#
# number of rings (size 3 to 8) (size 9 to 14) (size 15 to 20)
#    1.000    1.333    1.667    2.000    0.000    3.333 
#    3.000    0.833    0.000    2.000    0.000    0.000 
#    0.000    0.000    0.000    0.000    0.000    0.000 
#
# Total GULP energy -67000.780536 kJ/mol
# GULP energy per Si atom -5583.398378 kJ/mol
# Density = 2.551657 g / cm^3
# Si number density = 25.574774 Si / 1000 Ang^3
#
#
#
# Elastic Constant Matrix: (Units=GPa)
#
#
# Indices 1 2 3 4 5 6 
#
# 1 75.2404 40.8909 39.7326 27.1892 4.8673 5.9921
# 2 40.8909 179.0171 78.5147 62.4868 -2.2029 -21.8468
# 3 39.7326 78.5147 105.3321 52.6394 6.0938 -9.8680
# 4 27.1892 62.4868 52.6394 61.4104 -7.0257 -10.7598
# 5 4.8673 -2.2029 6.0938 -7.0257 51.7292 12.0715
# 6 5.9921 -21.8468 -9.8680 -10.7598 12.0715 44.4885
#
#
#
# Elastic Compliance Matrix: (Units=1/GPa)
#
#
# Indices 1 2 3 4 5 6 
#
# 1 0.018168 -0.001605 -0.004214 -0.003730 -0.000645 -0.004897
# 2 -0.001605 0.009918 -0.003537 -0.005879 -0.000513 0.003020
# 3 -0.004214 -0.003537 0.020063 -0.011937 -0.004090 0.001503
# 4 -0.003730 -0.005879 -0.011937 0.035148 0.005841 0.001883
# 5 -0.000645 -0.000513 -0.004090 0.005841 0.021956 -0.005617
# 6 -0.004897 0.003020 0.001503 0.001883 -0.005617 0.026933
#
#
# Mechanical properties :
#
#
# Convention : Reuss Voigt Hill
#
# Bulk Modulus (GPa) = 33.97076 75.31844 54.64460
# Shear Modulus (GPa) = 31.11164 44.88906 38.00035
#
# Velocity S-wave (km/s) = 3.49162 4.19407 3.85886
# Velocity P-wave (km/s) = 5.43755 7.27790 6.42397
#
# Compressibility (1/GPa) = 0.02943708
#
# Stress axis : x y z
#
# Youngs Moduli (GPa) = 55.04141 100.82281 49.84368
#
# Poissons Ratio (x) = 0.16185 0.21004
# Poissons Ratio (y) = 0.08836 0.17629
# Poissons Ratio (z) = 0.23194 0.35659
#
# Static dielectric constant tensor:
#      x y z
#    x 2.170470 -0.071140 -0.068530 
#    y -0.071140 1.942320 0.027390 
#    z -0.068530 0.027390 2.141720 
# 
# From -- ./inp_files/231262.got.cif
#   From: 2010.05.17/outbox.cif.g08.bks.cpg/sg2_116_cif.got.tgz:231262.got - 2010.06.03 11:33:40.
