data_PCOD9048628
_publ_section_title
;
Structure prediction by ZEFSAII (Michael W. Deem and Ramdas Pophale) SiO2 
 PCOD9048628
Probable space group: P -1
;
_chemical_formula_sum "Si O2"
_cell_formula_units_Z 16
_cell_length_a 21.301966
_cell_length_b 9.495770
_cell_length_c 15.184116
_cell_angle_alpha 44.626146
_cell_angle_beta 18.865761
_cell_angle_gamma 46.254442
_cell_volume 695.475713
_symmetry_space_group_name_H-M "P -1"
_symmetry_group_IT_number 2
_symmetry_cell_setting 'triclinic'
loop_
_space_group_symop_operation_xyz
x,y,z
-x,-y,-z
loop_
_atom_site_type_symbol
_atom_site_label
_atom_site_fract_x
_atom_site_fract_y
_atom_site_fract_z
Si Si1 0.520269 0.562437 0.662482
Si Si2 0.854071 0.554300 0.587923
Si Si3 0.855128 0.506639 0.926893
Si Si4 0.595612 0.204850 0.127689
Si Si5 0.611290 0.932785 0.692499
Si Si6 0.322829 0.609980 0.628925
Si Si7 0.637928 0.159117 0.787011
Si Si8 0.929110 0.920743 0.723897
O O1 0.471504 0.758450 0.699001
O O2 0.686070 0.536486 0.378411
O O3 0.572898 0.378428 0.740439
O O4 0.322613 0.521618 0.890976
O O5 0.777646 0.788062 0.582816
O O6 0.000000 0.500000 0.500000
O O7 0.959500 0.506954 0.376192
O O8 0.676203 0.414761 0.895815
O O9 0.837498 0.718610 0.905863
O O10 0.848180 0.359631 0.085415
O O11 0.415472 0.136991 0.340806
O O12 0.778120 0.048499 0.929864
O O13 0.633558 0.169396 0.561451
O O14 0.412299 0.872104 0.030034
O O15 0.500000 0.500000 0.500000
O O16 0.863951 0.116736 0.485557
O O17 0.500000 0.000000 0.000000
O O18 0.000000 0.000000 0.500000
#
# Coordination Sequence:
#
# PCOD9048628 Si02
#       8
#     2   2   2   2   2   2   2   2
#     4  11  23  42  68  97 134 180 227 284 339 405
#     4  12  24  39  72 106 141 168 221 299 354 397
#     4  11  23  46  68  95 140 181 232 271 344 416
#     4  12  24  39  67 107 137 168 224 296 351 394
#     4  12  24  42  69 102 139 181 232 279 352 410
#     4  10  24  45  70  90 131 199 233 269 332 423
#     4  12  23  38  71 100 135 170 230 286 343 405
#     4  12  24  39  68 103 136 174 223 289 350 404
#
# _framework density 23.005834
#
# number of rings (size 3 to 8) (size 9 to 14) (size 15 to 20)
#    0.000    0.500    6.250    2.625    3.500    0.500 
#    0.000    6.250    0.000    0.000    0.000    0.000 
#    0.000    0.000    0.000    0.000    0.000    0.000 
#
# Total GULP energy -89347.492255 kJ/mol
# GULP energy per Si atom -5584.218266 kJ/mol
# Density = 2.295347 g / cm^3
# Si number density = 23.005834 Si / 1000 Ang^3
#
#
#
# Elastic Constant Matrix: (Units=GPa)
#
#
# Indices 1 2 3 4 5 6 
#
# 1 99.4418 54.5825 39.3896 22.2800 14.5227 27.5003
# 2 54.5825 111.6573 19.9919 31.2631 9.6024 9.2457
# 3 39.3896 19.9919 56.0480 20.3364 22.5600 5.1142
# 4 22.2800 31.2631 20.3364 32.8072 3.4499 4.5211
# 5 14.5227 9.6024 22.5600 3.4499 46.3996 1.2649
# 6 27.5003 9.2457 5.1142 4.5211 1.2649 40.3544
#
#
#
# Elastic Compliance Matrix: (Units=1/GPa)
#
#
# Indices 1 2 3 4 5 6 
#
# 1 0.022454 -0.008417 -0.013026 0.002378 0.001198 -0.012026
# 2 -0.008417 0.015618 0.005765 -0.012881 -0.002523 0.002949
# 3 -0.013026 0.005765 0.036785 -0.018751 -0.013755 0.005426
# 4 0.002378 -0.012881 -0.018751 0.052334 0.007212 -0.002382
# 5 0.001198 -0.002523 -0.013755 0.007212 0.027855 -0.000176
# 6 -0.012026 0.002949 0.005426 -0.002382 -0.000176 0.031885
#
#
# Mechanical properties :
#
#
# Convention : Reuss Voigt Hill
#
# Bulk Modulus (GPa) = 22.98793 55.00836 38.99814
# Shear Modulus (GPa) = 21.47887 34.12446 27.80167
#
# Velocity S-wave (km/s) = 3.05885 3.85554 3.48006
# Velocity P-wave (km/s) = 4.74229 6.61685 5.75639
#
# Compressibility (1/GPa) = 0.04350109
#
# Stress axis : x y z
#
# Youngs Moduli (GPa) = 44.53589 64.02956 27.18518
#
# Poissons Ratio (x) = 0.53894 0.35410
# Poissons Ratio (y) = 0.37486 -0.15672
# Poissons Ratio (z) = 0.58010 -0.36913
#
# Static dielectric constant tensor:
#      x y z
#    x 1.944570 0.000680 0.064260 
#    y 0.000680 1.883410 0.014880 
#    z 0.064260 0.014880 2.045530 
# 
# From -- ./inp_files/297678.got.cif
#   From: 2010.05.17/outbox.cif.g08.bks.cpg/sg2_149_cif.got.tgz:297678.got - 2010.06.03 11:33:40.
