data_PCOD9048007
_publ_section_title
;
Structure prediction by ZEFSAII (Michael W. Deem and Ramdas Pophale) SiO2 
 PCOD9048007
Probable space group: P -1
;
_chemical_formula_sum "Si O2"
_cell_formula_units_Z 10
_cell_length_a 21.716893
_cell_length_b 5.117970
_cell_length_c 4.979485
_cell_angle_alpha 125.713692
_cell_angle_beta 120.331191
_cell_angle_gamma 59.047664
_cell_volume 368.339139
_symmetry_space_group_name_H-M "P -1"
_symmetry_group_IT_number 2
_symmetry_cell_setting 'triclinic'
loop_
_space_group_symop_operation_xyz
x,y,z
-x,-y,-z
loop_
_atom_site_type_symbol
_atom_site_label
_atom_site_fract_x
_atom_site_fract_y
_atom_site_fract_z
Si Si1 0.649249 0.550404 0.015729
Si Si2 0.448805 0.859270 0.494097
Si Si3 0.052729 0.685513 0.087973
Si Si4 0.840364 0.983656 0.209043
Si Si5 0.260637 0.944268 0.473933
O O1 0.583975 0.873536 0.180980
O O2 0.715769 0.718090 0.308985
O O3 0.619644 0.237605 0.863929
O O4 0.672404 0.393900 0.671520
O O5 0.500000 0.500000 0.500000
O O6 0.500000 0.000000 0.500000
O O7 0.103033 0.809293 0.483395
O O8 0.111605 0.406302 0.869903
O O9 0.000000 0.500000 0.000000
O O10 0.000000 0.000000 0.000000
O O11 0.770761 0.080376 0.317431
O O12 0.806980 0.024228 0.863161
#
# Coordination Sequence:
#
# PCOD9048007 Si02
#       5
#     2   2   2   2   2
#     4  10  24  44  72 106 146 190 246 300 362 436
#     4  11  24  44  72 106 146 193 242 302 366 433
#     4  12  27  48  76 110 147 194 246 306 370 442
#     4  12  26  48  76 106 150 192 246 304 370 440
#     4  11  25  46  72 110 145 197 244 306 368 437
#
# _framework density 27.148897000000002
#
# number of rings (size 3 to 8) (size 9 to 14) (size 15 to 20)
#    0.000    0.800    0.000    6.000    0.000    9.600 
#    0.000    0.000    0.000    0.000    0.000    0.000 
#    0.000    0.000    0.000    0.000    0.000    0.000 
#
# Total GULP energy -56010.641340 kJ/mol
# GULP energy per Si atom -5601.064134 kJ/mol
# Density = 2.708710 g / cm^3
# Si number density = 27.148897 Si / 1000 Ang^3
#
#
#
# Elastic Constant Matrix: (Units=GPa)
#
#
# Indices 1 2 3 4 5 6 
#
# 1 107.1566 51.3039 56.1094 12.6957 31.7607 7.5396
# 2 51.3039 110.4445 42.6769 31.5810 1.7735 13.6036
# 3 56.1094 42.6769 202.2079 29.3848 49.1774 -1.4927
# 4 12.6957 31.5810 29.3848 55.5149 -22.4893 -2.9517
# 5 31.7607 1.7735 49.1774 -22.4893 75.9842 22.1854
# 6 7.5396 13.6036 -1.4927 -2.9517 22.1854 43.1517
#
#
#
# Elastic Compliance Matrix: (Units=1/GPa)
#
#
# Indices 1 2 3 4 5 6 
#
# 1 0.014849 -0.006220 -0.000769 -0.002144 -0.007016 0.002800
# 2 -0.006220 0.014597 -0.001491 -0.005020 0.003389 -0.005652
# 3 -0.000769 -0.001491 0.008589 -0.006757 -0.008626 0.004874
# 4 -0.002144 -0.005020 -0.006757 0.031131 0.015856 -0.004299
# 5 -0.007016 0.003389 -0.008626 0.015856 0.030609 -0.014793
# 6 0.002800 -0.005652 0.004874 -0.004299 -0.014793 0.031947
#
#
# Mechanical properties :
#
#
# Convention : Reuss Voigt Hill
#
# Bulk Modulus (GPa) = 47.44977 79.99884 63.72430
# Shear Modulus (GPa) = 32.11146 52.91141 42.51143
#
# Velocity S-wave (km/s) = 3.44290 4.41946 3.96139
# Velocity P-wave (km/s) = 5.77238 7.45472 6.66683
#
# Compressibility (1/GPa) = 0.02107492
#
# Stress axis : x y z
#
# Youngs Moduli (GPa) = 67.34354 68.50746 116.42194
#
# Poissons Ratio (x) = 0.42610 0.08956
# Poissons Ratio (y) = 0.41886 0.17362
# Poissons Ratio (z) = 0.05180 0.10217
#
# Static dielectric constant tensor:
#      x y z
#    x 2.114990 -0.136030 0.041360 
#    y -0.136030 2.271370 -0.080460 
#    z 0.041360 -0.080460 2.087610 
# 
# From -- ./inp_files/11597.got.cif
#   From: 2010.05.17/outbox.cif.g08.bks.cpg/sg2_6_cif.got.tgz:11597.got - 2010.06.03 11:33:40.
