data_PCOD9048035
_publ_section_title
;
Structure prediction by ZEFSAII (Michael W. Deem and Ramdas Pophale) SiO2 
 PCOD9048035
Probable space group: P -1
;
_chemical_formula_sum "Si O2"
_cell_formula_units_Z 11
_cell_length_a 8.959030
_cell_length_b 8.658785
_cell_length_c 7.689450
_cell_angle_alpha 102.581532
_cell_angle_beta 73.270511
_cell_angle_gamma 132.204773
_cell_volume 422.905966
_symmetry_space_group_name_H-M "P -1"
_symmetry_group_IT_number 2
_symmetry_cell_setting 'triclinic'
loop_
_space_group_symop_operation_xyz
x,y,z
-x,-y,-z
loop_
_atom_site_type_symbol
_atom_site_label
_atom_site_fract_x
_atom_site_fract_y
_atom_site_fract_z
Si Si1 0.118325 0.931857 0.025211
Si Si2 0.599909 0.891184 0.481672
Si Si3 0.500000 0.500000 0.500000
Si Si4 0.491379 0.675066 0.102990
Si Si5 0.035895 0.258970 0.589867
Si Si6 0.978079 0.542884 0.820044
O O1 0.008805 0.819130 0.214273
O O2 0.103755 0.786406 0.848777
O O3 0.356742 0.125550 0.020162
O O4 0.000000 0.000000 0.000000
O O5 0.488744 0.690501 0.598274
O O6 0.581526 0.762257 0.287159
O O7 0.500000 0.000000 0.500000
O O8 0.834371 0.073038 0.507043
O O9 0.743191 0.658940 0.517621
O O10 0.260117 0.578407 0.157866
O O11 0.500000 0.500000 0.000000
O O12 0.042608 0.452880 0.643180
O O13 0.000000 0.500000 0.000000
#
# Coordination Sequence:
#
# PCOD9048035 Si02
#       6
#     2   2   1   2   2   2
#     4  11  24  45  82 114 155 201 272 329 399 486
#     4  12  29  52  79 123 163 215 271 340 412 487
#     4  12  30  50  82 110 172 210 274 326 416 474
#     4  12  26  48  80 116 157 211 264 336 411 480
#     4  11  27  52  78 118 158 216 271 336 405 487
#     4  10  24  44  72 113 148 199 262 323 399 469
#
# _framework density 26.010508999999999
#
# number of rings (size 3 to 8) (size 9 to 14) (size 15 to 20)
#    0.000    0.727    3.636    1.636    7.636    5.091 
#    0.000    0.000    0.000    0.000    0.000    0.000 
#    0.000    0.000    0.000    0.000    0.000    0.000 
#
# Total GULP energy -61369.246059 kJ/mol
# GULP energy per Si atom -5579.022369 kJ/mol
# Density = 2.595131 g / cm^3
# Si number density = 26.010509 Si / 1000 Ang^3
#
#
#
# Elastic Constant Matrix: (Units=GPa)
#
#
# Indices 1 2 3 4 5 6 
#
# 1 193.3924 75.6683 43.4555 30.1067 -25.1109 37.0252
# 2 75.6683 170.6508 31.2709 48.8670 -19.2650 16.3250
# 3 43.4555 31.2709 89.0772 27.4182 8.7563 -1.3915
# 4 30.1067 48.8670 27.4182 58.6045 -4.5213 -3.0211
# 5 -25.1109 -19.2650 8.7563 -4.5213 52.2548 5.6925
# 6 37.0252 16.3250 -1.3915 -3.0211 5.6925 60.8318
#
#
#
# Elastic Compliance Matrix: (Units=1/GPa)
#
#
# Indices 1 2 3 4 5 6 
#
# 1 0.008438 -0.001750 -0.003698 -0.001068 0.004507 -0.005226
# 2 -0.001750 0.008958 -0.000632 -0.006199 0.002235 -0.001871
# 3 -0.003698 -0.000632 0.015371 -0.005021 -0.005350 0.003024
# 4 -0.001068 -0.006199 -0.005021 0.025298 -0.000146 0.003468
# 5 0.004507 0.002235 -0.005350 -0.000146 0.023630 -0.005684
# 6 -0.005226 -0.001871 0.003024 0.003468 -0.005684 0.020895
#
#
# Mechanical properties :
#
#
# Convention : Reuss Voigt Hill
#
# Bulk Modulus (GPa) = 48.52695 83.76776 66.14736
# Shear Modulus (GPa) = 41.11228 54.51993 47.81611
#
# Velocity S-wave (km/s) = 3.97999 4.58326 4.29224
# Velocity P-wave (km/s) = 6.31012 7.76425 7.07465
#
# Compressibility (1/GPa) = 0.02060710
#
# Stress axis : x y z
#
# Youngs Moduli (GPa) = 118.50835 111.63337 65.05758
#
# Poissons Ratio (x) = 0.19531 0.24061
# Poissons Ratio (y) = 0.20733 0.04112
# Poissons Ratio (z) = 0.43829 0.07056
#
# Static dielectric constant tensor:
#      x y z
#    x 1.732650 0.344290 -0.547970 
#    y 0.344290 1.445260 0.871530 
#    z -0.547970 0.871530 0.844570 
# 
# From -- ./inp_files/151893.got.cif
#   From: 2010.05.17/outbox.cif.g08.bks.cpg/sg2_76_cif.got.tgz:151893.got - 2010.06.03 11:33:40.
