data_PCOD9048419
_publ_section_title
;
Structure prediction by ZEFSAII (Michael W. Deem and Ramdas Pophale) SiO2 
 PCOD9048419
Probable space group: P -1
;
_chemical_formula_sum "Si O2"
_cell_formula_units_Z 16
_cell_length_a 13.421727
_cell_length_b 18.852677
_cell_length_c 9.868956
_cell_angle_alpha 129.608817
_cell_angle_beta 133.301568
_cell_angle_gamma 22.354033
_cell_volume 691.140415
_symmetry_space_group_name_H-M "P -1"
_symmetry_group_IT_number 2
_symmetry_cell_setting 'triclinic'
loop_
_space_group_symop_operation_xyz
x,y,z
-x,-y,-z
loop_
_atom_site_type_symbol
_atom_site_label
_atom_site_fract_x
_atom_site_fract_y
_atom_site_fract_z
Si Si1 0.323075 0.198749 0.178199
Si Si2 0.207972 0.418379 0.749216
Si Si3 0.231821 0.865915 0.931861
Si Si4 0.622926 0.519609 0.215023
Si Si5 0.913847 0.247415 0.393300
Si Si6 0.097497 0.877617 0.316550
Si Si7 0.537998 0.900809 0.526399
Si Si8 0.074786 0.183178 0.759491
O O1 0.376282 0.111496 0.261956
O O2 0.088698 0.410151 0.246566
O O3 0.636422 0.045427 0.253466
O O4 0.187500 0.212498 0.957499
O O5 0.244174 0.490848 0.784773
O O6 0.249059 0.302719 0.560950
O O7 0.475380 0.264786 0.909319
O O8 0.265841 0.739416 0.767488
O O9 0.115962 0.986259 0.840049
O O10 0.000000 0.000000 0.000000
O O11 0.829337 0.362780 0.332762
O O12 0.391546 0.715806 0.317306
O O13 0.500000 0.500000 0.000000
O O14 0.921448 0.283223 0.595384
O O15 0.235900 0.030792 0.413470
O O16 0.112408 0.765305 0.251304
O O17 0.000000 0.000000 0.500000
O O18 0.500000 0.000000 0.500000
#
# Coordination Sequence:
#
# PCOD9048419 Si02
#       8
#     2   2   2   2   2   2   2   2
#     4  10  24  45  68  92 133 190 230 283 335 408
#     4  12  24  42  73 101 139 173 237 292 338 412
#     4  12  22  42  68 104 139 175 225 288 355 415
#     4  12  24  40  71 109 138 177 229 288 354 420
#     4  11  22  42  67  99 139 174 226 283 350 410
#     4  12  25  42  68 101 142 185 222 285 360 415
#     4  11  24  42  68  98 133 180 230 287 342 399
#     4  10  24  45  68  91 144 186 229 278 348 419
#
# _framework density 23.150144000000001
#
# number of rings (size 3 to 8) (size 9 to 14) (size 15 to 20)
#    0.000    0.750    5.000    1.875    3.500    1.500 
#    0.000    0.625    0.000    0.000    0.000    0.000 
#    0.000    0.000    0.000    0.000    0.000    0.000 
#
# Total GULP energy -89432.577190 kJ/mol
# GULP energy per Si atom -5589.536074 kJ/mol
# Density = 2.309745 g / cm^3
# Si number density = 23.150144 Si / 1000 Ang^3
#
#
#
# Elastic Constant Matrix: (Units=GPa)
#
#
# Indices 1 2 3 4 5 6 
#
# 1 41.0033 -11.3408 15.6131 -0.5671 -5.8099 13.7076
# 2 -11.3408 82.8488 21.3617 -4.3039 -12.9154 2.3848
# 3 15.6131 21.3617 142.4882 -17.6808 -12.9469 13.0396
# 4 -0.5671 -4.3039 -17.6808 37.6990 8.8359 -6.4363
# 5 -5.8099 -12.9154 -12.9469 8.8359 33.9865 -6.5820
# 6 13.7076 2.3848 13.0396 -6.4363 -6.5820 38.9760
#
#
#
# Elastic Compliance Matrix: (Units=1/GPa)
#
#
# Indices 1 2 3 4 5 6 
#
# 1 0.031401 0.006116 -0.003379 -0.003366 0.005355 -0.009939
# 2 0.006116 0.014364 -0.002294 -0.000903 0.005580 -0.001469
# 3 -0.003379 -0.002294 0.008273 0.003270 0.000701 -0.000781
# 4 -0.003366 -0.000903 0.003270 0.030167 -0.006743 0.003988
# 5 0.005355 0.005580 0.000701 -0.006743 0.034930 0.002326
# 6 -0.009939 -0.001469 -0.000781 0.003988 0.002326 0.030555
#
#
# Mechanical properties :
#
#
# Convention : Reuss Voigt Hill
#
# Bulk Modulus (GPa) = 18.20717 35.28981 26.74849
# Shear Modulus (GPa) = 29.91972 38.17938 34.04955
#
# Velocity S-wave (km/s) = 3.59893 4.06545 3.83928
# Velocity P-wave (km/s) = 5.01513 6.10853 5.58864
#
# Compressibility (1/GPa) = 0.05492342
#
# Stress axis : x y z
#
# Youngs Moduli (GPa) = 31.84576 69.61762 120.87204
#
# Poissons Ratio (x) = -0.42576 0.40846
# Poissons Ratio (y) = -0.19476 0.27730
# Poissons Ratio (z) = 0.10761 0.15971
#
# Static dielectric constant tensor:
#      x y z
#    x 1.849320 -0.035960 -0.055930 
#    y -0.035960 1.906780 0.014980 
#    z -0.055930 0.014980 1.996590 
# 
# From -- ./inp_files/319501.got.cif
#   From: 2010.05.17/outbox.cif.g08.bks.cpg/sg2_160_cif.got.tgz:319501.got - 2010.06.03 11:33:40.
