data_PCOD9048187
_publ_section_title
;
Structure prediction by ZEFSAII (Michael W. Deem and Ramdas Pophale) SiO2 
 PCOD9048187
Probable space group: P -1
;
_chemical_formula_sum "Si O2"
_cell_formula_units_Z 11
_cell_length_a 9.306306
_cell_length_b 11.300488
_cell_length_c 8.892345
_cell_angle_alpha 45.987926
_cell_angle_beta 45.317398
_cell_angle_gamma 42.955619
_cell_volume 420.605343
_symmetry_space_group_name_H-M "P -1"
_symmetry_group_IT_number 2
_symmetry_cell_setting 'triclinic'
loop_
_space_group_symop_operation_xyz
x,y,z
-x,-y,-z
loop_
_atom_site_type_symbol
_atom_site_label
_atom_site_fract_x
_atom_site_fract_y
_atom_site_fract_z
Si Si1 0.342663 0.632047 0.822353
Si Si2 0.500000 0.500000 0.500000
Si Si3 0.503886 0.140367 0.997488
Si Si4 0.864982 0.393305 0.633375
Si Si5 0.940127 0.569479 0.816637
Si Si6 0.722500 0.011147 0.263171
O O1 0.354146 0.643489 0.623197
O O2 0.278836 0.820876 0.789943
O O3 0.393222 0.517667 0.201704
O O4 0.163805 0.557908 0.060427
O O5 0.508759 0.315966 0.757376
O O6 0.267793 0.224549 0.194558
O O7 0.689912 0.046876 0.075640
O O8 0.500000 0.000000 0.000000
O O9 0.000000 0.500000 0.500000
O O10 0.845771 0.440240 0.423913
O O11 0.044204 0.179021 0.711999
O O12 0.000000 0.500000 0.000000
O O13 0.500000 0.000000 0.500000
#
# Coordination Sequence:
#
# PCOD9048187 Si02
#       6
#     2   1   2   2   2   2
#     4  11  25  52  74 114 160 201 270 333 391 481
#     4  10  24  44  76 100 154 208 248 334 396 448
#     4  11  24  46  76 109 155 205 264 330 397 478
#     4  12  25  45  79 111 158 210 255 327 410 466
#     4  11  26  48  76 110 150 210 262 328 403 471
#     4  12  24  47  78 116 157 209 269 327 400 493
#
# _framework density 26.152782999999999
#
# number of rings (size 3 to 8) (size 9 to 14) (size 15 to 20)
#    0.000    0.727    3.636    3.273    2.545    6.545 
#    6.545    6.364    0.000    0.000    0.000    0.000 
#    0.000    0.000    0.000    0.000    0.000    0.000 
#
# Total GULP energy -61490.572885 kJ/mol
# GULP energy per Si atom -5590.052080 kJ/mol
# Density = 2.609326 g / cm^3
# Si number density = 26.152783 Si / 1000 Ang^3
#
#
#
# Elastic Constant Matrix: (Units=GPa)
#
#
# Indices 1 2 3 4 5 6 
#
# 1 116.1342 66.6886 65.8715 -9.4574 1.7539 29.5465
# 2 66.6886 202.5109 81.9159 -22.9665 -17.3321 25.3180
# 3 65.8715 81.9159 195.4707 28.6516 12.3682 -1.5102
# 4 -9.4574 -22.9665 28.6516 52.0558 -11.1621 -5.3728
# 5 1.7539 -17.3321 12.3682 -11.1621 76.5421 0.7250
# 6 29.5465 25.3180 -1.5102 -5.3728 0.7250 76.3041
#
#
#
# Elastic Compliance Matrix: (Units=1/GPa)
#
#
# Indices 1 2 3 4 5 6 
#
# 1 0.013574 -0.001519 -0.004607 0.004014 0.000718 -0.004568
# 2 -0.001519 0.008360 -0.004147 0.006259 0.003528 -0.001861
# 3 -0.004607 -0.004147 0.009930 -0.008644 -0.003725 0.002783
# 4 0.004014 0.006259 -0.008644 0.028755 0.006933 -0.001843
# 5 0.000718 0.003528 -0.003725 0.006933 0.015471 -0.001181
# 6 -0.004568 -0.001861 0.002783 -0.001843 -0.001181 0.015428
#
#
# Mechanical properties :
#
#
# Convention : Reuss Voigt Hill
#
# Bulk Modulus (GPa) = 88.34394 104.78532 96.56463
# Shear Modulus (GPa) = 43.16442 60.95638 52.06040
#
# Velocity S-wave (km/s) = 4.06701 4.83305 4.46648
# Velocity P-wave (km/s) = 7.47712 8.44382 7.97513
#
# Compressibility (1/GPa) = 0.01131940
#
# Stress axis : x y z
#
# Youngs Moduli (GPa) = 73.66984 119.61838 100.70252
#
# Poissons Ratio (x) = 0.18167 0.46393
# Poissons Ratio (y) = 0.11189 0.41758
# Poissons Ratio (z) = 0.33940 0.49602
#
# Static dielectric constant tensor:
#      x y z
#    x 1.399470 0.701410 0.119660 
#    y 0.701410 1.011040 -0.178340 
#    z 0.119660 -0.178340 2.061660 
# 
# From -- ./inp_files/251219.got.cif
#   From: 2010.05.17/outbox.cif.g08.bks.cpg/sg2_126_cif.got.tgz:251219.got - 2010.06.03 11:33:40.
