data_PCOD9048905
_publ_section_title
;
Structure prediction by ZEFSAII (Michael W. Deem and Ramdas Pophale) SiO2 
 PCOD9048905
Probable space group: P -1
;
_chemical_formula_sum "Si O2"
_cell_formula_units_Z 16
_cell_length_a 5.260876
_cell_length_b 18.596288
_cell_length_c 9.058965
_cell_angle_alpha 130.249250
_cell_angle_beta 77.375610
_cell_angle_gamma 109.101074
_cell_volume 639.158936
_symmetry_space_group_name_H-M "P -1"
_symmetry_group_IT_number 2
_symmetry_cell_setting 'triclinic'
loop_
_space_group_symop_operation_xyz
x,y,z
-x,-y,-z
loop_
_atom_site_type_symbol
_atom_site_label
_atom_site_fract_x
_atom_site_fract_y
_atom_site_fract_z
Si Si1 0.631409 0.689240 0.559698
Si Si2 0.133903 0.913106 0.029938
Si Si3 0.814366 0.236878 0.726736
Si Si4 0.485248 0.200737 0.014411
Si Si5 0.277642 0.586760 0.201595
Si Si6 0.767760 0.613300 0.973808
Si Si7 0.796588 0.565372 0.582661
Si Si8 0.013435 0.888764 0.679004
O O1 0.455830 0.619336 0.369274
O O2 0.851191 0.638682 0.536163
O O3 0.775079 0.791774 0.605828
O O4 0.466238 0.713409 0.754723
O O5 0.171156 0.908606 0.841519
O O6 0.355358 0.875027 0.040380
O O7 0.833665 0.845960 0.007995
O O8 0.112692 0.021018 0.214991
O O9 0.598061 0.228968 0.874077
O O10 0.815789 0.319101 0.712993
O O11 0.812075 0.137831 0.511587
O O12 0.093101 0.284470 0.836670
O O13 0.105142 0.476900 0.111731
O O14 0.470746 0.578860 0.028868
O O15 0.786135 0.622147 0.809862
O O16 0.500000 0.500000 0.500000
O O17 0.000000 0.500000 0.500000
#
# Coordination Sequence:
#
# PCOD9048905 Si02
#       8
#     2   2   2   2   2   2   2   2
#     4  11  24  47  74 108 139 201 244 299 352 440
#     4  10  25  50  73 108 140 194 232 310 364 440
#     4  12  26  41  72 108 143 197 235 309 353 444
#     4  11  27  45  77 104 149 183 245 297 373 430
#     4  11  24  44  70 100 148 190 249 294 357 419
#     4  11  26  43  66 102 146 191 240 299 355 417
#     4  12  29  46  72 103 146 192 243 294 354 418
#     4  10  24  45  75 103 144 183 250 294 369 434
#
# _framework density 25.032896999999998
#
# number of rings (size 3 to 8) (size 9 to 14) (size 15 to 20)
#    0.000    1.000    2.500    1.875   10.500    6.500 
#    0.000    0.000    0.000    0.000    0.000    0.000 
#    0.000    0.000    0.000    0.000    0.000    0.000 
#
# Total GULP energy -89659.928391 kJ/mol
# GULP energy per Si atom -5603.745524 kJ/mol
# Density = 2.497592 g / cm^3
# Si number density = 25.032897 Si / 1000 Ang^3
#
#
#
# Elastic Constant Matrix: (Units=GPa)
#
#
# Indices 1 2 3 4 5 6 
#
# 1 86.5437 34.2615 27.1050 -5.3376 -2.5447 -18.7143
# 2 34.2615 113.5384 48.6834 -6.5669 -5.7462 -19.5571
# 3 27.1050 48.6834 169.5003 -11.0008 -14.8295 -10.3702
# 4 -5.3376 -6.5669 -11.0008 54.4278 2.7175 -4.3297
# 5 -2.5447 -5.7462 -14.8295 2.7175 24.9464 -2.3237
# 6 -18.7143 -19.5571 -10.3702 -4.3297 -2.3237 45.9918
#
#
#
# Elastic Compliance Matrix: (Units=1/GPa)
#
#
# Indices 1 2 3 4 5 6 
#
# 1 0.014077 -0.002972 -0.001019 0.001142 0.000428 0.004364
# 2 -0.002972 0.011414 -0.002461 0.000791 0.001077 0.003218
# 3 -0.001019 -0.002461 0.007162 0.000908 0.003527 0.000418
# 4 0.001142 0.000791 0.000908 0.019031 -0.000979 0.002748
# 5 0.000428 0.001077 0.003527 -0.000979 0.042907 0.003503
# 6 0.004364 0.003218 0.000418 0.002748 0.003503 0.025417
#
#
# Mechanical properties :
#
#
# Convention : Reuss Voigt Hill
#
# Bulk Modulus (GPa) = 50.63079 65.52024 58.07552
# Shear Modulus (GPa) = 35.84350 42.37539 39.10945
#
# Velocity S-wave (km/s) = 3.78809 4.11881 3.95691
# Velocity P-wave (km/s) = 6.27714 6.98928 6.64276
#
# Compressibility (1/GPa) = 0.01975083
#
# Stress axis : x y z
#
# Youngs Moduli (GPa) = 71.03762 87.61156 139.61689
#
# Poissons Ratio (x) = 0.26035 0.14228
# Poissons Ratio (y) = 0.21110 0.34355
# Poissons Ratio (z) = 0.07239 0.21558
#
# Static dielectric constant tensor:
#      x y z
#    x 2.045740 -0.031500 -0.056430 
#    y -0.031500 2.024230 0.006630 
#    z -0.056430 0.006630 1.988020 
# 
# From -- ./inp_files/138193.got.cif
#   From: 2010.05.17/outbox.cif.g08.bks.cpg/sg2_70_cif.got.tgz:138193.got - 2010.06.03 11:33:40.
