data_PCOD9048514
_publ_section_title
;
Structure prediction by ZEFSAII (Michael W. Deem and Ramdas Pophale) SiO2 
 PCOD9048514
Probable space group: P -1
;
_chemical_formula_sum "Si O2"
_cell_formula_units_Z 12
_cell_length_a 4.883484
_cell_length_b 13.901495
_cell_length_c 7.039774
_cell_angle_alpha 71.865847
_cell_angle_beta 72.575217
_cell_angle_gamma 73.936956
_cell_volume 424.368715
_symmetry_space_group_name_H-M "P -1"
_symmetry_group_IT_number 2
_symmetry_cell_setting 'triclinic'
loop_
_space_group_symop_operation_xyz
x,y,z
-x,-y,-z
loop_
_atom_site_type_symbol
_atom_site_label
_atom_site_fract_x
_atom_site_fract_y
_atom_site_fract_z
Si Si1 0.295591 0.420977 0.936715
Si Si2 0.228475 0.038668 0.791406
Si Si3 0.203578 0.124155 0.352895
Si Si4 0.930139 0.776748 0.052685
Si Si5 0.754116 0.358687 0.615085
Si Si6 0.618805 0.671393 0.639966
O O1 0.456490 0.388393 0.122155
O O2 0.193829 0.321228 0.929904
O O3 0.518723 0.446254 0.716693
O O4 0.000000 0.500000 0.000000
O O5 0.091255 0.071670 0.592043
O O6 0.521833 0.955647 0.742785
O O7 0.289448 0.138640 0.830410
O O8 0.000000 0.000000 0.000000
O O9 0.998882 0.168577 0.190111
O O10 0.679554 0.779493 0.639672
O O11 0.176056 0.731283 0.183415
O O12 0.619223 0.319970 0.478952
O O13 0.065712 0.382968 0.479118
#
# Coordination Sequence:
#
# PCOD9048514 Si02
#       6
#     2   2   2   2   2   2
#     4  11  28  50  80 112 148 199 255 314 383 454
#     4  11  24  42  72 107 152 198 252 304 373 442
#     4  10  24  45  69 110 147 198 255 298 371 449
#     4  11  25  48  72 108 154 195 248 316 371 442
#     4  12  25  50  76 109 155 196 251 313 382 440
#     4  11  27  47  79 110 154 200 249 312 378 451
#
# _framework density 28.277296
#
# number of rings (size 3 to 8) (size 9 to 14) (size 15 to 20)
#    0.000    1.000    3.333    0.500    9.333    2.667 
#    6.000    0.000    0.000    0.000    0.000    0.000 
#    0.000    0.000    0.000    0.000    0.000    0.000 
#
# Total GULP energy -67417.938089 kJ/mol
# GULP energy per Si atom -5618.161507 kJ/mol
# Density = 2.821294 g / cm^3
# Si number density = 28.277296 Si / 1000 Ang^3
#
#
#
# Elastic Constant Matrix: (Units=GPa)
#
#
# Indices 1 2 3 4 5 6 
#
# 1 140.3348 43.0409 77.9688 8.8240 19.4009 -10.2046
# 2 43.0409 166.2586 53.1757 46.7264 -3.5062 10.5916
# 3 77.9688 53.1757 290.6808 0.8169 25.7376 -14.9786
# 4 8.8240 46.7264 0.8169 57.6920 -9.3442 -0.5286
# 5 19.4009 -3.5062 25.7376 -9.3442 78.4330 13.5655
# 6 -10.2046 10.5916 -14.9786 -0.5286 13.5655 36.0024
#
#
#
# Elastic Compliance Matrix: (Units=1/GPa)
#
#
# Indices 1 2 3 4 5 6 
#
# 1 0.009325 -0.002125 -0.001717 -0.000045 -0.002444 0.003474
# 2 -0.002125 0.009335 -0.001477 -0.007033 0.001383 -0.004588
# 3 -0.001717 -0.001477 0.004405 0.001200 -0.001342 0.002304
# 4 -0.000045 -0.007033 0.001200 0.023314 0.001689 0.002261
# 5 -0.002444 0.001383 -0.001342 0.001689 0.015340 -0.007414
# 6 0.003474 -0.004588 0.002304 0.002261 -0.007414 0.033895
#
#
# Mechanical properties :
#
#
# Convention : Reuss Voigt Hill
#
# Bulk Modulus (GPa) = 80.46677 105.07164 92.76920
# Shear Modulus (GPa) = 45.29198 62.63142 53.96170
#
# Velocity S-wave (km/s) = 4.00648 4.71138 4.37315
# Velocity P-wave (km/s) = 7.06545 8.17523 7.64052
#
# Compressibility (1/GPa) = 0.01242749
#
# Stress axis : x y z
#
# Youngs Moduli (GPa) = 107.24003 107.12089 227.01137
#
# Poissons Ratio (x) = 0.22766 0.38974
# Poissons Ratio (y) = 0.22791 0.33525
# Poissons Ratio (z) = 0.18411 0.15820
#
# Static dielectric constant tensor:
#      x y z
#    x 2.156980 0.018310 -0.025450 
#    y 0.018310 2.291940 -0.071940 
#    z -0.025450 -0.071940 2.168580 
# 
# From -- ./inp_files/9174.got.cif
#   From: 2010.05.17/outbox.cif.g08.bks.cpg/sg2_5_cif.got.tgz:9174.got - 2010.06.03 11:33:40.
