data_PCOD9048137
_publ_section_title
;
Structure prediction by ZEFSAII (Michael W. Deem and Ramdas Pophale) SiO2 
 PCOD9048137
Probable space group: P -1
;
_chemical_formula_sum "Si O2"
_cell_formula_units_Z 13
_cell_length_a 14.953289
_cell_length_b 9.373192
_cell_length_c 15.426736
_cell_angle_alpha 48.190362
_cell_angle_beta 161.247391
_cell_angle_gamma 128.939872
_cell_volume 518.078032
_symmetry_space_group_name_H-M "P -1"
_symmetry_group_IT_number 2
_symmetry_cell_setting 'triclinic'
loop_
_space_group_symop_operation_xyz
x,y,z
-x,-y,-z
loop_
_atom_site_type_symbol
_atom_site_label
_atom_site_fract_x
_atom_site_fract_y
_atom_site_fract_z
Si Si1 0.069616 0.846030 0.276429
Si Si2 0.535864 0.684443 0.681851
Si Si3 0.707605 0.078994 0.229448
Si Si4 0.337980 0.480658 0.949205
Si Si5 0.225506 0.623255 0.104586
Si Si6 0.000000 0.000000 0.000000
Si Si7 0.710320 0.876684 0.492628
O O1 0.235410 0.795616 0.356499
O O2 0.921006 0.658448 0.249656
O O3 0.235789 0.965177 0.449146
O O4 0.856624 0.984464 0.975305
O O5 0.602109 0.506791 0.753227
O O6 0.774002 0.834072 0.824280
O O7 0.521848 0.613916 0.797939
O O8 0.729420 0.305942 0.168283
O O9 0.630109 0.990321 0.286430
O O10 0.000000 0.000000 0.500000
O O11 0.500000 0.000000 0.000000
O O12 0.500000 0.500000 0.000000
O O13 0.466600 0.722834 0.341839
O O14 0.000000 0.500000 0.000000
O O15 0.013869 0.773320 0.802710
#
# Coordination Sequence:
#
# PCOD9048137 Si02
#       7
#     2   2   2   2   2   1   2
#     4  11  27  47  79 109 153 206 259 323 390 467
#     4  11  25  46  76 107 151 201 259 315 390 461
#     4  12  28  49  78 110 155 205 257 320 388 463
#     4  11  27  47  75 112 152 200 260 320 387 462
#     4  12  29  50  79 115 156 203 260 326 392 465
#     4  10  24  44  74 106 148 190 260 310 388 448
#     4  12  28  50  77 113 156 202 263 318 396 462
#
# _framework density 25.092745000000001
#
# number of rings (size 3 to 8) (size 9 to 14) (size 15 to 20)
#    0.000    0.615    0.000    5.538   19.385    1.231 
#    0.000    0.000    0.000    0.000    0.000    0.000 
#    0.000    0.000    0.000    0.000    0.000    0.000 
#
# Total GULP energy -72628.561563 kJ/mol
# GULP energy per Si atom -5586.812428 kJ/mol
# Density = 2.503563 g / cm^3
# Si number density = 25.092745 Si / 1000 Ang^3
#
#
#
# Elastic Constant Matrix: (Units=GPa)
#
#
# Indices 1 2 3 4 5 6 
#
# 1 151.3287 103.0699 52.1963 14.9517 -5.2405 -12.3938
# 2 103.0699 220.0908 87.7448 29.3828 17.3740 -12.7855
# 3 52.1963 87.7448 135.7085 29.5323 3.7294 -20.7633
# 4 14.9517 29.3828 29.5323 56.2576 1.2663 1.7346
# 5 -5.2405 17.3740 3.7294 1.2663 47.7540 -8.0295
# 6 -12.3938 -12.7855 -20.7633 1.7346 -8.0295 62.7895
#
#
#
# Elastic Compliance Matrix: (Units=1/GPa)
#
#
# Indices 1 2 3 4 5 6 
#
# 1 0.010269 -0.004647 -0.000856 0.000042 0.003084 0.001191
# 2 -0.004647 0.008491 -0.003438 -0.001296 -0.003419 -0.000727
# 3 -0.000856 -0.003438 0.011234 -0.003989 0.000902 0.003071
# 4 0.000042 -0.001296 -0.003989 0.020604 -0.000122 -0.002160
# 5 0.003084 -0.003419 0.000902 -0.000122 0.022986 0.003154
# 6 0.001191 -0.000727 0.003071 -0.002160 0.003154 0.017492
#
#
# Mechanical properties :
#
#
# Convention : Reuss Voigt Hill
#
# Bulk Modulus (GPa) = 82.56976 110.34999 96.45988
# Shear Modulus (GPa) = 44.24876 50.96803 47.60840
#
# Velocity S-wave (km/s) = 4.20385 4.51176 4.36052
# Velocity P-wave (km/s) = 7.51934 8.43881 7.99231
#
# Compressibility (1/GPa) = 0.01211097
#
# Stress axis : x y z
#
# Youngs Moduli (GPa) = 97.37942 117.76799 89.01360
#
# Poissons Ratio (x) = 0.54732 0.07623
# Poissons Ratio (y) = 0.45257 0.30602
# Poissons Ratio (z) = 0.08340 0.40488
#
# Static dielectric constant tensor:
#      x y z
#    x 2.033970 0.035280 -0.132570 
#    y 0.035280 0.782250 1.298670 
#    z -0.132570 1.298670 0.558310 
# 
# From -- ./inp_files/36545.got.cif
#   From: 2010.05.17/outbox.cif.g08.bks.cpg/sg2_19_cif.got.tgz:36545.got - 2010.06.03 11:33:40.
