data_PCOD9048366
_publ_section_title
;
Structure prediction by ZEFSAII (Michael W. Deem and Ramdas Pophale) SiO2 
 PCOD9048366
Probable space group: P -1
;
_chemical_formula_sum "Si O2"
_cell_formula_units_Z 14
_cell_length_a 21.119465
_cell_length_b 6.156988
_cell_length_c 15.240126
_cell_angle_alpha 106.648805
_cell_angle_beta 18.659949
_cell_angle_gamma 104.201562
_cell_volume 605.261443
_symmetry_space_group_name_H-M "P -1"
_symmetry_group_IT_number 2
_symmetry_cell_setting 'triclinic'
loop_
_space_group_symop_operation_xyz
x,y,z
-x,-y,-z
loop_
_atom_site_type_symbol
_atom_site_label
_atom_site_fract_x
_atom_site_fract_y
_atom_site_fract_z
Si Si1 0.580098 0.779358 0.813440
Si Si2 0.166116 0.676485 0.286189
Si Si3 0.475360 0.649636 0.460423
Si Si4 0.299797 0.358056 0.539731
Si Si5 0.979908 0.842086 0.376447
Si Si6 0.814532 0.986157 0.044846
Si Si7 0.974298 0.757429 0.964353
O O1 0.646975 0.818309 0.628399
O O2 0.788237 0.708837 0.583203
O O3 0.391314 0.628143 0.025312
O O4 0.500000 0.000000 0.000000
O O5 0.000000 0.500000 0.500000
O O6 0.131446 0.721061 0.233092
O O7 0.099803 0.918763 0.446865
O O8 0.500000 0.500000 0.500000
O O9 0.478041 0.498226 0.352916
O O10 0.630406 0.834433 0.259786
O O11 0.265412 0.798760 0.765945
O O12 0.129919 0.542967 0.748933
O O13 0.223705 0.285745 0.726379
O O14 0.096776 0.911104 0.145162
O O15 0.963545 0.813602 0.882669
O O16 0.000000 0.000000 0.000000
#
# Coordination Sequence:
#
# PCOD9048366 Si02
#       7
#     2   2   2   2   2   2   2
#     4  10  24  46  70 102 139 182 234 295 352 412
#     4  10  24  46  72  97 131 178 235 287 355 416
#     4  11  24  40  62 104 139 180 233 280 350 427
#     4  11  24  41  69  98 139 186 233 288 342 429
#     4  10  24  45  67  99 136 178 229 295 347 414
#     4  11  24  41  66  98 141 181 223 294 354 411
#     4  11  22  41  63 100 138 180 230 279 353 416
#
# _framework density 23.130497999999999
#
# number of rings (size 3 to 8) (size 9 to 14) (size 15 to 20)
#    0.000    1.429    2.857    0.857    6.000    1.714 
#    2.571    2.857    0.000    0.000    0.000    0.000 
#    0.000    0.000    0.000    0.000    0.000    0.000 
#
# Total GULP energy -77966.571104 kJ/mol
# GULP energy per Si atom -5569.040793 kJ/mol
# Density = 2.307785 g / cm^3
# Si number density = 23.130498 Si / 1000 Ang^3
#
#
#
# Elastic Constant Matrix: (Units=GPa)
#
#
# Indices 1 2 3 4 5 6 
#
# 1 145.0236 41.9765 63.1829 -11.4011 2.2035 16.7287
# 2 41.9765 60.8821 39.7219 -17.4319 -6.1721 5.5784
# 3 63.1829 39.7219 107.5202 -12.6144 -4.4531 4.6999
# 4 -11.4011 -17.4319 -12.6144 31.3424 10.6560 1.2094
# 5 2.2035 -6.1721 -4.4531 10.6560 39.9404 -8.4029
# 6 16.7287 5.5784 4.6999 1.2094 -8.4029 37.8327
#
#
#
# Elastic Compliance Matrix: (Units=1/GPa)
#
#
# Indices 1 2 3 4 5 6 
#
# 1 0.010662 -0.003968 -0.004623 0.000945 -0.002857 -0.004220
# 2 -0.003968 0.026377 -0.006069 0.010705 0.000419 -0.001630
# 3 -0.004623 -0.006069 0.014273 0.000246 0.001140 0.001411
# 4 0.000945 0.010705 0.000246 0.042215 -0.010851 -0.005787
# 5 -0.002857 0.000419 0.001140 -0.010851 0.029979 0.008065
# 6 -0.004220 -0.001630 0.001411 -0.005787 0.008065 0.030340
#
#
# Mechanical properties :
#
#
# Convention : Reuss Voigt Hill
#
# Bulk Modulus (GPa) = 45.46492 67.02095 56.24293
# Shear Modulus (GPa) = 26.24734 33.05939 29.65336
#
# Velocity S-wave (km/s) = 3.37226 3.78465 3.58439
# Velocity P-wave (km/s) = 5.90435 6.93802 6.44195
#
# Compressibility (1/GPa) = 0.02199498
#
# Stress axis : x y z
#
# Youngs Moduli (GPa) = 93.78776 37.91164 70.06023
#
# Poissons Ratio (x) = 0.15042 0.32387
# Poissons Ratio (y) = 0.37211 0.42517
# Poissons Ratio (z) = 0.43356 0.23007
#
# Static dielectric constant tensor:
#      x y z
#    x 1.929490 0.109020 -0.096080 
#    y 0.109020 1.771600 -0.006400 
#    z -0.096080 -0.006400 1.949350 
# 
# From -- ./inp_files/288866.got.cif
#   From: 2010.05.17/outbox.cif.g08.bks.cpg/sg2_145_cif.got.tgz:288866.got - 2010.06.03 11:33:40.
