data_PCOD9048008
_publ_section_title
;
Structure prediction by ZEFSAII (Michael W. Deem and Ramdas Pophale) SiO2 
 PCOD9048008
Probable space group: P -1
;
_chemical_formula_sum "Si O2"
_cell_formula_units_Z 14
_cell_length_a 18.979216
_cell_length_b 5.472731
_cell_length_c 8.442863
_cell_angle_alpha 123.957959
_cell_angle_beta 130.814217
_cell_angle_gamma 53.568623
_cell_volume 512.649763
_symmetry_space_group_name_H-M "P -1"
_symmetry_group_IT_number 2
_symmetry_cell_setting 'triclinic'
loop_
_space_group_symop_operation_xyz
x,y,z
-x,-y,-z
loop_
_atom_site_type_symbol
_atom_site_label
_atom_site_fract_x
_atom_site_fract_y
_atom_site_fract_z
Si Si1 0.008666 0.607334 0.814130
Si Si2 0.838948 0.812242 0.902001
Si Si3 0.724363 0.555586 0.435515
Si Si4 0.764881 0.525530 0.132828
Si Si5 0.514136 0.749623 0.286390
Si Si6 0.086343 0.084993 0.527195
Si Si7 0.438742 0.361601 0.235856
O O1 0.012051 0.267073 0.628209
O O2 0.921558 0.757444 0.866890
O O3 0.977684 0.833325 0.698815
O O4 0.112511 0.490258 0.020966
O O5 0.741049 0.810821 0.669161
O O6 0.815806 0.144106 0.074987
O O7 0.714909 0.654034 0.274902
O O8 0.627116 0.508641 0.342839
O O9 0.827942 0.256576 0.482252
O O10 0.844586 0.693097 0.289242
O O11 0.678119 0.585951 0.896197
O O12 0.445808 0.553252 0.158539
O O13 0.500000 0.000000 0.500000
O O14 0.489002 0.984442 0.185376
O O15 0.500000 0.500000 0.500000
#
# Coordination Sequence:
#
# PCOD9048008 Si02
#       7
#     2   2   2   2   2   2   2
#     4  10  24  44  72 106 146 194 248 300 374 444
#     4  11  24  46  74 104 146 202 240 302 374 447
#     4  12  27  47  74 107 149 187 251 307 377 440
#     4  12  27  47  74 107 149 187 251 307 377 440
#     4  10  24  46  74 106 145 193 245 308 373 452
#     4  11  26  46  72 110 146 192 246 314 368 441
#     4  10  24  46  74 106 145 193 245 308 373 452
#
# _framework density 27.309093000000001
#
# number of rings (size 3 to 8) (size 9 to 14) (size 15 to 20)
#    0.000    1.143    2.857    1.714    4.000   13.714 
#    0.000    0.000    0.000    0.000    0.000    0.000 
#    0.000    0.000    0.000    0.000    0.000    0.000 
#
# Total GULP energy -78310.551201 kJ/mol
# GULP energy per Si atom -5593.610800 kJ/mol
# Density = 2.724694 g / cm^3
# Si number density = 27.309093 Si / 1000 Ang^3
#
#
#
# Elastic Constant Matrix: (Units=GPa)
#
#
# Indices 1 2 3 4 5 6 
#
# 1 69.4014 1.2479 7.6050 -2.1019 -5.1151 -31.5309
# 2 1.2479 111.7153 11.4103 3.5724 0.8325 -7.6806
# 3 7.6050 11.4103 127.9138 1.6324 2.0974 2.5700
# 4 -2.1019 3.5724 1.6324 46.8391 -1.6809 8.3831
# 5 -5.1151 0.8325 2.0974 -1.6809 51.8053 -2.9723
# 6 -31.5309 -7.6806 2.5700 8.3831 -2.9723 36.3943
#
#
#
# Elastic Compliance Matrix: (Units=1/GPa)
#
#
# Indices 1 2 3 4 5 6 
#
# 1 0.025546 0.001627 -0.002164 -0.002994 0.003842 0.023632
# 2 0.001627 0.009332 -0.000992 -0.001269 0.000225 0.003760
# 3 -0.002164 -0.000992 0.008099 0.000164 -0.000678 -0.002749
# 4 -0.002994 -0.001269 0.000164 0.022759 -0.000009 -0.008116
# 5 0.003842 0.000225 -0.000678 -0.000009 0.019996 0.005060
# 6 0.023632 0.003760 -0.002749 -0.008116 0.005060 0.051221
#
#
# Mechanical properties :
#
#
# Convention : Reuss Voigt Hill
#
# Bulk Modulus (GPa) = 25.04995 38.83965 31.94480
# Shear Modulus (GPa) = 32.61227 46.25890 39.43559
#
# Velocity S-wave (km/s) = 3.45946 4.12017 3.80418
# Velocity P-wave (km/s) = 5.01496 6.07351 5.56944
#
# Compressibility (1/GPa) = 0.03992023
#
# Stress axis : x y z
#
# Youngs Moduli (GPa) = 39.14529 107.15916 123.46956
#
# Poissons Ratio (x) = -0.17440 0.26714
# Poissons Ratio (y) = -0.06371 0.12251
# Poissons Ratio (z) = 0.08469 0.10633
#
# Static dielectric constant tensor:
#      x y z
#    x 2.138030 0.064530 -0.065140 
#    y 0.064530 2.139810 -0.038580 
#    z -0.065140 -0.038580 2.189260 
# 
# From -- ./inp_files/340775.got.cif
#   From: 2010.05.17/outbox.cif.g08.bks.cpg/sg2_171_cif.got.tgz:340775.got - 2010.06.03 11:33:40.
