data_PCOD9048396
_publ_section_title
;
Structure prediction by ZEFSAII (Michael W. Deem and Ramdas Pophale) SiO2 
 PCOD9048396
Probable space group: P -1
;
_chemical_formula_sum "Si O2"
_cell_formula_units_Z 14
_cell_length_a 6.453475
_cell_length_b 8.867677
_cell_length_c 14.088881
_cell_angle_alpha 93.480751
_cell_angle_beta 88.373533
_cell_angle_gamma 127.379998
_cell_volume 639.464444
_symmetry_space_group_name_H-M "P -1"
_symmetry_group_IT_number 2
_symmetry_cell_setting 'triclinic'
loop_
_space_group_symop_operation_xyz
x,y,z
-x,-y,-z
loop_
_atom_site_type_symbol
_atom_site_label
_atom_site_fract_x
_atom_site_fract_y
_atom_site_fract_z
Si Si1 0.317600 0.777981 0.467886
Si Si2 0.719535 0.223507 0.897216
Si Si3 0.090657 0.417552 0.191349
Si Si4 0.135712 0.927444 0.938097
Si Si5 0.343589 0.676848 0.659089
Si Si6 0.146511 0.894514 0.301084
Si Si7 0.428836 0.360989 0.662508
O O1 0.199243 0.676214 0.566368
O O2 0.160219 0.774216 0.380328
O O3 0.481079 0.707207 0.426194
O O4 0.500000 0.000000 0.500000
O O5 0.857538 0.444005 0.889443
O O6 0.798505 0.159112 0.802241
O O7 0.407850 0.102474 0.897699
O O8 0.796834 0.171928 0.989695
O O9 0.344671 0.543043 0.258395
O O10 0.041692 0.228634 0.145426
O O11 0.837784 0.360226 0.251117
O O12 0.000000 0.000000 0.000000
O O13 0.395112 0.522020 0.644391
O O14 0.623383 0.884190 0.673966
O O15 0.851258 0.823120 0.304818
#
# Coordination Sequence:
#
# PCOD9048396 Si02
#       7
#     2   2   2   2   2   2   2
#     4  10  24  45  68 102 143 188 230 284 339 399
#     4  11  24  48  72 100 138 178 228 287 346 408
#     4  12  26  46  71 104 144 179 225 290 346 410
#     4  11  28  46  76 102 134 179 232 285 350 419
#     4  11  25  43  72  99 143 186 233 281 341 403
#     4  11  24  46  71  99 144 182 231 286 343 402
#     4  12  25  41  72 106 138 186 232 283 336 413
#
# _framework density 21.893319999999999
#
# number of rings (size 3 to 8) (size 9 to 14) (size 15 to 20)
#    0.000    0.857    4.286    0.857    4.000    8.571 
#    0.000    0.000    0.000    0.000    0.000    0.000 
#    0.000    0.000    0.000    0.000    0.000    0.000 
#
# Total GULP energy -78319.626031 kJ/mol
# GULP energy per Si atom -5594.259002 kJ/mol
# Density = 2.184349 g / cm^3
# Si number density = 21.893320 Si / 1000 Ang^3
#
#
#
# Elastic Constant Matrix: (Units=GPa)
#
#
# Indices 1 2 3 4 5 6 
#
# 1 73.9700 52.6324 14.8044 0.8634 -14.8915 9.1675
# 2 52.6324 142.4884 38.4980 1.4901 -13.0613 9.5974
# 3 14.8044 38.4980 71.1831 0.1669 -10.5525 5.4180
# 4 0.8634 1.4901 0.1669 45.5078 -5.8535 -2.8068
# 5 -14.8915 -13.0613 -10.5525 -5.8535 37.5590 2.5720
# 6 9.1675 9.5974 5.4180 -2.8068 2.5720 39.9082
#
#
#
# Elastic Compliance Matrix: (Units=1/GPa)
#
#
# Indices 1 2 3 4 5 6 
#
# 1 0.019783 -0.006714 0.000660 0.000404 0.005989 -0.003377
# 2 -0.006714 0.010698 -0.004382 -0.000258 -0.000183 -0.000442
# 3 0.000660 -0.004382 0.016947 0.000443 0.003678 -0.001605
# 4 0.000404 -0.000258 0.000443 0.022516 0.003618 0.001259
# 5 0.005989 -0.000183 0.003678 0.003618 0.030777 -0.003560
# 6 -0.003377 -0.000442 -0.001605 0.001259 -0.003560 0.026475
#
#
# Mechanical properties :
#
#
# Convention : Reuss Voigt Hill
#
# Bulk Modulus (GPa) = 37.65436 55.50123 46.57780
# Shear Modulus (GPa) = 31.86320 36.70879 34.28599
#
# Velocity S-wave (km/s) = 3.81909 4.09921 3.96163
# Velocity P-wave (km/s) = 6.05670 6.91451 6.49977
#
# Compressibility (1/GPa) = 0.02655735
#
# Stress axis : x y z
#
# Youngs Moduli (GPa) = 50.54732 93.47738 59.00623
#
# Poissons Ratio (x) = 0.62759 -0.03897
# Poissons Ratio (y) = 0.33937 0.25858
# Poissons Ratio (z) = -0.03339 0.40964
#
# Static dielectric constant tensor:
#      x y z
#    x 1.779230 -0.000440 0.045090 
#    y -0.000440 1.820120 0.001700 
#    z 0.045090 0.001700 1.811950 
# 
# From -- ./inp_files/48849.got.cif
#   From: 2010.05.17/outbox.cif.g08.bks.cpg/sg2_25_cif.got.tgz:48849.got - 2010.06.03 11:33:40.
