data_PCOD9048354
_publ_section_title
;
Structure prediction by ZEFSAII (Michael W. Deem and Ramdas Pophale) SiO2 
 PCOD9048354
Probable space group: P -1
;
_chemical_formula_sum "Si O2"
_cell_formula_units_Z 12
_cell_length_a 11.664774
_cell_length_b 23.043925
_cell_length_c 11.499914
_cell_angle_alpha 148.006345
_cell_angle_beta 38.847035
_cell_angle_gamma 159.532998
_cell_volume 570.612911
_symmetry_space_group_name_H-M "P -1"
_symmetry_group_IT_number 2
_symmetry_cell_setting 'triclinic'
loop_
_space_group_symop_operation_xyz
x,y,z
-x,-y,-z
loop_
_atom_site_type_symbol
_atom_site_label
_atom_site_fract_x
_atom_site_fract_y
_atom_site_fract_z
Si Si1 0.165355 0.920421 0.011755
Si Si2 0.718463 0.267497 0.323767
Si Si3 0.821947 0.127982 0.536888
Si Si4 0.615813 0.821364 0.334994
Si Si5 0.176501 0.508931 0.967284
Si Si6 0.118992 0.179984 0.175472
O O1 0.869655 0.847200 0.172251
O O2 0.504693 0.145051 0.167751
O O3 0.149088 0.787830 0.844339
O O4 0.119136 0.896752 0.869286
O O5 0.462171 0.174284 0.468720
O O6 0.000000 0.500000 0.500000
O O7 0.949461 0.290544 0.790092
O O8 0.090724 0.236985 0.410293
O O9 0.500000 0.000000 0.500000
O O10 0.757825 0.989364 0.428493
O O11 0.278369 0.616649 0.189837
O O12 0.522287 0.648342 0.871753
O O13 0.000000 0.500000 0.000000
O O14 0.000000 0.000000 0.000000
#
# Coordination Sequence:
#
# PCOD9048354 Si02
#       6
#     2   2   2   2   2   2
#     4  10  24  45  67  98 132 171 224 273 333 395
#     4  11  26  45  70  96 127 177 230 280 327 389
#     4  12  22  40  64  96 139 178 213 271 332 399
#     4  11  24  45  66  96 135 175 222 274 336 394
#     4  11  23  38  61  98 133 176 218 262 329 400
#     4  11  21  42  67  99 136 171 215 271 336 403
#
# _framework density 21.030017999999998
#
# number of rings (size 3 to 8) (size 9 to 14) (size 15 to 20)
#    0.000    1.000    5.000    2.000    0.000    8.667 
#    0.000    0.000    0.000    0.000    0.000    0.000 
#    0.000    0.000    0.000    0.000    0.000    0.000 
#
# Total GULP energy -67109.915298 kJ/mol
# GULP energy per Si atom -5592.492942 kJ/mol
# Density = 2.098215 g / cm^3
# Si number density = 21.030018 Si / 1000 Ang^3
#
#
#
# Elastic Constant Matrix: (Units=GPa)
#
#
# Indices 1 2 3 4 5 6 
#
# 1 85.8155 20.9746 40.0754 15.4195 -0.0970 11.6423
# 2 20.9746 63.4838 22.9913 7.7905 -3.5757 -1.4638
# 3 40.0754 22.9913 120.0341 28.9406 -5.7995 2.9241
# 4 15.4195 7.7905 28.9406 45.9797 4.3181 9.5547
# 5 -0.0970 -3.5757 -5.7995 4.3181 37.9105 -6.4001
# 6 11.6423 -1.4638 2.9241 9.5547 -6.4001 23.4482
#
#
#
# Elastic Compliance Matrix: (Units=1/GPa)
#
#
# Indices 1 2 3 4 5 6 
#
# 1 0.015795 -0.003943 -0.004463 0.000120 -0.002419 -0.008241
# 2 -0.003943 0.018151 -0.001698 -0.001902 0.002461 0.004749
# 3 -0.004463 -0.001698 0.011848 -0.006859 0.003146 0.004286
# 4 0.000120 -0.001902 -0.006859 0.029762 -0.006868 -0.013325
# 5 -0.002419 0.002461 0.003146 -0.006868 0.029879 0.011916
# 6 -0.008241 0.004749 0.004286 -0.013325 0.011916 0.055183
#
#
# Mechanical properties :
#
#
# Convention : Reuss Voigt Hill
#
# Bulk Modulus (GPa) = 39.08652 48.60175 43.84413
# Shear Modulus (GPa) = 26.40543 33.82050 30.11296
#
# Velocity S-wave (km/s) = 3.54730 4.01459 3.78816
# Velocity P-wave (km/s) = 5.95014 6.68207 6.32670
#
# Compressibility (1/GPa) = 0.02558427
#
# Stress axis : x y z
#
# Youngs Moduli (GPa) = 63.31260 55.09195 84.40522
#
# Poissons Ratio (x) = 0.21723 0.37671
# Poissons Ratio (y) = 0.24965 0.14336
# Poissons Ratio (z) = 0.28257 0.09357
#
# Static dielectric constant tensor:
#      x y z
#    x 1.714550 0.022180 0.002850 
#    y 0.022180 1.755020 -0.011850 
#    z 0.002850 -0.011850 1.754070 
# 
# From -- ./inp_files/185604.got.cif
#   From: 2010.05.17/outbox.cif.g08.bks.cpg/sg2_93_cif.got.tgz:185604.got - 2010.06.03 11:33:40.
