data_PCOD9048857
_publ_section_title
;
Structure prediction by ZEFSAII (Michael W. Deem and Ramdas Pophale) SiO2 
 PCOD9048857
Probable space group: P -1
;
_chemical_formula_sum "Si O2"
_cell_formula_units_Z 14
_cell_length_a 8.626487
_cell_length_b 11.489473
_cell_length_c 10.330689
_cell_angle_alpha 50.228510
_cell_angle_beta 131.454123
_cell_angle_gamma 124.092075
_cell_volume 572.905767
_symmetry_space_group_name_H-M "P -1"
_symmetry_group_IT_number 2
_symmetry_cell_setting 'triclinic'
loop_
_space_group_symop_operation_xyz
x,y,z
-x,-y,-z
loop_
_atom_site_type_symbol
_atom_site_label
_atom_site_fract_x
_atom_site_fract_y
_atom_site_fract_z
Si Si1 0.493674 0.165539 0.538365
Si Si2 0.078276 0.715739 0.935264
Si Si3 0.840616 0.061878 0.958335
Si Si4 0.522246 0.739880 0.068331
Si Si5 0.680646 0.195232 0.347060
Si Si6 0.806093 0.638113 0.671916
Si Si7 0.891339 0.594693 0.473844
O O1 0.536902 0.213446 0.379912
O O2 0.383902 0.280215 0.476674
O O3 0.363327 0.986335 0.586302
O O4 0.713596 0.159623 0.732192
O O5 0.325995 0.720690 0.073207
O O6 0.862591 0.577006 0.889253
O O7 0.034647 0.826602 0.942671
O O8 0.669525 0.916001 0.027833
O O9 0.000000 0.000000 0.000000
O O10 0.683259 0.633668 0.268422
O O11 0.413698 0.718594 0.882378
O O12 0.918058 0.258255 0.488838
O O13 0.974221 0.227846 0.277882
O O14 0.820922 0.539945 0.622743
O O15 0.000000 0.500000 0.500000
#
# Coordination Sequence:
#
# PCOD9048857 Si02
#       7
#     2   2   2   2   2   2   2
#     4  10  24  45  74 102 139 189 231 289 360 411
#     4  11  26  47  69 104 146 187 237 290 356 418
#     4  11  25  44  74 106 140 183 241 293 350 422
#     4  11  25  46  72 103 143 186 232 293 352 412
#     4  10  24  47  69 109 139 177 239 292 348 418
#     4  11  27  46  71 102 145 191 232 294 354 421
#     4  12  28  45  72 106 138 187 236 290 356 424
#
# _framework density 24.436827999999998
#
# number of rings (size 3 to 8) (size 9 to 14) (size 15 to 20)
#    0.000    1.143    1.429    2.143   14.000    4.571 
#    0.000    0.000    0.000    0.000    0.000    0.000 
#    0.000    0.000    0.000    0.000    0.000    0.000 
#
# Total GULP energy -77935.407560 kJ/mol
# GULP energy per Si atom -5566.814826 kJ/mol
# Density = 2.438121 g / cm^3
# Si number density = 24.436828 Si / 1000 Ang^3
#
#
#
# Elastic Constant Matrix: (Units=GPa)
#
#
# Indices 1 2 3 4 5 6 
#
# 1 88.7985 51.2993 46.7926 1.3911 10.6026 -14.1260
# 2 51.2993 83.3053 54.9352 20.1039 -1.6361 -27.6044
# 3 46.7926 54.9352 129.7615 13.8799 28.6636 -22.3448
# 4 1.3911 20.1039 13.8799 22.7229 -6.0160 3.9422
# 5 10.6026 -1.6361 28.6636 -6.0160 47.4117 -6.5586
# 6 -14.1260 -27.6044 -22.3448 3.9422 -6.5586 47.9770
#
#
#
# Elastic Compliance Matrix: (Units=1/GPa)
#
#
# Indices 1 2 3 4 5 6 
#
# 1 0.022302 -0.018566 -0.002611 0.017135 -0.002862 -0.007131
# 2 -0.018566 0.042272 -0.005752 -0.034233 0.007513 0.020016
# 3 -0.002611 -0.005752 0.013868 -0.005765 -0.008496 0.001693
# 4 0.017135 -0.034233 -0.005765 0.082322 0.005692 -0.023323
# 5 -0.002862 0.007513 -0.008496 0.005692 0.028254 0.002918
# 6 -0.007131 0.020016 0.001693 -0.023323 0.002918 0.033364
#
#
# Mechanical properties :
#
#
# Convention : Reuss Voigt Hill
#
# Bulk Modulus (GPa) = 40.67730 67.54662 54.11196
# Shear Modulus (GPa) = 17.57878 33.54486 25.56182
#
# Velocity S-wave (km/s) = 2.68499 3.70904 3.23776
# Velocity P-wave (km/s) = 5.12779 6.78557 6.01408
#
# Compressibility (1/GPa) = 0.02458374
#
# Stress axis : x y z
#
# Youngs Moduli (GPa) = 44.83941 23.65633 72.10830
#
# Poissons Ratio (x) = 0.43921 0.18825
# Poissons Ratio (y) = 0.83250 0.41478
# Poissons Ratio (z) = 0.11706 0.13607
#
# Static dielectric constant tensor:
#      x y z
#    x 2.074150 0.082840 -0.107940 
#    y 0.082840 1.960660 -0.121210 
#    z -0.107940 -0.121210 1.987000 
# 
# From -- ./inp_files/387177.got.cif
#   From: 2010.05.17/outbox.cif.g08.bks.cpg/sg2_194_cif.got.tgz:387177.got - 2010.06.03 11:33:40.
