data_PCOD9048572
_publ_section_title
;
Structure prediction by ZEFSAII (Michael W. Deem and Ramdas Pophale) SiO2 
 PCOD9048572
Probable space group: P -1
;
_chemical_formula_sum "Si O2"
_cell_formula_units_Z 14
_cell_length_a 14.713030
_cell_length_b 5.799290
_cell_length_c 23.685094
_cell_angle_alpha 114.548985
_cell_angle_beta 157.484794
_cell_angle_gamma 77.456918
_cell_volume 618.146500
_symmetry_space_group_name_H-M "P -1"
_symmetry_group_IT_number 2
_symmetry_cell_setting 'triclinic'
loop_
_space_group_symop_operation_xyz
x,y,z
-x,-y,-z
loop_
_atom_site_type_symbol
_atom_site_label
_atom_site_fract_x
_atom_site_fract_y
_atom_site_fract_z
Si Si1 0.782393 0.328858 0.996200
Si Si2 0.823647 0.706532 0.697764
Si Si3 0.756561 0.207505 0.763807
Si Si4 0.921214 0.303710 0.377369
Si Si5 0.761945 0.758393 0.299040
Si Si6 0.709139 0.686095 0.506638
Si Si7 0.294645 0.035539 0.176388
O O1 0.962079 0.372563 0.158726
O O2 0.012315 0.501123 0.099539
O O3 0.543827 0.408128 0.869937
O O4 0.628666 0.010469 0.847232
O O5 0.500000 0.500000 0.500000
O O6 0.880400 0.750067 0.668286
O O7 0.854391 0.985028 0.776781
O O8 0.466637 0.149162 0.568876
O O9 0.712146 0.186268 0.802921
O O10 0.834658 0.497687 0.307028
O O11 0.000000 0.500000 0.500000
O O12 0.142391 0.267299 0.462976
O O13 0.741155 0.969883 0.260617
O O14 0.000000 0.000000 0.500000
O O15 0.496813 0.347165 0.348327
O O16 0.000000 0.000000 0.000000
#
# Coordination Sequence:
#
# PCOD9048572 Si02
#       7
#     2   2   2   2   2   2   2
#     4  12  26  42  72 104 144 185 230 305 361 433
#     4  12  24  47  63 106 151 186 228 283 372 448
#     4  12  24  39  71 104 146 182 236 287 373 435
#     4  10  24  45  70 101 135 186 248 299 350 413
#     4  10  24  46  70 100 139 187 240 301 357 415
#     4  12  26  42  73 100 141 193 232 296 360 437
#     4  12  22  39  61 106 142 173 231 292 364 429
#
# _framework density 22.648350000000001
#
# number of rings (size 3 to 8) (size 9 to 14) (size 15 to 20)
#    0.000    0.571    5.714    2.571    8.000    0.000 
#    0.000    1.429    0.000    0.000    0.000    0.000 
#    0.000    0.000    0.000    0.000    0.000    0.000 
#
# Total GULP energy -77982.723709 kJ/mol
# GULP energy per Si atom -5570.194551 kJ/mol
# Density = 2.259680 g / cm^3
# Si number density = 22.648350 Si / 1000 Ang^3
#
#
#
# Elastic Constant Matrix: (Units=GPa)
#
#
# Indices 1 2 3 4 5 6 
#
# 1 82.6425 -14.2352 19.5105 -2.5084 4.4387 6.9105
# 2 -14.2352 67.5020 2.3434 -11.3721 9.9709 8.7238
# 3 19.5105 2.3434 72.5270 -24.2764 -2.5109 3.4777
# 4 -2.5084 -11.3721 -24.2764 19.4028 -0.3182 2.8146
# 5 4.4387 9.9709 -2.5109 -0.3182 39.4478 -11.0648
# 6 6.9105 8.7238 3.4777 2.8146 -11.0648 30.1103
#
#
#
# Elastic Compliance Matrix: (Units=1/GPa)
#
#
# Indices 1 2 3 4 5 6 
#
# 1 0.014612 0.004921 -0.003585 0.001116 -0.004862 -0.006256
# 2 0.004921 0.022946 0.006262 0.023837 -0.009780 -0.014323
# 3 -0.003585 0.006262 0.028191 0.039686 -0.001446 -0.008489
# 4 0.001116 0.023837 0.039686 0.119000 -0.010123 -0.026590
# 5 -0.004862 -0.009780 -0.001446 -0.010123 0.033019 0.017196
# 6 -0.006256 -0.014323 -0.008489 -0.026590 0.017196 0.048582
#
#
# Mechanical properties :
#
#
# Convention : Reuss Voigt Hill
#
# Bulk Modulus (GPa) = 12.35402 26.43433 19.39418
# Shear Modulus (GPa) = 17.97680 32.12903 25.05291
#
# Velocity S-wave (km/s) = 2.82039 3.77052 3.32952
# Velocity P-wave (km/s) = 4.00907 5.53649 4.83350
#
# Compressibility (1/GPa) = 0.08094528
#
# Stress axis : x y z
#
# Youngs Moduli (GPa) = 68.43541 43.57995 35.47271
#
# Poissons Ratio (x) = -0.21444 0.12716
# Poissons Ratio (y) = -0.33675 -0.22213
# Poissons Ratio (z) = 0.24532 -0.27290
#
# Static dielectric constant tensor:
#      x y z
#    x 2.054630 0.040020 -0.099520 
#    y 0.040020 1.980710 0.014770 
#    z -0.099520 0.014770 1.929220 
# 
# From -- ./inp_files/27089.got.cif
#   From: 2010.05.17/outbox.cif.g08.bks.cpg/sg2_14_cif.got.tgz:27089.got - 2010.06.03 11:33:40.
