data_PCOD9048899
_publ_section_title
;
Structure prediction by ZEFSAII (Michael W. Deem and Ramdas Pophale) SiO2 
 PCOD9048899
Probable space group: P -1
;
_chemical_formula_sum "Si O2"
_cell_formula_units_Z 14
_cell_length_a 8.813477
_cell_length_b 8.079039
_cell_length_c 9.205199
_cell_angle_alpha 68.924582
_cell_angle_beta 113.365880
_cell_angle_gamma 108.473963
_cell_volume 549.708670
_symmetry_space_group_name_H-M "P -1"
_symmetry_group_IT_number 2
_symmetry_cell_setting 'triclinic'
loop_
_space_group_symop_operation_xyz
x,y,z
-x,-y,-z
loop_
_atom_site_type_symbol
_atom_site_label
_atom_site_fract_x
_atom_site_fract_y
_atom_site_fract_z
Si Si1 0.720323 0.532929 0.288304
Si Si2 0.535365 0.024467 0.765271
Si Si3 0.796976 0.282953 0.634976
Si Si4 0.909542 0.577502 0.075624
Si Si5 0.631521 0.701080 0.742807
Si Si6 0.902320 0.945727 0.627812
Si Si7 0.760214 0.960492 0.145157
O O1 0.802245 0.455270 0.481678
O O2 0.792604 0.455183 0.193388
O O3 0.519091 0.471870 0.254585
O O4 0.766495 0.748580 0.221777
O O5 0.613595 0.213789 0.658535
O O6 0.354965 0.007958 0.773107
O O7 0.542144 0.862836 0.708203
O O8 0.664354 0.003899 0.951596
O O9 0.830342 0.115752 0.604692
O O10 0.936193 0.318446 0.801851
O O11 0.771090 0.677313 0.921908
O O12 0.000000 0.500000 0.000000
O O13 0.749764 0.771605 0.627603
O O14 0.051737 0.924953 0.802997
O O15 0.000000 0.000000 0.500000
#
# Coordination Sequence:
#
# PCOD9048899 Si02
#       7
#     2   2   2   2   2   2   2
#     4  12  27  47  76 115 153 186 250 322 369 429
#     4  10  24  45  75 101 147 201 246 301 371 445
#     4  11  26  48  72 107 156 191 247 311 376 435
#     4  12  27  46  76 108 149 197 246 304 372 443
#     4  11  26  47  75 108 149 194 257 302 366 449
#     4  11  26  45  74 105 151 198 246 300 378 447
#     4  11  24  45  76 105 148 196 254 297 371 444
#
# _framework density 25.468036000000001
#
# number of rings (size 3 to 8) (size 9 to 14) (size 15 to 20)
#    0.000    0.857    2.857    1.714    8.000    5.143 
#    0.000    0.000    0.000    0.000    0.000    0.000 
#    0.000    0.000    0.000    0.000    0.000    0.000 
#
# Total GULP energy -78432.186333 kJ/mol
# GULP energy per Si atom -5602.299024 kJ/mol
# Density = 2.541007 g / cm^3
# Si number density = 25.468036 Si / 1000 Ang^3
#
#
#
# Elastic Constant Matrix: (Units=GPa)
#
#
# Indices 1 2 3 4 5 6 
#
# 1 158.9993 53.4934 24.5990 5.2428 -7.1262 20.0721
# 2 53.4934 63.7694 23.9889 -4.8717 -12.4697 17.5639
# 3 24.5990 23.9889 89.1378 -6.0196 4.8398 -1.9156
# 4 5.2428 -4.8717 -6.0196 28.4064 4.8999 -2.5801
# 5 -7.1262 -12.4697 4.8398 4.8999 51.6106 4.3864
# 6 20.0721 17.5639 -1.9156 -2.5801 4.3864 52.4192
#
#
#
# Elastic Compliance Matrix: (Units=1/GPa)
#
#
# Indices 1 2 3 4 5 6 
#
# 1 0.009115 -0.007243 -0.000809 -0.003209 -0.000005 -0.001250
# 2 -0.007243 0.027285 -0.005634 0.003083 0.006419 -0.006960
# 3 -0.000809 -0.005634 0.013396 0.002867 -0.003265 0.003102
# 4 -0.003209 0.003083 0.002867 0.037806 -0.003767 0.002477
# 5 -0.000005 0.006419 -0.003265 -0.003767 0.021955 -0.004291
# 6 -0.001250 -0.006960 0.003102 0.002477 -0.004291 0.022482
#
#
# Mechanical properties :
#
#
# Convention : Reuss Voigt Hill
#
# Bulk Modulus (GPa) = 44.59891 57.34100 50.96996
# Shear Modulus (GPa) = 29.96062 40.47558 35.21810
#
# Velocity S-wave (km/s) = 3.43359 3.99089 3.72268
# Velocity P-wave (km/s) = 5.76794 6.61816 6.20762
#
# Compressibility (1/GPa) = 0.02242207
#
# Stress axis : x y z
#
# Youngs Moduli (GPa) = 109.71018 36.65061 74.65095
#
# Poissons Ratio (x) = 0.26547 0.06042
# Poissons Ratio (y) = 0.79466 0.42058
# Poissons Ratio (z) = 0.08880 0.20649
#
# Static dielectric constant tensor:
#      x y z
#    x 1.991910 0.002540 -0.014530 
#    y 0.002540 1.985780 0.007080 
#    z -0.014530 0.007080 2.035880 
# 
# From -- ./inp_files/157713.got.cif
#   From: 2010.05.17/outbox.cif.g08.bks.cpg/sg2_79_cif.got.tgz:157713.got - 2010.06.03 11:33:40.
