data_PCOD9048984
_publ_section_title
;
Structure prediction by ZEFSAII (Michael W. Deem and Ramdas Pophale) SiO2 
 PCOD9048984
Probable space group: P -1
;
_chemical_formula_sum "Si O2"
_cell_formula_units_Z 16
_cell_length_a 22.428299
_cell_length_b 24.938751
_cell_length_c 9.600779
_cell_angle_alpha 142.552333
_cell_angle_beta 154.805598
_cell_angle_gamma 20.380129
_cell_volume 740.722347
_symmetry_space_group_name_H-M "P -1"
_symmetry_group_IT_number 2
_symmetry_cell_setting 'triclinic'
loop_
_space_group_symop_operation_xyz
x,y,z
-x,-y,-z
loop_
_atom_site_type_symbol
_atom_site_label
_atom_site_fract_x
_atom_site_fract_y
_atom_site_fract_z
Si Si1 0.413245 0.107143 0.914789
Si Si2 0.812807 0.481076 0.424325
Si Si3 0.120498 0.022551 0.734429
Si Si4 0.585471 0.197314 0.374330
Si Si5 0.990617 0.538609 0.719743
Si Si6 0.451277 0.090338 0.457220
Si Si7 0.565690 0.555431 0.335559
Si Si8 0.618947 0.409981 0.415206
O O1 0.100690 0.285651 0.613653
O O2 0.505948 0.999454 0.760955
O O3 0.546993 0.132194 0.254851
O O4 0.500000 0.000000 0.000000
O O5 0.840443 0.557966 0.556901
O O6 0.747883 0.510310 0.513189
O O7 0.588500 0.546485 0.004456
O O8 0.895219 0.214377 0.622610
O O9 0.250879 0.922375 0.658530
O O10 0.000000 0.000000 0.500000
O O11 0.334719 0.947427 0.139728
O O12 0.661930 0.249746 0.714708
O O13 0.291555 0.376502 0.069008
O O14 0.831292 0.713972 0.741650
O O15 0.000000 0.500000 0.500000
O O16 0.500000 0.000000 0.500000
O O17 0.644850 0.474181 0.487480
O O18 0.500000 0.500000 0.000000
O O19 0.500000 0.500000 0.500000
#
# Coordination Sequence:
#
# PCOD9048984 Si02
#       8
#     2   2   2   2   2   2   2   2
#     4  11  26  43  70 104 144 187 231 295 351 427
#     4  10  24  46  64 102 140 179 239 280 361 415
#     4  12  25  44  71 108 143 180 241 294 359 420
#     4  11  25  44  68 104 139 184 237 290 358 426
#     4  11  23  41  71  99 141 182 230 294 350 419
#     4  12  24  44  70 106 143 180 239 299 351 418
#     4  10  25  46  70  99 137 184 234 290 352 429
#     4  11  24  43  75  98 136 189 231 291 351 427
#
# _framework density 21.600535000000001
#
# number of rings (size 3 to 8) (size 9 to 14) (size 15 to 20)
#    0.000    1.000    2.500    3.000    8.750    2.000 
#    0.000    2.500    0.000    0.000    0.000    0.000 
#    0.000    0.000    0.000    0.000    0.000    0.000 
#
# Total GULP energy -89306.486481 kJ/mol
# GULP energy per Si atom -5581.655405 kJ/mol
# Density = 2.155137 g / cm^3
# Si number density = 21.600535 Si / 1000 Ang^3
#
#
#
# Elastic Constant Matrix: (Units=GPa)
#
#
# Indices 1 2 3 4 5 6 
#
# 1 171.9774 70.6294 15.6280 6.3753 -9.6205 12.2729
# 2 70.6294 178.0753 18.3102 6.1910 -7.2813 -0.3025
# 3 15.6280 18.3102 57.5930 9.6333 7.6806 7.2570
# 4 6.3753 6.1910 9.6333 36.1105 -0.7005 -1.7140
# 5 -9.6205 -7.2813 7.6806 -0.7005 36.9584 7.1197
# 6 12.2729 -0.3025 7.2570 -1.7140 7.1197 42.1238
#
#
#
# Elastic Compliance Matrix: (Units=1/GPa)
#
#
# Indices 1 2 3 4 5 6 
#
# 1 0.007318 -0.002699 -0.000995 -0.000636 0.002020 -0.002347
# 2 -0.002699 0.006899 -0.001658 -0.000202 0.000809 0.000977
# 3 -0.000995 -0.001658 0.019913 -0.005061 -0.004313 -0.002630
# 4 -0.000636 -0.000202 -0.005061 0.029308 0.001001 0.002079
# 5 0.002020 0.000809 -0.004313 0.001001 0.029582 -0.004799
# 6 -0.002347 0.000977 -0.002630 0.002079 -0.004799 0.025779
#
#
# Mechanical properties :
#
#
# Convention : Reuss Voigt Hill
#
# Bulk Modulus (GPa) = 42.68840 68.53118 55.60979
# Shear Modulus (GPa) = 36.41347 43.24374 39.82861
#
# Velocity S-wave (km/s) = 4.11026 4.47920 4.29869
# Velocity P-wave (km/s) = 6.50625 7.65156 7.10203
#
# Compressibility (1/GPa) = 0.02342557
#
# Stress axis : x y z
#
# Youngs Moduli (GPa) = 136.65234 144.95903 50.21766
#
# Poissons Ratio (x) = 0.39131 0.04995
# Poissons Ratio (y) = 0.36889 0.08326
# Poissons Ratio (z) = 0.13593 0.24033
#
# Static dielectric constant tensor:
#      x y z
#    x 1.774080 -0.016760 0.034870 
#    y -0.016760 1.745870 0.032050 
#    z 0.034870 0.032050 1.796630 
# 
# From -- ./inp_files/350030.got.cif
#   From: 2010.05.17/outbox.cif.g08.bks.cpg/sg2_176_cif.got.tgz:350030.got - 2010.06.03 11:33:40.
