data_PCOD9048941
_publ_section_title
;
Structure prediction by ZEFSAII (Michael W. Deem and Ramdas Pophale) SiO2 
 PCOD9048941
Probable space group: P -1
;
_chemical_formula_sum "Si O2"
_cell_formula_units_Z 12
_cell_length_a 16.603316
_cell_length_b 7.555911
_cell_length_c 8.193280
_cell_angle_alpha 50.348321
_cell_angle_beta 31.629375
_cell_angle_gamma 49.637643
_cell_volume 400.944911
_symmetry_space_group_name_H-M "P -1"
_symmetry_group_IT_number 2
_symmetry_cell_setting 'triclinic'
loop_
_space_group_symop_operation_xyz
x,y,z
-x,-y,-z
loop_
_atom_site_type_symbol
_atom_site_label
_atom_site_fract_x
_atom_site_fract_y
_atom_site_fract_z
Si Si1 0.500000 0.000000 0.500000
Si Si2 0.020580 0.107686 0.628529
Si Si3 0.211541 0.900523 0.719932
Si Si4 0.500000 0.500000 0.000000
Si Si5 0.631476 0.737872 0.825651
Si Si6 0.649977 0.604719 0.229059
Si Si7 0.905706 0.389390 0.363522
O O1 0.626548 0.816634 0.269845
O O2 0.532348 0.244177 0.209493
O O3 0.996188 0.324582 0.419157
O O4 0.098846 0.091417 0.682633
O O5 0.102959 0.865876 0.536776
O O6 0.846121 0.085686 0.001979
O O7 0.223304 0.637636 0.797215
O O8 0.366177 0.002551 0.390008
O O9 0.530354 0.331931 0.880004
O O10 0.730364 0.552321 0.623984
O O11 0.695754 0.684819 0.925178
O O12 0.500000 0.500000 0.500000
O O13 0.000000 0.500000 0.000000
#
# Coordination Sequence:
#
# PCOD9048941 Si02
#       7
#     1   2   2   1   2   2   2
#     4  12  30  52  82 116 160 214 288 338 422 494
#     4  10  24  45  76 114 162 207 275 336 421 499
#     4  11  25  48  77 119 159 216 272 350 419 493
#     4  12  30  54  82 122 160 226 280 346 422 508
#     4  12  27  47  81 115 168 216 275 347 418 502
#     4  12  27  52  78 114 165 213 280 345 417 504
#     4  11  23  45  73 117 159 214 273 332 413 504
#
# _framework density 29.929296000000001
#
# number of rings (size 3 to 8) (size 9 to 14) (size 15 to 20)
#    0.000    0.667    5.000    1.000    4.667    3.333 
#    0.000    0.000    0.000    0.000    0.000    0.000 
#    0.000    0.000    0.000    0.000    0.000    0.000 
#
# Total GULP energy -66803.625370 kJ/mol
# GULP energy per Si atom -5566.968781 kJ/mol
# Density = 2.986118 g / cm^3
# Si number density = 29.929296 Si / 1000 Ang^3
#
#
#
# Elastic Constant Matrix: (Units=GPa)
#
#
# Indices 1 2 3 4 5 6 
#
# 1 88.6529 31.4927 45.2477 1.9780 19.9913 -11.1821
# 2 31.4927 253.4310 92.1016 -14.4119 7.3939 28.9278
# 3 45.2477 92.1016 210.6315 -45.3066 48.8236 -4.5860
# 4 1.9780 -14.4119 -45.3066 64.2617 8.0621 9.6786
# 5 19.9913 7.3939 48.8236 8.0621 40.6063 -6.3984
# 6 -11.1821 28.9278 -4.5860 9.6786 -6.3984 60.5367
#
#
#
# Elastic Compliance Matrix: (Units=1/GPa)
#
#
# Indices 1 2 3 4 5 6 
#
# 1 0.013996 -0.001370 -0.002094 -0.002284 -0.003180 0.003111
# 2 -0.001370 0.005365 -0.003012 -0.000877 0.003087 -0.002579
# 3 -0.002094 -0.003012 0.012208 0.010105 -0.015303 -0.001256
# 4 -0.002284 -0.000877 0.010105 0.025419 -0.016711 -0.005068
# 5 -0.003180 0.003087 -0.015303 -0.016711 0.048062 0.004530
# 6 0.003111 -0.002579 -0.001256 -0.005068 0.004530 0.019520
#
#
# Mechanical properties :
#
#
# Convention : Reuss Voigt Hill
#
# Bulk Modulus (GPa) = 53.71597 98.93325 76.32461
# Shear Modulus (GPa) = 34.78818 58.67251 46.73035
#
# Velocity S-wave (km/s) = 3.41302 4.43241 3.95569
# Velocity P-wave (km/s) = 5.78949 7.70211 6.81324
#
# Compressibility (1/GPa) = 0.01861644
#
# Stress axis : x y z
#
# Youngs Moduli (GPa) = 71.45018 186.38885 81.91424
#
# Poissons Ratio (x) = 0.25543 0.17151
# Poissons Ratio (y) = 0.09792 0.24672
# Poissons Ratio (z) = 0.14960 0.56139
#
# Static dielectric constant tensor:
#      x y z
#    x 2.141010 -0.138360 0.243190 
#    y -0.138360 2.257800 0.121700 
#    z 0.243190 0.121700 2.216070 
# 
# From -- ./inp_files/343252.got.cif
#   From: 2010.05.17/outbox.cif.g08.bks.cpg/sg2_172_cif.got.tgz:343252.got - 2010.06.03 11:33:40.
