data_PCOD9048278
_publ_section_title
;
Structure prediction by ZEFSAII (Michael W. Deem and Ramdas Pophale) SiO2 
 PCOD9048278
Probable space group: P -1
;
_chemical_formula_sum "Si O2"
_cell_formula_units_Z 16
_cell_length_a 8.040328
_cell_length_b 20.350432
_cell_length_c 10.527642
_cell_angle_alpha 33.882471
_cell_angle_beta 46.006501
_cell_angle_gamma 57.785948
_cell_volume 686.789423
_symmetry_space_group_name_H-M "P -1"
_symmetry_group_IT_number 2
_symmetry_cell_setting 'triclinic'
loop_
_space_group_symop_operation_xyz
x,y,z
-x,-y,-z
loop_
_atom_site_type_symbol
_atom_site_label
_atom_site_fract_x
_atom_site_fract_y
_atom_site_fract_z
Si Si1 0.047977 0.364177 0.671143
Si Si2 0.441135 0.264511 0.488656
Si Si3 0.726665 0.727944 0.046410
Si Si4 0.448951 0.699956 0.906568
Si Si5 0.292981 0.077921 0.447828
Si Si6 0.857105 0.610020 0.910434
Si Si7 0.153552 0.007805 0.032993
Si Si8 0.712420 0.245576 0.631080
O O1 0.000000 0.500000 0.500000
O O2 0.233983 0.346434 0.492007
O O3 0.147008 0.301515 0.843540
O O4 0.789382 0.299776 0.892571
O O5 0.578239 0.290362 0.244232
O O6 0.614848 0.275865 0.496464
O O7 0.312424 0.130766 0.765476
O O8 0.451752 0.700010 0.267170
O O9 0.736967 0.862391 0.770185
O O10 0.828895 0.652830 0.001145
O O11 0.626647 0.807775 0.690781
O O12 0.592915 0.588846 0.035115
O O13 0.500000 0.000000 0.500000
O O14 0.042591 0.012432 0.721705
O O15 0.019211 0.705045 0.587409
O O16 0.000000 0.500000 0.000000
O O17 0.302081 0.896403 0.127090
O O18 0.000000 0.000000 0.000000
#
# Coordination Sequence:
#
# PCOD9048278 Si02
#       8
#     2   2   2   2   2   2   2   2
#     4  11  27  47  68  98 139 181 231 282 345 409
#     4  11  25  43  69 100 135 180 226 278 345 412
#     4  10  24  45  65  99 137 178 224 284 336 405
#     4  11  24  43  68  99 131 177 226 281 342 404
#     4  11  22  42  68 100 141 177 223 278 339 405
#     4  11  25  43  69  99 131 179 235 286 340 399
#     4  12  21  42  67 101 138 177 226 278 338 414
#     4  11  23  44  65  98 138 175 226 279 345 410
#
# _framework density 23.296806
#
# number of rings (size 3 to 8) (size 9 to 14) (size 15 to 20)
#    0.000    1.000    3.750    2.625    5.250    4.000 
#    0.000    1.875    0.000    0.000    0.000    0.000 
#    0.000    0.000    0.000    0.000    0.000    0.000 
#
# Total GULP energy -89408.027498 kJ/mol
# GULP energy per Si atom -5588.001719 kJ/mol
# Density = 2.324378 g / cm^3
# Si number density = 23.296806 Si / 1000 Ang^3
#
#
#
# Elastic Constant Matrix: (Units=GPa)
#
#
# Indices 1 2 3 4 5 6 
#
# 1 69.1623 0.9683 7.7521 3.0336 13.0013 -18.8582
# 2 0.9683 108.4191 -0.0684 -4.1958 -10.5051 -31.9094
# 3 7.7521 -0.0684 30.5960 2.1256 -5.9238 -2.3144
# 4 3.0336 -4.1958 2.1256 41.5617 -8.9583 1.0492
# 5 13.0013 -10.5051 -5.9238 -8.9583 33.0751 4.8683
# 6 -18.8582 -31.9094 -2.3144 1.0492 4.8683 36.6076
#
#
#
# Elastic Compliance Matrix: (Units=1/GPa)
#
#
# Indices 1 2 3 4 5 6 
#
# 1 0.021649 0.002897 -0.006397 -0.003926 -0.012004 0.014982
# 2 0.002897 0.013139 0.000481 0.001102 0.001544 0.012739
# 3 -0.006397 0.000481 0.035966 0.000794 0.009604 -0.001902
# 4 -0.003926 0.001102 0.000794 0.026583 0.009686 -0.003062
# 5 -0.012004 0.001544 0.009604 0.009686 0.041258 -0.009995
# 6 0.014982 0.012739 -0.001902 -0.003062 -0.009995 0.047435
#
#
# Mechanical properties :
#
#
# Convention : Reuss Voigt Hill
#
# Bulk Modulus (GPa) = 15.45164 25.05347 20.25255
# Shear Modulus (GPa) = 23.40380 35.55057 29.47719
#
# Velocity S-wave (km/s) = 3.17297 3.91062 3.56095
# Velocity P-wave (km/s) = 4.48002 5.58283 5.06155
#
# Compressibility (1/GPa) = 0.06471805
#
# Stress axis : x y z
#
# Youngs Moduli (GPa) = 46.19151 76.10681 27.80377
#
# Poissons Ratio (x) = -0.22048 0.17786
# Poissons Ratio (y) = -0.13382 -0.01339
# Poissons Ratio (z) = 0.29548 -0.03664
#
# Static dielectric constant tensor:
#      x y z
#    x 1.785010 0.120480 -0.140120 
#    y 0.120480 1.709860 0.199840 
#    z -0.140120 0.199840 1.688000 
# 
# From -- ./inp_files/399031.got.cif
#   From: 2010.05.17/outbox.cif.g08.bks.cpg/sg2_200_cif.got.tgz:399031.got - 2010.06.03 11:33:40.
