data_PCOD9048221
_publ_section_title
;
Structure prediction by ZEFSAII (Michael W. Deem and Ramdas Pophale) SiO2 
 PCOD9048221
Probable space group: P -1
;
_chemical_formula_sum "Si O2"
_cell_formula_units_Z 16
_cell_length_a 11.347124
_cell_length_b 8.930041
_cell_length_c 10.554010
_cell_angle_alpha 41.579279
_cell_angle_beta 83.478662
_cell_angle_gamma 88.954972
_cell_volume 701.528998
_symmetry_space_group_name_H-M "P -1"
_symmetry_group_IT_number 2
_symmetry_cell_setting 'triclinic'
loop_
_space_group_symop_operation_xyz
x,y,z
-x,-y,-z
loop_
_atom_site_type_symbol
_atom_site_label
_atom_site_fract_x
_atom_site_fract_y
_atom_site_fract_z
Si Si1 0.684531 0.903689 0.518108
Si Si2 0.087585 0.404421 0.650934
Si Si3 0.002291 0.670904 0.009297
Si Si4 0.279789 0.750617 0.397104
Si Si5 0.568018 0.346680 0.343667
Si Si6 0.890327 0.963385 0.635670
Si Si7 0.378130 0.115150 0.959093
Si Si8 0.798853 0.992797 0.179910
O O1 0.567084 0.727117 0.633771
O O2 0.775580 0.836778 0.657633
O O3 0.755909 0.919504 0.370013
O O4 0.642538 0.159573 0.382122
O O5 0.058047 0.414273 0.798041
O O6 0.219408 0.506548 0.520533
O O7 0.091602 0.138870 0.795685
O O8 0.000000 0.500000 0.500000
O O9 0.934153 0.859596 0.825235
O O10 0.000000 0.500000 0.000000
O O11 0.139202 0.752142 0.977075
O O12 0.401825 0.720255 0.473607
O O13 0.169859 0.812863 0.458994
O O14 0.303662 0.956022 0.169759
O O15 0.603443 0.620055 0.164782
O O16 0.000000 0.000000 0.500000
O O17 0.305566 0.068641 0.867895
O O18 0.500000 0.000000 0.000000
#
# Coordination Sequence:
#
# PCOD9048221 Si02
#       8
#     2   2   2   2   2   2   2   2
#     4  10  24  44  78 104 148 202 248 323 381 457
#     4  12  26  45  72 105 158 202 250 315 388 459
#     4  12  27  43  71 109 156 199 253 310 383 467
#     4  11  24  45  74 100 149 199 246 310 390 443
#     4  10  24  50  72 106 148 195 259 317 383 453
#     4  11  22  44  72 107 145 195 252 304 379 462
#     4  12  27  46  77 110 148 198 258 321 391 461
#     4  12  25  44  71 107 149 188 261 307 388 455
#
# _framework density 22.807326
#
# number of rings (size 3 to 8) (size 9 to 14) (size 15 to 20)
#    0.000    0.750    2.500    4.125    5.250    2.000 
#    0.000    8.750    0.000    0.000    0.000    0.000 
#    0.000    0.000    0.000    0.000    0.000    0.000 
#
# Total GULP energy -89200.056404 kJ/mol
# GULP energy per Si atom -5575.003525 kJ/mol
# Density = 2.275542 g / cm^3
# Si number density = 22.807326 Si / 1000 Ang^3
#
#
#
# Elastic Constant Matrix: (Units=GPa)
#
#
# Indices 1 2 3 4 5 6 
#
# 1 121.7334 35.5696 32.7035 3.0125 17.1514 23.7740
# 2 35.5696 117.9823 41.7940 -5.2646 -8.1425 20.1063
# 3 32.7035 41.7940 117.3576 16.2121 -0.1383 19.1272
# 4 3.0125 -5.2646 16.2121 26.6696 2.4092 -3.1637
# 5 17.1514 -8.1425 -0.1383 2.4092 38.8309 9.1684
# 6 23.7740 20.1063 19.1272 -3.1637 9.1684 40.2354
#
#
#
# Elastic Compliance Matrix: (Units=1/GPa)
#
#
# Indices 1 2 3 4 5 6 
#
# 1 0.010617 -0.002449 -0.001412 -0.000842 -0.004340 -0.003455
# 2 -0.002449 0.011412 -0.003375 0.003834 0.003994 -0.003260
# 3 -0.001412 -0.003375 0.011956 -0.008400 0.001461 -0.004156
# 4 -0.000842 0.003834 -0.008400 0.044554 -0.003227 0.006813
# 5 -0.004340 0.003994 0.001461 -0.003227 0.030440 -0.007317
# 6 -0.003455 -0.003260 -0.004156 0.006813 -0.007317 0.032703
#
#
# Mechanical properties :
#
#
# Convention : Reuss Voigt Hill
#
# Bulk Modulus (GPa) = 51.24917 64.13417 57.69167
# Shear Modulus (GPa) = 30.73939 37.61424 34.17682
#
# Velocity S-wave (km/s) = 3.67520 4.06546 3.87525
# Velocity P-wave (km/s) = 6.36622 7.08649 6.73599
#
# Compressibility (1/GPa) = 0.01951251
#
# Stress axis : x y z
#
# Youngs Moduli (GPa) = 94.19187 87.62642 83.64077
#
# Poissons Ratio (x) = 0.21457 0.11810
# Poissons Ratio (y) = 0.23065 0.28231
# Poissons Ratio (z) = 0.13300 0.29576
#
# Static dielectric constant tensor:
#      x y z
#    x 1.915630 -0.054580 0.033630 
#    y -0.054580 2.107970 -0.158410 
#    z 0.033630 -0.158410 1.914220 
# 
# From -- ./inp_files/242027.got.cif
#   From: 2010.05.17/outbox.cif.g08.bks.cpg/sg2_122_cif.got.tgz:242027.got - 2010.06.03 11:33:40.
