data_PCOD9048741
_publ_section_title
;
Structure prediction by ZEFSAII (Michael W. Deem and Ramdas Pophale) SiO2 
 PCOD9048741
Probable space group: P -1
;
_chemical_formula_sum "Si O2"
_cell_formula_units_Z 16
_cell_length_a 14.227227
_cell_length_b 5.239102
_cell_length_c 17.642392
_cell_angle_alpha 79.736807
_cell_angle_beta 31.806033
_cell_angle_gamma 67.770854
_cell_volume 613.255173
_symmetry_space_group_name_H-M "P -1"
_symmetry_group_IT_number 2
_symmetry_cell_setting 'triclinic'
loop_
_space_group_symop_operation_xyz
x,y,z
-x,-y,-z
loop_
_atom_site_type_symbol
_atom_site_label
_atom_site_fract_x
_atom_site_fract_y
_atom_site_fract_z
Si Si1 0.708980 0.305958 0.180726
Si Si2 0.176427 0.233441 0.602830
Si Si3 0.386761 0.413682 0.018044
Si Si4 0.856604 0.185023 0.477438
Si Si5 0.257718 0.166534 0.246259
Si Si6 0.552228 0.626478 0.767655
Si Si7 0.561283 0.690811 0.392410
Si Si8 0.942862 0.765436 0.153659
O O1 0.584467 0.190881 0.218044
O O2 0.561579 0.580639 0.313215
O O3 0.835583 0.075531 0.169554
O O4 0.854607 0.383394 0.024130
O O5 0.171680 0.539181 0.570097
O O6 0.039436 0.233479 0.767802
O O7 0.143935 0.071170 0.560181
O O8 0.397862 0.018978 0.492281
O O9 0.388801 0.618439 0.938086
O O10 0.533631 0.103596 0.900009
O O11 0.500000 0.500000 0.000000
O O12 0.225674 0.375012 0.183178
O O13 0.690041 0.321733 0.649348
O O14 0.072084 0.094228 0.372414
O O15 0.297919 0.293383 0.290166
O O16 0.500000 0.500000 0.500000
O O17 0.785562 0.636497 0.256120
#
# Coordination Sequence:
#
# PCOD9048741 Si02
#       8
#     2   2   2   2   2   2   2   2
#     4  11  25  45  69 110 144 194 247 307 371 446
#     4  12  27  46  75 111 149 196 246 306 369 443
#     4   9  22  43  68  98 138 188 239 296 371 427
#     4  12  28  45  76 110 146 193 253 301 370 440
#     4  10  24  45  72 101 144 194 240 305 367 447
#     4  11  24  43  69 105 144 189 242 307 369 432
#     4  12  23  46  73 102 151 199 242 309 375 438
#     4  11  26  44  73 103 150 192 252 301 373 446
#
# _framework density 26.090281999999998
#
# number of rings (size 3 to 8) (size 9 to 14) (size 15 to 20)
#    0.000    1.000    2.500    2.625    7.000    3.500 
#    0.000    0.000    0.000    0.000    0.000    0.000 
#    0.000    0.000    0.000    0.000    0.000    0.000 
#
# Total GULP energy -89520.423379 kJ/mol
# GULP energy per Si atom -5595.026461 kJ/mol
# Density = 2.603090 g / cm^3
# Si number density = 26.090282 Si / 1000 Ang^3
#
#
#
# Elastic Constant Matrix: (Units=GPa)
#
#
# Indices 1 2 3 4 5 6 
#
# 1 140.3306 14.1509 40.7446 -6.9323 17.9079 22.6843
# 2 14.1509 72.6566 9.2083 -7.7143 18.0076 -2.0771
# 3 40.7446 9.2083 150.8823 -30.1870 21.5539 12.6472
# 4 -6.9323 -7.7143 -30.1870 40.3009 3.5241 6.9875
# 5 17.9079 18.0076 21.5539 3.5241 52.8016 -4.4016
# 6 22.6843 -2.0771 12.6472 6.9875 -4.4016 43.3581
#
#
#
# Elastic Compliance Matrix: (Units=1/GPa)
#
#
# Indices 1 2 3 4 5 6 
#
# 1 0.008757 -0.000868 -0.001236 0.001474 -0.002665 -0.004771
# 2 -0.000868 0.015661 0.000948 0.004115 -0.005735 -0.000317
# 3 -0.001236 0.000948 0.009535 0.008192 -0.004667 -0.003883
# 4 0.001474 0.004115 0.008192 0.034338 -0.008318 -0.009342
# 5 -0.002665 -0.005735 -0.004667 -0.008318 0.024787 0.006338
# 6 -0.004771 -0.000317 -0.003883 -0.009342 0.006338 0.028826
#
#
# Mechanical properties :
#
#
# Convention : Reuss Voigt Hill
#
# Bulk Modulus (GPa) = 31.60565 54.67524 43.14044
# Shear Modulus (GPa) = 37.10214 47.27649 42.18931
#
# Velocity S-wave (km/s) = 3.77512 4.26142 4.02562
# Velocity P-wave (km/s) = 5.58053 6.72418 6.17887
#
# Compressibility (1/GPa) = 0.03163991
#
# Stress axis : x y z
#
# Youngs Moduli (GPa) = 114.20011 63.85085 104.87990
#
# Poissons Ratio (x) = 0.05543 0.12964
# Poissons Ratio (y) = 0.09913 -0.09939
# Poissons Ratio (z) = 0.14116 -0.06051
#
# Static dielectric constant tensor:
#      x y z
#    x 2.074050 -0.109320 -0.003890 
#    y -0.109320 2.020450 -0.051630 
#    z -0.003890 -0.051630 2.073650 
# 
# From -- ./inp_files/571659.got.cif
#   From: 2010.05.17/outbox.cif.g08.bks.cpg/sg2_286_cif.got.tgz:571659.got - 2010.06.03 11:33:40.
