data_PCOD9048567
_publ_section_title
;
Structure prediction by ZEFSAII (Michael W. Deem and Ramdas Pophale) SiO2 
 PCOD9048567
Probable space group: P -1
;
_chemical_formula_sum "Si O2"
_cell_formula_units_Z 10
_cell_length_a 7.743052
_cell_length_b 8.753907
_cell_length_c 10.008214
_cell_angle_alpha 54.358441
_cell_angle_beta 66.330727
_cell_angle_gamma 99.236212
_cell_volume 428.195519
_symmetry_space_group_name_H-M "P -1"
_symmetry_group_IT_number 2
_symmetry_cell_setting 'triclinic'
loop_
_space_group_symop_operation_xyz
x,y,z
-x,-y,-z
loop_
_atom_site_type_symbol
_atom_site_label
_atom_site_fract_x
_atom_site_fract_y
_atom_site_fract_z
Si Si1 0.025877 0.819525 0.667681
Si Si2 0.607095 0.400967 0.923415
Si Si3 0.909963 0.970739 0.193052
Si Si4 0.332010 0.509662 0.442220
Si Si5 0.436987 0.924403 0.336182
O O1 0.867598 0.570782 0.789338
O O2 0.966435 0.843388 0.826504
O O3 0.280387 0.892751 0.525704
O O4 0.000000 0.000000 0.500000
O O5 0.568063 0.426405 0.768488
O O6 0.500000 0.500000 0.000000
O O7 0.506688 0.148215 0.122172
O O8 0.877369 0.739726 0.370211
O O9 0.668478 0.942007 0.283022
O O10 0.000000 0.000000 0.000000
O O11 0.500000 0.500000 0.500000
O O12 0.297755 0.702531 0.404248
#
# Coordination Sequence:
#
# PCOD9048567 Si02
#       5
#     2   2   2   2   2
#     4  12  25  46  73 103 145 184 235 291 347 415
#     4  12  25  44  74 105 140 187 236 288 349 416
#     4  11  26  48  73 104 141 189 235 287 354 416
#     4  10  24  45  70 100 145 181 232 292 346 411
#     4  11  26  46  73 105 143 184 237 286 353 416
#
# _framework density 23.353818
#
# number of rings (size 3 to 8) (size 9 to 14) (size 15 to 20)
#    0.000    0.800    4.000    1.200    8.400    4.800 
#    0.000    0.000    0.000    0.000    0.000    0.000 
#    0.000    0.000    0.000    0.000    0.000    0.000 
#
# Total GULP energy -55911.804794 kJ/mol
# GULP energy per Si atom -5591.180479 kJ/mol
# Density = 2.330066 g / cm^3
# Si number density = 23.353818 Si / 1000 Ang^3
#
#
#
# Elastic Constant Matrix: (Units=GPa)
#
#
# Indices 1 2 3 4 5 6 
#
# 1 73.9097 39.7418 31.9219 8.0664 -14.7076 -1.4331
# 2 39.7418 166.2918 90.4688 15.6618 22.6986 -10.5651
# 3 31.9219 90.4688 151.2558 14.7542 1.5267 -5.0184
# 4 8.0664 15.6618 14.7542 60.7619 -6.6310 12.2766
# 5 -14.7076 22.6986 1.5267 -6.6310 35.9584 3.5486
# 6 -1.4331 -10.5651 -5.0184 12.2766 3.5486 29.8718
#
#
#
# Elastic Compliance Matrix: (Units=1/GPa)
#
#
# Indices 1 2 3 4 5 6 
#
# 1 0.019552 -0.006361 -0.000689 0.001287 0.012620 -0.003456
# 2 -0.006361 0.013039 -0.005770 -0.003677 -0.011883 0.006260
# 3 -0.000689 -0.005770 0.010209 -0.000484 0.002887 -0.000503
# 4 0.001287 -0.003677 -0.000484 0.020326 0.007661 -0.010584
# 5 0.012620 -0.011883 0.002887 0.007661 0.042884 -0.011355
# 6 -0.003456 0.006260 -0.000503 -0.010584 -0.011355 0.041139
#
#
# Mechanical properties :
#
#
# Convention : Reuss Voigt Hill
#
# Bulk Modulus (GPa) = 58.27683 79.52470 68.90077
# Shear Modulus (GPa) = 28.00966 40.60673 34.30820
#
# Velocity S-wave (km/s) = 3.46694 4.17437 3.83699
# Velocity P-wave (km/s) = 6.40580 7.57363 7.01406
#
# Compressibility (1/GPa) = 0.01715948
#
# Stress axis : x y z
#
# Youngs Moduli (GPa) = 51.14567 76.69317 97.95013
#
# Poissons Ratio (x) = 0.48785 0.06751
# Poissons Ratio (y) = 0.32534 0.56518
# Poissons Ratio (z) = 0.03525 0.44252
#
# Static dielectric constant tensor:
#      x y z
#    x 1.979890 0.076410 -0.049970 
#    y 0.076410 1.924340 -0.046660 
#    z -0.049970 -0.046660 1.907510 
# 
# From -- ./inp_files/144312.got.cif
#   From: 2010.05.17/outbox.cif.g08.bks.cpg/sg2_73_cif.got.tgz:144312.got - 2010.06.03 11:33:40.
