data_PCOD9048133
_publ_section_title
;
Structure prediction by ZEFSAII (Michael W. Deem and Ramdas Pophale) SiO2 
 PCOD9048133
Probable space group: P -1
;
_chemical_formula_sum "Si O2"
_cell_formula_units_Z 16
_cell_length_a 9.568781
_cell_length_b 11.054475
_cell_length_c 8.169735
_cell_angle_alpha 83.486324
_cell_angle_beta 132.491993
_cell_angle_gamma 77.602982
_cell_volume 580.902753
_symmetry_space_group_name_H-M "P -1"
_symmetry_group_IT_number 2
_symmetry_cell_setting 'triclinic'
loop_
_space_group_symop_operation_xyz
x,y,z
-x,-y,-z
loop_
_atom_site_type_symbol
_atom_site_label
_atom_site_fract_x
_atom_site_fract_y
_atom_site_fract_z
Si Si1 0.038156 0.593786 0.644543
Si Si2 0.836594 0.058997 0.002039
Si Si3 0.402316 0.084064 0.662056
Si Si4 0.820722 0.689020 0.763197
Si Si5 0.992159 0.211548 0.681444
Si Si6 0.430002 0.417980 0.187157
Si Si7 0.255482 0.655699 0.220252
Si Si8 0.557741 0.807566 0.964728
O O1 0.860400 0.616548 0.632012
O O2 0.039111 0.720833 0.530273
O O3 0.000000 0.500000 0.500000
O O4 0.251336 0.518231 0.914047
O O5 0.628190 0.049869 0.775907
O O6 0.780057 0.214952 0.938876
O O7 0.933310 0.947843 0.236209
O O8 0.000000 0.000000 0.000000
O O9 0.246394 0.162721 0.384900
O O10 0.415815 0.164399 0.826862
O O11 0.403229 0.946673 0.745940
O O12 0.649642 0.662584 0.732190
O O13 0.044672 0.632768 0.030780
O O14 0.205620 0.226572 0.907477
O O15 0.794450 0.289185 0.635501
O O16 0.444578 0.533444 0.301724
O O17 0.524160 0.302032 0.141493
#
# Coordination Sequence:
#
# PCOD9048133 Si02
#       8
#     2   2   2   2   2   2   2   2
#     4  11  17  29  55  86 116 148 187 233 281 332
#     4   9  21  40  59  81 115 154 191 228 280 352
#     4  10  21  37  62  82 111 150 197 231 278 342
#     4  11  20  33  56  92 114 143 189 244 287 316
#     4  10  17  34  58  83 112 152 196 225 277 335
#     4  11  21  33  53  89 122 145 185 244 289 324
#     4  10  20  36  58  87 121 147 185 241 283 333
#     4  10  19  35  56  85 114 149 189 240 279 333
#
# _framework density 27.543334000000002
#
# number of rings (size 3 to 8) (size 9 to 14) (size 15 to 20)
#    0.000    1.750    3.750    2.250    0.000    0.500 
#    0.000    3.750    0.000    0.000    0.000    0.000 
#    0.000    0.000    0.000    0.000    0.000    0.000 
#
# Total GULP energy -89229.286849 kJ/mol
# GULP energy per Si atom -5576.830428 kJ/mol
# Density = 2.748064 g / cm^3
# Si number density = 27.543334 Si / 1000 Ang^3
#
#
#
# Elastic Constant Matrix: (Units=GPa)
#
#
# Indices 1 2 3 4 5 6 
#
# 1 92.5874 11.6911 -10.5771 1.4245 -3.4405 -5.7711
# 2 11.6911 139.7938 31.3840 -8.9744 -17.9633 -14.0835
# 3 -10.5771 31.3840 56.9624 -9.3657 -38.2773 18.5370
# 4 1.4245 -8.9744 -9.3657 47.6641 14.8539 -12.5506
# 5 -3.4405 -17.9633 -38.2773 14.8539 38.1509 -7.1427
# 6 -5.7711 -14.0835 18.5370 -12.5506 -7.1427 35.9423
#
#
#
# Elastic Compliance Matrix: (Units=1/GPa)
#
#
# Indices 1 2 3 4 5 6 
#
# 1 0.013951 -0.004186 0.019871 -0.005522 0.019949 -0.007612
# 2 -0.004186 0.012592 -0.024145 0.007723 -0.018744 0.015686
# 3 0.019871 -0.024145 0.135193 -0.034974 0.127926 -0.062785
# 4 -0.005522 0.007723 -0.034974 0.034878 -0.040999 0.024209
# 5 0.019949 -0.018744 0.127926 -0.040999 0.153397 -0.053951
# 6 -0.007612 0.015686 -0.062785 0.024209 -0.053951 0.062860
#
#
# Mechanical properties :
#
#
# Convention : Reuss Voigt Hill
#
# Bulk Modulus (GPa) = 6.90529 39.37105 23.13817
# Shear Modulus (GPa) = 10.45889 41.47451 25.96670
#
# Velocity S-wave (km/s) = 1.95077 3.88466 3.07377
# Velocity P-wave (km/s) = 2.75436 5.86908 4.58435
#
# Compressibility (1/GPa) = 0.14481643
#
# Stress axis : x y z
#
# Youngs Moduli (GPa) = 71.67941 79.41749 7.39682
#
# Poissons Ratio (x) = 0.33243 -0.14699
# Poissons Ratio (y) = 0.30004 0.17860
# Poissons Ratio (z) = -1.42437 1.91756
#
# Static dielectric constant tensor:
#      x y z
#    x 2.714570 -0.085480 -0.097250 
#    y -0.085480 2.289620 -0.026590 
#    z -0.097250 -0.026590 2.313190 
# 
# From -- ./inp_files/258183.got.cif
#   From: 2010.05.17/outbox.cif.g08.bks.cpg/sg2_130_cif.got.tgz:258183.got - 2010.06.03 11:33:40.
