data_PCOD9048233
_publ_section_title
;
Structure prediction by ZEFSAII (Michael W. Deem and Ramdas Pophale) SiO2 
 PCOD9048233
Probable space group: P -1
;
_chemical_formula_sum "Si O2"
_cell_formula_units_Z 10
_cell_length_a 4.929239
_cell_length_b 5.539213
_cell_length_c 11.837375
_cell_angle_alpha 88.856130
_cell_angle_beta 91.992186
_cell_angle_gamma 91.542055
_cell_volume 322.838020
_symmetry_space_group_name_H-M "P -1"
_symmetry_group_IT_number 2
_symmetry_cell_setting 'triclinic'
loop_
_space_group_symop_operation_xyz
x,y,z
-x,-y,-z
loop_
_atom_site_type_symbol
_atom_site_label
_atom_site_fract_x
_atom_site_fract_y
_atom_site_fract_z
Si Si1 0.000000 0.500000 0.500000
Si Si2 0.206107 0.443393 0.937428
Si Si3 0.478480 0.913262 0.179701
Si Si4 0.495904 0.198397 0.402568
Si Si5 0.901979 0.452619 0.706783
Si Si6 0.000000 0.000000 0.000000
O O1 0.279657 0.602768 0.565813
O O2 0.983063 0.280850 0.608001
O O3 0.272084 0.136995 0.901759
O O4 0.113920 0.507785 0.807062
O O5 0.500000 0.500000 0.000000
O O6 0.943165 0.307524 0.007242
O O7 0.354514 0.663694 0.230780
O O8 0.549526 0.080728 0.283425
O O9 0.234017 0.025601 0.107446
O O10 0.206271 0.338360 0.383478
O O11 0.500000 0.000000 0.500000
#
# Coordination Sequence:
#
# PCOD9048233 Si02
#       6
#     1   2   2   2   2   1
#     4  12  26  48  80 112 162 216 272 338 410 496
#     4  11  25  46  77 115 160 216 275 344 411 493
#     4  11  25  49  77 119 167 214 273 344 415 497
#     4  12  27  48  78 116 164 215 275 342 413 490
#     4  11  26  46  74 117 160 212 276 336 416 489
#     4  10  24  44  78 116 160 208 276 330 426 488
#
# _framework density 30.975286000000001
#
# number of rings (size 3 to 8) (size 9 to 14) (size 15 to 20)
#    0.000    0.800    2.000    3.600    2.800   10.400 
#    0.000    0.000    0.000    3.600    0.000    0.000 
#    0.000    0.000    0.000    0.000    0.000    0.000 
#
# Total GULP energy -55940.030623 kJ/mol
# GULP energy per Si atom -5594.003062 kJ/mol
# Density = 3.090479 g / cm^3
# Si number density = 30.975286 Si / 1000 Ang^3
#
#
#
# Elastic Constant Matrix: (Units=GPa)
#
#
# Indices 1 2 3 4 5 6 
#
# 1 331.7605 85.7577 130.6853 5.0370 25.5721 -15.5336
# 2 85.7577 201.1468 78.8264 -8.4022 22.3718 0.0473
# 3 130.6853 78.8264 371.7822 21.4673 43.2044 10.7307
# 4 5.0370 -8.4022 21.4673 77.4723 -2.2899 4.8508
# 5 25.5721 22.3718 43.2044 -2.2899 69.6006 3.4298
# 6 -15.5336 0.0473 10.7307 4.8508 3.4298 61.3769
#
#
#
# Elastic Compliance Matrix: (Units=1/GPa)
#
#
# Indices 1 2 3 4 5 6 
#
# 1 0.003832 -0.001173 -0.001073 -0.000166 -0.000429 0.001195
# 2 -0.001173 0.005921 -0.000781 0.000918 -0.000949 -0.000184
# 3 -0.001073 -0.000781 0.003486 -0.000981 -0.001516 -0.000718
# 4 -0.000166 0.000918 -0.000981 0.013377 0.000863 -0.000977
# 5 -0.000429 -0.000949 -0.001516 0.000863 0.015839 -0.000796
# 6 0.001195 -0.000184 -0.000718 -0.000977 -0.000796 0.016843
#
#
# Mechanical properties :
#
#
# Convention : Reuss Voigt Hill
#
# Bulk Modulus (GPa) = 139.16340 166.13645 152.64993
# Shear Modulus (GPa) = 73.80580 82.31799 78.06189
#
# Velocity S-wave (km/s) = 4.88662 5.16072 5.02554
# Velocity P-wave (km/s) = 8.76718 9.44788 9.11389
#
# Compressibility (1/GPa) = 0.00718580
#
# Stress axis : x y z
#
# Youngs Moduli (GPa) = 260.98292 168.88314 286.85836
#
# Poissons Ratio (x) = 0.19802 0.30789
# Poissons Ratio (y) = 0.30600 0.22397
# Poissons Ratio (z) = 0.28011 0.13186
#
# Static dielectric constant tensor:
#      x y z
#    x 3.194890 0.000740 -0.963810 
#    y 0.000740 2.860460 -0.111570 
#    z -0.963810 -0.111570 3.010460 
# 
# From -- ./inp_files/359262.got.cif
#   From: 2010.05.17/outbox.cif.g08.bks.cpg/sg2_180_cif.got.tgz:359262.got - 2010.06.03 11:33:40.
