data_PCOD9048053
_publ_section_title
;
Structure prediction by ZEFSAII (Michael W. Deem and Ramdas Pophale) SiO2 
 PCOD9048053
Probable space group: P -1
;
_chemical_formula_sum "Si O2"
_cell_formula_units_Z 16
_cell_length_a 6.659494
_cell_length_b 11.232370
_cell_length_c 11.573064
_cell_angle_alpha 81.426721
_cell_angle_beta 76.717066
_cell_angle_gamma 57.236226
_cell_volume 708.165506
_symmetry_space_group_name_H-M "P -1"
_symmetry_group_IT_number 2
_symmetry_cell_setting 'triclinic'
loop_
_space_group_symop_operation_xyz
x,y,z
-x,-y,-z
loop_
_atom_site_type_symbol
_atom_site_label
_atom_site_fract_x
_atom_site_fract_y
_atom_site_fract_z
Si Si1 0.972883 0.898878 0.428617
Si Si2 0.212493 0.838361 0.717549
Si Si3 0.331663 0.812301 0.086421
Si Si4 0.186691 0.356745 0.060209
Si Si5 0.074453 0.622019 0.676087
Si Si6 0.304494 0.247075 0.473934
Si Si7 0.946210 0.861174 0.977498
Si Si8 0.495987 0.689422 0.334236
O O1 0.756162 0.876049 0.489944
O O2 0.223468 0.750061 0.405728
O O3 0.924192 0.993138 0.308026
O O4 0.000000 0.000000 0.500000
O O5 0.105143 0.755887 0.674144
O O6 0.476754 0.784204 0.636991
O O7 0.154498 0.822909 0.858917
O O8 0.445926 0.767473 0.205885
O O9 0.540081 0.691258 0.995488
O O10 0.083466 0.817327 0.088143
O O11 0.250456 0.972009 0.036164
O O12 0.101554 0.372109 0.200580
O O13 0.166424 0.230841 0.025443
O O14 0.000000 0.500000 0.000000
O O15 0.335105 0.479098 0.676108
O O16 0.940889 0.631589 0.573129
O O17 0.374502 0.272034 0.588295
#
# Coordination Sequence:
#
# PCOD9048053 Si02
#       8
#     2   2   2   2   2   2   2   2
#     4  12  24  46  67 100 135 173 224 278 329 393
#     4  11  23  45  70  98 134 176 223 277 332 392
#     4  11  23  46  66 100 134 174 225 274 331 393
#     4  11  23  45  71 100 133 174 225 274 332 396
#     4  11  25  46  66  98 140 175 222 276 328 399
#     4  12  25  42  73  97 134 179 226 264 339 397
#     4  10  24  44  72  98 132 177 221 277 334 389
#     4  12  26  43  68  99 140 176 220 278 327 395
#
# _framework density 22.593589000000001
#
# number of rings (size 3 to 8) (size 9 to 14) (size 15 to 20)
#    0.000    0.750    5.000    1.875    0.000    4.500 
#    4.500    0.000    0.000    0.000    0.000    0.000 
#    0.000    0.000    0.000    0.000    0.000    0.000 
#
# Total GULP energy -89327.659803 kJ/mol
# GULP energy per Si atom -5582.978738 kJ/mol
# Density = 2.254217 g / cm^3
# Si number density = 22.593589 Si / 1000 Ang^3
#
#
#
# Elastic Constant Matrix: (Units=GPa)
#
#
# Indices 1 2 3 4 5 6 
#
# 1 77.0556 24.0281 52.1338 -8.0685 12.1226 -19.7127
# 2 24.0281 96.1245 29.0648 -1.1422 12.2982 -35.8928
# 3 52.1338 29.0648 105.7975 -4.4155 6.5937 -16.2261
# 4 -8.0685 -1.1422 -4.4155 35.2779 -9.6884 3.5009
# 5 12.1226 12.2982 6.5937 -9.6884 40.1875 -3.8599
# 6 -19.7127 -35.8928 -16.2261 3.5009 -3.8599 38.8790
#
#
#
# Elastic Compliance Matrix: (Units=1/GPa)
#
#
# Indices 1 2 3 4 5 6 
#
# 1 0.021907 0.000601 -0.009534 0.002017 -0.004060 0.007098
# 2 0.000601 0.017031 -0.002549 -0.002219 -0.004092 0.014757
# 3 -0.009534 -0.002549 0.014629 -0.000018 0.001159 -0.000965
# 4 0.002017 -0.002219 -0.000018 0.031035 0.007257 -0.003107
# 5 -0.004060 -0.004092 0.001159 0.007257 0.028616 -0.003165
# 6 0.007098 0.014757 -0.000965 -0.003107 -0.003165 0.042506
#
#
# Mechanical properties :
#
#
# Convention : Reuss Voigt Hill
#
# Bulk Modulus (GPa) = 32.67729 54.38124 43.52926
# Shear Modulus (GPa) = 26.47039 34.45228 30.46134
#
# Velocity S-wave (km/s) = 3.42656 3.90919 3.67581
# Velocity P-wave (km/s) = 5.49086 6.67063 6.10929
#
# Compressibility (1/GPa) = 0.03060230
#
# Stress axis : x y z
#
# Youngs Moduli (GPa) = 45.64836 58.71502 68.35533
#
# Poissons Ratio (x) = -0.03526 0.65171
# Poissons Ratio (y) = -0.02741 0.17424
# Poissons Ratio (z) = 0.43522 0.14967
#
# Static dielectric constant tensor:
#      x y z
#    x 1.835020 -0.019910 0.027630 
#    y -0.019910 1.829000 -0.005040 
#    z 0.027630 -0.005040 1.925800 
# 
# From -- ./inp_files/364265.got.cif
#   From: 2010.05.17/outbox.cif.g08.bks.cpg/sg2_183_cif.got.tgz:364265.got - 2010.06.03 11:33:40.
