data_PCOD9048014
_publ_section_title
;
Structure prediction by ZEFSAII (Michael W. Deem and Ramdas Pophale) SiO2 
 PCOD9048014
Probable space group: P -1
;
_chemical_formula_sum "Si O2"
_cell_formula_units_Z 14
_cell_length_a 11.606943
_cell_length_b 11.802763
_cell_length_c 5.445177
_cell_angle_alpha 123.929154
_cell_angle_beta 104.225212
_cell_angle_gamma 73.993794
_cell_volume 590.989905
_symmetry_space_group_name_H-M "P -1"
_symmetry_group_IT_number 2
_symmetry_cell_setting 'triclinic'
loop_
_space_group_symop_operation_xyz
x,y,z
-x,-y,-z
loop_
_atom_site_type_symbol
_atom_site_label
_atom_site_fract_x
_atom_site_fract_y
_atom_site_fract_z
Si Si1 0.611263 0.964522 0.328606
Si Si2 0.500363 0.774174 0.672489
Si Si3 0.959959 0.893661 0.156641
Si Si4 0.685006 0.580579 0.228963
Si Si5 0.893522 0.175015 0.248364
Si Si6 0.846576 0.782664 0.364226
Si Si7 0.322618 0.589650 0.479822
O O1 0.735616 0.911537 0.468656
O O2 0.500000 0.000000 0.500000
O O3 0.602774 0.103267 0.331393
O O4 0.585231 0.844664 0.982930
O O5 0.573789 0.701280 0.390691
O O6 0.440059 0.661903 0.649984
O O7 0.882139 0.787478 0.099802
O O8 0.884106 0.014224 0.094315
O O9 0.000000 0.000000 0.500000
O O10 0.085745 0.815125 0.019378
O O11 0.796395 0.654849 0.298880
O O12 0.698653 0.494869 0.387661
O O13 0.664313 0.493451 0.870810
O O14 0.790879 0.285838 0.441105
O O15 0.026038 0.203550 0.433115
#
# Coordination Sequence:
#
# PCOD9048014 Si02
#       7
#     2   2   2   2   2   2   2
#     4  11  24  43  78 109 139 182 238 314 384 414
#     4  11  26  48  73 109 144 187 250 309 365 436
#     4   9  21  42  71 100 141 184 233 306 370 415
#     4  12  28  47  73 107 150 203 244 295 359 432
#     4  10  24  44  72 108 141 189 242 300 371 433
#     4  11  24  43  73 103 149 179 242 304 365 437
#     4  12  29  48  76 104 150 203 249 289 357 445
#
# _framework density 23.689066
#
# number of rings (size 3 to 8) (size 9 to 14) (size 15 to 20)
#    0.000    1.143    1.429    2.571   10.000    4.571 
#    0.000    0.000    0.000    0.000    0.000    0.000 
#    0.000    0.000    0.000    0.000    0.000    0.000 
#
# Total GULP energy -78159.162935 kJ/mol
# GULP energy per Si atom -5582.797352 kJ/mol
# Density = 2.363515 g / cm^3
# Si number density = 23.689066 Si / 1000 Ang^3
#
#
#
# Elastic Constant Matrix: (Units=GPa)
#
#
# Indices 1 2 3 4 5 6 
#
# 1 104.4722 42.3042 55.4206 5.1751 -10.9090 13.6646
# 2 42.3042 117.4873 45.5274 -4.1343 1.8451 35.3176
# 3 55.4206 45.5274 152.8856 10.1368 -23.4257 -6.1527
# 4 5.1751 -4.1343 10.1368 29.5232 -1.6488 -8.2801
# 5 -10.9090 1.8451 -23.4257 -1.6488 38.1692 -3.9122
# 6 13.6646 35.3176 -6.1527 -8.2801 -3.9122 57.1842
#
#
#
# Elastic Compliance Matrix: (Units=1/GPa)
#
#
# Indices 1 2 3 4 5 6 
#
# 1 0.013155 -0.002798 -0.003682 -0.001918 0.001348 -0.001997
# 2 -0.002798 0.013863 -0.004293 0.001244 -0.004923 -0.008512
# 3 -0.003682 -0.004293 0.010378 -0.001845 0.005936 0.004787
# 4 -0.001918 0.001244 -0.001845 0.036374 0.000320 0.004781
# 5 0.001348 -0.004923 0.005936 0.000320 0.031046 0.005528
# 6 -0.001997 -0.008512 0.004787 0.004781 0.005528 0.024807
#
#
# Mechanical properties :
#
#
# Convention : Reuss Voigt Hill
#
# Bulk Modulus (GPa) = 63.09461 73.48329 68.28895
# Shear Modulus (GPa) = 31.95842 40.41487 36.18664
#
# Velocity S-wave (km/s) = 3.67697 4.13492 3.91265
# Velocity P-wave (km/s) = 6.68723 7.34058 7.02151
#
# Compressibility (1/GPa) = 0.01584921
#
# Stress axis : x y z
#
# Youngs Moduli (GPa) = 76.01475 72.13689 96.35335
#
# Poissons Ratio (x) = 0.20187 0.35478
# Poissons Ratio (y) = 0.21272 0.41365
# Poissons Ratio (z) = 0.27989 0.30969
#
# Static dielectric constant tensor:
#      x y z
#    x 1.888240 0.024530 -0.045410 
#    y 0.024530 2.144000 -0.257740 
#    z -0.045410 -0.257740 2.183320 
# 
# From -- ./inp_files/67867.got.cif
#   From: 2010.05.17/outbox.cif.g08.bks.cpg/sg2_34_cif.got.tgz:67867.got - 2010.06.03 11:33:40.
