data_PCOD9048460
_publ_section_title
;
Structure prediction by ZEFSAII (Michael W. Deem and Ramdas Pophale) SiO2 
 PCOD9048460
Probable space group: P -1
;
_chemical_formula_sum "Si O2"
_cell_formula_units_Z 12
_cell_length_a 14.895404
_cell_length_b 7.003993
_cell_length_c 18.754025
_cell_angle_alpha 118.389857
_cell_angle_beta 160.227233
_cell_angle_gamma 51.329580
_cell_volume 467.517967
_symmetry_space_group_name_H-M "P -1"
_symmetry_group_IT_number 2
_symmetry_cell_setting 'triclinic'
loop_
_space_group_symop_operation_xyz
x,y,z
-x,-y,-z
loop_
_atom_site_type_symbol
_atom_site_label
_atom_site_fract_x
_atom_site_fract_y
_atom_site_fract_z
Si Si1 0.688683 0.932409 0.458128
Si Si2 0.543938 0.749497 0.910329
Si Si3 0.263476 0.599672 0.409963
Si Si4 0.261546 0.933635 0.245548
Si Si5 0.301121 0.310910 0.818568
Si Si6 0.360034 0.759304 0.084175
O O1 0.459386 0.031782 0.374806
O O2 0.471783 0.932006 0.232586
O O3 0.979583 0.615716 0.626720
O O4 0.797010 0.124100 0.560653
O O5 0.565265 0.738182 0.010311
O O6 0.910572 0.653779 0.142888
O O7 0.484583 0.525581 0.809961
O O8 0.285269 0.058785 0.748772
O O9 0.500000 0.500000 0.500000
O O10 0.472185 0.373856 0.586637
O O11 0.000000 0.000000 0.000000
O O12 0.026534 0.087540 0.164449
O O13 0.539836 0.281300 0.929877
#
# Coordination Sequence:
#
# PCOD9048460 Si02
#       6
#     2   2   2   2   2   2
#     4  11  26  45  72 100 142 180 232 286 347 414
#     4  11  26  42  70 100 140 180 231 285 344 411
#     4  12  26  44  74 107 137 186 236 288 348 415
#     4  10  24  45  69 100 141 182 229 288 343 410
#     4  11  25  44  68 103 140 181 229 283 346 415
#     4  11  25  44  70 100 137 185 225 285 345 414
#
# _framework density 25.667463000000001
#
# number of rings (size 3 to 8) (size 9 to 14) (size 15 to 20)
#    0.000    1.000    1.667    3.000    9.333    7.333 
#    0.000    0.000    0.000    0.000    0.000    0.000 
#    0.000    0.000    0.000    0.000    0.000    0.000 
#
# Total GULP energy -67195.319098 kJ/mol
# GULP energy per Si atom -5599.609925 kJ/mol
# Density = 2.560904 g / cm^3
# Si number density = 25.667463 Si / 1000 Ang^3
#
#
#
# Elastic Constant Matrix: (Units=GPa)
#
#
# Indices 1 2 3 4 5 6 
#
# 1 130.0356 -2.7015 37.5358 8.8038 44.5213 3.8606
# 2 -2.7015 149.6851 14.9505 -3.3908 -4.7164 12.9939
# 3 37.5358 14.9505 82.7035 -7.1425 -0.7352 -5.2820
# 4 8.8038 -3.3908 -7.1425 51.8861 -3.9537 -3.2871
# 5 44.5213 -4.7164 -0.7352 -3.9537 45.4573 -4.3925
# 6 3.8606 12.9939 -5.2820 -3.2871 -4.3925 33.9948
#
#
#
# Elastic Compliance Matrix: (Units=1/GPa)
#
#
# Indices 1 2 3 4 5 6 
#
# 1 0.017010 0.001086 -0.009001 -0.005833 -0.017839 -0.006614
# 2 0.001086 0.007161 -0.002026 -0.000256 -0.000694 -0.003289
# 3 -0.009001 -0.002026 0.017459 0.004952 0.009925 0.006271
# 4 -0.005833 -0.000256 0.004952 0.021843 0.008119 0.004691
# 5 -0.017839 -0.000694 0.009925 0.008119 0.041226 0.009945
# 6 -0.006614 -0.003289 0.006271 0.004691 0.009945 0.034138
#
#
# Mechanical properties :
#
#
# Convention : Reuss Voigt Hill
#
# Bulk Modulus (GPa) = 45.98153 51.33266 48.65710
# Shear Modulus (GPa) = 30.12621 47.11027 38.61824
#
# Velocity S-wave (km/s) = 3.42966 4.28881 3.88307
# Velocity P-wave (km/s) = 5.79971 6.67591 6.25318
#
# Compressibility (1/GPa) = 0.02174786
#
# Stress axis : x y z
#
# Youngs Moduli (GPa) = 58.78875 139.65490 57.27616
#
# Poissons Ratio (x) = -0.15167 0.51556
# Poissons Ratio (y) = -0.06385 0.11603
# Poissons Ratio (z) = 0.52917 0.28290
#
# Static dielectric constant tensor:
#      x y z
#    x 2.036460 -0.055940 0.003910 
#    y -0.055940 2.060620 -0.009540 
#    z 0.003910 -0.009540 2.008640 
# 
# From -- ./inp_files/39397.got.cif
#   From: 2010.05.17/outbox.cif.g08.bks.cpg/sg2_20_cif.got.tgz:39397.got - 2010.06.03 11:33:40.
