data_PCOD9048092
_publ_section_title
;
Structure prediction by ZEFSAII (Michael W. Deem and Ramdas Pophale) SiO2 
 PCOD9048092
Probable space group: P -1
;
_chemical_formula_sum "Si O2"
_cell_formula_units_Z 14
_cell_length_a 17.972246
_cell_length_b 11.312684
_cell_length_c 9.038102
_cell_angle_alpha 141.431671
_cell_angle_beta 140.463780
_cell_angle_gamma 32.124093
_cell_volume 575.286774
_symmetry_space_group_name_H-M "P -1"
_symmetry_group_IT_number 2
_symmetry_cell_setting 'triclinic'
loop_
_space_group_symop_operation_xyz
x,y,z
-x,-y,-z
loop_
_atom_site_type_symbol
_atom_site_label
_atom_site_fract_x
_atom_site_fract_y
_atom_site_fract_z
Si Si1 0.215617 0.157154 0.429364
Si Si2 0.852061 0.920389 0.227440
Si Si3 0.505939 0.878985 0.737210
Si Si4 0.330355 0.628056 0.408507
Si Si5 0.886036 0.330747 0.123852
Si Si6 0.303638 0.224817 0.316289
Si Si7 0.144377 0.742195 0.662042
O O1 0.189093 0.388707 0.691717
O O2 0.275252 0.134781 0.333994
O O3 0.057471 0.211453 0.239111
O O4 0.205820 0.693802 0.162517
O O5 0.001906 0.779771 0.411697
O O6 0.728996 0.141367 0.358179
O O7 0.856404 0.057439 0.226983
O O8 0.815533 0.746898 0.951063
O O9 0.348798 0.937588 0.515734
O O10 0.640494 0.596996 0.679006
O O11 0.547380 0.955710 0.727452
O O12 0.500000 0.000000 0.000000
O O13 0.500000 0.500000 0.500000
O O14 0.872788 0.238626 0.170314
O O15 0.279775 0.466506 0.562755
#
# Coordination Sequence:
#
# PCOD9048092 Si02
#       7
#     2   2   2   2   2   2   2
#     4  10  24  44  73 107 135 191 242 288 357 421
#     4  11  25  44  70 107 142 187 234 295 355 424
#     4  12  24  45  72 103 143 189 235 291 356 421
#     4  12  27  46  68 108 146 184 240 292 358 426
#     4  10  24  46  72 102 144 184 239 296 349 426
#     4  11  24  45  73 102 145 187 235 295 355 423
#     4  10  24  45  71 104 143 184 240 291 355 421
#
# _framework density 24.335688999999999
#
# number of rings (size 3 to 8) (size 9 to 14) (size 15 to 20)
#    0.000    1.143    2.857    1.714    8.000    2.857 
#    0.000    1.429    0.000    0.000    0.000    0.000 
#    0.000    0.000    0.000    0.000    0.000    0.000 
#
# Total GULP energy -78288.932451 kJ/mol
# GULP energy per Si atom -5592.066604 kJ/mol
# Density = 2.428030 g / cm^3
# Si number density = 24.335689 Si / 1000 Ang^3
#
#
#
# Elastic Constant Matrix: (Units=GPa)
#
#
# Indices 1 2 3 4 5 6 
#
# 1 138.7396 43.4053 6.1239 -17.8590 -32.8724 -7.9174
# 2 43.4053 127.5112 23.3568 -23.4424 -10.1547 0.0453
# 3 6.1239 23.3568 88.1466 -4.5395 -10.6728 -5.1757
# 4 -17.8590 -23.4424 -4.5395 38.9817 -6.3297 6.2392
# 5 -32.8724 -10.1547 -10.6728 -6.3297 23.0507 -5.4300
# 6 -7.9174 0.0453 -5.1757 6.2392 -5.4300 32.4437
#
#
#
# Elastic Compliance Matrix: (Units=1/GPa)
#
#
# Indices 1 2 3 4 5 6 
#
# 1 0.016092 -0.002094 0.003803 0.009968 0.028256 0.007349
# 2 -0.002094 0.010055 -0.002155 0.005347 0.001527 -0.001642
# 3 0.003803 -0.002155 0.013646 0.003378 0.012804 0.004601
# 4 0.009968 0.005347 0.003378 0.038440 0.028782 0.000389
# 5 0.028256 0.001527 0.012804 0.028782 0.103046 0.020647
# 6 0.007349 -0.001642 0.004601 0.000389 0.020647 0.036733
#
#
# Mechanical properties :
#
#
# Convention : Reuss Voigt Hill
#
# Bulk Modulus (GPa) = 25.70645 55.57438 40.64042
# Shear Modulus (GPa) = 21.56355 37.66262 29.61309
#
# Velocity S-wave (km/s) = 2.97995 3.93826 3.49213
# Velocity P-wave (km/s) = 4.73565 6.60045 5.74423
#
# Compressibility (1/GPa) = 0.03890074
#
# Stress axis : x y z
#
# Youngs Moduli (GPa) = 62.14139 99.44933 73.28144
#
# Poissons Ratio (x) = 0.20829 -0.27869
# Poissons Ratio (y) = 0.13015 0.15793
# Poissons Ratio (z) = -0.23632 0.21432
#
# Static dielectric constant tensor:
#      x y z
#    x 2.036730 0.023680 0.047490 
#    y 0.023680 1.960810 0.040590 
#    z 0.047490 0.040590 1.899960 
# 
# From -- ./inp_files/75442.got.cif
#   From: 2010.05.17/outbox.cif.g08.bks.cpg/sg2_38_cif.got.tgz:75442.got - 2010.06.03 11:33:40.
