data_PCOD9048564
_publ_section_title
;
Structure prediction by ZEFSAII (Michael W. Deem and Ramdas Pophale) SiO2 
 PCOD9048564
Probable space group: P -1
;
_chemical_formula_sum "Si O2"
_cell_formula_units_Z 14
_cell_length_a 8.128362
_cell_length_b 16.298108
_cell_length_c 7.663269
_cell_angle_alpha 138.159226
_cell_angle_beta 58.578817
_cell_angle_gamma 116.459975
_cell_volume 574.976180
_symmetry_space_group_name_H-M "P -1"
_symmetry_group_IT_number 2
_symmetry_cell_setting 'triclinic'
loop_
_space_group_symop_operation_xyz
x,y,z
-x,-y,-z
loop_
_atom_site_type_symbol
_atom_site_label
_atom_site_fract_x
_atom_site_fract_y
_atom_site_fract_z
Si Si1 0.498908 0.161994 0.155212
Si Si2 0.073088 0.896595 0.169129
Si Si3 0.842170 0.741004 0.329529
Si Si4 0.135946 0.173082 0.172185
Si Si5 0.043270 0.429142 0.537736
Si Si6 0.674076 0.458257 0.948397
Si Si7 0.635696 0.394317 0.224460
O O1 0.362460 0.195032 0.445369
O O2 0.337031 0.118737 0.027978
O O3 0.590865 0.291192 0.227448
O O4 0.692034 0.093541 0.962506
O O5 0.972940 0.776975 0.144538
O O6 0.987865 0.900325 0.025786
O O7 0.000000 0.000000 0.500000
O O8 0.943619 0.795999 0.540436
O O9 0.780084 0.594935 0.155912
O O10 0.164440 0.311355 0.290561
O O11 0.000000 0.500000 0.500000
O O12 0.152120 0.535489 0.763997
O O13 0.828371 0.385638 0.648847
O O14 0.604106 0.366650 0.996897
O O15 0.500000 0.500000 0.000000
O O16 0.500000 0.500000 0.500000
#
# Coordination Sequence:
#
# PCOD9048564 Si02
#       7
#     2   2   2   2   2   2   2
#     4  10  24  45  70 100 142 178 231 283 342 421
#     4  12  28  50  75  99 131 182 240 305 361 396
#     4  10  24  48  66 104 142 178 238 276 343 427
#     4  10  24  46  67  99 140 177 229 293 340 405
#     4  12  23  36  62  95 141 183 227 268 317 417
#     4  12  25  35  65 101 138 188 219 259 341 413
#     4  12  19  38  62  92 138 180 212 260 330 410
#
# _framework density 24.348832999999999
#
# number of rings (size 3 to 8) (size 9 to 14) (size 15 to 20)
#    0.857    0.000    4.286    3.857    6.000    1.714 
#    2.571    0.000    0.000    0.000    0.000    0.000 
#    0.000    0.000    0.000    0.000    0.000    0.000 
#
# Total GULP energy -78046.870908 kJ/mol
# GULP energy per Si atom -5574.776493 kJ/mol
# Density = 2.429341 g / cm^3
# Si number density = 24.348833 Si / 1000 Ang^3
#
#
#
# Elastic Constant Matrix: (Units=GPa)
#
#
# Indices 1 2 3 4 5 6 
#
# 1 170.0594 5.7836 50.7033 -17.6825 -12.1163 3.7231
# 2 5.7836 58.3642 0.6789 -10.3249 -2.8685 -1.7756
# 3 50.7033 0.6789 66.3027 -10.8726 -16.8922 8.8668
# 4 -17.6825 -10.3249 -10.8726 52.6226 6.1787 -0.4981
# 5 -12.1163 -2.8685 -16.8922 6.1787 47.6273 -11.5664
# 6 3.7231 -1.7756 8.8668 -0.4981 -11.5664 22.6417
#
#
#
# Elastic Compliance Matrix: (Units=1/GPa)
#
#
# Indices 1 2 3 4 5 6 
#
# 1 0.007752 -0.000439 -0.005854 0.001326 -0.000065 0.000979
# 2 -0.000439 0.017888 0.000777 0.003393 0.001260 0.001889
# 3 -0.005854 0.000777 0.021784 0.002076 0.004798 -0.005011
# 4 0.001326 0.003393 0.002076 0.020732 -0.001697 -0.001176
# 5 -0.000065 0.001260 0.004798 -0.001697 0.025731 0.011338
# 6 0.000979 0.001889 -0.005011 -0.001176 0.011338 0.051882
#
#
# Mechanical properties :
#
#
# Convention : Reuss Voigt Hill
#
# Bulk Modulus (GPa) = 27.47798 45.45089 36.46444
# Shear Modulus (GPa) = 29.59797 40.41568 35.00683
#
# Velocity S-wave (km/s) = 3.49030 4.07856 3.79584
# Velocity P-wave (km/s) = 5.24905 6.39426 5.84975
#
# Compressibility (1/GPa) = 0.03639277
#
# Stress axis : x y z
#
# Youngs Moduli (GPa) = 128.99166 55.90398 45.90570
#
# Poissons Ratio (x) = 0.02454 0.26873
# Poissons Ratio (y) = 0.05661 -0.03568
# Poissons Ratio (z) = 0.75511 -0.04345
#
# Static dielectric constant tensor:
#      x y z
#    x 2.002000 0.022910 0.000260 
#    y 0.022910 1.970770 0.065200 
#    z 0.000260 0.065200 1.983210 
# 
# From -- ./inp_files/216088.got.cif
#   From: 2010.05.17/outbox.cif.g08.bks.cpg/sg2_109_cif.got.tgz:216088.got - 2010.06.03 11:33:40.
