data_PCOD9048699
_publ_section_title
;
Structure prediction by ZEFSAII (Michael W. Deem and Ramdas Pophale) SiO2 
 PCOD9048699
Probable space group: P -1
;
_chemical_formula_sum "Si O2"
_cell_formula_units_Z 16
_cell_length_a 9.150439
_cell_length_b 23.202689
_cell_length_c 12.604589
_cell_angle_alpha 151.798389
_cell_angle_beta 59.618972
_cell_angle_gamma 132.158235
_cell_volume 908.974799
_symmetry_space_group_name_H-M "P -1"
_symmetry_group_IT_number 2
_symmetry_cell_setting 'triclinic'
loop_
_space_group_symop_operation_xyz
x,y,z
-x,-y,-z
loop_
_atom_site_type_symbol
_atom_site_label
_atom_site_fract_x
_atom_site_fract_y
_atom_site_fract_z
Si Si1 0.597960 0.685637 0.595097
Si Si2 0.414504 0.596172 0.152402
Si Si3 0.927233 0.138340 0.335862
Si Si4 0.832413 0.108973 0.086488
Si Si5 0.561767 0.396422 0.099967
Si Si6 0.529104 0.198287 0.354715
Si Si7 0.744188 0.833819 0.008601
Si Si8 0.021533 0.559304 0.205337
O O1 0.508996 0.514493 0.341752
O O2 0.474364 0.722315 0.621242
O O3 0.828495 0.772914 0.604618
O O4 0.627062 0.743469 0.798137
O O5 0.510615 0.736996 0.421384
O O6 0.175853 0.527789 0.152902
O O7 0.500000 0.500000 0.000000
O O8 0.439017 0.617530 0.050575
O O9 0.853720 0.066652 0.130090
O O10 0.887774 0.267885 0.561912
O O11 0.824303 0.003755 0.236303
O O12 0.740438 0.207465 0.292910
O O13 0.056685 0.173623 0.064388
O O14 0.660127 0.968977 0.858858
O O15 0.789622 0.471990 0.187260
O O16 0.405541 0.243330 0.963814
O O17 0.000000 0.500000 0.000000
#
# Coordination Sequence:
#
# PCOD9048699 Si02
#       8
#     2   2   2   2   2   2   2   2
#     4  10  18  34  57  83 107 151 190 225 272 330
#     4  11  21  37  61  79 110 150 194 225 271 347
#     4  10  17  34  59  81 107 146 194 227 263 331
#     4  10  20  33  58  85 115 145 191 234 270 335
#     4  10  22  37  57  84 115 147 183 239 285 322
#     4  11  19  34  58  86 108 146 198 230 271 321
#     4  11  20  36  57  88 115 145 185 235 287 325
#     4   9  20  37  58  81 106 146 196 226 265 333
#
# _framework density 17.602250000000002
#
# number of rings (size 3 to 8) (size 9 to 14) (size 15 to 20)
#    0.000    1.750    5.000    1.125    0.000    0.000 
#    0.000    5.000    0.000    0.000    0.000    0.000 
#    0.000    0.000    0.000    0.000    0.000    0.000 
#
# Total GULP energy -89084.868684 kJ/mol
# GULP energy per Si atom -5567.804293 kJ/mol
# Density = 1.756219 g / cm^3
# Si number density = 17.602250 Si / 1000 Ang^3
#
#
#
# Elastic Constant Matrix: (Units=GPa)
#
#
# Indices 1 2 3 4 5 6 
#
# 1 112.4345 35.3479 27.2046 4.3645 -20.3740 -3.3382
# 2 35.3479 86.6753 18.9238 12.7028 -5.8119 1.8156
# 3 27.2046 18.9238 92.9355 -1.7097 -0.8701 2.3173
# 4 4.3645 12.7028 -1.7097 19.8151 -4.1482 2.5199
# 5 -20.3740 -5.8119 -0.8701 -4.1482 32.2059 -4.7850
# 6 -3.3382 1.8156 2.3173 2.5199 -4.7850 11.6842
#
#
#
# Elastic Compliance Matrix: (Units=1/GPa)
#
#
# Indices 1 2 3 4 5 6 
#
# 1 0.012698 -0.004183 -0.002986 0.000349 0.008470 0.008264
# 2 -0.004183 0.014911 -0.001943 -0.008874 -0.001417 -0.001793
# 3 -0.002986 -0.001943 0.012179 0.003072 -0.002187 -0.004525
# 4 0.000349 -0.008874 0.003072 0.058593 0.004793 -0.009804
# 5 0.008470 -0.001417 -0.002187 0.004793 0.039412 0.018181
# 6 0.008264 -0.001793 -0.004525 -0.009804 0.018181 0.098683
#
#
# Mechanical properties :
#
#
# Convention : Reuss Voigt Hill
#
# Bulk Modulus (GPa) = 46.37531 50.55530 48.46531
# Shear Modulus (GPa) = 19.09212 26.77897 22.93555
#
# Velocity S-wave (km/s) = 3.29696 3.90466 3.61361
# Velocity P-wave (km/s) = 6.39505 7.00798 6.70852
#
# Compressibility (1/GPa) = 0.02156320
#
# Stress axis : x y z
#
# Youngs Moduli (GPa) = 78.75090 67.06651 82.11052
#
# Poissons Ratio (x) = 0.28055 0.24515
# Poissons Ratio (y) = 0.32942 0.15958
# Poissons Ratio (z) = 0.23512 0.13034
#
# Static dielectric constant tensor:
#      x y z
#    x 1.651910 0.016280 -0.007870 
#    y 0.016280 1.583550 0.003790 
#    z -0.007870 0.003790 1.640880 
# 
# From -- ./inp_files/177855.got.cif
#   From: 2010.05.17/outbox.cif.g08.bks.cpg/sg2_89_cif.got.tgz:177855.got - 2010.06.03 11:33:40.
