data_PCOD9048024
_publ_section_title
;
Structure prediction by ZEFSAII (Michael W. Deem and Ramdas Pophale) SiO2 
 PCOD9048024
Probable space group: P -1
;
_chemical_formula_sum "Si O2"
_cell_formula_units_Z 12
_cell_length_a 10.087567
_cell_length_b 5.127452
_cell_length_c 20.629697
_cell_angle_alpha 60.466405
_cell_angle_beta 37.594338
_cell_angle_gamma 79.748522
_cell_volume 518.965430
_symmetry_space_group_name_H-M "P -1"
_symmetry_group_IT_number 2
_symmetry_cell_setting 'triclinic'
loop_
_space_group_symop_operation_xyz
x,y,z
-x,-y,-z
loop_
_atom_site_type_symbol
_atom_site_label
_atom_site_fract_x
_atom_site_fract_y
_atom_site_fract_z
Si Si1 0.969378 0.427212 0.132430
Si Si2 0.186978 0.174443 0.351174
Si Si3 0.596800 0.153639 0.014207
Si Si4 0.657335 0.871356 0.409346
Si Si5 0.711258 0.620475 0.106937
Si Si6 0.130358 0.843908 0.285106
O O1 0.758973 0.099495 0.278985
O O2 0.849991 0.647518 0.116909
O O3 0.141650 0.570922 0.109963
O O4 0.130762 0.386127 0.016214
O O5 0.463822 0.307014 0.246099
O O6 0.143266 0.895409 0.349684
O O7 0.000000 0.000000 0.500000
O O8 0.891164 0.863881 0.352382
O O9 0.357516 0.168053 0.132733
O O10 0.629046 0.903984 0.084773
O O11 0.500000 0.000000 0.000000
O O12 0.500000 0.500000 0.500000
O O13 0.500000 0.000000 0.500000
O O14 0.143144 0.497002 0.304390
#
# Coordination Sequence:
#
# PCOD9048024 Si02
#       6
#     2   2   2   2   2   2
#     4  11  25  47  73 103 153 194 249 313 372 449
#     4  11  24  45  72 109 144 199 238 315 366 451
#     4  11  24  43  76 110 145 193 249 313 373 447
#     4  12  30  49  72 107 148 202 249 304 373 447
#     4  10  24  44  72 110 146 192 248 305 384 437
#     4  11  25  46  72 104 146 184 265 294 373 441
#
# _framework density 23.122926
#
# number of rings (size 3 to 8) (size 9 to 14) (size 15 to 20)
#    0.000    1.000    1.667    3.000   14.000    1.333 
#    0.000    0.000    0.000    0.000    0.000    0.000 
#    0.000    0.000    0.000    0.000    0.000    0.000 
#
# Total GULP energy -66960.238151 kJ/mol
# GULP energy per Si atom -5580.019846 kJ/mol
# Density = 2.307030 g / cm^3
# Si number density = 23.122926 Si / 1000 Ang^3
#
#
#
# Elastic Constant Matrix: (Units=GPa)
#
#
# Indices 1 2 3 4 5 6 
#
# 1 169.5406 37.2527 38.6851 -9.8033 -21.1412 -7.1932
# 2 37.2527 77.2229 24.4382 -2.5284 -9.4505 2.8872
# 3 38.6851 24.4382 171.8473 -3.0842 -11.2754 9.4923
# 4 -9.8033 -2.5284 -3.0842 46.2568 -0.8283 0.8361
# 5 -21.1412 -9.4505 -11.2754 -0.8283 31.1941 5.7719
# 6 -7.1932 2.8872 9.4923 0.8361 5.7719 38.0302
#
#
#
# Elastic Compliance Matrix: (Units=1/GPa)
#
#
# Indices 1 2 3 4 5 6 
#
# 1 0.007325 -0.002766 -0.001071 0.001370 0.003536 0.001296
# 2 -0.002766 0.015067 -0.001251 0.000232 0.002568 -0.001750
# 3 -0.001071 -0.001251 0.006455 0.000199 0.001598 -0.001966
# 4 0.001370 0.000232 0.000199 0.021976 0.001757 -0.000558
# 5 0.003536 0.002568 0.001598 0.001757 0.036885 -0.005562
# 6 0.001296 -0.001750 -0.001966 -0.000558 -0.005562 0.028020
#
#
# Mechanical properties :
#
#
# Convention : Reuss Voigt Hill
#
# Bulk Modulus (GPa) = 53.55386 68.81808 61.18597
# Shear Modulus (GPa) = 37.84225 44.31188 41.07706
#
# Velocity S-wave (km/s) = 4.04984 4.38238 4.21939
# Velocity P-wave (km/s) = 6.71409 7.44536 7.08916
#
# Compressibility (1/GPa) = 0.01867279
#
# Stress axis : x y z
#
# Youngs Moduli (GPa) = 136.50957 66.37088 154.91892
#
# Poissons Ratio (x) = 0.18357 0.16587
# Poissons Ratio (y) = 0.37756 0.19376
# Poissons Ratio (z) = 0.14616 0.08301
#
# Static dielectric constant tensor:
#      x y z
#    x 1.987760 -0.005220 -0.042460 
#    y -0.005220 1.956520 -0.064820 
#    z -0.042460 -0.064820 1.785880 
# 
# From -- ./inp_files/434616.got.cif
#   From: 2010.05.17/outbox.cif.g08.bks.cpg/sg2_218_cif.got.tgz:434616.got - 2010.06.03 11:33:40.
