data_PCOD9048871
_publ_section_title
;
Structure prediction by ZEFSAII (Michael W. Deem and Ramdas Pophale) SiO2 
 PCOD9048871
Probable space group: P -1
;
_chemical_formula_sum "Si O2"
_cell_formula_units_Z 16
_cell_length_a 5.478113
_cell_length_b 14.752874
_cell_length_c 13.827763
_cell_angle_alpha 42.660774
_cell_angle_beta 70.721214
_cell_angle_gamma 65.004215
_cell_volume 686.028667
_symmetry_space_group_name_H-M "P -1"
_symmetry_group_IT_number 2
_symmetry_cell_setting 'triclinic'
loop_
_space_group_symop_operation_xyz
x,y,z
-x,-y,-z
loop_
_atom_site_type_symbol
_atom_site_label
_atom_site_fract_x
_atom_site_fract_y
_atom_site_fract_z
Si Si1 0.222103 0.566137 0.876106
Si Si2 0.723776 0.358687 0.688846
Si Si3 0.766289 0.394284 0.864312
Si Si4 0.418069 0.859838 0.629311
Si Si5 0.758636 0.127843 0.573884
Si Si6 0.654720 0.681538 0.392961
Si Si7 0.949565 0.653754 0.649390
Si Si8 0.058841 0.825938 0.835045
O O1 0.526090 0.465027 0.916241
O O2 0.136647 0.715954 0.821579
O O3 0.172934 0.591532 0.749342
O O4 0.000000 0.500000 0.000000
O O5 0.660623 0.341331 0.822899
O O6 0.659949 0.523963 0.544879
O O7 0.546460 0.292018 0.693777
O O8 0.047237 0.306427 0.675195
O O9 0.902800 0.514713 0.718198
O O10 0.958478 0.264722 0.998953
O O11 0.240813 0.872866 0.542211
O O12 0.671902 0.728157 0.680876
O O13 0.333838 0.867521 0.748536
O O14 0.500000 0.000000 0.500000
O O15 0.473242 0.215735 0.583692
O O16 0.951877 0.223350 0.508575
O O17 0.842273 0.970832 0.726773
#
# Coordination Sequence:
#
# PCOD9048871 Si02
#       8
#     2   2   2   2   2   2   2   2
#     4  12  23  40  65  98 138 182 230 279 341 424
#     4  10  24  45  74 106 135 179 242 303 354 411
#     4  12  26  42  68 101 139 184 232 290 355 412
#     4  12  23  40  65  98 138 182 230 279 341 424
#     4  12  26  42  68 101 139 184 232 290 355 412
#     4  10  24  45  74 106 135 179 242 303 354 411
#     4  12  22  38  66  93 137 174 232 282 340 408
#     4  12  24  44  60 101 141 186 222 276 354 436
#
# _framework density 23.322641000000001
#
# number of rings (size 3 to 8) (size 9 to 14) (size 15 to 20)
#    0.000    0.500    5.000    3.750    8.750    0.000 
#    0.000    1.250    0.000    0.000    0.000    0.000 
#    0.000    0.000    0.000    0.000    0.000    0.000 
#
# Total GULP energy -89251.527328 kJ/mol
# GULP energy per Si atom -5578.220458 kJ/mol
# Density = 2.326956 g / cm^3
# Si number density = 23.322641 Si / 1000 Ang^3
#
#
#
# Elastic Constant Matrix: (Units=GPa)
#
#
# Indices 1 2 3 4 5 6 
#
# 1 77.5818 33.7350 31.1358 -5.0852 18.0814 4.4095
# 2 33.7350 80.4920 30.0104 6.7397 6.0250 -15.4643
# 3 31.1358 30.0104 85.0534 -10.9712 7.2473 1.0215
# 4 -5.0852 6.7397 -10.9712 29.7387 2.3231 13.2846
# 5 18.0814 6.0250 7.2473 2.3231 18.4408 3.5997
# 6 4.4095 -15.4643 1.0215 13.2846 3.5997 41.7192
#
#
#
# Elastic Compliance Matrix: (Units=1/GPa)
#
#
# Indices 1 2 3 4 5 6 
#
# 1 0.023681 -0.010204 -0.001985 0.010683 -0.018888 -0.008009
# 2 -0.010204 0.023279 -0.007178 -0.016623 0.004426 0.014795
# 3 -0.001985 -0.007178 0.016611 0.010243 -0.002373 -0.005914
# 4 0.010683 -0.016623 0.010243 0.054577 -0.011269 -0.023948
# 5 -0.018888 0.004426 -0.002373 -0.011269 0.073469 0.000945
# 6 -0.008009 0.014795 -0.005914 -0.023948 0.000945 0.037990
#
#
# Mechanical properties :
#
#
# Convention : Reuss Voigt Hill
#
# Bulk Modulus (GPa) = 40.26131 48.09885 44.18008
# Shear Modulus (GPa) = 18.07540 27.86280 22.96910
#
# Velocity S-wave (km/s) = 2.78693 3.46015 3.14162
# Velocity P-wave (km/s) = 5.25892 6.05240 5.66955
#
# Compressibility (1/GPa) = 0.02483774
#
# Stress axis : x y z
#
# Youngs Moduli (GPa) = 42.22851 42.95669 60.20140
#
# Poissons Ratio (x) = 0.43833 0.11949
# Poissons Ratio (y) = 0.43090 0.43210
# Poissons Ratio (z) = 0.08382 0.30832
#
# Static dielectric constant tensor:
#      x y z
#    x 1.878570 0.025800 0.226770 
#    y 0.025800 1.882250 0.006590 
#    z 0.226770 0.006590 1.635860 
# 
# From -- ./inp_files/484219.got.cif
#   From: 2010.05.17/outbox.cif.g08.bks.cpg/sg2_243_cif.got.tgz:484219.got - 2010.06.03 11:33:40.
