data_PCOD9048800
_publ_section_title
;
Structure prediction by ZEFSAII (Michael W. Deem and Ramdas Pophale) SiO2 
 PCOD9048800
Probable space group: P -1
;
_chemical_formula_sum "Si O2"
_cell_formula_units_Z 16
_cell_length_a 8.219876
_cell_length_b 13.284303
_cell_length_c 8.561032
_cell_angle_alpha 106.079632
_cell_angle_beta 73.786328
_cell_angle_gamma 134.100523
_cell_volume 639.967977
_symmetry_space_group_name_H-M "P -1"
_symmetry_group_IT_number 2
_symmetry_cell_setting 'triclinic'
loop_
_space_group_symop_operation_xyz
x,y,z
-x,-y,-z
loop_
_atom_site_type_symbol
_atom_site_label
_atom_site_fract_x
_atom_site_fract_y
_atom_site_fract_z
Si Si1 0.841932 0.132202 0.694507
Si Si2 0.965859 0.778808 0.638254
Si Si3 0.149648 0.466579 0.006329
Si Si4 0.514016 0.503372 0.311997
Si Si5 0.603750 0.173092 0.368062
Si Si6 0.457383 0.699710 0.287105
Si Si7 0.693415 0.174202 0.020211
Si Si8 0.051416 0.040784 0.821691
O O1 0.010200 0.237598 0.559089
O O2 0.725869 0.186019 0.828665
O O3 0.944355 0.098314 0.787867
O O4 0.640140 0.981543 0.604408
O O5 0.197785 0.831508 0.676374
O O6 0.744538 0.639764 0.719678
O O7 0.954293 0.898920 0.700149
O O8 0.291908 0.577452 0.154756
O O9 0.314605 0.494100 0.836827
O O10 0.000000 0.500000 0.000000
O O11 0.968085 0.301740 0.034097
O O12 0.500000 0.500000 0.500000
O O13 0.563597 0.642431 0.315563
O O14 0.649542 0.276037 0.534345
O O15 0.601132 0.208335 0.201482
O O16 0.675427 0.845690 0.216513
O O17 0.500000 0.000000 0.000000
O O18 0.000000 0.000000 0.000000
#
# Coordination Sequence:
#
# PCOD9048800 Si02
#       8
#     2   2   2   2   2   2   2   2
#     4  11  24  47  77 112 154 199 265 323 380 452
#     4  12  25  45  75 110 155 201 260 315 384 461
#     4  12  29  50  76 113 154 198 257 320 385 462
#     4  12  29  49  78 111 156 207 253 317 397 458
#     4  11  26  45  77 116 150 203 259 322 386 450
#     4  12  28  49  76 111 163 198 257 323 390 461
#     4  10  24  45  73 101 147 194 249 306 376 449
#     4  12  26  46  75 108 147 206 263 320 386 459
#
# _framework density 25.001249999999999
#
# number of rings (size 3 to 8) (size 9 to 14) (size 15 to 20)
#    0.000    0.500    1.250    5.625    7.000    5.000 
#    0.000    0.000    0.000    0.000    0.000    0.000 
#    0.000    0.000    0.000    0.000    0.000    0.000 
#
# Total GULP energy -89313.731070 kJ/mol
# GULP energy per Si atom -5582.108192 kJ/mol
# Density = 2.494435 g / cm^3
# Si number density = 25.001250 Si / 1000 Ang^3
#
#
#
# Elastic Constant Matrix: (Units=GPa)
#
#
# Indices 1 2 3 4 5 6 
#
# 1 99.0291 23.7102 27.1583 -8.5197 -0.8676 6.6286
# 2 23.7102 149.3099 56.8088 -7.6830 -15.9689 25.7534
# 3 27.1583 56.8088 208.1696 -7.7015 -18.8451 3.7645
# 4 -8.5197 -7.6830 -7.7015 55.1041 8.7294 -2.4854
# 5 -0.8676 -15.9689 -18.8451 8.7294 39.9414 2.6897
# 6 6.6286 25.7534 3.7645 -2.4854 2.6897 41.8666
#
#
#
# Elastic Compliance Matrix: (Units=1/GPa)
#
#
# Indices 1 2 3 4 5 6 
#
# 1 0.010861 -0.001213 -0.001113 0.001489 -0.001051 -0.000717
# 2 -0.001213 0.008835 -0.001888 0.000075 0.002953 -0.005258
# 3 -0.001113 -0.001888 0.005618 0.000097 0.001802 0.000722
# 4 0.001489 0.000075 0.000097 0.019108 -0.004143 0.001110
# 5 -0.001051 0.002953 0.001802 -0.004143 0.028211 -0.003870
# 6 -0.000717 -0.005258 0.000722 0.001110 -0.003870 0.027483
#
#
# Mechanical properties :
#
#
# Convention : Reuss Voigt Hill
#
# Bulk Modulus (GPa) = 59.22171 74.65146 66.93658
# Shear Modulus (GPa) = 43.79396 50.63784 47.21590
#
# Velocity S-wave (km/s) = 4.18984 4.50534 4.35045
# Velocity P-wave (km/s) = 6.86624 7.54904 7.21572
#
# Compressibility (1/GPa) = 0.01688570
#
# Stress axis : x y z
#
# Youngs Moduli (GPa) = 92.07567 113.18689 178.00820
#
# Poissons Ratio (x) = 0.13734 0.19811
# Poissons Ratio (y) = 0.11172 0.33600
# Poissons Ratio (z) = 0.10247 0.21364
#
# Static dielectric constant tensor:
#      x y z
#    x 2.057670 0.017730 0.044760 
#    y 0.017730 1.962870 0.007220 
#    z 0.044760 0.007220 1.813180 
# 
# From -- ./inp_files/208225.got.cif
#   From: 2010.05.17/outbox.cif.g08.bks.cpg/sg2_105_cif.got.tgz:208225.got - 2010.06.03 11:33:40.
