data_PCOD9048114
_publ_section_title
;
Structure prediction by ZEFSAII (Michael W. Deem and Ramdas Pophale) SiO2 
 PCOD9048114
Probable space group: P -1
;
_chemical_formula_sum "Si O2"
_cell_formula_units_Z 14
_cell_length_a 9.091751
_cell_length_b 7.622361
_cell_length_c 10.221427
_cell_angle_alpha 84.937212
_cell_angle_beta 52.980764
_cell_angle_gamma 88.217393
_cell_volume 563.148603
_symmetry_space_group_name_H-M "P -1"
_symmetry_group_IT_number 2
_symmetry_cell_setting 'triclinic'
loop_
_space_group_symop_operation_xyz
x,y,z
-x,-y,-z
loop_
_atom_site_type_symbol
_atom_site_label
_atom_site_fract_x
_atom_site_fract_y
_atom_site_fract_z
Si Si1 0.794642 0.920986 0.599216
Si Si2 0.377188 0.223765 0.555778
Si Si3 0.741143 0.397426 0.319803
Si Si4 0.430405 0.024325 0.892198
Si Si5 0.209036 0.654443 0.999346
Si Si6 0.139413 0.164238 0.914715
Si Si7 0.914225 0.575405 0.682161
O O1 0.747644 0.859312 0.483213
O O2 0.628350 0.048736 0.713534
O O3 0.792819 0.738956 0.694128
O O4 0.000000 0.000000 0.500000
O O5 0.595019 0.234975 0.422510
O O6 0.325542 0.428036 0.583937
O O7 0.308496 0.132091 0.729702
O O8 0.735412 0.434488 0.162948
O O9 0.926077 0.357419 0.304328
O O10 0.329246 0.835629 0.925396
O O11 0.265908 0.166768 0.974267
O O12 0.500000 0.000000 0.000000
O O13 0.200398 0.562282 0.152794
O O14 0.993933 0.691562 0.079231
O O15 0.000000 0.000000 0.000000
O O16 0.000000 0.500000 0.500000
#
# Coordination Sequence:
#
# PCOD9048114 Si02
#       7
#     2   2   2   2   2   2   2
#     4  12  29  48  72 107 149 198 242 303 379 443
#     4  11  24  48  71 107 145 190 251 301 372 436
#     4  11  24  44  77 108 144 187 252 308 363 440
#     4  11  28  46  68 109 149 195 246 304 372 433
#     4  11  24  49  75 107 147 195 255 301 368 445
#     4  10  24  44  73  99 146 191 243 299 360 434
#     4  12  26  46  77 110 149 193 243 312 376 437
#
# _framework density 24.860220999999999
#
# number of rings (size 3 to 8) (size 9 to 14) (size 15 to 20)
#    0.000    0.857    4.286    0.429   10.000    2.286 
#    0.000    0.000    0.000    0.000    0.000    0.000 
#    0.000    0.000    0.000    0.000    0.000    0.000 
#
# Total GULP energy -78062.726114 kJ/mol
# GULP energy per Si atom -5575.909008 kJ/mol
# Density = 2.480364 g / cm^3
# Si number density = 24.860221 Si / 1000 Ang^3
#
#
#
# Elastic Constant Matrix: (Units=GPa)
#
#
# Indices 1 2 3 4 5 6 
#
# 1 131.7322 11.8383 8.9196 7.2699 -14.7885 4.3410
# 2 11.8383 42.2981 1.9402 0.4520 -3.9959 1.9819
# 3 8.9196 1.9402 89.8076 -5.7496 -7.2266 10.3618
# 4 7.2699 0.4520 -5.7496 46.0392 9.2835 3.2853
# 5 -14.7885 -3.9959 -7.2266 9.2835 49.0713 -7.7395
# 6 4.3410 1.9819 10.3618 3.2853 -7.7395 61.4611
#
#
#
# Elastic Compliance Matrix: (Units=1/GPa)
#
#
# Indices 1 2 3 4 5 6 
#
# 1 0.008209 -0.002004 -0.000689 -0.001883 0.002570 0.000025
# 2 -0.002004 0.024358 -0.000182 -0.000180 0.001318 -0.000438
# 3 -0.000689 -0.000182 0.011592 0.001509 0.000905 -0.001867
# 4 -0.001883 -0.000180 0.001509 0.023380 -0.005099 -0.002008
# 5 0.002570 0.001318 0.000905 -0.005099 0.022794 0.002766
# 6 0.000025 -0.000438 -0.001867 -0.002008 0.002766 0.017053
#
#
# Mechanical properties :
#
#
# Convention : Reuss Voigt Hill
#
# Bulk Modulus (GPa) = 26.03559 34.35935 30.19747
# Shear Modulus (GPa) = 39.70142 47.39032 43.54587
#
# Velocity S-wave (km/s) = 4.00057 4.37082 4.18979
# Velocity P-wave (km/s) = 5.64224 6.27082 5.96482
#
# Compressibility (1/GPa) = 0.03840896
#
# Stress axis : x y z
#
# Youngs Moduli (GPa) = 121.81091 41.05436 86.26627
#
# Poissons Ratio (x) = 0.08229 0.05941
# Poissons Ratio (y) = 0.24415 0.01571
# Poissons Ratio (z) = 0.08389 0.00748
#
# Static dielectric constant tensor:
#      x y z
#    x 2.115040 -0.085180 0.084480 
#    y -0.085180 2.096800 -0.039150 
#    z 0.084480 -0.039150 2.066090 
# 
# From -- ./inp_files/157892.got.cif
#   From: 2010.05.17/outbox.cif.g08.bks.cpg/sg2_79_cif.got.tgz:157892.got - 2010.06.03 11:33:40.
