data_PCOD9048271
_publ_section_title
;
Structure prediction by ZEFSAII (Michael W. Deem and Ramdas Pophale) SiO2 
 PCOD9048271
Probable space group: P -1
;
_chemical_formula_sum "Si O2"
_cell_formula_units_Z 16
_cell_length_a 14.971694
_cell_length_b 12.140016
_cell_length_c 14.332848
_cell_angle_alpha 129.846344
_cell_angle_beta 151.847774
_cell_angle_gamma 39.642780
_cell_volume 777.836193
_symmetry_space_group_name_H-M "P -1"
_symmetry_group_IT_number 2
_symmetry_cell_setting 'triclinic'
loop_
_space_group_symop_operation_xyz
x,y,z
-x,-y,-z
loop_
_atom_site_type_symbol
_atom_site_label
_atom_site_fract_x
_atom_site_fract_y
_atom_site_fract_z
Si Si1 0.619711 0.604161 0.032610
Si Si2 0.784744 0.431046 0.348283
Si Si3 0.758041 0.733874 0.410837
Si Si4 0.328508 0.989696 0.904864
Si Si5 0.465895 0.376289 0.337897
Si Si6 0.107130 0.714278 0.427311
Si Si7 0.036485 0.542750 0.898808
Si Si8 0.610089 0.879907 0.772633
O O1 0.460751 0.537764 0.876589
O O2 0.444035 0.789446 0.922432
O O3 0.709248 0.655534 0.231701
O O4 0.821410 0.485469 0.080252
O O5 0.749561 0.618539 0.421606
O O6 0.890823 0.321912 0.481466
O O7 0.983329 0.318753 0.393261
O O8 0.570330 0.939341 0.347522
O O9 0.089338 0.098089 0.690420
O O10 0.309047 0.074705 0.033644
O O11 0.500000 0.000000 0.000000
O O12 0.500000 0.500000 0.500000
O O13 0.653918 0.320707 0.401762
O O14 0.505421 0.216458 0.347689
O O15 0.218338 0.472586 0.113111
O O16 0.058178 0.579261 0.262182
O O17 0.826176 0.738730 0.833106
#
# Coordination Sequence:
#
# PCOD9048271 Si02
#       8
#     2   2   2   2   2   2   2   2
#     4  11  22  40  67  91 125 164 210 256 311 370
#     4  11  23  42  68  90 121 167 216 254 308 370
#     4  10  24  45  65  90 125 163 211 266 305 358
#     4  11  21  38  60  95 130 163 201 256 317 363
#     4  12  23  36  63  94 127 167 201 246 316 383
#     4  12  22  37  63  93 128 162 204 254 311 372
#     4  12  22  42  60  93 133 164 196 259 319 369
#     4  11  23  41  63  93 130 164 205 256 313 367
#
# _framework density 20.569883000000001
#
# number of rings (size 3 to 8) (size 9 to 14) (size 15 to 20)
#    0.000    0.750    6.250    2.250    1.750    0.500 
#    0.000    1.250    0.000    0.000    0.000    0.000 
#    0.000    0.000    0.000    0.000    0.000    0.000 
#
# Total GULP energy -89448.925793 kJ/mol
# GULP energy per Si atom -5590.557862 kJ/mol
# Density = 2.052307 g / cm^3
# Si number density = 20.569883 Si / 1000 Ang^3
#
#
#
# Elastic Constant Matrix: (Units=GPa)
#
#
# Indices 1 2 3 4 5 6 
#
# 1 76.9103 43.3813 19.2912 -3.9802 24.2600 0.7237
# 2 43.3813 118.7384 29.6291 -22.9487 18.7151 -0.6510
# 3 19.2912 29.6291 78.9945 3.7758 17.5752 -6.0003
# 4 -3.9802 -22.9487 3.7758 35.5221 -0.5531 -4.4643
# 5 24.2600 18.7151 17.5752 -0.5531 41.3921 -0.9609
# 6 0.7237 -0.6510 -6.0003 -4.4643 -0.9609 38.8450
#
#
#
# Elastic Compliance Matrix: (Units=1/GPa)
#
#
# Indices 1 2 3 4 5 6 
#
# 1 0.018967 -0.005839 -0.000586 -0.001834 -0.008274 -0.000957
# 2 -0.005839 0.013232 -0.003691 0.008361 -0.000866 0.000700
# 3 -0.000586 -0.003691 0.015533 -0.003949 -0.004594 0.001781
# 4 -0.001834 0.008361 -0.003949 0.034198 -0.000491 0.003482
# 5 -0.008274 -0.000866 -0.004594 -0.000491 0.031348 0.000149
# 6 -0.000957 0.000700 0.001781 0.003482 0.000149 0.026452
#
#
# Mechanical properties :
#
#
# Convention : Reuss Voigt Hill
#
# Bulk Modulus (GPa) = 36.36359 51.02738 43.69549
# Shear Modulus (GPa) = 29.56346 35.30794 32.43570
#
# Velocity S-wave (km/s) = 3.79518 4.14755 3.97527
# Velocity P-wave (km/s) = 6.07626 6.91353 6.50837
#
# Compressibility (1/GPa) = 0.02750003
#
# Stress axis : x y z
#
# Youngs Moduli (GPa) = 52.72426 75.57202 64.37942
#
# Poissons Ratio (x) = 0.44125 0.03772
# Poissons Ratio (y) = 0.30784 0.23764
# Poissons Ratio (z) = 0.03089 0.27895
#
# Static dielectric constant tensor:
#      x y z
#    x 1.773640 0.045900 -0.015140 
#    y 0.045900 1.987470 0.011370 
#    z -0.015140 0.011370 1.800460 
# 
# From -- ./inp_files/314826.got.cif
#   From: 2010.05.17/outbox.cif.g08.bks.cpg/sg2_158_cif.got.tgz:314826.got - 2010.06.03 11:33:40.
