data_PCOD9048534
_publ_section_title
;
Structure prediction by ZEFSAII (Michael W. Deem and Ramdas Pophale) SiO2 
 PCOD9048534
Probable space group: P -1
;
_chemical_formula_sum "Si O2"
_cell_formula_units_Z 16
_cell_length_a 15.720715
_cell_length_b 7.567802
_cell_length_c 9.063592
_cell_angle_alpha 69.986741
_cell_angle_beta 140.615857
_cell_angle_gamma 106.942398
_cell_volume 642.232693
_symmetry_space_group_name_H-M "P -1"
_symmetry_group_IT_number 2
_symmetry_cell_setting 'triclinic'
loop_
_space_group_symop_operation_xyz
x,y,z
-x,-y,-z
loop_
_atom_site_type_symbol
_atom_site_label
_atom_site_fract_x
_atom_site_fract_y
_atom_site_fract_z
Si Si1 0.060239 0.424545 0.955489
Si Si2 0.983402 0.309872 0.436785
Si Si3 0.701684 0.204048 0.206580
Si Si4 0.348528 0.981758 0.242998
Si Si5 0.178848 0.878792 0.333515
Si Si6 0.555031 0.336593 0.722694
Si Si7 0.729313 0.746544 0.536962
Si Si8 0.729799 0.826534 0.200317
O O1 0.056862 0.600722 0.795180
O O2 0.958370 0.249658 0.820011
O O3 0.209444 0.379719 0.216857
O O4 0.000000 0.500000 0.000000
O O5 0.113458 0.189854 0.627702
O O6 0.000000 0.500000 0.500000
O O7 0.856692 0.204853 0.366965
O O8 0.708517 0.222713 0.386814
O O9 0.658838 0.998938 0.141593
O O10 0.629038 0.364895 0.972313
O O11 0.240289 0.947507 0.238999
O O12 0.347077 0.789993 0.202057
O O13 0.500000 0.000000 0.500000
O O14 0.328330 0.151086 0.050310
O O15 0.170213 0.070338 0.362416
O O16 0.500000 0.500000 0.500000
O O17 0.419667 0.217300 0.620639
O O18 0.723135 0.682837 0.375172
#
# Coordination Sequence:
#
# PCOD9048534 Si02
#       8
#     2   2   2   2   2   2   2   2
#     4  12  26  43  69 101 139 175 224 286 344 396
#     4  12  24  43  66 100 140 173 227 281 343 390
#     4  10  24  45  69  97 140 180 225 274 337 416
#     4  11  25  44  68  98 134 177 227 281 331 407
#     4  11  25  44  68  99 133 178 232 272 342 396
#     4  11  25  44  70 100 134 181 224 280 343 400
#     4  11  24  45  69  97 138 182 227 274 337 413
#     4  10  25  41  69  96 133 181 225 272 341 398
#
# _framework density 24.913087999999998
#
# number of rings (size 3 to 8) (size 9 to 14) (size 15 to 20)
#    0.000    1.000    3.750    1.500    8.750    4.500 
#    0.000    0.625    0.000    0.000    0.000    0.000 
#    0.000    0.000    0.000    0.000    0.000    0.000 
#
# Total GULP energy -89137.609071 kJ/mol
# GULP energy per Si atom -5571.100567 kJ/mol
# Density = 2.485638 g / cm^3
# Si number density = 24.913088 Si / 1000 Ang^3
#
#
#
# Elastic Constant Matrix: (Units=GPa)
#
#
# Indices 1 2 3 4 5 6 
#
# 1 92.4358 1.8099 38.7563 7.7787 -14.7335 9.1742
# 2 1.8099 49.7323 13.3319 -2.8661 0.9090 5.2148
# 3 38.7563 13.3319 192.6282 -12.7168 -27.1623 6.9549
# 4 7.7787 -2.8661 -12.7168 25.0300 4.5673 0.3676
# 5 -14.7335 0.9090 -27.1623 4.5673 57.6444 -2.3850
# 6 9.1742 5.2148 6.9549 0.3676 -2.3850 25.9668
#
#
#
# Elastic Compliance Matrix: (Units=1/GPa)
#
#
# Indices 1 2 3 4 5 6 
#
# 1 0.013126 0.000219 -0.002557 -0.005746 0.002449 -0.003690
# 2 0.000219 0.021036 -0.001404 0.001917 -0.001257 -0.004068
# 3 -0.002557 -0.001404 0.006337 0.003483 0.002063 -0.000372
# 4 -0.005746 0.001917 0.003483 0.044347 -0.003381 -0.000226
# 5 0.002449 -0.001257 0.002063 -0.003381 0.019261 0.000651
# 6 -0.003690 -0.004068 -0.000372 -0.000226 0.000651 0.040794
#
#
# Mechanical properties :
#
#
# Convention : Reuss Voigt Hill
#
# Bulk Modulus (GPa) = 30.28849 49.17692 39.73271
# Shear Modulus (GPa) = 30.60151 40.45477 35.52814
#
# Velocity S-wave (km/s) = 3.50856 4.03406 3.78045
# Velocity P-wave (km/s) = 5.34765 6.44053 5.91936
#
# Compressibility (1/GPa) = 0.03301584
#
# Stress axis : x y z
#
# Youngs Moduli (GPa) = 76.18303 47.53736 157.79751
#
# Poissons Ratio (x) = -0.01040 0.40346
# Poissons Ratio (y) = -0.01667 0.22152
# Poissons Ratio (z) = 0.19479 0.06673
#
# Static dielectric constant tensor:
#      x y z
#    x 1.905700 -0.061710 -0.068230 
#    y -0.061710 2.151220 -0.054740 
#    z -0.068230 -0.054740 2.087530 
# 
# From -- ./inp_files/186528.got.cif
#   From: 2010.05.17/outbox.cif.g08.bks.cpg/sg2_94_cif.got.tgz:186528.got - 2010.06.03 11:33:40.
