data_PCOD9048843
_publ_section_title
;
Structure prediction by ZEFSAII (Michael W. Deem and Ramdas Pophale) SiO2 
 PCOD9048843
Probable space group: P -1
;
_chemical_formula_sum "Si O2"
_cell_formula_units_Z 14
_cell_length_a 21.695698
_cell_length_b 5.278003
_cell_length_c 12.888771
_cell_angle_alpha 118.486331
_cell_angle_beta 25.924897
_cell_angle_gamma 111.924567
_cell_volume 561.168616
_symmetry_space_group_name_H-M "P -1"
_symmetry_group_IT_number 2
_symmetry_cell_setting 'triclinic'
loop_
_space_group_symop_operation_xyz
x,y,z
-x,-y,-z
loop_
_atom_site_type_symbol
_atom_site_label
_atom_site_fract_x
_atom_site_fract_y
_atom_site_fract_z
Si Si1 0.753524 0.901850 0.280343
Si Si2 0.831308 0.869386 0.376419
Si Si3 0.289220 0.539876 0.225084
Si Si4 0.425862 0.326788 0.198762
Si Si5 0.119728 0.749744 0.015841
Si Si6 0.859173 0.921423 0.757729
Si Si7 0.465125 0.846951 0.634603
O O1 0.814975 0.562422 0.097070
O O2 0.584047 0.925884 0.550140
O O3 0.832246 0.982940 0.280708
O O4 0.783231 0.119289 0.188331
O O5 0.785242 0.134448 0.576569
O O6 0.703513 0.678832 0.529461
O O7 0.975292 0.701763 0.168861
O O8 0.349144 0.434833 0.227912
O O9 0.181419 0.362391 0.294566
O O10 0.440285 0.529870 0.935591
O O11 0.500000 0.000000 0.000000
O O12 0.088301 0.019920 0.195174
O O13 0.000000 0.000000 0.500000
O O14 0.693344 0.082736 0.060995
O O15 0.500000 0.500000 0.500000
O O16 0.500000 0.000000 0.500000
#
# Coordination Sequence:
#
# PCOD9048843 Si02
#       7
#     2   2   2   2   2   2   2
#     4  12  27  51  79 114 155 214 273 328 396 493
#     4  11  26  44  79 110 157 201 269 337 407 470
#     4  10  24  45  73 110 159 207 259 328 417 479
#     4   9  21  43  64 109 148 199 259 314 397 483
#     4  12  28  52  77 117 160 212 270 330 409 479
#     4  12  28  51  82 118 165 210 270 339 410 484
#     4  12  26  54  79 113 161 216 274 325 397 491
#
# _framework density 24.947939999999999
#
# number of rings (size 3 to 8) (size 9 to 14) (size 15 to 20)
#    0.000    0.857    2.857    1.714   12.000    1.714 
#   10.286    0.000    0.000    0.000    0.000    0.000 
#    0.000    0.000    0.000    0.000    0.000    0.000 
#
# Total GULP energy -78096.068224 kJ/mol
# GULP energy per Si atom -5578.290587 kJ/mol
# Density = 2.489116 g / cm^3
# Si number density = 24.947940 Si / 1000 Ang^3
#
#
#
# Elastic Constant Matrix: (Units=GPa)
#
#
# Indices 1 2 3 4 5 6 
#
# 1 87.7494 29.0047 44.4612 -4.9708 -16.9500 35.3547
# 2 29.0047 134.7213 62.9232 -2.0423 -4.8852 18.6318
# 3 44.4612 62.9232 127.4558 -18.1327 -20.0656 19.4200
# 4 -4.9708 -2.0423 -18.1327 48.4313 8.6933 -10.2627
# 5 -16.9500 -4.8852 -20.0656 8.6933 42.0481 3.5300
# 6 35.3547 18.6318 19.4200 -10.2627 3.5300 48.5236
#
#
#
# Elastic Compliance Matrix: (Units=1/GPa)
#
#
# Indices 1 2 3 4 5 6 
#
# 1 0.021118 -0.000258 -0.004169 -0.004157 0.008623 -0.015126
# 2 -0.000258 0.009991 -0.004903 -0.001728 -0.000758 -0.001996
# 3 -0.004169 -0.004903 0.012649 0.003651 0.002997 0.000412
# 4 -0.004157 -0.001728 0.003651 0.024201 -0.005790 0.007771
# 5 0.008623 -0.000758 0.002997 -0.005790 0.030691 -0.010648
# 6 -0.015126 -0.001996 0.000412 0.007771 -0.010648 0.034649
#
#
# Mechanical properties :
#
#
# Convention : Reuss Voigt Hill
#
# Bulk Modulus (GPa) = 39.84383 69.18940 54.51662
# Shear Modulus (GPa) = 31.18651 42.03643 36.61147
#
# Velocity S-wave (km/s) = 3.53946 4.10929 3.83497
# Velocity P-wave (km/s) = 5.71919 7.09286 6.44274
#
# Compressibility (1/GPa) = 0.02509799
#
# Stress axis : x y z
#
# Youngs Moduli (GPa) = 47.35310 100.09164 79.05649
#
# Poissons Ratio (x) = 0.02583 0.32955
# Poissons Ratio (y) = 0.01222 0.38765
# Poissons Ratio (z) = 0.19739 0.49079
#
# Static dielectric constant tensor:
#      x y z
#    x 2.048620 0.015630 0.025180 
#    y 0.015630 2.124330 -0.094470 
#    z 0.025180 -0.094470 2.048820 
# 
# From -- ./inp_files/468442.got.cif
#   From: 2010.05.17/outbox.cif.g08.bks.cpg/sg2_235_cif.got.tgz:468442.got - 2010.06.03 11:33:40.
