data_PCOD9048189
_publ_section_title
;
Structure prediction by ZEFSAII (Michael W. Deem and Ramdas Pophale) SiO2 
 PCOD9048189
Probable space group: P -1
;
_chemical_formula_sum "Si O2"
_cell_formula_units_Z 16
_cell_length_a 22.201460
_cell_length_b 5.611243
_cell_length_c 18.572087
_cell_angle_alpha 76.177266
_cell_angle_beta 162.268358
_cell_angle_gamma 103.704253
_cell_volume 683.900768
_symmetry_space_group_name_H-M "P -1"
_symmetry_group_IT_number 2
_symmetry_cell_setting 'triclinic'
loop_
_space_group_symop_operation_xyz
x,y,z
-x,-y,-z
loop_
_atom_site_type_symbol
_atom_site_label
_atom_site_fract_x
_atom_site_fract_y
_atom_site_fract_z
Si Si1 0.239022 0.245950 0.707418
Si Si2 0.661175 0.684400 0.962379
Si Si3 0.854565 0.540683 0.052802
Si Si4 0.772755 0.132236 0.523973
Si Si5 0.049741 0.144995 0.119017
Si Si6 0.733182 0.497584 0.761437
Si Si7 0.332694 0.692712 0.885049
Si Si8 0.980498 0.088089 0.300042
O O1 0.228794 0.474685 0.734017
O O2 0.063279 0.242254 0.450014
O O3 0.244979 0.964059 0.763443
O O4 0.446958 0.283120 0.899213
O O5 0.454090 0.803402 0.735877
O O6 0.702207 0.656145 0.926368
O O7 0.657562 0.422408 0.016371
O O8 0.844145 0.856861 0.184677
O O9 0.077604 0.632142 0.318339
O O10 0.852729 0.252548 0.088978
O O11 0.812009 0.612270 0.917789
O O12 0.835786 0.979195 0.676870
O O13 0.834188 0.001274 0.529547
O O14 0.188907 0.368847 0.231474
O O15 0.840359 0.239488 0.901253
O O16 0.000000 0.000000 0.000000
O O17 0.500000 0.500000 0.500000
#
# Coordination Sequence:
#
# PCOD9048189 Si02
#       8
#     2   2   2   2   2   2   2   2
#     4  10  24  44  76 102 148 190 243 308 363 435
#     4  11  28  42  73 104 138 187 240 288 369 431
#     4  11  25  46  64 103 142 181 233 295 357 429
#     4  11  25  46  69  99 142 185 233 293 356 434
#     4  11  24  45  69  98 133 186 233 282 360 422
#     4  11  26  43  69 101 139 179 236 295 353 426
#     4  10  24  46  72 110 139 197 246 295 373 440
#     4  11  26  45  70 103 144 183 235 299 358 429
#
# _framework density 23.395205000000001
#
# number of rings (size 3 to 8) (size 9 to 14) (size 15 to 20)
#    0.000    1.250    2.500    0.750   14.000    2.500 
#    0.000    0.000    0.000    0.000    0.000    0.000 
#    0.000    0.000    0.000    0.000    0.000    0.000 
#
# Total GULP energy -89537.076042 kJ/mol
# GULP energy per Si atom -5596.067253 kJ/mol
# Density = 2.334196 g / cm^3
# Si number density = 23.395205 Si / 1000 Ang^3
#
#
#
# Elastic Constant Matrix: (Units=GPa)
#
#
# Indices 1 2 3 4 5 6 
#
# 1 109.4998 33.7345 51.9909 -0.0863 14.4573 -1.2084
# 2 33.7345 108.3967 30.3952 -7.6152 -0.4775 16.8157
# 3 51.9909 30.3952 114.9052 -16.3532 25.9825 -5.2888
# 4 -0.0863 -7.6152 -16.3532 21.6191 -5.9680 -10.2693
# 5 14.4573 -0.4775 25.9825 -5.9680 42.9589 -8.1847
# 6 -1.2084 16.8157 -5.2888 -10.2693 -8.1847 45.5351
#
#
#
# Elastic Compliance Matrix: (Units=1/GPa)
#
#
# Indices 1 2 3 4 5 6 
#
# 1 0.012870 -0.002723 -0.005569 -0.006194 -0.002057 -0.001067
# 2 -0.002723 0.011395 -0.002238 0.000881 0.001752 -0.004027
# 3 -0.005569 -0.002238 0.014605 0.010815 -0.004726 0.003965
# 4 -0.006194 0.000881 0.010815 0.064835 0.007758 0.016783
# 5 -0.002057 0.001752 -0.004726 0.007758 0.029015 0.005714
# 6 -0.001067 -0.004027 0.003965 0.016783 0.005714 0.028692
#
#
# Mechanical properties :
#
#
# Convention : Reuss Voigt Hill
#
# Bulk Modulus (GPa) = 56.14678 62.78254 59.46466
# Shear Modulus (GPa) = 26.53803 36.46804 31.50304
#
# Velocity S-wave (km/s) = 3.37164 3.95243 3.67353
# Velocity P-wave (km/s) = 6.26168 6.90817 6.59286
#
# Compressibility (1/GPa) = 0.01781046
#
# Stress axis : x y z
#
# Youngs Moduli (GPa) = 77.69872 87.76087 68.46963
#
# Poissons Ratio (x) = 0.23895 0.38128
# Poissons Ratio (y) = 0.21155 0.15326
# Poissons Ratio (z) = 0.43268 0.19644
#
# Static dielectric constant tensor:
#      x y z
#    x 1.931980 0.009280 -0.054890 
#    y 0.009280 1.963110 -0.013390 
#    z -0.054890 -0.013390 1.866480 
# 
# From -- ./inp_files/576775.got.cif
#   From: 2010.05.17/outbox.cif.g08.bks.cpg/sg2_289_cif.got.tgz:576775.got - 2010.06.03 11:33:40.
