data_PCOD9048038
_publ_section_title
;
Structure prediction by ZEFSAII (Michael W. Deem and Ramdas Pophale) SiO2 
 PCOD9048038
Probable space group: P -1
;
_chemical_formula_sum "Si O2"
_cell_formula_units_Z 16
_cell_length_a 9.017093
_cell_length_b 10.612197
_cell_length_c 8.496027
_cell_angle_alpha 96.280462
_cell_angle_beta 64.680385
_cell_angle_gamma 72.829916
_cell_volume 675.501368
_symmetry_space_group_name_H-M "P -1"
_symmetry_group_IT_number 2
_symmetry_cell_setting 'triclinic'
loop_
_space_group_symop_operation_xyz
x,y,z
-x,-y,-z
loop_
_atom_site_type_symbol
_atom_site_label
_atom_site_fract_x
_atom_site_fract_y
_atom_site_fract_z
Si Si1 0.835137 0.141786 0.632969
Si Si2 0.692239 0.942512 0.322967
Si Si3 0.613686 0.590948 0.507195
Si Si4 0.830233 0.671470 0.649245
Si Si5 0.573328 0.992743 0.797518
Si Si6 0.933709 0.390258 0.148474
Si Si7 0.244467 0.798930 0.661267
Si Si8 0.001326 0.682243 0.251131
O O1 0.794608 0.229774 0.503231
O O2 0.871372 0.234142 0.763046
O O3 0.676045 0.092222 0.730180
O O4 0.000000 0.000000 0.500000
O O5 0.619674 0.943557 0.186361
O O6 0.802659 0.039709 0.288606
O O7 0.500000 0.000000 0.500000
O O8 0.810753 0.798360 0.316194
O O9 0.500000 0.500000 0.500000
O O10 0.698061 0.596960 0.640706
O O11 0.777673 0.528360 0.303636
O O12 0.456380 0.738561 0.581381
O O13 0.714863 0.834976 0.696565
O O14 0.974514 0.631652 0.433323
O O15 0.911998 0.644312 0.787147
O O16 0.500000 0.000000 0.000000
O O17 0.858263 0.268422 0.191170
O O18 0.951327 0.397485 0.949910
#
# Coordination Sequence:
#
# PCOD9048038 Si02
#       8
#     2   2   2   2   2   2   2   2
#     4  12  21  41  66 100 138 178 218 264 343 407
#     4  12  20  38  60  91 129 170 208 263 336 399
#     4  10  24  44  72  90 128 179 226 277 336 389
#     4  12  22  46  69  91 134 177 215 281 342 383
#     4  12  25  37  63 102 137 175 219 268 336 414
#     4  11  26  43  65 101 124 176 236 273 323 396
#     4  11  20  41  67  88 131 176 215 271 335 388
#     4  12  25  40  70 100 136 173 220 279 335 407
#
# _framework density 23.686109999999999
#
# number of rings (size 3 to 8) (size 9 to 14) (size 15 to 20)
#    0.000    0.500    7.500    1.125    1.750    1.000 
#    0.000    0.625    0.000    0.000    0.000    0.000 
#    0.000    0.000    0.000    0.000    0.000    0.000 
#
# Total GULP energy -89113.294072 kJ/mol
# GULP energy per Si atom -5569.580879 kJ/mol
# Density = 2.363220 g / cm^3
# Si number density = 23.686110 Si / 1000 Ang^3
#
#
#
# Elastic Constant Matrix: (Units=GPa)
#
#
# Indices 1 2 3 4 5 6 
#
# 1 147.2290 23.8414 36.8961 2.9201 45.8480 2.4998
# 2 23.8414 60.9677 3.3230 -0.4988 11.7318 11.3482
# 3 36.8961 3.3230 115.1107 -9.3225 33.0641 2.4064
# 4 2.9201 -0.4988 -9.3225 33.5304 -7.9945 6.2418
# 5 45.8480 11.7318 33.0641 -7.9945 38.2551 -0.5449
# 6 2.4998 11.3482 2.4064 6.2418 -0.5449 59.5236
#
#
#
# Elastic Compliance Matrix: (Units=1/GPa)
#
#
# Indices 1 2 3 4 5 6 
#
# 1 0.011637 -0.001861 0.000089 -0.004484 -0.014387 0.000201
# 2 -0.001861 0.018645 0.001542 0.000401 -0.004788 -0.003625
# 3 0.000089 0.001542 0.011739 0.000946 -0.010542 -0.000968
# 4 -0.004484 0.000401 0.000946 0.033842 0.011458 -0.003370
# 5 -0.014387 -0.004788 -0.010542 0.011458 0.056375 0.001258
# 6 0.000201 -0.003625 -0.000968 -0.003370 0.001258 0.017887
#
#
# Mechanical properties :
#
#
# Convention : Reuss Voigt Hill
#
# Bulk Modulus (GPa) = 24.06140 50.15869 37.11004
# Shear Modulus (GPa) = 30.40631 43.54494 36.97562
#
# Velocity S-wave (km/s) = 3.58679 4.29233 3.95532
# Velocity P-wave (km/s) = 5.22818 6.76667 6.04656
#
# Compressibility (1/GPa) = 0.04156034
#
# Stress axis : x y z
#
# Youngs Moduli (GPa) = 85.93302 53.63315 85.18545
#
# Poissons Ratio (x) = 0.09982 -0.00757
# Poissons Ratio (y) = 0.15994 -0.13134
# Poissons Ratio (z) = -0.00764 -0.08269
#
# Static dielectric constant tensor:
#      x y z
#    x 1.932030 0.050820 -0.036510 
#    y 0.050820 1.982200 0.060490 
#    z -0.036510 0.060490 1.858000 
# 
# From -- ./inp_files/188363.got.cif
#   From: 2010.05.17/outbox.cif.g08.bks.cpg/sg2_95_cif.got.tgz:188363.got - 2010.06.03 11:33:40.
