data_PCOD9048414
_publ_section_title
;
Structure prediction by ZEFSAII (Michael W. Deem and Ramdas Pophale) SiO2 
 PCOD9048414
Probable space group: P -1
;
_chemical_formula_sum "Si O2"
_cell_formula_units_Z 14
_cell_length_a 8.723303
_cell_length_b 12.123491
_cell_length_c 8.778954
_cell_angle_alpha 104.646437
_cell_angle_beta 109.952307
_cell_angle_gamma 124.094292
_cell_volume 593.519713
_symmetry_space_group_name_H-M "P -1"
_symmetry_group_IT_number 2
_symmetry_cell_setting 'triclinic'
loop_
_space_group_symop_operation_xyz
x,y,z
-x,-y,-z
loop_
_atom_site_type_symbol
_atom_site_label
_atom_site_fract_x
_atom_site_fract_y
_atom_site_fract_z
Si Si1 0.560703 0.835335 0.540572
Si Si2 0.412205 0.058966 0.099704
Si Si3 0.079365 0.191353 0.289063
Si Si4 0.235195 0.404398 0.900120
Si Si5 0.179832 0.590015 0.733830
Si Si6 0.099991 0.923945 0.486586
Si Si7 0.174043 0.455214 0.239290
O O1 0.543610 0.920827 0.697046
O O2 0.756206 0.836688 0.649014
O O3 0.331167 0.644845 0.384661
O O4 0.643900 0.932238 0.443941
O O5 0.563967 0.244807 0.168965
O O6 0.500000 0.000000 0.000000
O O7 0.139655 0.940149 0.939154
O O8 0.219536 0.369436 0.333853
O O9 0.957650 0.160474 0.399519
O O10 0.182360 0.473258 0.780843
O O11 0.055071 0.214510 0.740799
O O12 0.500000 0.500000 0.000000
O O13 0.203488 0.434238 0.068991
O O14 0.000000 0.500000 0.500000
O O15 0.084199 0.635633 0.836092
O O16 0.000000 0.000000 0.500000
#
# Coordination Sequence:
#
# PCOD9048414 Si02
#       7
#     2   2   2   2   2   2   2
#     4  11  25  44  74 106 151 193 250 311 367 436
#     4  12  26  44  73 105 148 195 250 307 368 443
#     4  11  24  45  75 106 145 194 252 304 372 439
#     4  12  28  46  78 111 148 194 251 310 366 436
#     4  12  27  50  74 107 153 200 247 300 375 445
#     4  10  24  45  68 108 147 185 239 311 366 428
#     4  12  25  48  73 108 147 194 247 302 376 444
#
# _framework density 23.588096
#
# number of rings (size 3 to 8) (size 9 to 14) (size 15 to 20)
#    0.000    0.571    2.857    4.714    8.000    0.000 
#    0.000    1.429    0.000    0.000    0.000    0.000 
#    0.000    0.000    0.000    0.000    0.000    0.000 
#
# Total GULP energy -78360.962337 kJ/mol
# GULP energy per Si atom -5597.211596 kJ/mol
# Density = 2.353441 g / cm^3
# Si number density = 23.588096 Si / 1000 Ang^3
#
#
#
# Elastic Constant Matrix: (Units=GPa)
#
#
# Indices 1 2 3 4 5 6 
#
# 1 77.2623 32.6360 19.9831 -12.0882 -12.4440 1.0884
# 2 32.6360 135.0334 45.1477 -8.2111 -2.7213 16.5496
# 3 19.9831 45.1477 99.6025 -1.1970 -25.0539 9.6219
# 4 -12.0882 -8.2111 -1.1970 40.6828 9.9206 2.1141
# 5 -12.4440 -2.7213 -25.0539 9.9206 47.0226 -6.6705
# 6 1.0884 16.5496 9.6219 2.1141 -6.6705 44.8101
#
#
#
# Elastic Compliance Matrix: (Units=1/GPa)
#
#
# Indices 1 2 3 4 5 6 
#
# 1 0.015552 -0.003358 -0.000950 0.003126 0.002948 0.001358
# 2 -0.003358 0.010177 -0.004494 0.001971 -0.003584 -0.003338
# 3 -0.000950 -0.004494 0.014149 -0.002612 0.007563 -0.000106
# 4 0.003126 0.001971 -0.002612 0.027578 -0.006628 -0.002531
# 5 0.002948 -0.003584 0.007563 -0.006628 0.027847 0.004086
# 6 0.001358 -0.003338 -0.000106 -0.002531 0.004086 0.024267
#
#
# Mechanical properties :
#
#
# Convention : Reuss Voigt Hill
#
# Bulk Modulus (GPa) = 44.89824 56.38130 50.63977
# Shear Modulus (GPa) = 34.57857 40.77852 37.67855
#
# Velocity S-wave (km/s) = 3.83290 4.16237 4.00103
# Velocity P-wave (km/s) = 6.21802 6.85964 6.54670
#
# Compressibility (1/GPa) = 0.02227259
#
# Stress axis : x y z
#
# Youngs Moduli (GPa) = 64.30104 98.26400 70.67613
#
# Poissons Ratio (x) = 0.32997 0.06715
# Poissons Ratio (y) = 0.21592 0.31765
# Poissons Ratio (z) = 0.06109 0.44164
#
# Static dielectric constant tensor:
#      x y z
#    x 1.890180 -0.021750 -0.005940 
#    y -0.021750 1.942750 -0.024750 
#    z -0.005940 -0.024750 1.873180 
# 
# From -- ./inp_files/159721.got.cif
#   From: 2010.05.17/outbox.cif.g08.bks.cpg/sg2_80_cif.got.tgz:159721.got - 2010.06.03 11:33:40.
