data_PCOD9048662
_publ_section_title
;
Structure prediction by ZEFSAII (Michael W. Deem and Ramdas Pophale) SiO2 
 PCOD9048662
Probable space group: P -1
;
_chemical_formula_sum "Si O2"
_cell_formula_units_Z 12
_cell_length_a 7.039089
_cell_length_b 8.435573
_cell_length_c 15.894725
_cell_angle_alpha 136.794913
_cell_angle_beta 76.792849
_cell_angle_gamma 128.042724
_cell_volume 464.278592
_symmetry_space_group_name_H-M "P -1"
_symmetry_group_IT_number 2
_symmetry_cell_setting 'triclinic'
loop_
_space_group_symop_operation_xyz
x,y,z
-x,-y,-z
loop_
_atom_site_type_symbol
_atom_site_label
_atom_site_fract_x
_atom_site_fract_y
_atom_site_fract_z
Si Si1 0.493623 0.997387 0.804590
Si Si2 0.859293 0.128770 0.581382
Si Si3 0.035509 0.295221 0.274019
Si Si4 0.067896 0.502394 0.877505
Si Si5 0.362729 0.599380 0.504468
Si Si6 0.599618 0.782162 0.873075
O O1 0.805157 0.306276 0.887166
O O2 0.391083 0.819669 0.656267
O O3 0.484809 0.795071 0.800580
O O4 0.261676 0.999794 0.841225
O O5 0.930790 0.400957 0.621781
O O6 0.941399 0.279645 0.723391
O O7 0.550977 0.828511 0.498246
O O8 0.000000 0.000000 0.500000
O O9 0.101974 0.301509 0.368157
O O10 0.245142 0.326107 0.206613
O O11 0.351702 0.590216 0.888743
O O12 0.180297 0.849063 0.983787
O O13 0.500000 0.500000 0.500000
#
# Coordination Sequence:
#
# PCOD9048662 Si02
#       6
#     2   2   2   2   2   2
#     4  11  23  44  67 103 143 179 237 288 342 411
#     4  11  23  43  70 101 141 180 232 288 349 412
#     4  12  24  43  74 104 139 187 232 291 348 415
#     4  10  24  45  71 100 140 192 223 292 347 409
#     4  11  22  41  68 101 140 180 231 285 350 412
#     4  11  23  47  70  99 145 183 236 283 345 418
#
# _framework density 25.846549
#
# number of rings (size 3 to 8) (size 9 to 14) (size 15 to 20)
#    0.000    1.000    3.333    3.500    0.000    1.333 
#    6.000    0.000    0.000    0.000    0.000    0.000 
#    0.000    0.000    0.000    0.000    0.000    0.000 
#
# Total GULP energy -66987.326917 kJ/mol
# GULP energy per Si atom -5582.277243 kJ/mol
# Density = 2.578772 g / cm^3
# Si number density = 25.846549 Si / 1000 Ang^3
#
#
#
# Elastic Constant Matrix: (Units=GPa)
#
#
# Indices 1 2 3 4 5 6 
#
# 1 174.9026 66.4055 56.0081 7.8174 18.7908 30.6498
# 2 66.4055 123.8704 10.3809 13.2306 11.3687 44.9707
# 3 56.0081 10.3809 102.1854 9.7275 3.2721 17.7341
# 4 7.8174 13.2306 9.7275 27.6796 9.4836 7.5084
# 5 18.7908 11.3687 3.2721 9.4836 46.6600 6.1063
# 6 30.6498 44.9707 17.7341 7.5084 6.1063 49.0260
#
#
#
# Elastic Compliance Matrix: (Units=1/GPa)
#
#
# Indices 1 2 3 4 5 6 
#
# 1 0.009095 -0.004522 -0.004669 0.002109 -0.002683 0.000162
# 2 -0.004522 0.014719 0.003312 -0.003954 0.000286 -0.011303
# 3 -0.004669 0.003312 0.013127 -0.004224 0.001589 -0.004419
# 4 0.002109 -0.003954 -0.004224 0.042061 -0.007927 -0.001618
# 5 -0.002683 0.000286 0.001589 -0.007927 0.024066 -0.000943
# 6 0.000162 -0.011303 -0.004419 -0.001618 -0.000943 0.032627
#
#
# Mechanical properties :
#
#
# Convention : Reuss Voigt Hill
#
# Bulk Modulus (GPa) = 39.70871 74.06083 56.88477
# Shear Modulus (GPa) = 32.08270 42.55071 37.31670
#
# Velocity S-wave (km/s) = 3.52700 4.06184 3.80383
# Velocity P-wave (km/s) = 5.65534 7.12140 6.43029
#
# Compressibility (1/GPa) = 0.02518339
#
# Stress axis : x y z
#
# Youngs Moduli (GPa) = 109.94923 67.93798 76.18105
#
# Poissons Ratio (x) = 0.30725 0.35566
# Poissons Ratio (y) = 0.49724 -0.25233
# Poissons Ratio (z) = 0.51331 -0.22503
#
# Static dielectric constant tensor:
#      x y z
#    x 2.130180 0.088990 0.044930 
#    y 0.088990 2.176240 -0.078640 
#    z 0.044930 -0.078640 2.097110 
# 
# From -- ./inp_files/366578.got.cif
#   From: 2010.05.17/outbox.cif.g08.bks.cpg/sg2_184_cif.got.tgz:366578.got - 2010.06.03 11:33:40.
