data_PCOD9048404
_publ_section_title
;
Structure prediction by ZEFSAII (Michael W. Deem and Ramdas Pophale) SiO2 
 PCOD9048404
Probable space group: P -1
;
_chemical_formula_sum "Si O2"
_cell_formula_units_Z 14
_cell_length_a 22.513988
_cell_length_b 9.287388
_cell_length_c 22.635143
_cell_angle_alpha 29.512625
_cell_angle_beta 14.810985
_cell_angle_gamma 30.010604
_cell_volume 584.523306
_symmetry_space_group_name_H-M "P -1"
_symmetry_group_IT_number 2
_symmetry_cell_setting 'triclinic'
loop_
_space_group_symop_operation_xyz
x,y,z
-x,-y,-z
loop_
_atom_site_type_symbol
_atom_site_label
_atom_site_fract_x
_atom_site_fract_y
_atom_site_fract_z
Si Si1 0.087773 0.220457 0.419449
Si Si2 0.247068 0.779394 0.902035
Si Si3 0.184594 0.973628 0.536964
Si Si4 0.018247 0.608263 0.065642
Si Si5 0.359500 0.339210 0.740090
Si Si6 0.086864 0.814401 0.163005
Si Si7 0.645039 0.255434 0.751070
O O1 0.211891 0.487820 0.182533
O O2 0.826451 0.290660 0.616551
O O3 0.111449 0.201201 0.473454
O O4 0.204283 0.901598 0.393479
O O5 0.177670 0.671060 0.944255
O O6 0.479404 0.564495 0.780103
O O7 0.045996 0.761948 0.151791
O O8 0.218801 0.135899 0.796298
O O9 0.457745 0.818431 0.330082
O O10 0.118089 0.090026 0.625648
O O11 0.041952 0.713284 0.755625
O O12 0.160379 0.583618 0.875985
O O13 0.500000 0.500000 0.500000
O O14 0.246543 0.066479 0.922148
O O15 0.500000 0.000000 0.000000
#
# Coordination Sequence:
#
# PCOD9048404 Si02
#       7
#     2   2   2   2   2   2   2
#     4  11  25  43  69 102 137 186 229 280 341 408
#     4  11  22  45  71  97 137 178 223 290 339 402
#     4  11  24  44  68 100 142 181 223 284 343 407
#     4  10  24  45  68 104 138 172 232 286 339 413
#     4  11  24  46  72  99 139 185 225 282 350 407
#     4  11  25  43  68 103 138 178 233 282 336 415
#     4  11  23  43  68  99 139 180 228 282 340 401
#
# _framework density 23.951139999999999
#
# number of rings (size 3 to 8) (size 9 to 14) (size 15 to 20)
#    0.000    1.143    1.429    3.857    4.000    4.000 
#    2.571    4.286    0.000    0.000    0.000    0.000 
#    0.000    0.000    0.000    0.000    0.000    0.000 
#
# Total GULP energy -78264.290954 kJ/mol
# GULP energy per Si atom -5590.306497 kJ/mol
# Density = 2.389663 g / cm^3
# Si number density = 23.951140 Si / 1000 Ang^3
#
#
#
# Elastic Constant Matrix: (Units=GPa)
#
#
# Indices 1 2 3 4 5 6 
#
# 1 116.8617 44.6801 39.6241 -11.7536 5.7201 -10.4936
# 2 44.6801 160.6754 34.5428 2.5051 -1.1202 -4.0477
# 3 39.6241 34.5428 75.5094 -11.2854 -0.7604 0.5556
# 4 -11.7536 2.5051 -11.2854 24.9733 -11.6301 -5.8846
# 5 5.7201 -1.1202 -0.7604 -11.6301 22.7724 0.0327
# 6 -10.4936 -4.0477 0.5556 -5.8846 0.0327 44.4483
#
#
#
# Elastic Compliance Matrix: (Units=1/GPa)
#
#
# Indices 1 2 3 4 5 6 
#
# 1 0.011696 -0.002260 -0.004569 0.003816 -0.001257 0.003119
# 2 -0.002260 0.007494 -0.002790 -0.003611 -0.001001 -0.000294
# 3 -0.004569 -0.002790 0.018379 0.009333 0.006391 -0.000332
# 4 0.003816 -0.003611 0.009333 0.063109 0.031393 0.008787
# 5 -0.001257 -0.001001 0.006391 0.031393 0.060420 0.003644
# 6 0.003119 -0.000294 -0.000332 0.008787 0.003644 0.024372
#
#
# Mechanical properties :
#
#
# Convention : Reuss Voigt Hill
#
# Bulk Modulus (GPa) = 54.55189 65.63784 60.09487
# Shear Modulus (GPa) = 23.71716 34.05210 28.88463
#
# Velocity S-wave (km/s) = 3.15021 3.77468 3.47649
# Velocity P-wave (km/s) = 6.00479 6.81630 6.42337
#
# Compressibility (1/GPa) = 0.01833117
#
# Stress axis : x y z
#
# Youngs Moduli (GPa) = 85.50202 133.44282 54.40987
#
# Poissons Ratio (x) = 0.30154 0.24859
# Poissons Ratio (y) = 0.19321 0.15180
# Poissons Ratio (z) = 0.39065 0.37231
#
# Static dielectric constant tensor:
#      x y z
#    x 1.891920 0.024000 0.034270 
#    y 0.024000 1.970640 0.020050 
#    z 0.034270 0.020050 1.916950 
# 
# From -- ./inp_files/432523.got.cif
#   From: 2010.05.17/outbox.cif.g08.bks.cpg/sg2_217_cif.got.tgz:432523.got - 2010.06.03 11:33:40.
