data_PCOD9048209
_publ_section_title
;
Structure prediction by ZEFSAII (Michael W. Deem and Ramdas Pophale) SiO2 
 PCOD9048209
Probable space group: P -1
;
_chemical_formula_sum "Si O2"
_cell_formula_units_Z 14
_cell_length_a 5.038047
_cell_length_b 20.334349
_cell_length_c 12.451567
_cell_angle_alpha 146.956032
_cell_angle_beta 106.763713
_cell_angle_gamma 62.964563
_cell_volume 608.194842
_symmetry_space_group_name_H-M "P -1"
_symmetry_group_IT_number 2
_symmetry_cell_setting 'triclinic'
loop_
_space_group_symop_operation_xyz
x,y,z
-x,-y,-z
loop_
_atom_site_type_symbol
_atom_site_label
_atom_site_fract_x
_atom_site_fract_y
_atom_site_fract_z
Si Si1 0.218886 0.621653 0.771534
Si Si2 0.589593 0.036067 0.444075
Si Si3 0.439077 0.336306 0.314647
Si Si4 0.840736 0.404564 0.878855
Si Si5 0.867571 0.225545 0.823603
Si Si6 0.536796 0.862593 0.768155
Si Si7 0.023434 0.175146 0.420826
O O1 0.410414 0.468479 0.555175
O O2 0.291247 0.699415 0.788317
O O3 0.871553 0.637249 0.750296
O O4 0.296643 0.672253 0.961337
O O5 0.683446 0.158712 0.641742
O O6 0.310924 0.077609 0.388413
O O7 0.500000 0.000000 0.500000
O O8 0.873531 0.901247 0.262544
O O9 0.459035 0.231572 0.262902
O O10 0.977518 0.304961 0.858872
O O11 0.872473 0.312108 0.654087
O O12 0.500000 0.500000 0.000000
O O13 0.000000 0.500000 0.000000
O O14 0.831878 0.807913 0.651710
O O15 0.233281 0.880304 0.692952
O O16 0.500000 0.000000 0.000000
#
# Coordination Sequence:
#
# PCOD9048209 Si02
#       7
#     2   2   2   2   2   2   2
#     4  10  24  44  76  99 140 185 237 305 356 416
#     4  11  25  46  72 107 150 187 247 297 361 446
#     4  10  24  48  67 107 138 181 248 298 355 428
#     4  12  27  47  73 111 151 192 243 293 372 453
#     4  11  26  45  74 110 144 195 242 297 371 435
#     4  12  28  48  75 106 145 197 248 298 371 432
#     4  12  27  49  73 108 149 194 239 310 358 430
#
# _framework density 23.018940000000001
#
# number of rings (size 3 to 8) (size 9 to 14) (size 15 to 20)
#    0.000    0.857    1.429    3.857   10.000    0.000 
#    0.000    0.000    0.000    0.000    0.000    0.000 
#    0.000    0.000    0.000    0.000    0.000    0.000 
#
# Total GULP energy -78416.683068 kJ/mol
# GULP energy per Si atom -5601.191648 kJ/mol
# Density = 2.296655 g / cm^3
# Si number density = 23.018940 Si / 1000 Ang^3
#
#
#
# Elastic Constant Matrix: (Units=GPa)
#
#
# Indices 1 2 3 4 5 6 
#
# 1 130.0922 12.9932 67.5233 -1.6256 -1.8643 12.3465
# 2 12.9932 64.3397 48.4236 9.1827 5.0680 21.8189
# 3 67.5233 48.4236 169.9788 -8.4549 5.7320 13.3433
# 4 -1.6256 9.1827 -8.4549 23.9894 4.0575 -1.0713
# 5 -1.8643 5.0680 5.7320 4.0575 26.8773 -9.0923
# 6 12.3465 21.8189 13.3433 -1.0713 -9.0923 50.0379
#
#
#
# Elastic Compliance Matrix: (Units=1/GPa)
#
#
# Indices 1 2 3 4 5 6 
#
# 1 0.010052 0.002467 -0.004655 -0.002138 0.000798 -0.002215
# 2 0.002467 0.027558 -0.008389 -0.012976 -0.005205 -0.011612
# 3 -0.004655 -0.008389 0.010355 0.006856 -0.001324 0.001952
# 4 -0.002138 -0.012976 0.006856 0.050003 -0.005195 0.004484
# 5 0.000798 -0.005205 -0.001324 -0.005195 0.042719 0.010077
# 6 -0.002215 -0.011612 0.001952 0.004484 0.010077 0.027001
#
#
# Mechanical properties :
#
#
# Convention : Reuss Voigt Hill
#
# Bulk Modulus (GPa) = 37.29937 69.14342 53.22139
# Shear Modulus (GPa) = 25.28084 35.87897 30.57990
#
# Velocity S-wave (km/s) = 3.31760 3.95228 3.64877
# Velocity P-wave (km/s) = 5.56006 7.13654 6.39705
#
# Compressibility (1/GPa) = 0.02681010
#
# Stress axis : x y z
#
# Youngs Moduli (GPa) = 99.48619 36.28704 96.57408
#
# Poissons Ratio (x) = -0.08953 0.44957
# Poissons Ratio (y) = -0.24546 0.81018
# Poissons Ratio (z) = 0.46313 0.30442
#
# Static dielectric constant tensor:
#      x y z
#    x 1.860370 -0.024730 -0.003690 
#    y -0.024730 1.887620 -0.007030 
#    z -0.003690 -0.007030 1.830710 
# 
# From -- ./inp_files/370560.got.cif
#   From: 2010.05.17/outbox.cif.g08.bks.cpg/sg2_186_cif.got.tgz:370560.got - 2010.06.03 11:33:40.
