data_PCOD9048070
_publ_section_title
;
Structure prediction by ZEFSAII (Michael W. Deem and Ramdas Pophale) SiO2 
 PCOD9048070
Probable space group: P -1
;
_chemical_formula_sum "Si O2"
_cell_formula_units_Z 12
_cell_length_a 13.009655
_cell_length_b 10.086298
_cell_length_c 4.831352
_cell_angle_alpha 101.564739
_cell_angle_beta 91.055074
_cell_angle_gamma 125.484863
_cell_volume 498.468120
_symmetry_space_group_name_H-M "P -1"
_symmetry_group_IT_number 2
_symmetry_cell_setting 'triclinic'
loop_
_space_group_symop_operation_xyz
x,y,z
-x,-y,-z
loop_
_atom_site_type_symbol
_atom_site_label
_atom_site_fract_x
_atom_site_fract_y
_atom_site_fract_z
Si Si1 0.125481 0.094729 0.353347
Si Si2 0.085623 0.360991 0.503274
Si Si3 0.861114 0.162801 0.063322
Si Si4 0.819824 0.412161 0.899129
Si Si5 0.375431 0.134313 0.357686
Si Si6 0.520961 0.161116 0.919936
O O1 0.143424 0.265755 0.357052
O O2 0.089190 0.945621 0.078911
O O3 0.268650 0.156301 0.474961
O O4 0.000000 0.000000 0.500000
O O5 0.142818 0.524742 0.385146
O O6 0.874059 0.576412 0.159254
O O7 0.932254 0.234050 0.388927
O O8 0.713500 0.021792 0.925322
O O9 0.880818 0.320978 0.977270
O O10 0.667870 0.287375 0.883243
O O11 0.489159 0.250541 0.191689
O O12 0.435423 0.110709 0.618028
O O13 0.500000 0.000000 0.000000
#
# Coordination Sequence:
#
# PCOD9048070 Si02
#       6
#     2   2   2   2   2   2
#     4  10  24  46  75 100 141 186 235 277 344 425
#     4  12  26  45  67 110 144 180 222 295 359 405
#     4  10  24  44  73 102 139 182 236 280 343 417
#     4  12  27  43  71 103 147 180 227 291 358 395
#     4  10  26  40  75 100 129 177 251 275 327 401
#     4  12  23  46  69 101 138 186 235 283 331 422
#
# _framework density 24.073758999999999
#
# number of rings (size 3 to 8) (size 9 to 14) (size 15 to 20)
#    1.000    0.000    1.667    4.000    4.667    2.667 
#    0.000    5.000    0.000    0.000    0.000    0.000 
#    0.000    0.000    0.000    0.000    0.000    0.000 
#
# Total GULP energy -66872.062195 kJ/mol
# GULP energy per Si atom -5572.671850 kJ/mol
# Density = 2.401897 g / cm^3
# Si number density = 24.073759 Si / 1000 Ang^3
#
#
#
# Elastic Constant Matrix: (Units=GPa)
#
#
# Indices 1 2 3 4 5 6 
#
# 1 165.1671 30.7118 54.4091 10.1455 13.3222 -1.7534
# 2 30.7118 74.7270 14.0980 6.4275 8.4121 -16.4467
# 3 54.4091 14.0980 114.0355 7.2427 7.1338 11.9829
# 4 10.1455 6.4275 7.2427 29.4463 2.5893 -0.0002
# 5 13.3222 8.4121 7.1338 2.5893 45.3577 4.1917
# 6 -1.7534 -16.4467 11.9829 -0.0002 4.1917 37.5819
#
#
#
# Elastic Compliance Matrix: (Units=1/GPa)
#
#
# Indices 1 2 3 4 5 6 
#
# 1 0.007745 -0.002157 -0.003331 -0.001261 -0.001337 0.000628
# 2 -0.002157 0.016872 -0.001583 -0.002298 -0.002864 0.008107
# 3 -0.003331 -0.001583 0.011093 -0.001236 0.000003 -0.004386
# 4 -0.001261 -0.002298 -0.001236 0.035285 -0.000972 -0.000562
# 5 -0.001337 -0.002864 0.000003 -0.000972 0.023389 -0.003926
# 6 0.000628 0.008107 -0.004386 -0.000562 -0.003926 0.032022
#
#
# Mechanical properties :
#
#
# Convention : Reuss Voigt Hill
#
# Bulk Modulus (GPa) = 46.36724 61.37417 53.87070
# Shear Modulus (GPa) = 33.84371 39.45788 36.65079
#
# Velocity S-wave (km/s) = 3.75351 4.05290 3.90608
# Velocity P-wave (km/s) = 6.17150 6.88846 6.53981
#
# Compressibility (1/GPa) = 0.02156695
#
# Stress axis : x y z
#
# Youngs Moduli (GPa) = 129.11867 59.27047 90.14443
#
# Poissons Ratio (x) = 0.12787 0.30026
# Poissons Ratio (y) = 0.27856 0.14272
# Poissons Ratio (z) = 0.43008 0.09384
#
# Static dielectric constant tensor:
#      x y z
#    x 2.044910 0.003350 -0.051720 
#    y 0.003350 2.005230 -0.000650 
#    z -0.051720 -0.000650 1.905530 
# 
# From -- ./inp_files/57518.got.cif
#   From: 2010.05.17/outbox.cif.g08.bks.cpg/sg2_29_cif.got.tgz:57518.got - 2010.06.03 11:33:40.
