data_PCOD9048780
_publ_section_title
;
Structure prediction by ZEFSAII (Michael W. Deem and Ramdas Pophale) SiO2 
 PCOD9048780
Probable space group: P -1
;
_chemical_formula_sum "Si O2"
_cell_formula_units_Z 16
_cell_length_a 15.238107
_cell_length_b 8.749707
_cell_length_c 9.881731
_cell_angle_alpha 87.652382
_cell_angle_beta 76.626400
_cell_angle_gamma 32.430991
_cell_volume 656.670524
_symmetry_space_group_name_H-M "P -1"
_symmetry_group_IT_number 2
_symmetry_cell_setting 'triclinic'
loop_
_space_group_symop_operation_xyz
x,y,z
-x,-y,-z
loop_
_atom_site_type_symbol
_atom_site_label
_atom_site_fract_x
_atom_site_fract_y
_atom_site_fract_z
Si Si1 0.131377 0.229162 0.067445
Si Si2 0.419459 0.737668 0.786387
Si Si3 0.851835 0.451816 0.542697
Si Si4 0.820555 0.174059 0.640569
Si Si5 0.020991 0.884852 0.848937
Si Si6 0.401574 0.438452 0.718203
Si Si7 0.619884 0.975747 0.437816
Si Si8 0.627974 0.908917 0.853123
O O1 0.320067 0.901941 0.954297
O O2 0.198627 0.261325 0.142854
O O3 0.000000 0.500000 0.000000
O O4 0.039033 0.203356 0.131285
O O5 0.625512 0.407309 0.736102
O O6 0.342584 0.698496 0.745932
O O7 0.379173 0.951555 0.711350
O O8 0.804141 0.342643 0.540179
O O9 0.803172 0.651224 0.443608
O O10 0.721224 0.678387 0.706635
O O11 0.063008 0.123819 0.466049
O O12 0.910947 0.105788 0.750019
O O13 0.227013 0.593905 0.757047
O O14 0.000000 0.000000 0.000000
O O15 0.534103 0.228262 0.554691
O O16 0.503035 0.218517 0.817940
O O17 0.500000 0.000000 0.500000
O O18 0.500000 0.000000 0.000000
#
# Coordination Sequence:
#
# PCOD9048780 Si02
#       8
#     2   2   2   2   2   2   2   2
#     4  12  29  47  73 114 149 198 255 315 380 452
#     4  12  26  48  76 109 150 197 256 313 377 460
#     4  10  24  45  72 113 148 197 247 312 384 453
#     4  11  25  45  78 108 150 198 251 312 380 449
#     4  12  27  47  74 107 152 199 250 312 373 450
#     4  11  26  47  73 110 145 201 252 310 383 447
#     4  11  23  46  73 106 148 196 247 310 380 453
#     4  11  25  47  80 111 155 198 254 315 388 453
#
# _framework density 24.365338999999999
#
# number of rings (size 3 to 8) (size 9 to 14) (size 15 to 20)
#    0.000    0.750    2.500    3.375   12.250    1.000 
#    2.250    1.875    0.000    0.000    0.000    0.000 
#    0.000    0.000    0.000    0.000    0.000    0.000 
#
# Total GULP energy -89374.418486 kJ/mol
# GULP energy per Si atom -5585.901155 kJ/mol
# Density = 2.430988 g / cm^3
# Si number density = 24.365339 Si / 1000 Ang^3
#
#
#
# Elastic Constant Matrix: (Units=GPa)
#
#
# Indices 1 2 3 4 5 6 
#
# 1 91.4620 35.8230 28.5981 -13.5776 -10.3080 -5.1756
# 2 35.8230 120.1442 36.4872 5.4041 -13.0122 -4.1668
# 3 28.5981 36.4872 103.6686 17.4041 6.3515 -7.2643
# 4 -13.5776 5.4041 17.4041 44.5357 -3.4312 5.3744
# 5 -10.3080 -13.0122 6.3515 -3.4312 31.8538 10.7073
# 6 -5.1756 -4.1668 -7.2643 5.3744 10.7073 42.0600
#
#
#
# Elastic Compliance Matrix: (Units=1/GPa)
#
#
# Indices 1 2 3 4 5 6 
#
# 1 0.015352 -0.002766 -0.005071 0.007706 0.006301 -0.001849
# 2 -0.002766 0.010581 -0.003217 -0.000429 0.004323 -0.000893
# 3 -0.005071 -0.003217 0.014343 -0.007956 -0.008234 0.004647
# 4 0.007706 -0.000429 -0.007956 0.029478 0.009299 -0.006602
# 5 0.006301 0.004323 -0.008234 0.009299 0.041900 -0.012073
# 6 -0.001849 -0.000893 0.004647 -0.006602 -0.012073 0.028179
#
#
# Mechanical properties :
#
#
# Convention : Reuss Voigt Hill
#
# Bulk Modulus (GPa) = 55.03724 57.45460 56.24592
# Shear Modulus (GPa) = 29.76261 37.98102 33.87181
#
# Velocity S-wave (km/s) = 3.49881 3.95246 3.73254
# Velocity P-wave (km/s) = 6.24176 6.66790 6.45835
#
# Compressibility (1/GPa) = 0.01816952
#
# Stress axis : x y z
#
# Youngs Moduli (GPa) = 65.13913 94.50567 69.72100
#
# Poissons Ratio (x) = 0.26138 0.35355
# Poissons Ratio (y) = 0.18016 0.22427
# Poissons Ratio (z) = 0.33031 0.30399
#
# Static dielectric constant tensor:
#      x y z
#    x 2.062950 -0.025640 0.037730 
#    y -0.025640 2.037760 -0.075110 
#    z 0.037730 -0.075110 2.027390 
# 
# From -- ./inp_files/447506.got.cif
#   From: 2010.05.17/outbox.cif.g08.bks.cpg/sg2_224_cif.got.tgz:447506.got - 2010.06.03 11:33:40.
