data_PCOD9048758
_publ_section_title
;
Structure prediction by ZEFSAII (Michael W. Deem and Ramdas Pophale) SiO2 
 PCOD9048758
Probable space group: P -1
;
_chemical_formula_sum "Si O2"
_cell_formula_units_Z 12
_cell_length_a 12.990928
_cell_length_b 5.541172
_cell_length_c 11.017101
_cell_angle_alpha 112.029171
_cell_angle_beta 132.476034
_cell_angle_gamma 96.986348
_cell_volume 453.437183
_symmetry_space_group_name_H-M "P -1"
_symmetry_group_IT_number 2
_symmetry_cell_setting 'triclinic'
loop_
_space_group_symop_operation_xyz
x,y,z
-x,-y,-z
loop_
_atom_site_type_symbol
_atom_site_label
_atom_site_fract_x
_atom_site_fract_y
_atom_site_fract_z
Si Si1 0.034891 0.917597 0.144370
Si Si2 0.801385 0.069702 0.094004
Si Si3 0.374462 0.127620 0.820681
Si Si4 0.723710 0.274421 0.720248
Si Si5 0.982237 0.285856 0.562787
Si Si6 0.509643 0.888387 0.691617
O O1 0.212221 0.954355 0.304336
O O2 0.969602 0.070743 0.214228
O O3 0.887722 0.557650 0.964606
O O4 0.000000 0.000000 0.000000
O O5 0.867325 0.431154 0.189379
O O6 0.710236 0.961470 0.130697
O O7 0.659451 0.848833 0.840942
O O8 0.202716 0.911135 0.566390
O O9 0.476304 0.001765 0.813204
O O10 0.500000 0.500000 0.000000
O O11 0.657881 0.353437 0.561021
O O12 0.589545 0.147167 0.698068
O O13 0.000000 0.500000 0.500000
O O14 0.000000 0.000000 0.500000
#
# Coordination Sequence:
#
# PCOD9048758 Si02
#       6
#     2   2   2   2   2   2
#     4  11  23  46  72 100 141 192 248 296 359 446
#     4  11  24  45  76 110 145 195 252 307 374 449
#     4  11  24  43  70 108 149 191 241 311 381 443
#     4  10  25  45  69 103 141 193 243 302 365 438
#     4  10  24  45  72 106 148 199 251 302 374 459
#     4  11  23  43  67 102 148 183 241 308 372 438
#
# _framework density 26.464524999999998
#
# number of rings (size 3 to 8) (size 9 to 14) (size 15 to 20)
#    0.000    1.333    1.667    2.500    2.333    6.000 
#    3.000    0.000    0.000    0.000    0.000    0.000 
#    0.000    0.000    0.000    0.000    0.000    0.000 
#
# Total GULP energy -66822.696416 kJ/mol
# GULP energy per Si atom -5568.558035 kJ/mol
# Density = 2.640429 g / cm^3
# Si number density = 26.464525 Si / 1000 Ang^3
#
#
#
# Elastic Constant Matrix: (Units=GPa)
#
#
# Indices 1 2 3 4 5 6 
#
# 1 154.4782 45.3347 31.1418 6.9459 -4.0455 -1.4823
# 2 45.3347 95.3376 34.4219 12.7515 -5.4768 2.8085
# 3 31.1418 34.4219 103.3073 3.7518 16.8329 4.6486
# 4 6.9459 12.7515 3.7518 53.7093 9.2836 -2.6856
# 5 -4.0455 -5.4768 16.8329 9.2836 50.4610 -9.2369
# 6 -1.4823 2.8085 4.6486 -2.6856 -9.2369 43.3562
#
#
#
# Elastic Compliance Matrix: (Units=1/GPa)
#
#
# Indices 1 2 3 4 5 6 
#
# 1 0.007719 -0.003058 -0.001495 -0.000298 0.000990 0.000815
# 2 -0.003058 0.014071 -0.004176 -0.003220 0.003254 -0.000074
# 3 -0.001495 -0.004176 0.012448 0.001128 -0.005333 -0.002181
# 4 -0.000298 -0.003220 0.001128 0.020119 -0.004380 0.000391
# 5 0.000990 0.003254 -0.005333 -0.004380 0.023785 0.005191
# 6 0.000815 -0.000074 -0.002181 0.000391 0.005191 0.024461
#
#
# Mechanical properties :
#
#
# Convention : Reuss Voigt Hill
#
# Bulk Modulus (GPa) = 59.59803 63.87999 61.73901
# Shear Modulus (GPa) = 39.79103 45.65360 42.72231
#
# Velocity S-wave (km/s) = 3.88178 4.15792 4.02222
# Velocity P-wave (km/s) = 6.53145 6.87324 6.70453
#
# Compressibility (1/GPa) = 0.01677908
#
# Stress axis : x y z
#
# Youngs Moduli (GPa) = 129.54318 71.06865 80.33277
#
# Poissons Ratio (x) = 0.21734 0.12011
# Poissons Ratio (y) = 0.39617 0.33551
# Poissons Ratio (z) = 0.19368 0.29681
#
# Static dielectric constant tensor:
#      x y z
#    x 2.271580 -0.095670 -0.023640 
#    y -0.095670 2.143280 -0.081640 
#    z -0.023640 -0.081640 2.512450 
# 
# From -- ./inp_files/411182.got.cif
#   From: 2010.05.17/outbox.cif.g08.bks.cpg/sg2_206_cif.got.tgz:411182.got - 2010.06.03 11:33:40.
