data_PCOD9048323
_publ_section_title
;
Structure prediction by ZEFSAII (Michael W. Deem and Ramdas Pophale) SiO2 
 PCOD9048323
Probable space group: P -1
;
_chemical_formula_sum "Si O2"
_cell_formula_units_Z 15
_cell_length_a 12.189679
_cell_length_b 8.988410
_cell_length_c 10.948892
_cell_angle_alpha 83.346980
_cell_angle_beta 112.573183
_cell_angle_gamma 144.508089
_cell_volume 598.284840
_symmetry_space_group_name_H-M "P -1"
_symmetry_group_IT_number 2
_symmetry_cell_setting 'triclinic'
loop_
_space_group_symop_operation_xyz
x,y,z
-x,-y,-z
loop_
_atom_site_type_symbol
_atom_site_label
_atom_site_fract_x
_atom_site_fract_y
_atom_site_fract_z
Si Si1 0.272478 0.239763 0.355560
Si Si2 0.269286 0.727186 0.174628
Si Si3 0.035266 0.191894 0.419277
Si Si4 0.619801 0.802789 0.847452
Si Si5 0.500000 0.500000 0.000000
Si Si6 0.844985 0.352292 0.134910
Si Si7 0.152809 0.389067 0.694360
Si Si8 0.573413 0.831635 0.185793
O O1 0.500000 0.500000 0.500000
O O2 0.328392 0.235195 0.247014
O O3 0.151720 0.266381 0.337704
O O4 0.087405 0.926311 0.349977
O O5 0.452920 0.794581 0.246391
O O6 0.081183 0.523206 0.214872
O O7 0.347867 0.985696 0.179592
O O8 0.167595 0.586741 0.009549
O O9 0.173675 0.434014 0.553537
O O10 0.799499 0.009838 0.317790
O O11 0.000000 0.000000 0.500000
O O12 0.359874 0.498966 0.807496
O O13 0.714107 0.830520 0.007224
O O14 0.454261 0.575861 0.085979
O O15 0.826993 0.446310 0.229146
O O16 0.644702 0.030380 0.098380
#
# Coordination Sequence:
#
# PCOD9048323 Si02
#       8
#     2   2   2   2   1   2   2   2
#     4  11  23  42  71 102 139 189 235 287 357 420
#     4  11  24  46  74 104 142 185 235 296 356 421
#     4  10  24  45  67 101 142 186 234 294 349 420
#     4  12  23  45  74 104 142 190 235 294 363 426
#     4  12  26  40  70 106 138 190 228 284 370 420
#     4  11  23  44  72 104 140 183 239 291 351 429
#     4  11  22  42  71  99 135 187 237 285 356 415
#     4  12  25  46  69 102 144 183 238 297 353 425
#
# _framework density 25.071670999999998
#
# number of rings (size 3 to 8) (size 9 to 14) (size 15 to 20)
#    0.000    0.800    5.333    2.800    1.867    1.600 
#    0.000    4.000    0.000    0.000    0.000    0.000 
#    0.000    0.000    0.000    0.000    0.000    0.000 
#
# Total GULP energy -83578.370459 kJ/mol
# GULP energy per Si atom -5571.891364 kJ/mol
# Density = 2.501461 g / cm^3
# Si number density = 25.071671 Si / 1000 Ang^3
#
#
#
# Elastic Constant Matrix: (Units=GPa)
#
#
# Indices 1 2 3 4 5 6 
#
# 1 227.7196 49.6334 58.6418 -2.0063 -41.2917 14.4965
# 2 49.6334 93.8804 4.2019 15.3477 -13.3616 1.4932
# 3 58.6418 4.2019 91.6536 9.7030 -31.3964 -3.7604
# 4 -2.0063 15.3477 9.7030 29.6035 -1.3135 -7.1302
# 5 -41.2917 -13.3616 -31.3964 -1.3135 68.5151 8.5256
# 6 14.4965 1.4932 -3.7604 -7.1302 8.5256 44.5123
#
#
#
# Elastic Compliance Matrix: (Units=1/GPa)
#
#
# Indices 1 2 3 4 5 6 
#
# 1 0.006682 -0.003564 -0.003887 0.003117 0.001891 -0.002248
# 2 -0.003564 0.014118 0.003212 -0.008723 0.002013 -0.000824
# 3 -0.003887 0.003212 0.015818 -0.006784 0.005355 0.000382
# 4 0.003117 -0.008723 -0.006784 0.042052 -0.002871 0.005990
# 5 0.001891 0.002013 0.005355 -0.002871 0.019067 -0.004343
# 6 -0.002248 -0.000824 0.000382 0.005990 -0.004343 0.025049
#
#
# Mechanical properties :
#
#
# Convention : Reuss Voigt Hill
#
# Bulk Modulus (GPa) = 35.53433 70.91198 53.22316
# Shear Modulus (GPa) = 35.55088 48.57794 42.06441
#
# Velocity S-wave (km/s) = 3.76968 4.40655 4.10050
# Velocity P-wave (km/s) = 5.75771 7.36447 6.61009
#
# Compressibility (1/GPa) = 0.02814180
#
# Stress axis : x y z
#
# Youngs Moduli (GPa) = 149.64758 70.83301 63.21752
#
# Poissons Ratio (x) = 0.25242 0.24570
# Poissons Ratio (y) = 0.53329 -0.20305
# Poissons Ratio (z) = 0.58163 -0.22751
#
# Static dielectric constant tensor:
#      x y z
#    x 1.980590 0.108750 -0.131610 
#    y 0.108750 1.925500 0.184690 
#    z -0.131610 0.184690 1.877380 
# 
# From -- ./inp_files/417608.got.cif
#   From: 2010.05.17/outbox.cif.g08.bks.cpg/sg2_209_cif.got.tgz:417608.got - 2010.06.03 11:33:40.
