data_PCOD9048642
_publ_section_title
;
Structure prediction by ZEFSAII (Michael W. Deem and Ramdas Pophale) SiO2 
 PCOD9048642
Probable space group: P -1
;
_chemical_formula_sum "Si O2"
_cell_formula_units_Z 14
_cell_length_a 12.932123
_cell_length_b 17.043814
_cell_length_c 8.132780
_cell_angle_alpha 43.425855
_cell_angle_beta 128.771646
_cell_angle_gamma 151.484291
_cell_volume 587.880836
_symmetry_space_group_name_H-M "P -1"
_symmetry_group_IT_number 2
_symmetry_cell_setting 'triclinic'
loop_
_space_group_symop_operation_xyz
x,y,z
-x,-y,-z
loop_
_atom_site_type_symbol
_atom_site_label
_atom_site_fract_x
_atom_site_fract_y
_atom_site_fract_z
Si Si1 0.645084 0.328066 0.916277
Si Si2 0.025307 0.885601 0.758871
Si Si3 0.531705 0.845379 0.363425
Si Si4 0.343577 0.910486 0.630954
Si Si5 0.202242 0.116853 0.897787
Si Si6 0.320444 0.475372 0.845003
Si Si7 0.891264 0.700575 0.459487
O O1 0.560085 0.241980 0.776333
O O2 0.448652 0.239294 0.973754
O O3 0.809357 0.542032 0.730797
O O4 0.746525 0.277883 0.146836
O O5 0.211197 0.971220 0.692994
O O6 0.115263 0.970150 0.901285
O O7 0.000000 0.000000 0.500000
O O8 0.838276 0.666179 0.945985
O O9 0.442365 0.680270 0.638367
O O10 0.503904 0.941909 0.291954
O O11 0.151660 0.868035 0.460544
O O12 0.500000 0.000000 0.500000
O O13 0.212304 0.254829 0.636643
O O14 0.000000 0.000000 0.000000
O O15 0.201934 0.379790 0.695443
O O16 0.500000 0.500000 0.000000
#
# Coordination Sequence:
#
# PCOD9048642 Si02
#       7
#     2   2   2   2   2   2   2
#     4  10  24  45  70  97 139 185 227 279 341 416
#     4  11  21  39  66  99 139 177 222 276 345 407
#     4  10  24  46  67  97 135 185 228 279 338 416
#     4  12  26  47  70  98 139 180 229 287 351 404
#     4  11  21  40  70 101 139 173 223 284 342 397
#     4  11  23  42  68 102 142 178 229 282 344 411
#     4  11  24  44  68 103 139 177 233 285 340 408
#
# _framework density 23.814352
#
# number of rings (size 3 to 8) (size 9 to 14) (size 15 to 20)
#    0.000    1.143    2.857    3.000    2.000    1.143 
#   10.286    1.429    0.000    0.000    0.000    0.000 
#    0.000    0.000    0.000    0.000    0.000    0.000 
#
# Total GULP energy -78053.278687 kJ/mol
# GULP energy per Si atom -5575.234192 kJ/mol
# Density = 2.376015 g / cm^3
# Si number density = 23.814352 Si / 1000 Ang^3
#
#
#
# Elastic Constant Matrix: (Units=GPa)
#
#
# Indices 1 2 3 4 5 6 
#
# 1 120.3708 34.4668 20.0569 -5.7473 -9.8074 -1.3214
# 2 34.4668 71.3672 21.1681 -14.3161 -15.9704 12.1856
# 3 20.0569 21.1681 110.2928 -34.9029 -1.7843 7.9967
# 4 -5.7473 -14.3161 -34.9029 52.4841 3.1026 0.6345
# 5 -9.8074 -15.9704 -1.7843 3.1026 46.1186 -3.7828
# 6 -1.3214 12.1856 7.9967 0.6345 -3.7828 30.4404
#
#
#
# Elastic Compliance Matrix: (Units=1/GPa)
#
#
# Indices 1 2 3 4 5 6 
#
# 1 0.010014 -0.005018 -0.001483 -0.001333 0.000666 0.002943
# 2 -0.005018 0.019902 -0.001028 0.003995 0.004910 -0.007388
# 3 -0.001483 -0.001028 0.012204 0.007769 -0.000980 -0.003143
# 4 -0.001333 0.003995 0.007769 0.025254 -0.000652 -0.004305
# 5 0.000666 0.004910 -0.000980 -0.000652 0.023635 0.001271
# 6 0.002943 -0.007388 -0.003143 -0.004305 0.001271 0.037009
#
#
# Mechanical properties :
#
#
# Convention : Reuss Voigt Hill
#
# Bulk Modulus (GPa) = 36.94953 50.37941 43.66447
# Shear Modulus (GPa) = 32.87369 40.89789 36.88579
#
# Velocity S-wave (km/s) = 3.71942 4.14860 3.93986
# Velocity P-wave (km/s) = 5.83051 6.64446 6.25075
#
# Compressibility (1/GPa) = 0.02706394
#
# Stress axis : x y z
#
# Youngs Moduli (GPa) = 99.85671 50.24690 81.93822
#
# Poissons Ratio (x) = 0.25212 0.12148
# Poissons Ratio (y) = 0.50104 0.08424
# Poissons Ratio (z) = 0.14804 0.05166
#
# Static dielectric constant tensor:
#      x y z
#    x 1.806560 -0.026360 -0.006450 
#    y -0.026360 1.977090 -0.019590 
#    z -0.006450 -0.019590 2.026370 
# 
# From -- ./inp_files/278841.got.cif
#   From: 2010.05.17/outbox.cif.g08.bks.cpg/sg2_140_cif.got.tgz:278841.got - 2010.06.03 11:33:40.
