data_PCOD9048291
_publ_section_title
;
Structure prediction by ZEFSAII (Michael W. Deem and Ramdas Pophale) SiO2 
 PCOD9048291
Probable space group: P -1
;
_chemical_formula_sum "Si O2"
_cell_formula_units_Z 12
_cell_length_a 13.074543
_cell_length_b 6.618039
_cell_length_c 9.578504
_cell_angle_alpha 87.902772
_cell_angle_beta 45.193047
_cell_angle_gamma 116.938218
_cell_volume 433.385793
_symmetry_space_group_name_H-M "P -1"
_symmetry_group_IT_number 2
_symmetry_cell_setting 'triclinic'
loop_
_space_group_symop_operation_xyz
x,y,z
-x,-y,-z
loop_
_atom_site_type_symbol
_atom_site_label
_atom_site_fract_x
_atom_site_fract_y
_atom_site_fract_z
Si Si1 0.654622 0.470924 0.389493
Si Si2 0.677900 0.131853 0.154439
Si Si3 0.643441 0.445081 0.684378
Si Si4 0.747630 0.754409 0.853284
Si Si5 0.225652 0.748229 0.247743
Si Si6 0.016095 0.935709 0.116488
O O1 0.500000 0.500000 0.500000
O O2 0.656525 0.283879 0.285429
O O3 0.507904 0.201682 0.660697
O O4 0.864872 0.790616 0.117175
O O5 0.722484 0.272550 0.958907
O O6 0.860224 0.157127 0.012424
O O7 0.767075 0.637396 0.702532
O O8 0.648014 0.219914 0.748439
O O9 0.792167 0.641950 0.404617
O O10 0.469986 0.450356 0.865062
O O11 0.750205 0.988367 0.793367
O O12 0.905813 0.884439 0.819873
O O13 0.000000 0.500000 0.500000
#
# Coordination Sequence:
#
# PCOD9048291 Si02
#       6
#     2   2   2   2   2   2
#     4  11  23  44  73  95 141 185 219 295 343 413
#     4  10  24  47  66 103 140 174 242 277 343 429
#     4  11  22  45  74  97 139 186 226 290 350 404
#     4  10  24  45  66 104 141 173 241 289 331 425
#     4  11  23  42  75 101 136 182 229 289 352 406
#     4  11  24  43  67 100 141 182 230 284 347 409
#
# _framework density 27.688953999999999
#
# number of rings (size 3 to 8) (size 9 to 14) (size 15 to 20)
#    0.000    1.333    3.333    3.000    2.333    3.333 
#    3.000    0.000    0.000    0.000    0.000    0.000 
#    0.000    0.000    0.000    0.000    0.000    0.000 
#
# Total GULP energy -67174.669160 kJ/mol
# GULP energy per Si atom -5597.889097 kJ/mol
# Density = 2.762593 g / cm^3
# Si number density = 27.688954 Si / 1000 Ang^3
#
#
#
# Elastic Constant Matrix: (Units=GPa)
#
#
# Indices 1 2 3 4 5 6 
#
# 1 248.3949 61.0684 118.4712 11.7280 27.7837 37.8945
# 2 61.0684 167.8719 83.8974 12.7514 -7.1213 28.5175
# 3 118.4712 83.8974 252.7851 -5.4441 5.8522 33.6501
# 4 11.7280 12.7514 -5.4441 63.9921 20.6277 -0.6956
# 5 27.7837 -7.1213 5.8522 20.6277 80.9150 0.3672
# 6 37.8945 28.5175 33.6501 -0.6956 0.3672 40.5944
#
#
#
# Elastic Compliance Matrix: (Units=1/GPa)
#
#
# Indices 1 2 3 4 5 6 
#
# 1 0.005907 -0.000547 -0.002110 -0.000626 -0.001749 -0.003375
# 2 -0.000547 0.007994 -0.002018 -0.002225 0.001620 -0.003485
# 3 -0.002110 -0.002018 0.005838 0.001338 -0.000210 -0.001427
# 4 -0.000626 -0.002225 0.001338 0.017804 -0.004623 0.001385
# 5 -0.001749 0.001620 -0.000210 -0.004623 0.014293 0.000460
# 6 -0.003375 -0.003485 -0.001427 0.001385 0.000460 0.031435
#
#
# Mechanical properties :
#
#
# Convention : Reuss Voigt Hill
#
# Bulk Modulus (GPa) = 96.26737 132.88067 114.57402
# Shear Modulus (GPa) = 52.03598 64.14130 58.08864
#
# Velocity S-wave (km/s) = 4.33980 4.81822 4.58525
# Velocity P-wave (km/s) = 7.74304 8.89091 8.33676
#
# Compressibility (1/GPa) = 0.01038774
#
# Stress axis : x y z
#
# Youngs Moduli (GPa) = 169.28802 125.08668 171.27698
#
# Poissons Ratio (x) = 0.06848 0.36147
# Poissons Ratio (y) = 0.09267 0.34568
# Poissons Ratio (z) = 0.35727 0.25246
#
# Static dielectric constant tensor:
#      x y z
#    x 2.200880 0.088530 0.030440 
#    y 0.088530 2.264870 -0.056410 
#    z 0.030440 -0.056410 2.365180 
# 
# From -- ./inp_files/445826.got.cif
#   From: 2010.05.17/outbox.cif.g08.bks.cpg/sg2_223_cif.got.tgz:445826.got - 2010.06.03 11:33:40.
