data_PCOD9048946
_publ_section_title
;
Structure prediction by ZEFSAII (Michael W. Deem and Ramdas Pophale) SiO2 
 PCOD9048946
Probable space group: P -1
;
_chemical_formula_sum "Si O2"
_cell_formula_units_Z 16
_cell_length_a 18.437683
_cell_length_b 14.152008
_cell_length_c 5.270748
_cell_angle_alpha 70.383842
_cell_angle_beta 109.481533
_cell_angle_gamma 152.056274
_cell_volume 604.938777
_symmetry_space_group_name_H-M "P -1"
_symmetry_group_IT_number 2
_symmetry_cell_setting 'triclinic'
loop_
_space_group_symop_operation_xyz
x,y,z
-x,-y,-z
loop_
_atom_site_type_symbol
_atom_site_label
_atom_site_fract_x
_atom_site_fract_y
_atom_site_fract_z
Si Si1 0.733684 0.834544 0.309069
Si Si2 0.411656 0.832144 0.843155
Si Si3 0.577520 0.314852 0.612343
Si Si4 0.611948 0.543269 0.778402
Si Si5 0.122681 0.183791 0.786161
Si Si6 0.695155 0.103373 0.563181
Si Si7 0.116665 0.396445 0.537257
Si Si8 0.944675 0.255612 0.987015
O O1 0.681251 0.731295 0.616591
O O2 0.562706 0.647236 0.152962
O O3 0.835890 0.857822 0.314506
O O4 0.820541 0.033553 0.150481
O O5 0.554293 0.969573 0.703940
O O6 0.278079 0.757627 0.660140
O O7 0.369066 0.685029 0.076660
O O8 0.500000 0.000000 0.000000
O O9 0.601810 0.457244 0.598080
O O10 0.396346 0.082420 0.552789
O O11 0.696829 0.401818 0.466135
O O12 0.725122 0.623795 0.040751
O O13 0.069541 0.228048 0.566145
O O14 0.000000 0.000000 0.000000
O O15 0.840914 0.226567 0.772564
O O16 0.043184 0.329198 0.790495
O O17 0.048719 0.390325 0.240032
#
# Coordination Sequence:
#
# PCOD9048946 Si02
#       8
#     2   2   2   2   2   2   2   2
#     4  11  25  40  66  97 144 185 247 297 350 401
#     4   9  21  44  77 107 134 173 238 287 361 424
#     4  11  24  43  74 102 141 182 239 295 352 426
#     4  11  25  41  67 105 138 185 246 303 349 408
#     4  12  24  44  65  92 147 197 243 286 356 419
#     4  10  24  45  77 103 136 185 233 293 356 429
#     4  12  28  44  68 105 145 192 237 289 357 424
#     4  12  28  46  70 103 150 190 239 290 358 421
#
# _framework density 26.44896
#
# number of rings (size 3 to 8) (size 9 to 14) (size 15 to 20)
#    0.000    1.000    2.500    2.625   10.500    2.000 
#    0.000    1.250    0.000    0.000    0.000    0.000 
#    0.000    0.000    0.000    0.000    0.000    0.000 
#
# Total GULP energy -89451.008779 kJ/mol
# GULP energy per Si atom -5590.688049 kJ/mol
# Density = 2.638876 g / cm^3
# Si number density = 26.448960 Si / 1000 Ang^3
#
#
#
# Elastic Constant Matrix: (Units=GPa)
#
#
# Indices 1 2 3 4 5 6 
#
# 1 83.4640 18.9747 31.2422 0.1827 16.2025 12.9092
# 2 18.9747 79.1302 23.4754 0.9898 -0.3793 18.0749
# 3 31.2422 23.4754 116.2157 7.3079 18.6484 21.3762
# 4 0.1827 0.9898 7.3079 48.9698 5.7910 2.7493
# 5 16.2025 -0.3793 18.6484 5.7910 55.1691 3.7018
# 6 12.9092 18.0749 21.3762 2.7493 3.7018 34.8490
#
#
#
# Elastic Compliance Matrix: (Units=1/GPa)
#
#
# Indices 1 2 3 4 5 6 
#
# 1 0.014438 -0.002198 -0.002521 0.000895 -0.003338 -0.002378
# 2 -0.002198 0.015061 -0.001586 0.000089 0.001693 -0.006211
# 3 -0.002521 -0.001586 0.010920 -0.001029 -0.002546 -0.004590
# 4 0.000895 0.000089 -0.001029 0.020875 -0.002026 -0.001178
# 5 -0.003338 0.001693 -0.002546 -0.002026 0.020196 -0.000065
# 6 -0.002378 -0.006211 -0.004590 -0.001178 -0.000065 0.035713
#
#
# Mechanical properties :
#
#
# Convention : Reuss Voigt Hill
#
# Bulk Modulus (GPa) = 35.95919 47.35496 41.65708
# Shear Modulus (GPa) = 35.94968 41.47208 38.71088
#
# Velocity S-wave (km/s) = 3.69075 3.96410 3.82986
# Velocity P-wave (km/s) = 5.63803 6.23661 5.94486
#
# Compressibility (1/GPa) = 0.02780931
#
# Stress axis : x y z
#
# Youngs Moduli (GPa) = 69.26015 66.39742 91.57266
#
# Poissons Ratio (x) = 0.14597 0.23082
# Poissons Ratio (y) = 0.15226 0.14524
# Poissons Ratio (z) = 0.17458 0.10531
#
# Static dielectric constant tensor:
#      x y z
#    x 2.114220 -0.032410 -0.099270 
#    y -0.032410 2.199110 0.100450 
#    z -0.099270 0.100450 2.321590 
# 
# From -- ./inp_files/110766.got.cif
#   From: 2010.05.17/outbox.cif.g08.bks.cpg/sg2_56_cif.got.tgz:110766.got - 2010.06.03 11:33:40.
