data_PCOD9048494
_publ_section_title
;
Structure prediction by ZEFSAII (Michael W. Deem and Ramdas Pophale) SiO2 
 PCOD9048494
Probable space group: P -1
;
_chemical_formula_sum "Si O2"
_cell_formula_units_Z 12
_cell_length_a 11.212127
_cell_length_b 10.179547
_cell_length_c 5.218125
_cell_angle_alpha 77.539786
_cell_angle_beta 111.331986
_cell_angle_gamma 71.224848
_cell_volume 486.401485
_symmetry_space_group_name_H-M "P -1"
_symmetry_group_IT_number 2
_symmetry_cell_setting 'triclinic'
loop_
_space_group_symop_operation_xyz
x,y,z
-x,-y,-z
loop_
_atom_site_type_symbol
_atom_site_label
_atom_site_fract_x
_atom_site_fract_y
_atom_site_fract_z
Si Si1 0.822952 0.951029 0.270685
Si Si2 0.562849 0.654186 0.595616
Si Si3 0.356511 0.979897 0.374698
Si Si4 0.323026 0.514756 0.738146
Si Si5 0.871839 0.235857 0.214008
Si Si6 0.143609 0.487571 0.236643
O O1 0.746586 0.924971 0.974416
O O2 0.861844 0.088122 0.173984
O O3 0.723224 0.993690 0.426971
O O4 0.972784 0.815336 0.520279
O O5 0.422982 0.806611 0.405061
O O6 0.717034 0.660358 0.686209
O O7 0.580838 0.585466 0.918221
O O8 0.585190 0.544701 0.419494
O O9 0.500000 0.000000 0.500000
O O10 0.251165 0.684019 0.705051
O O11 0.182108 0.488374 0.566592
O O12 0.846310 0.364173 0.931450
O O13 0.000000 0.500000 0.000000
#
# Coordination Sequence:
#
# PCOD9048494 Si02
#       6
#     2   2   2   2   2   2
#     4  11  28  43  72  98 142 183 226 284 332 429
#     4   9  21  40  63  95 131 166 228 271 337 400
#     4  12  27  46  69  99 138 187 229 275 346 410
#     4   9  20  39  66  92 132 167 220 284 326 395
#     4  10  24  45  69 105 136 178 234 277 357 384
#     4   9  21  37  68  97 131 172 223 285 326 392
#
# _framework density 24.670974999999999
#
# number of rings (size 3 to 8) (size 9 to 14) (size 15 to 20)
#    1.000    1.000    0.000    1.500    7.000    5.333 
#    0.000   11.667    0.000    0.000    0.000    0.000 
#    0.000    0.000    0.000    0.000    0.000    0.000 
#
# Total GULP energy -66992.785135 kJ/mol
# GULP energy per Si atom -5582.732095 kJ/mol
# Density = 2.461482 g / cm^3
# Si number density = 24.670975 Si / 1000 Ang^3
#
#
#
# Elastic Constant Matrix: (Units=GPa)
#
#
# Indices 1 2 3 4 5 6 
#
# 1 88.7944 1.1710 24.5515 6.4627 15.5397 -2.3403
# 2 1.1710 44.8822 25.9748 5.0605 -0.4865 -9.6193
# 3 24.5515 25.9748 132.0458 24.7688 22.2771 0.0828
# 4 6.4627 5.0605 24.7688 37.0177 -0.0333 12.8724
# 5 15.5397 -0.4865 22.2771 -0.0333 44.4148 7.8534
# 6 -2.3403 -9.6193 0.0828 12.8724 7.8534 29.3174
#
#
#
# Elastic Compliance Matrix: (Units=1/GPa)
#
#
# Indices 1 2 3 4 5 6 
#
# 1 0.012721 0.001613 -0.001387 -0.002915 -0.004450 0.004021
# 2 0.001613 0.028100 -0.004982 -0.004750 0.000225 0.011388
# 3 -0.001387 -0.004982 0.011221 -0.007681 -0.005758 0.003138
# 4 -0.002915 -0.004750 -0.007681 0.041014 0.008764 -0.022125
# 5 -0.004450 0.000225 -0.005758 0.008764 0.029074 -0.011901
# 6 0.004021 0.011388 0.003138 -0.022125 -0.011901 0.051061
#
#
# Mechanical properties :
#
#
# Convention : Reuss Voigt Hill
#
# Bulk Modulus (GPa) = 23.51215 41.01302 32.26258
# Shear Modulus (GPa) = 25.39621 36.41832 30.90727
#
# Velocity S-wave (km/s) = 3.21190 3.84625 3.54330
# Velocity P-wave (km/s) = 4.82763 6.03199 5.46310
#
# Compressibility (1/GPa) = 0.04253121
#
# Stress axis : x y z
#
# Youngs Moduli (GPa) = 78.60787 35.58688 89.11541
#
# Poissons Ratio (x) = -0.05741 0.12365
# Poissons Ratio (y) = -0.12682 0.44395
# Poissons Ratio (z) = 0.10907 0.17729
#
# Static dielectric constant tensor:
#      x y z
#    x 2.038980 0.076690 -0.053400 
#    y 0.076690 2.007100 0.001750 
#    z -0.053400 0.001750 1.901150 
# 
# From -- ./inp_files/73733.got.cif
#   From: 2010.05.17/outbox.cif.g08.bks.cpg/sg2_37_cif.got.tgz:73733.got - 2010.06.03 11:33:40.
