data_PCOD9048664
_publ_section_title
;
Structure prediction by ZEFSAII (Michael W. Deem and Ramdas Pophale) SiO2 
 PCOD9048664
Probable space group: P -1
;
_chemical_formula_sum "Si O2"
_cell_formula_units_Z 16
_cell_length_a 16.370986
_cell_length_b 6.923446
_cell_length_c 8.851449
_cell_angle_alpha 127.963350
_cell_angle_beta 62.241799
_cell_angle_gamma 117.610760
_cell_volume 677.057675
_symmetry_space_group_name_H-M "P -1"
_symmetry_group_IT_number 2
_symmetry_cell_setting 'triclinic'
loop_
_space_group_symop_operation_xyz
x,y,z
-x,-y,-z
loop_
_atom_site_type_symbol
_atom_site_label
_atom_site_fract_x
_atom_site_fract_y
_atom_site_fract_z
Si Si1 0.792817 0.887228 0.837693
Si Si2 0.541247 0.064949 0.830642
Si Si3 0.351074 0.277692 0.370051
Si Si4 0.508962 0.724637 0.307213
Si Si5 0.188838 0.258009 0.746858
Si Si6 0.311424 0.476806 0.989847
Si Si7 0.083989 0.854250 0.870482
Si Si8 0.067419 0.282856 0.590288
O O1 0.710617 0.906906 0.796094
O O2 0.854530 0.735824 0.613282
O O3 0.734498 0.713155 0.933022
O O4 0.863967 0.098569 0.985436
O O5 0.483867 0.211304 0.848048
O O6 0.567636 0.808348 0.642668
O O7 0.643686 0.258467 0.846388
O O8 0.500000 0.000000 0.000000
O O9 0.412430 0.526552 0.350695
O O10 0.272082 0.291290 0.567311
O O11 0.600964 0.617527 0.205201
O O12 0.500000 0.000000 0.500000
O O13 0.229940 0.473360 0.937027
O O14 0.102152 0.288421 0.736040
O O15 0.159563 0.997899 0.744788
O O16 0.044585 0.555918 0.723223
O O17 0.000000 0.000000 0.000000
O O18 0.000000 0.000000 0.500000
#
# Coordination Sequence:
#
# PCOD9048664 Si02
#       8
#     2   2   2   2   2   2   2   2
#     4  10  24  45  71 100 142 180 228 302 338 429
#     4  12  24  39  68  94 135 189 231 285 339 409
#     4  11  24  44  64 103 134 184 239 282 353 402
#     4  12  26  43  64  94 147 190 235 294 345 410
#     4  10  26  43  69 104 133 180 233 293 342 430
#     4  11  23  44  65 101 136 183 237 283 349 402
#     4  11  26  49  74 107 142 183 230 293 368 436
#     4  11  26  49  75 108 143 183 231 291 367 441
#
# _framework density 23.631665999999999
#
# number of rings (size 3 to 8) (size 9 to 14) (size 15 to 20)
#    0.000    1.000    2.500    2.625    5.250    9.000 
#    4.500    0.000    0.000    0.000    0.000    0.000 
#    0.000    0.000    0.000    0.000    0.000    0.000 
#
# Total GULP energy -89130.650519 kJ/mol
# GULP energy per Si atom -5570.665657 kJ/mol
# Density = 2.357788 g / cm^3
# Si number density = 23.631666 Si / 1000 Ang^3
#
#
#
# Elastic Constant Matrix: (Units=GPa)
#
#
# Indices 1 2 3 4 5 6 
#
# 1 81.1213 39.9216 14.2436 7.8337 8.8904 -1.8018
# 2 39.9216 115.7062 43.3092 14.8459 -8.7424 4.3264
# 3 14.2436 43.3092 68.7077 -1.2224 1.2494 0.3022
# 4 7.8337 14.8459 -1.2224 44.2820 -1.2602 0.2135
# 5 8.8904 -8.7424 1.2494 -1.2602 37.0598 -3.7669
# 6 -1.8018 4.3264 0.3022 0.2135 -3.7669 34.1263
#
#
#
# Elastic Compliance Matrix: (Units=1/GPa)
#
#
# Indices 1 2 3 4 5 6 
#
# 1 0.015855 -0.005989 0.000561 -0.000933 -0.005163 0.001027
# 2 -0.005989 0.014705 -0.008180 -0.003950 0.004890 -0.001543
# 3 0.000561 -0.008180 0.019693 0.003111 -0.002562 0.000590
# 4 -0.000933 -0.003950 0.003111 0.024157 0.000037 0.000277
# 5 -0.005163 0.004890 -0.002562 0.000037 0.029708 0.002409
# 6 0.001027 -0.001543 0.000590 0.000277 0.002409 0.029812
#
#
# Mechanical properties :
#
#
# Convention : Reuss Voigt Hill
#
# Bulk Modulus (GPa) = 43.40760 51.16489 47.28625
# Shear Modulus (GPa) = 29.61654 34.29765 31.95709
#
# Velocity S-wave (km/s) = 3.54398 3.81378 3.68135
# Velocity P-wave (km/s) = 5.92914 6.41024 6.17438
#
# Compressibility (1/GPa) = 0.02303744
#
# Stress axis : x y z
#
# Youngs Moduli (GPa) = 63.07245 68.00589 50.77831
#
# Poissons Ratio (x) = 0.40729 -0.02849
# Poissons Ratio (y) = 0.37774 0.41535
# Poissons Ratio (z) = -0.03539 0.55627
#
# Static dielectric constant tensor:
#      x y z
#    x 2.027440 -0.004880 0.056740 
#    y -0.004880 1.988590 0.010620 
#    z 0.056740 0.010620 2.037820 
# 
# From -- ./inp_files/324110.got.cif
#   From: 2010.05.17/outbox.cif.g08.bks.cpg/sg2_163_cif.got.tgz:324110.got - 2010.06.03 11:33:40.
