data_PCOD9048266
_publ_section_title
;
Structure prediction by ZEFSAII (Michael W. Deem and Ramdas Pophale) SiO2 
 PCOD9048266
Probable space group: P -1
;
_chemical_formula_sum "Si O2"
_cell_formula_units_Z 14
_cell_length_a 12.356634
_cell_length_b 10.986820
_cell_length_c 12.826654
_cell_angle_alpha 58.629818
_cell_angle_beta 145.956937
_cell_angle_gamma 95.845334
_cell_volume 602.953167
_symmetry_space_group_name_H-M "P -1"
_symmetry_group_IT_number 2
_symmetry_cell_setting 'triclinic'
loop_
_space_group_symop_operation_xyz
x,y,z
-x,-y,-z
loop_
_atom_site_type_symbol
_atom_site_label
_atom_site_fract_x
_atom_site_fract_y
_atom_site_fract_z
Si Si1 0.054867 0.269556 0.898745
Si Si2 0.679553 0.173398 0.175772
Si Si3 0.674929 0.269748 0.717363
Si Si4 0.747621 0.703742 0.753338
Si Si5 0.685389 0.044856 0.011905
Si Si6 0.141686 0.576155 0.541770
Si Si7 0.404055 0.017247 0.651323
O O1 0.929803 0.203255 0.891522
O O2 0.854259 0.425373 0.581224
O O3 0.192516 0.306601 0.073584
O O4 0.299066 0.104614 0.095464
O O5 0.614864 0.126320 0.036313
O O6 0.631463 0.118590 0.271330
O O7 0.457041 0.412651 0.895755
O O8 0.000000 0.000000 0.500000
O O9 0.500000 0.500000 0.500000
O O10 0.503746 0.258504 0.505409
O O11 0.734005 0.153270 0.922972
O O12 0.756444 0.851165 0.634885
O O13 0.000000 0.500000 0.000000
O O14 0.410968 0.114883 0.714427
O O15 0.946456 0.804191 0.326034
O O16 0.000000 0.500000 0.500000
#
# Coordination Sequence:
#
# PCOD9048266 Si02
#       7
#     2   2   2   2   2   2   2
#     4  11  23  45  73  99 147 184 237 309 352 444
#     4  12  26  45  74 105 147 189 247 311 361 442
#     4  11  23  44  72 110 145 190 248 297 374 439
#     4  11  24  40  70 107 138 186 234 297 367 430
#     4  10  24  45  75 102 143 195 244 298 369 438
#     4  11  24  47  74 106 140 199 246 291 378 438
#     4  10  24  45  65 103 137 190 236 292 373 427
#
# _framework density 23.219052000000001
#
# number of rings (size 3 to 8) (size 9 to 14) (size 15 to 20)
#    0.000    1.143    4.286    1.714    4.000    6.857 
#    5.143    0.000    0.000    0.000    0.000    0.000 
#    0.000    0.000    0.000    0.000    0.000    0.000 
#
# Total GULP energy -77946.703547 kJ/mol
# GULP energy per Si atom -5567.621682 kJ/mol
# Density = 2.316620 g / cm^3
# Si number density = 23.219052 Si / 1000 Ang^3
#
#
#
# Elastic Constant Matrix: (Units=GPa)
#
#
# Indices 1 2 3 4 5 6 
#
# 1 102.9081 8.4880 23.1448 -12.8159 -11.9541 19.2024
# 2 8.4880 66.1999 15.1460 -5.1206 -5.1435 -1.7588
# 3 23.1448 15.1460 109.8520 -24.8721 -1.2108 12.3796
# 4 -12.8159 -5.1206 -24.8721 47.7913 0.1739 -7.6043
# 5 -11.9541 -5.1435 -1.2108 0.1739 38.1525 -3.4736
# 6 19.2024 -1.7588 12.3796 -7.6043 -3.4736 30.7108
#
#
#
# Elastic Compliance Matrix: (Units=1/GPa)
#
#
# Indices 1 2 3 4 5 6 
#
# 1 0.011767 -0.001045 -0.001291 0.001370 0.002932 -0.006226
# 2 -0.001045 0.016015 -0.002109 0.000783 0.002020 0.002843
# 3 -0.001291 -0.002109 0.011034 0.004750 -0.000602 -0.002653
# 4 0.001370 0.000783 0.004750 0.024388 0.000885 0.003412
# 5 0.002932 0.002020 -0.000602 0.000885 0.027548 0.001860
# 6 -0.006226 0.002843 -0.002653 0.003412 0.001860 0.038742
#
#
# Mechanical properties :
#
#
# Convention : Reuss Voigt Hill
#
# Bulk Modulus (GPa) = 33.41496 41.39086 37.40291
# Shear Modulus (GPa) = 33.70217 38.80968 36.25592
#
# Velocity S-wave (km/s) = 3.81397 4.09278 3.95583
# Velocity P-wave (km/s) = 5.81529 6.34030 6.08346
#
# Compressibility (1/GPa) = 0.02992672
#
# Stress axis : x y z
#
# Youngs Moduli (GPa) = 84.98396 62.44038 90.63090
#
# Poissons Ratio (x) = 0.06525 0.11699
# Poissons Ratio (y) = 0.08881 0.19112
# Poissons Ratio (z) = 0.10970 0.13167
#
# Static dielectric constant tensor:
#      x y z
#    x 1.779710 0.062830 0.107870 
#    y 0.062830 1.940120 -0.041560 
#    z 0.107870 -0.041560 1.865670 
# 
# From -- ./inp_files/425176.got.cif
#   From: 2010.05.17/outbox.cif.g08.bks.cpg/sg2_213_cif.got.tgz:425176.got - 2010.06.03 11:33:40.
