data_PCOD9048557
_publ_section_title
;
Structure prediction by ZEFSAII (Michael W. Deem and Ramdas Pophale) SiO2 
 PCOD9048557
Probable space group: P -1
;
_chemical_formula_sum "Si O2"
_cell_formula_units_Z 16
_cell_length_a 8.827324
_cell_length_b 13.357465
_cell_length_c 6.877033
_cell_angle_alpha 110.835894
_cell_angle_beta 98.609205
_cell_angle_gamma 94.717811
_cell_volume 741.209051
_symmetry_space_group_name_H-M "P -1"
_symmetry_group_IT_number 2
_symmetry_cell_setting 'triclinic'
loop_
_space_group_symop_operation_xyz
x,y,z
-x,-y,-z
loop_
_atom_site_type_symbol
_atom_site_label
_atom_site_fract_x
_atom_site_fract_y
_atom_site_fract_z
Si Si1 0.605279 0.908964 0.515314
Si Si2 0.154400 0.122584 0.142160
Si Si3 0.394623 0.696528 0.503078
Si Si4 0.151525 0.010540 0.664754
Si Si5 0.322385 0.354959 0.279372
Si Si6 0.672481 0.485255 0.949359
Si Si7 0.106259 0.436612 0.615553
Si Si8 0.103871 0.777477 0.593214
O O1 0.739817 0.933587 0.723726
O O2 0.500622 0.800622 0.498181
O O3 0.500000 0.000000 0.500000
O O4 0.711146 0.904873 0.341326
O O5 0.265222 0.228250 0.160341
O O6 0.011069 0.173930 0.245133
O O7 0.114197 0.046948 0.897952
O O8 0.499866 0.632415 0.614123
O O9 0.333103 0.621374 0.257680
O O10 0.257612 0.726297 0.634411
O O11 0.182609 0.886563 0.576087
O O12 0.000000 0.000000 0.500000
O O13 0.285057 0.416215 0.123380
O O14 0.233112 0.397764 0.471983
O O15 0.500000 0.500000 0.000000
O O16 0.800919 0.494747 0.149002
O O17 0.000000 0.500000 0.500000
O O18 0.005368 0.324321 0.595290
#
# Coordination Sequence:
#
# PCOD9048557 Si02
#       8
#     2   2   2   2   2   2   2   2
#     4  11  24  47  68 103 143 180 231 294 347 419
#     4  10  25  45  71 100 138 187 231 286 356 412
#     4  11  24  46  71 107 141 182 237 290 350 425
#     4  12  25  44  73 100 141 182 236 288 343 422
#     4  10  24  45  69  99 144 179 232 292 345 420
#     4  12  26  43  76 102 138 190 233 282 362 413
#     4  11  26  48  69 104 143 182 236 294 343 420
#     4  11  24  45  71 100 142 183 234 288 351 413
#
# _framework density 21.586352999999999
#
# number of rings (size 3 to 8) (size 9 to 14) (size 15 to 20)
#    0.000    1.000    3.750    1.500    5.250    2.500 
#    4.500    0.000    0.000    0.000    0.000    0.000 
#    0.000    0.000    0.000    0.000    0.000    0.000 
#
# Total GULP energy -89238.242798 kJ/mol
# GULP energy per Si atom -5577.390175 kJ/mol
# Density = 2.153722 g / cm^3
# Si number density = 21.586353 Si / 1000 Ang^3
#
#
#
# Elastic Constant Matrix: (Units=GPa)
#
#
# Indices 1 2 3 4 5 6 
#
# 1 124.7576 26.4790 49.2153 -1.3621 9.5048 -21.2421
# 2 26.4790 88.3827 41.1375 0.6249 17.4446 -2.8802
# 3 49.2153 41.1375 124.2807 1.5430 28.3788 -15.1363
# 4 -1.3621 0.6249 1.5430 29.8877 4.4436 -0.1996
# 5 9.5048 17.4446 28.3788 4.4436 27.9974 -6.4712
# 6 -21.2421 -2.8802 -15.1363 -0.1996 -6.4712 44.8566
#
#
#
# Elastic Compliance Matrix: (Units=1/GPa)
#
#
# Indices 1 2 3 4 5 6 
#
# 1 0.010264 -0.001717 -0.003472 0.000422 0.001930 0.003859
# 2 -0.001717 0.014287 -0.002932 0.000632 -0.005846 -0.001726
# 3 -0.003472 -0.002932 0.012746 0.000706 -0.009780 0.001060
# 4 0.000422 0.000632 0.000706 0.034437 -0.006799 -0.000349
# 5 0.001930 -0.005846 -0.009780 -0.006799 0.050744 0.004529
# 6 0.003859 -0.001726 0.001060 -0.000349 0.004529 0.025020
#
#
# Mechanical properties :
#
#
# Convention : Reuss Voigt Hill
#
# Bulk Modulus (GPa) = 47.49756 63.45384 55.47570
# Shear Modulus (GPa) = 29.28116 35.25430 32.26773
#
# Velocity S-wave (km/s) = 3.68702 4.04564 3.87049
# Velocity P-wave (km/s) = 6.33851 7.16115 6.76235
#
# Compressibility (1/GPa) = 0.02105371
#
# Stress axis : x y z
#
# Youngs Moduli (GPa) = 97.42402 69.99472 78.45879
#
# Poissons Ratio (x) = 0.12019 0.27243
# Poissons Ratio (y) = 0.16729 0.23005
# Poissons Ratio (z) = 0.33828 0.20523
#
# Static dielectric constant tensor:
#      x y z
#    x 1.895930 -0.019200 0.078600 
#    y -0.019200 1.889430 -0.100600 
#    z 0.078600 -0.100600 1.770260 
# 
# From -- ./inp_files/39996.got.cif
#   From: 2010.05.17/outbox.cif.g08.bks.cpg/sg2_20_cif.got.tgz:39996.got - 2010.06.03 11:33:40.
