data_PCOD9048191
_publ_section_title
;
Structure prediction by ZEFSAII (Michael W. Deem and Ramdas Pophale) SiO2 
 PCOD9048191
Probable space group: P -1
;
_chemical_formula_sum "Si O2"
_cell_formula_units_Z 14
_cell_length_a 18.422642
_cell_length_b 5.058462
_cell_length_c 9.553054
_cell_angle_alpha 107.179106
_cell_angle_beta 144.090308
_cell_angle_gamma 67.116947
_cell_volume 480.732355
_symmetry_space_group_name_H-M "P -1"
_symmetry_group_IT_number 2
_symmetry_cell_setting 'triclinic'
loop_
_space_group_symop_operation_xyz
x,y,z
-x,-y,-z
loop_
_atom_site_type_symbol
_atom_site_label
_atom_site_fract_x
_atom_site_fract_y
_atom_site_fract_z
Si Si1 0.500000 0.000000 0.000000
Si Si2 0.265308 0.555926 0.082578
Si Si3 0.268959 0.969820 0.620058
Si Si4 0.240501 0.042351 0.283214
Si Si5 0.125655 0.755856 0.607988
Si Si6 0.556749 0.623481 0.300489
Si Si7 0.500000 0.500000 0.500000
Si Si8 0.041150 0.436002 0.891635
O O1 0.488913 0.858347 0.120197
O O2 0.654061 0.795825 0.202271
O O3 0.388674 0.297193 0.259464
O O4 0.338532 0.763655 0.324262
O O5 0.205504 0.627253 0.848954
O O6 0.145942 0.562501 0.999880
O O7 0.198457 0.899690 0.631211
O O8 0.401670 0.713357 0.744087
O O9 0.194981 0.993097 0.360757
O O10 0.309348 0.294489 0.446674
O O11 0.129601 0.114414 0.006194
O O12 0.070752 0.540398 0.391032
O O13 0.000000 0.000000 0.500000
O O14 0.482187 0.605935 0.320661
O O15 0.000000 0.500000 0.000000
#
# Coordination Sequence:
#
# PCOD9048191 Si02
#       8
#     1   2   2   2   2   2   1   2
#     4  10  24  44  76 104 150 202 254 322 376 460
#     4  12  26  48  70 113 147 199 252 317 385 447
#     4  11  24  48  72 106 148 198 257 305 390 454
#     4  11  22  45  74 105 141 198 254 298 383 459
#     4  12  27  48  74 111 155 195 251 321 381 454
#     4  11  23  46  71 111 145 200 252 318 379 458
#     4  12  24  46  76 110 158 190 258 320 378 458
#     4  12  26  48  78 106 150 202 253 313 381 464
#
# _framework density 29.122232
#
# number of rings (size 3 to 8) (size 9 to 14) (size 15 to 20)
#    0.000    0.571    4.286    3.429    2.000    1.714 
#   10.286    0.000    0.000    0.000    0.000    0.000 
#    0.000    0.000    0.000    0.000    0.000    0.000 
#
# Total GULP energy -78014.936609 kJ/mol
# GULP energy per Si atom -5572.495472 kJ/mol
# Density = 2.905595 g / cm^3
# Si number density = 29.122232 Si / 1000 Ang^3
#
#
#
# Elastic Constant Matrix: (Units=GPa)
#
#
# Indices 1 2 3 4 5 6 
#
# 1 235.5835 35.2367 65.5502 19.3947 -36.4186 19.1001
# 2 35.2367 96.9448 21.0777 -7.3436 -30.8635 -1.5775
# 3 65.5502 21.0777 245.5013 -23.6987 -25.4954 8.0539
# 4 19.3947 -7.3436 -23.6987 41.0865 11.9231 -13.2731
# 5 -36.4186 -30.8635 -25.4954 11.9231 70.5776 -1.4461
# 6 19.1001 -1.5775 8.0539 -13.2731 -1.4461 51.7163
#
#
#
# Elastic Compliance Matrix: (Units=1/GPa)
#
#
# Indices 1 2 3 4 5 6 
#
# 1 0.006182 -0.001480 -0.001700 -0.006155 0.002896 -0.003562
# 2 -0.001480 0.012432 -0.000069 0.002147 0.004318 0.001608
# 3 -0.001700 -0.000069 0.004899 0.003823 0.000234 0.000851
# 4 -0.006155 0.002147 0.003823 0.035161 -0.006579 0.010583
# 5 0.002896 0.004318 0.000234 -0.006579 0.018703 -0.002140
# 6 -0.003562 0.001608 0.000851 0.010583 -0.002140 0.023225
#
#
# Mechanical properties :
#
#
# Convention : Reuss Voigt Hill
#
# Bulk Modulus (GPa) = 58.77559 91.30656 75.04108
# Shear Modulus (GPa) = 44.33746 63.08707 53.71226
#
# Velocity S-wave (km/s) = 3.90611 4.65939 4.29928
# Velocity P-wave (km/s) = 6.36944 7.76965 7.10413
#
# Compressibility (1/GPa) = 0.01701387
#
# Stress axis : x y z
#
# Youngs Moduli (GPa) = 161.75181 80.44054 204.14095
#
# Poissons Ratio (x) = 0.11903 0.34708
# Poissons Ratio (y) = 0.23936 0.01415
# Poissons Ratio (z) = 0.27501 0.00557
#
# Static dielectric constant tensor:
#      x y z
#    x 5.796360 4.275890 10.685390 
#    y 4.275890 8.745520 14.136970 
#    z 10.685390 14.136970 35.392760 
# 
# From -- ./inp_files/59436.got.cif
#   From: 2010.05.17/outbox.cif.g08.bks.cpg/sg2_30_cif.got.tgz:59436.got - 2010.06.03 11:33:40.
