data_PCOD9048757
_publ_section_title
;
Structure prediction by ZEFSAII (Michael W. Deem and Ramdas Pophale) SiO2 
 PCOD9048757
Probable space group: P -1
;
_chemical_formula_sum "Si O2"
_cell_formula_units_Z 14
_cell_length_a 5.339145
_cell_length_b 21.667914
_cell_length_c 4.826725
_cell_angle_alpha 105.201537
_cell_angle_beta 98.297319
_cell_angle_gamma 79.873921
_cell_volume 527.620402
_symmetry_space_group_name_H-M "P -1"
_symmetry_group_IT_number 2
_symmetry_cell_setting 'triclinic'
loop_
_space_group_symop_operation_xyz
x,y,z
-x,-y,-z
loop_
_atom_site_type_symbol
_atom_site_label
_atom_site_fract_x
_atom_site_fract_y
_atom_site_fract_z
Si Si1 0.682251 0.563933 0.091066
Si Si2 0.236688 0.871593 0.778077
Si Si3 0.266628 0.959045 0.398272
Si Si4 0.050979 0.572792 0.853634
Si Si5 0.910328 0.769407 0.546272
Si Si6 0.399244 0.247264 0.027838
Si Si7 0.693487 0.348287 0.468995
O O1 0.754035 0.492463 0.142692
O O2 0.941790 0.599032 0.168688
O O3 0.459756 0.607165 0.265006
O O4 0.759435 0.553521 0.759845
O O5 0.337748 0.898737 0.545823
O O6 0.408545 0.812871 0.893636
O O7 0.984977 0.840648 0.618974
O O8 0.214544 0.930604 0.056972
O O9 0.500000 0.000000 0.500000
O O10 0.000000 0.000000 0.500000
O O11 0.162645 0.615898 0.703427
O O12 0.857234 0.757474 0.845265
O O13 0.140183 0.714166 0.438257
O O14 0.669115 0.758967 0.309415
O O15 0.492230 0.313522 0.210298
#
# Coordination Sequence:
#
# PCOD9048757 Si02
#       7
#     2   2   2   2   2   2   2
#     4  10  24  45  72 105 148 198 253 321 400 481
#     4  11  26  50  77 112 159 208 250 322 374 458
#     4  12  28  48  82 122 158 204 259 312 379 450
#     4  10  24  45  72 105 148 198 253 321 400 481
#     4  11  27  47  77 109 152 206 259 320 388 459
#     4  11  27  47  77 109 152 206 259 320 388 459
#     4  11  27  42  73 112 148 196 262 326 396 468
#
# _framework density 26.534227999999999
#
# number of rings (size 3 to 8) (size 9 to 14) (size 15 to 20)
#    0.000    1.143    0.000    3.000   14.000    2.286 
#    0.000    4.286    0.000    2.571    0.000    0.000 
#    0.000    0.000    0.000    0.000    0.000    0.000 
#
# Total GULP energy -78193.516192 kJ/mol
# GULP energy per Si atom -5585.251157 kJ/mol
# Density = 2.647384 g / cm^3
# Si number density = 26.534228 Si / 1000 Ang^3
#
#
#
# Elastic Constant Matrix: (Units=GPa)
#
#
# Indices 1 2 3 4 5 6 
#
# 1 139.8587 50.6109 17.1683 5.9829 -10.4653 11.5461
# 2 50.6109 95.2910 50.1540 1.9884 -7.4663 16.7693
# 3 17.1683 50.1540 124.3119 13.8331 0.4978 15.7274
# 4 5.9829 1.9884 13.8331 40.5046 -6.1234 -3.5492
# 5 -10.4653 -7.4663 0.4978 -6.1234 26.2508 -8.7394
# 6 11.5461 16.7693 15.7274 -3.5492 -8.7394 66.4106
#
#
#
# Elastic Compliance Matrix: (Units=1/GPa)
#
#
# Indices 1 2 3 4 5 6 
#
# 1 0.009095 -0.005122 0.000981 -0.001193 0.001755 -0.000353
# 2 -0.005122 0.016916 -0.006218 0.002378 0.002979 -0.001389
# 3 0.000981 -0.006218 0.011149 -0.004300 -0.003223 -0.001895
# 4 -0.001193 0.002378 -0.004300 0.027666 0.007777 0.003127
# 5 0.001755 0.002979 -0.003223 0.007777 0.043461 0.005841
# 6 -0.000353 -0.001389 -0.001895 0.003127 0.005841 0.016854
#
#
# Mechanical properties :
#
#
# Convention : Reuss Voigt Hill
#
# Bulk Modulus (GPa) = 60.82673 66.14754 63.48713
# Shear Modulus (GPa) = 33.03833 42.73509 37.88671
#
# Velocity S-wave (km/s) = 3.53246 4.01754 3.78278
# Velocity P-wave (km/s) = 6.29375 6.81939 6.56184
#
# Compressibility (1/GPa) = 0.01644014
#
# Stress axis : x y z
#
# Youngs Moduli (GPa) = 109.95455 59.11684 89.69671
#
# Poissons Ratio (x) = 0.30280 -0.08798
# Poissons Ratio (y) = 0.56320 0.55775
# Poissons Ratio (z) = -0.10785 0.36760
#
# Static dielectric constant tensor:
#      x y z
#    x 2.129420 -0.026180 0.153480 
#    y -0.026180 2.056920 0.042390 
#    z 0.153480 0.042390 2.179140 
# 
# From -- ./inp_files/11489.got.cif
#   From: 2010.05.17/outbox.cif.g08.bks.cpg/sg2_6_cif.got.tgz:11489.got - 2010.06.03 11:33:40.
