data_PCOD9048745
_publ_section_title
;
Structure prediction by ZEFSAII (Michael W. Deem and Ramdas Pophale) SiO2 
 PCOD9048745
Probable space group: P -1
;
_chemical_formula_sum "Si O2"
_cell_formula_units_Z 16
_cell_length_a 7.722858
_cell_length_b 11.948037
_cell_length_c 8.728137
_cell_angle_alpha 90.331946
_cell_angle_beta 88.292374
_cell_angle_gamma 128.129493
_cell_volume 633.156284
_symmetry_space_group_name_H-M "P -1"
_symmetry_group_IT_number 2
_symmetry_cell_setting 'triclinic'
loop_
_space_group_symop_operation_xyz
x,y,z
-x,-y,-z
loop_
_atom_site_type_symbol
_atom_site_label
_atom_site_fract_x
_atom_site_fract_y
_atom_site_fract_z
Si Si1 0.862695 0.404036 0.652338
Si Si2 0.728573 0.037233 0.429011
Si Si3 0.447678 0.240975 0.448440
Si Si4 0.833318 0.564391 0.932359
Si Si5 0.772298 0.933685 0.835703
Si Si6 0.566512 0.485428 0.234869
Si Si7 0.042210 0.232527 0.663378
Si Si8 0.132981 0.889305 0.903570
O O1 0.628703 0.300168 0.575734
O O2 0.881741 0.488658 0.803485
O O3 0.935692 0.310242 0.697671
O O4 0.000000 0.500000 0.500000
O O5 0.955959 0.176766 0.493649
O O6 0.735232 0.070029 0.254398
O O7 0.500000 0.000000 0.500000
O O8 0.738830 0.908442 0.463548
O O9 0.418989 0.169688 0.280330
O O10 0.493223 0.381734 0.379861
O O11 0.646906 0.560071 0.848314
O O12 0.035406 0.730731 0.955184
O O13 0.717397 0.487631 0.097419
O O14 0.918367 0.883325 0.873751
O O15 0.937118 0.090721 0.759362
O O16 0.710638 0.975501 0.989516
O O17 0.706023 0.646018 0.298707
#
# Coordination Sequence:
#
# PCOD9048745 Si02
#       8
#     2   2   2   2   2   2   2   2
#     4  12  25  44  67 103 149 180 229 286 352 410
#     4  11  25  45  67  99 146 181 233 279 347 411
#     4  11  24  44  68 104 136 185 227 287 342 412
#     4  11  26  45  74 106 141 180 229 298 343 414
#     4  10  24  45  72 102 139 177 239 283 351 407
#     4  11  24  47  71 107 135 178 240 278 358 404
#     4  11  23  46  69 102 141 186 225 287 343 419
#     4  11  23  46  73 103 140 183 229 295 343 407
#
# _framework density 25.270219999999998
#
# number of rings (size 3 to 8) (size 9 to 14) (size 15 to 20)
#    0.000    1.000    5.000    0.750    0.000    6.000 
#    4.500    1.250    0.000    0.000    0.000    0.000 
#    0.000    0.000    0.000    0.000    0.000    0.000 
#
# Total GULP energy -89312.227661 kJ/mol
# GULP energy per Si atom -5582.014229 kJ/mol
# Density = 2.521270 g / cm^3
# Si number density = 25.270220 Si / 1000 Ang^3
#
#
#
# Elastic Constant Matrix: (Units=GPa)
#
#
# Indices 1 2 3 4 5 6 
#
# 1 58.8990 16.7189 25.2363 3.2831 -3.1496 -1.5877
# 2 16.7189 138.3209 15.7947 6.7666 -10.3817 -10.9103
# 3 25.2363 15.7947 87.6017 1.1122 -17.4531 -0.7492
# 4 3.2831 6.7666 1.1122 53.4252 1.7459 13.2579
# 5 -3.1496 -10.3817 -17.4531 1.7459 46.4818 3.0278
# 6 -1.5877 -10.9103 -0.7492 13.2579 3.0278 25.3861
#
#
#
# Elastic Compliance Matrix: (Units=1/GPa)
#
#
# Indices 1 2 3 4 5 6 
#
# 1 0.019908 -0.001712 -0.005638 -0.001115 -0.001178 0.001066
# 2 -0.001712 0.008033 -0.000648 -0.001985 0.001235 0.004216
# 3 -0.005638 -0.000648 0.014106 0.000199 0.004821 -0.000894
# 4 -0.001115 -0.001985 0.000199 0.022131 -0.000467 -0.012419
# 5 -0.001178 0.001235 0.004821 -0.000467 0.023666 -0.001980
# 6 0.001066 0.004216 -0.000894 -0.012419 -0.001980 0.047966
#
#
# Mechanical properties :
#
#
# Convention : Reuss Voigt Hill
#
# Bulk Modulus (GPa) = 38.38551 44.48017 41.43284
# Shear Modulus (GPa) = 31.15473 40.19672 35.67572
#
# Velocity S-wave (km/s) = 3.51502 3.99265 3.76143
# Velocity P-wave (km/s) = 5.63000 6.23659 5.94104
#
# Compressibility (1/GPa) = 0.02605150
#
# Stress axis : x y z
#
# Youngs Moduli (GPa) = 50.23171 124.48945 70.88933
#
# Poissons Ratio (x) = 0.21316 0.39965
# Poissons Ratio (y) = 0.08601 0.04592
# Poissons Ratio (z) = 0.28319 0.08064
#
# Static dielectric constant tensor:
#      x y z
#    x 2.070130 -0.045790 -0.056540 
#    y -0.045790 1.964230 0.058890 
#    z -0.056540 0.058890 2.035850 
# 
# From -- ./inp_files/187710.got.cif
#   From: 2010.05.17/outbox.cif.g08.bks.cpg/sg2_94_cif.got.tgz:187710.got - 2010.06.03 11:33:40.
