data_PCOD9048027
_publ_section_title
;
Structure prediction by ZEFSAII (Michael W. Deem and Ramdas Pophale) SiO2 
 PCOD9048027
Probable space group: P -1
;
_chemical_formula_sum "Si O2"
_cell_formula_units_Z 15
_cell_length_a 5.134052
_cell_length_b 24.051880
_cell_length_c 5.204895
_cell_angle_alpha 69.967132
_cell_angle_beta 87.941865
_cell_angle_gamma 102.041527
_cell_volume 586.499410
_symmetry_space_group_name_H-M "P -1"
_symmetry_group_IT_number 2
_symmetry_cell_setting 'triclinic'
loop_
_space_group_symop_operation_xyz
x,y,z
-x,-y,-z
loop_
_atom_site_type_symbol
_atom_site_label
_atom_site_fract_x
_atom_site_fract_y
_atom_site_fract_z
Si Si1 0.468675 0.447174 0.282158
Si Si2 0.154316 0.052664 0.728222
Si Si3 0.305893 0.322723 0.183077
Si Si4 0.747852 0.282934 0.504413
Si Si5 0.007009 0.386911 0.711259
Si Si6 0.698702 0.089154 0.420597
Si Si7 0.000000 0.500000 0.500000
Si Si8 0.562332 0.149432 0.812266
O O1 0.387859 0.381926 0.262750
O O2 0.194313 0.446367 0.456754
O O3 0.730842 0.460919 0.419574
O O4 0.500000 0.500000 0.000000
O O5 0.961411 0.064728 0.491501
O O6 0.262873 0.113042 0.802727
O O7 0.570788 0.957198 0.388222
O O8 0.000000 0.000000 0.000000
O O9 0.556578 0.292886 0.259483
O O10 0.036713 0.281262 0.381376
O O11 0.208088 0.348627 0.883906
O O12 0.606835 0.220492 0.747243
O O13 0.810390 0.338946 0.615284
O O14 0.924875 0.433170 0.838761
O O15 0.718315 0.141567 0.555350
O O16 0.652972 0.114448 0.104418
#
# Coordination Sequence:
#
# PCOD9048027 Si02
#       8
#     2   2   2   2   2   2   1   2
#     4  11  24  40  60  91 124 160 209 267 337 409
#     4  10  24  44  72 110 148 190 238 293 351 414
#     4  11  26  44  65  94 126 169 217 277 338 403
#     4  11  27  44  67  94 131 172 227 278 336 407
#     4  11  26  40  64  94 124 169 215 277 339 414
#     4  10  25  43  71 104 145 191 236 293 348 416
#     4  12  22  40  66  86 124 162 210 264 340 404
#     4  10  27  45  73 102 145 190 243 288 355 412
#
# _framework density 25.575474
#
# number of rings (size 3 to 8) (size 9 to 14) (size 15 to 20)
#    0.800    0.533    2.667    0.800    7.467    1.600 
#    0.000    0.000    0.000    0.000    0.000    0.000 
#    0.000    0.000    0.000    0.000    0.000    0.000 
#
# Total GULP energy -83731.040552 kJ/mol
# GULP energy per Si atom -5582.069370 kJ/mol
# Density = 2.551726 g / cm^3
# Si number density = 25.575474 Si / 1000 Ang^3
#
#
#
# Elastic Constant Matrix: (Units=GPa)
#
#
# Indices 1 2 3 4 5 6 
#
# 1 131.1190 42.6914 40.2145 5.2337 26.8792 37.7951
# 2 42.6914 152.4206 48.6807 -20.9128 0.0480 34.3040
# 3 40.2145 48.6807 124.6212 -1.3857 23.7894 29.8203
# 4 5.2337 -20.9128 -1.3857 33.7927 7.7518 -7.5388
# 5 26.8792 0.0480 23.7894 7.7518 46.7565 9.1799
# 6 37.7951 34.3040 29.8203 -7.5388 9.1799 34.6850
#
#
#
# Elastic Compliance Matrix: (Units=1/GPa)
#
#
# Indices 1 2 3 4 5 6 
#
# 1 0.012667 -0.001449 0.000202 -0.004675 -0.004162 -0.012459
# 2 -0.001449 0.009549 -0.002343 0.004245 0.002404 -0.005565
# 3 0.000202 -0.002343 0.011307 -0.001564 -0.004265 -0.006835
# 4 -0.004675 0.004245 -0.001564 0.036544 -0.004830 0.011461
# 5 -0.004162 0.002404 -0.004265 -0.004830 0.027226 -0.002430
# 6 -0.012459 -0.005565 -0.006835 0.011461 -0.002430 0.056921
#
#
# Mechanical properties :
#
#
# Convention : Reuss Voigt Hill
#
# Bulk Modulus (GPa) = 37.95889 74.59266 56.27577
# Shear Modulus (GPa) = 29.38167 41.48511 35.43339
#
# Velocity S-wave (km/s) = 3.39311 4.03186 3.72619
# Velocity P-wave (km/s) = 5.49773 7.13467 6.36901
#
# Compressibility (1/GPa) = 0.02634429
#
# Stress axis : x y z
#
# Youngs Moduli (GPa) = 78.94225 104.72483 88.44407
#
# Poissons Ratio (x) = 0.15171 -0.01786
# Poissons Ratio (y) = 0.11436 0.20719
# Poissons Ratio (z) = -0.01594 0.24533
#
# Static dielectric constant tensor:
#      x y z
#    x 2.317760 -0.087440 -0.004470 
#    y -0.087440 2.079270 -0.169000 
#    z -0.004470 -0.169000 2.411250 
# 
# From -- ./inp_files/12432.got.cif
#   From: 2010.05.17/outbox.cif.g08.bks.cpg/sg2_7_cif.got.tgz:12432.got - 2010.06.03 11:33:40.
