data_PCOD9048825
_publ_section_title
;
Structure prediction by ZEFSAII (Michael W. Deem and Ramdas Pophale) SiO2 
 PCOD9048825
Probable space group: P -1
;
_chemical_formula_sum "Si O2"
_cell_formula_units_Z 10
_cell_length_a 10.821655
_cell_length_b 8.107964
_cell_length_c 5.245289
_cell_angle_alpha 114.785125
_cell_angle_beta 98.370181
_cell_angle_gamma 90.804428
_cell_volume 411.939760
_symmetry_space_group_name_H-M "P -1"
_symmetry_group_IT_number 2
_symmetry_cell_setting 'triclinic'
loop_
_space_group_symop_operation_xyz
x,y,z
-x,-y,-z
loop_
_atom_site_type_symbol
_atom_site_label
_atom_site_fract_x
_atom_site_fract_y
_atom_site_fract_z
Si Si1 0.647466 0.963657 0.639274
Si Si2 0.064133 0.930085 0.224719
Si Si3 0.121222 0.599006 0.741174
Si Si4 0.345749 0.807024 0.707557
Si Si5 0.387828 0.456825 0.736413
O O1 0.611290 0.750763 0.477168
O O2 0.796791 0.978258 0.677279
O O3 0.615628 0.081314 0.459299
O O4 0.381449 0.930393 0.044074
O O5 0.073562 0.714848 0.038034
O O6 0.000000 0.000000 0.500000
O O7 0.000000 0.000000 0.000000
O O8 0.197033 0.744349 0.662652
O O9 0.240803 0.487924 0.794507
O O10 0.000000 0.500000 0.500000
O O11 0.402634 0.613672 0.628023
O O12 0.500000 0.500000 0.000000
#
# Coordination Sequence:
#
# PCOD9048825 Si02
#       5
#     2   2   2   2   2
#     4  11  22  46  68 100 141 187 228 299 348 421
#     4  11  22  40  69 103 141 187 236 289 363 421
#     4   9  20  44  68 107 143 181 241 299 345 433
#     4   9  24  43  69 102 141 181 241 281 356 425
#     4  10  24  45  73 105 142 188 238 293 361 425
#
# _framework density 24.275395
#
# number of rings (size 3 to 8) (size 9 to 14) (size 15 to 20)
#    1.200    0.800    0.000    3.600    0.000    3.200 
#    3.600    6.000    0.000    0.000    0.000    0.000 
#    0.000    0.000    0.000    0.000    0.000    0.000 
#
# Total GULP energy -55882.641652 kJ/mol
# GULP energy per Si atom -5588.264165 kJ/mol
# Density = 2.422014 g / cm^3
# Si number density = 24.275395 Si / 1000 Ang^3
#
#
#
# Elastic Constant Matrix: (Units=GPa)
#
#
# Indices 1 2 3 4 5 6 
#
# 1 164.3199 67.8928 93.4135 12.7089 7.8988 -12.2115
# 2 67.8928 202.9752 114.1848 15.6764 -10.3522 -12.2838
# 3 93.4135 114.1848 205.2238 22.3898 5.1035 7.2556
# 4 12.7089 15.6764 22.3898 56.3970 8.2286 1.9889
# 5 7.8988 -10.3522 5.1035 8.2286 55.6356 -2.1206
# 6 -12.2115 -12.2838 7.2556 1.9889 -2.1206 49.6513
#
#
#
# Elastic Compliance Matrix: (Units=1/GPa)
#
#
# Indices 1 2 3 4 5 6 
#
# 1 0.008670 -0.000786 -0.003541 -0.000281 -0.000918 0.002427
# 2 -0.000786 0.007766 -0.004017 -0.000784 0.002134 0.002438
# 3 -0.003541 -0.004017 0.009010 -0.001407 -0.000984 -0.003167
# 4 -0.000281 -0.000784 -0.001407 0.019017 -0.002825 -0.000940
# 5 -0.000918 0.002134 -0.000984 -0.002825 0.019062 0.001373
# 6 0.002427 0.002438 -0.003167 -0.000940 0.001373 0.021900
#
#
# Mechanical properties :
#
#
# Convention : Reuss Voigt Hill
#
# Bulk Modulus (GPa) = 114.19299 124.83343 119.51321
# Shear Modulus (GPa) = 47.60436 52.13862 49.87149
#
# Velocity S-wave (km/s) = 4.43314 4.63946 4.53747
# Velocity P-wave (km/s) = 8.56425 8.95740 8.76303
#
# Compressibility (1/GPa) = 0.00875710
#
# Stress axis : x y z
#
# Youngs Moduli (GPa) = 115.34117 128.76008 110.99157
#
# Poissons Ratio (x) = 0.10120 0.39306
# Poissons Ratio (y) = 0.09066 0.44586
# Poissons Ratio (z) = 0.40847 0.51724
#
# Static dielectric constant tensor:
#      x y z
#    x 2.051970 -0.018880 -0.052020 
#    y -0.018880 1.939480 0.013380 
#    z -0.052020 0.013380 1.897360 
# 
# From -- ./inp_files/61320.got.cif
#   From: 2010.05.17/outbox.cif.g08.bks.cpg/sg2_31_cif.got.tgz:61320.got - 2010.06.03 11:33:40.
