data_PCOD9048106
_publ_section_title
;
Structure prediction by ZEFSAII (Michael W. Deem and Ramdas Pophale) SiO2 
 PCOD9048106
Probable space group: P -1
;
_chemical_formula_sum "Si O2"
_cell_formula_units_Z 14
_cell_length_a 8.601545
_cell_length_b 13.813663
_cell_length_c 13.362474
_cell_angle_alpha 29.142853
_cell_angle_beta 109.498286
_cell_angle_gamma 127.122490
_cell_volume 534.649976
_symmetry_space_group_name_H-M "P -1"
_symmetry_group_IT_number 2
_symmetry_cell_setting 'triclinic'
loop_
_space_group_symop_operation_xyz
x,y,z
-x,-y,-z
loop_
_atom_site_type_symbol
_atom_site_label
_atom_site_fract_x
_atom_site_fract_y
_atom_site_fract_z
Si Si1 0.761311 0.568723 0.198135
Si Si2 0.536411 0.763079 0.748548
Si Si3 0.044258 0.157074 0.470776
Si Si4 0.754731 0.326891 0.054960
Si Si5 0.708281 0.348246 0.608410
Si Si6 0.228482 0.993126 0.811939
Si Si7 0.884259 0.070647 0.837615
O O1 0.590965 0.328395 0.301809
O O2 0.722785 0.443901 0.411177
O O3 0.739646 0.793892 0.992915
O O4 0.015969 0.744567 0.054198
O O5 0.411090 0.775690 0.797291
O O6 0.796753 0.031279 0.558155
O O7 0.500000 0.500000 0.000000
O O8 0.139544 0.105632 0.627763
O O9 0.000000 0.000000 0.500000
O O10 0.221934 0.466087 0.199045
O O11 0.709096 0.109758 0.168497
O O12 0.000000 0.500000 0.000000
O O13 0.465015 0.207685 0.726166
O O14 0.753883 0.148250 0.791218
O O15 0.915716 0.643741 0.433422
O O16 0.000000 0.000000 0.000000
#
# Coordination Sequence:
#
# PCOD9048106 Si02
#       7
#     2   2   2   2   2   2   2
#     4  11  23  42  66  98 134 170 223 265 325 392
#     4  12  23  40  66  94 138 188 220 266 318 381
#     4  12  23  41  61  89 138 181 224 267 317 377
#     4  12  25  42  58  92 137 176 231 271 308 380
#     4  10  24  44  73  97 126 169 214 277 342 387
#     4  12  26  41  63 100 133 173 223 270 319 396
#     4   9  22  48  72  97 127 162 216 279 338 403
#
# _framework density 26.185357
#
# number of rings (size 3 to 8) (size 9 to 14) (size 15 to 20)
#    0.000    0.857    5.714    0.857    2.000    4.571 
#    0.000    6.429    0.000    0.000    0.000    0.000 
#    0.000    0.000    0.000    0.000    0.000    0.000 
#
# Total GULP energy -78453.347481 kJ/mol
# GULP energy per Si atom -5603.810534 kJ/mol
# Density = 2.612576 g / cm^3
# Si number density = 26.185357 Si / 1000 Ang^3
#
#
#
# Elastic Constant Matrix: (Units=GPa)
#
#
# Indices 1 2 3 4 5 6 
#
# 1 149.2329 42.8355 75.5567 -20.3655 -8.6513 1.3398
# 2 42.8355 70.5256 43.5960 -4.5138 1.5847 -2.6410
# 3 75.5567 43.5960 141.5109 -13.2144 6.4599 -2.2285
# 4 -20.3655 -4.5138 -13.2144 36.6127 6.6420 -6.5760
# 5 -8.6513 1.5847 6.4599 6.6420 48.2095 -11.4364
# 6 1.3398 -2.6410 -2.2285 -6.5760 -11.4364 48.2262
#
#
#
# Elastic Compliance Matrix: (Units=1/GPa)
#
#
# Indices 1 2 3 4 5 6 
#
# 1 0.010481 -0.003537 -0.004272 0.003516 0.002158 0.000309
# 2 -0.003537 0.018741 -0.003935 -0.000869 -0.000433 0.000722
# 3 -0.004272 -0.003935 0.010801 0.001460 -0.002271 0.000063
# 4 0.003516 -0.000869 0.001460 0.030843 -0.002973 0.003423
# 5 0.002158 -0.000433 -0.002271 -0.002973 0.023012 0.004863
# 6 0.000309 0.000722 0.000063 0.003423 0.004863 0.022389
#
#
# Mechanical properties :
#
#
# Convention : Reuss Voigt Hill
#
# Bulk Modulus (GPa) = 60.47821 76.13841 68.30831
# Shear Modulus (GPa) = 34.41919 39.89510 37.15715
#
# Velocity S-wave (km/s) = 3.62946 3.90752 3.77105
# Velocity P-wave (km/s) = 6.38046 7.03549 6.71597
#
# Compressibility (1/GPa) = 0.01653488
#
# Stress axis : x y z
#
# Youngs Moduli (GPa) = 95.40793 53.35791 92.58595
#
# Poissons Ratio (x) = 0.18874 0.39551
# Poissons Ratio (y) = 0.33749 0.36434
# Poissons Ratio (z) = 0.40757 0.20997
#
# Static dielectric constant tensor:
#      x y z
#    x 2.092150 0.137950 -0.030770 
#    y 0.137950 2.244500 -0.119030 
#    z -0.030770 -0.119030 2.112720 
# 
# From -- ./inp_files/503659.got.cif
#   From: 2010.05.17/outbox.cif.g08.bks.cpg/sg2_252_cif.got.tgz:503659.got - 2010.06.03 11:33:40.
