data_PCOD9048128
_publ_section_title
;
Structure prediction by ZEFSAII (Michael W. Deem and Ramdas Pophale) SiO2 
 PCOD9048128
Probable space group: P -1
;
_chemical_formula_sum "Si O2"
_cell_formula_units_Z 15
_cell_length_a 13.195190
_cell_length_b 11.508343
_cell_length_c 10.853090
_cell_angle_alpha 82.844699
_cell_angle_beta 34.632548
_cell_angle_gamma 57.898526
_cell_volume 603.266551
_symmetry_space_group_name_H-M "P -1"
_symmetry_group_IT_number 2
_symmetry_cell_setting 'triclinic'
loop_
_space_group_symop_operation_xyz
x,y,z
-x,-y,-z
loop_
_atom_site_type_symbol
_atom_site_label
_atom_site_fract_x
_atom_site_fract_y
_atom_site_fract_z
Si Si1 0.412973 0.683877 0.796778
Si Si2 0.541019 0.923877 0.102645
Si Si3 0.066093 0.507356 0.570090
Si Si4 0.500000 0.000000 0.500000
Si Si5 0.275266 0.495271 0.979657
Si Si6 0.171012 0.054079 0.015797
Si Si7 0.324637 0.352432 0.695008
Si Si8 0.792439 0.133952 0.578320
O O1 0.259194 0.640457 0.970407
O O2 0.581304 0.607643 0.511949
O O3 0.637102 0.588612 0.692643
O O4 0.225199 0.891222 0.957855
O O5 0.577468 0.007228 0.155178
O O6 0.305499 0.945758 0.360606
O O7 0.832331 0.710723 0.829714
O O8 0.500000 0.000000 0.000000
O O9 0.000000 0.500000 0.500000
O O10 0.018363 0.414851 0.711305
O O11 0.195666 0.113613 0.856989
O O12 0.453943 0.160152 0.567169
O O13 0.390366 0.379699 0.755326
O O14 0.501115 0.340698 0.875272
O O15 0.932177 0.157999 0.342414
O O16 0.000000 0.500000 0.000000
O O17 0.000000 0.000000 0.500000
#
# Coordination Sequence:
#
# PCOD9048128 Si02
#       8
#     2   2   2   1   2   2   2   2
#     4  11  25  43  70 103 139 183 232 290 352 427
#     4  11  22  41  68  93 137 184 232 282 352 417
#     4  11  24  41  66 100 137 183 232 287 351 417
#     4  10  24  44  74 104 136 188 232 294 352 432
#     4  11  25  46  69 104 139 185 236 290 357 421
#     4  11  24  45  66 103 139 179 236 287 354 421
#     4  11  23  48  76 102 142 183 239 291 362 419
#     4  11  24  42  69 101 137 184 233 289 350 422
#
# _framework density 24.864629000000001
#
# number of rings (size 3 to 8) (size 9 to 14) (size 15 to 20)
#    0.000    1.067    2.667    3.600    3.733    2.667 
#    2.400    3.333    0.000    0.000    0.000    0.000 
#    0.000    0.000    0.000    0.000    0.000    0.000 
#
# Total GULP energy -83624.620506 kJ/mol
# GULP energy per Si atom -5574.974700 kJ/mol
# Density = 2.480804 g / cm^3
# Si number density = 24.864629 Si / 1000 Ang^3
#
#
#
# Elastic Constant Matrix: (Units=GPa)
#
#
# Indices 1 2 3 4 5 6 
#
# 1 83.0241 29.9190 -0.0182 -12.0504 -1.6254 11.3643
# 2 29.9190 109.3167 12.7618 -28.2162 -10.9164 38.5740
# 3 -0.0182 12.7618 71.8383 -19.2525 -0.5209 8.6211
# 4 -12.0504 -28.2162 -19.2525 42.5282 6.5877 -8.6504
# 5 -1.6254 -10.9164 -0.5209 6.5877 31.8938 -5.8088
# 6 11.3643 38.5740 8.6211 -8.6504 -5.8088 43.0087
#
#
#
# Elastic Compliance Matrix: (Units=1/GPa)
#
#
# Indices 1 2 3 4 5 6 
#
# 1 0.013585 -0.003096 0.001269 0.002373 -0.000968 -0.000721
# 2 -0.003096 0.016337 0.000580 0.007480 0.001673 -0.012221
# 3 0.001269 0.000580 0.016219 0.007771 -0.001579 -0.002757
# 4 0.002373 0.007480 0.007771 0.032771 -0.004491 -0.002909
# 5 -0.000968 0.001673 -0.001579 -0.004491 0.033264 0.002661
# 6 -0.000721 -0.012221 -0.002757 -0.002909 0.002661 0.034729
#
#
# Mechanical properties :
#
#
# Convention : Reuss Voigt Hill
#
# Bulk Modulus (GPa) = 22.91090 38.83379 30.87234
# Shear Modulus (GPa) = 30.49746 38.25392 34.37569
#
# Velocity S-wave (km/s) = 3.50600 3.92661 3.72225
# Velocity P-wave (km/s) = 5.06198 6.01745 5.56027
#
# Compressibility (1/GPa) = 0.04364735
#
# Stress axis : x y z
#
# Youngs Moduli (GPa) = 73.61178 61.20968 61.65469
#
# Poissons Ratio (x) = 0.18951 -0.07823
# Poissons Ratio (y) = 0.22791 -0.03577
# Poissons Ratio (z) = -0.09340 -0.03552
#
# Static dielectric constant tensor:
#      x y z
#    x 2.086460 -0.089760 0.053190 
#    y -0.089760 1.996220 -0.024420 
#    z 0.053190 -0.024420 2.059570 
# 
# From -- ./inp_files/265764.got.cif
#   From: 2010.05.17/outbox.cif.g08.bks.cpg/sg2_133_cif.got.tgz:265764.got - 2010.06.03 11:33:40.
