data_PCOD9048775
_publ_section_title
;
Structure prediction by ZEFSAII (Michael W. Deem and Ramdas Pophale) SiO2 
 PCOD9048775
Probable space group: P -1
;
_chemical_formula_sum "Si O2"
_cell_formula_units_Z 15
_cell_length_a 17.453610
_cell_length_b 7.748409
_cell_length_c 21.271759
_cell_angle_alpha 49.225395
_cell_angle_beta 161.889437
_cell_angle_gamma 138.721685
_cell_volume 563.065415
_symmetry_space_group_name_H-M "P -1"
_symmetry_group_IT_number 2
_symmetry_cell_setting 'triclinic'
loop_
_space_group_symop_operation_xyz
x,y,z
-x,-y,-z
loop_
_atom_site_type_symbol
_atom_site_label
_atom_site_fract_x
_atom_site_fract_y
_atom_site_fract_z
Si Si1 0.443070 0.405205 0.699888
Si Si2 0.319483 0.871670 0.126658
Si Si3 0.000000 0.000000 0.000000
Si Si4 0.483012 0.760424 0.083472
Si Si5 0.786726 0.076658 0.540731
Si Si6 0.654060 0.463414 0.188728
Si Si7 0.778119 0.899618 0.708799
Si Si8 0.134707 0.379630 0.347788
O O1 0.637942 0.350932 0.817375
O O2 0.178913 0.356602 0.461989
O O3 0.338787 0.192086 0.725431
O O4 0.670108 0.714507 0.825615
O O5 0.456345 0.931874 0.289329
O O6 0.515522 0.151601 0.173256
O O7 0.989091 0.792310 0.884628
O O8 0.126910 0.994199 0.171709
O O9 0.148499 0.610983 0.884290
O O10 0.572118 0.595517 0.148837
O O11 0.500000 0.000000 0.000000
O O12 0.001229 0.361604 0.603794
O O13 0.823302 0.098458 0.639077
O O14 0.890469 0.877778 0.645103
O O15 0.500000 0.500000 0.000000
O O16 0.437104 0.653287 0.497310
#
# Coordination Sequence:
#
# PCOD9048775 Si02
#       8
#     2   2   1   2   2   2   2   2
#     4  10  24  46  72 105 146 183 241 290 360 426
#     4  11  24  45  73 109 145 193 236 300 359 425
#     4  10  24  46  66 102 146 182 228 296 350 422
#     4  12  24  46  74 101 147 190 236 301 354 421
#     4  11  23  44  74 106 143 194 241 292 359 429
#     4  12  24  46  70 106 148 188 250 291 354 431
#     4  11  23  46  73 104 149 182 244 295 359 435
#     4  10  24  45  72 111 135 192 242 292 363 423
#
# _framework density 26.639889
#
# number of rings (size 3 to 8) (size 9 to 14) (size 15 to 20)
#    0.000    1.067    2.667    3.200    0.000    7.467 
#    9.600    6.667    0.000    0.000    0.000    0.000 
#    0.000    0.000    0.000    0.000    0.000    0.000 
#
# Total GULP energy -83865.825258 kJ/mol
# GULP energy per Si atom -5591.055017 kJ/mol
# Density = 2.657926 g / cm^3
# Si number density = 26.639889 Si / 1000 Ang^3
#
#
#
# Elastic Constant Matrix: (Units=GPa)
#
#
# Indices 1 2 3 4 5 6 
#
# 1 110.3979 48.5658 35.2894 -8.9273 -24.6968 13.5986
# 2 48.5658 80.8509 -2.9726 6.2338 5.2389 15.2321
# 3 35.2894 -2.9726 127.7686 1.6560 -1.9773 12.4901
# 4 -8.9273 6.2338 1.6560 41.2902 9.6017 4.6374
# 5 -24.6968 5.2389 -1.9773 9.6017 45.3256 -11.7525
# 6 13.5986 15.2321 12.4901 4.6374 -11.7525 44.4272
#
#
#
# Elastic Compliance Matrix: (Units=1/GPa)
#
#
# Indices 1 2 3 4 5 6 
#
# 1 0.019451 -0.013531 -0.005853 0.003332 0.012021 0.003163
# 2 -0.013531 0.023111 0.004904 -0.003135 -0.011186 -0.007793
# 3 -0.005853 0.004904 0.009863 -0.001055 -0.004041 -0.003622
# 4 0.003332 -0.003135 -0.001055 0.026916 -0.004517 -0.003653
# 5 0.012021 -0.011186 -0.004041 -0.004517 0.033437 0.010609
# 6 0.003163 -0.007793 -0.003622 -0.003653 0.010609 0.028418
#
#
# Mechanical properties :
#
#
# Convention : Reuss Voigt Hill
#
# Bulk Modulus (GPa) = 42.61758 53.42029 48.01893
# Shear Modulus (GPa) = 28.09367 42.08426 35.08897
#
# Velocity S-wave (km/s) = 3.25094 3.97891 3.63321
# Velocity P-wave (km/s) = 5.48852 6.41913 5.97198
#
# Compressibility (1/GPa) = 0.02346449
#
# Stress axis : x y z
#
# Youngs Moduli (GPa) = 51.41237 43.26927 101.39326
#
# Poissons Ratio (x) = 0.58546 0.59349
# Poissons Ratio (y) = 0.69564 -0.49725
# Poissons Ratio (z) = 0.30094 -0.21220
#
# Static dielectric constant tensor:
#      x y z
#    x 2.103780 0.034100 0.046000 
#    y 0.034100 2.127660 0.039160 
#    z 0.046000 0.039160 2.029410 
# 
# From -- ./inp_files/599467.got.cif
#   From: 2010.05.17/outbox.cif.g08.bks.cpg/sg2_300_cif.got.tgz:599467.got - 2010.06.03 11:33:40.
