data_PCOD9048147
_publ_section_title
;
Structure prediction by ZEFSAII (Michael W. Deem and Ramdas Pophale) SiO2 
 PCOD9048147
Probable space group: P -1
;
_chemical_formula_sum "Si O2"
_cell_formula_units_Z 13
_cell_length_a 11.829845
_cell_length_b 9.023700
_cell_length_c 11.694888
_cell_angle_alpha 123.677018
_cell_angle_beta 42.365825
_cell_angle_gamma 144.900587
_cell_volume 479.679572
_symmetry_space_group_name_H-M "P -1"
_symmetry_group_IT_number 2
_symmetry_cell_setting 'triclinic'
loop_
_space_group_symop_operation_xyz
x,y,z
-x,-y,-z
loop_
_atom_site_type_symbol
_atom_site_label
_atom_site_fract_x
_atom_site_fract_y
_atom_site_fract_z
Si Si1 0.046555 0.481169 0.675167
Si Si2 0.462178 0.594237 0.312498
Si Si3 0.000000 0.500000 0.500000
Si Si4 0.292764 0.191625 0.005505
Si Si5 0.257981 0.761107 0.868044
Si Si6 0.817763 0.962504 0.391428
Si Si7 0.710880 0.898972 0.690883
O O1 0.223309 0.541304 0.461791
O O2 0.207541 0.696619 0.742274
O O3 0.886443 0.471052 0.704154
O O4 0.888214 0.197638 0.721786
O O5 0.363561 0.317296 0.262040
O O6 0.573057 0.707160 0.403136
O O7 0.671970 0.801066 0.155008
O O8 0.822849 0.179134 0.491278
O O9 0.038795 0.062576 0.192205
O O10 0.500000 0.500000 0.000000
O O11 0.318982 0.012036 0.955105
O O12 0.461230 0.793764 0.786195
O O13 0.000000 0.500000 0.000000
O O14 0.827675 0.904652 0.490387
#
# Coordination Sequence:
#
# PCOD9048147 Si02
#       7
#     2   2   1   2   2   2   2
#     4  11  26  45  80 109 155 198 264 303 390 448
#     4  12  25  46  77 112 151 201 249 324 375 446
#     4  10  24  44  74 110 142 196 252 310 364 454
#     4  12  29  46  74 112 159 194 254 316 382 441
#     4  12  29  51  78 114 155 204 251 319 383 453
#     4  11  24  45  76 105 151 193 256 299 384 450
#     4  11  26  48  81 107 152 200 258 307 380 461
#
# _framework density 27.101424000000002
#
# number of rings (size 3 to 8) (size 9 to 14) (size 15 to 20)
#    0.000    0.615    1.538    5.077   12.923    3.077 
#    0.000    0.000    0.000    0.000    0.000    0.000 
#    0.000    0.000    0.000    0.000    0.000    0.000 
#
# Total GULP energy -72690.155407 kJ/mol
# GULP energy per Si atom -5591.550416 kJ/mol
# Density = 2.703974 g / cm^3
# Si number density = 27.101424 Si / 1000 Ang^3
#
#
#
# Elastic Constant Matrix: (Units=GPa)
#
#
# Indices 1 2 3 4 5 6 
#
# 1 81.9502 50.1396 27.9886 7.5630 -0.3553 -12.3368
# 2 50.1396 150.8940 33.3226 -5.2459 -17.5858 -6.9887
# 3 27.9886 33.3226 125.9694 -19.6749 -10.2164 -10.8832
# 4 7.5630 -5.2459 -19.6749 43.4012 1.7949 13.8344
# 5 -0.3553 -17.5858 -10.2164 1.7949 38.7793 -6.4038
# 6 -12.3368 -6.9887 -10.8832 13.8344 -6.4038 64.1768
#
#
#
# Elastic Compliance Matrix: (Units=1/GPa)
#
#
# Indices 1 2 3 4 5 6 
#
# 1 0.017803 -0.005509 -0.003381 -0.006275 -0.002380 0.003364
# 2 -0.005509 0.009090 -0.000625 0.001667 0.003804 -0.000155
# 3 -0.003381 -0.000625 0.009785 0.004831 0.002057 0.000105
# 4 -0.006275 0.001667 0.004831 0.028585 -0.000410 -0.006408
# 5 -0.002380 0.003804 0.002057 -0.000410 0.028587 0.003247
# 6 0.003364 -0.000155 0.000105 -0.006408 0.003247 0.017935
#
#
# Mechanical properties :
#
#
# Convention : Reuss Voigt Hill
#
# Bulk Modulus (GPa) = 56.65970 64.63502 60.64736
# Shear Modulus (GPa) = 36.57716 45.76230 41.16973
#
# Velocity S-wave (km/s) = 3.67773 4.11366 3.90179
# Velocity P-wave (km/s) = 6.24389 6.81645 6.53645
#
# Compressibility (1/GPa) = 0.01764923
#
# Stress axis : x y z
#
# Youngs Moduli (GPa) = 56.17140 110.01387 102.19317
#
# Poissons Ratio (x) = 0.60602 0.34548
# Poissons Ratio (y) = 0.30943 0.06387
# Poissons Ratio (z) = 0.18990 0.06876
#
# Static dielectric constant tensor:
#      x y z
#    x 8.734960 -0.402480 -1.337240 
#    y -0.402480 2.054350 0.095600 
#    z -1.337240 0.095600 2.549200 
# 
# From -- ./inp_files/419652.got.cif
#   From: 2010.05.17/outbox.cif.g08.bks.cpg/sg2_210_cif.got.tgz:419652.got - 2010.06.03 11:33:40.
