data_PCOD9048560
_publ_section_title
;
Structure prediction by ZEFSAII (Michael W. Deem and Ramdas Pophale) SiO2 
 PCOD9048560
Probable space group: P -1
;
_chemical_formula_sum "Si O2"
_cell_formula_units_Z 16
_cell_length_a 20.414226
_cell_length_b 11.604962
_cell_length_c 11.391040
_cell_angle_alpha 40.642350
_cell_angle_beta 148.998910
_cell_angle_gamma 149.579278
_cell_volume 701.787424
_symmetry_space_group_name_H-M "P -1"
_symmetry_group_IT_number 2
_symmetry_cell_setting 'triclinic'
loop_
_space_group_symop_operation_xyz
x,y,z
-x,-y,-z
loop_
_atom_site_type_symbol
_atom_site_label
_atom_site_fract_x
_atom_site_fract_y
_atom_site_fract_z
Si Si1 0.862004 0.272995 0.605767
Si Si2 0.351065 0.363515 0.967504
Si Si3 0.979205 0.743651 0.466586
Si Si4 0.742975 0.885395 0.550827
Si Si5 0.218061 0.468609 0.046859
Si Si6 0.681394 0.077950 0.717807
Si Si7 0.248445 0.799377 0.004348
Si Si8 0.523511 0.254066 0.944286
O O1 0.920974 0.522243 0.472578
O O2 0.777680 0.230393 0.634969
O O3 0.748152 0.056412 0.514545
O O4 0.027351 0.306213 0.849826
O O5 0.404419 0.529965 0.029979
O O6 0.324750 0.138589 0.135960
O O7 0.500000 0.500000 0.000000
O O8 0.182312 0.295983 0.709418
O O9 0.101595 0.775191 0.730206
O O10 0.086121 0.960296 0.377833
O O11 0.724079 0.681900 0.742764
O O12 0.604439 0.789505 0.314983
O O13 0.324514 0.674881 0.957440
O O14 0.240016 0.590488 0.108910
O O15 0.500000 0.000000 0.500000
O O16 0.761286 0.191603 0.878370
O O17 0.420251 0.032810 0.040450
#
# Coordination Sequence:
#
# PCOD9048560 Si02
#       8
#     2   2   2   2   2   2   2   2
#     4  11  24  44  67 101 134 184 223 277 341 396
#     4  12  24  45  69 100 134 180 224 276 341 402
#     4  10  24  45  70 100 137 176 229 281 337 406
#     4  11  23  42  69 104 137 176 225 283 339 401
#     4  11  23  41  70 100 141 174 226 282 335 403
#     4  12  27  45  70 100 142 178 230 276 336 411
#     4  10  25  46  67 105 134 185 222 278 342 396
#     4  11  24  42  68 104 133 177 227 278 341 399
#
# _framework density 22.798928
#
# number of rings (size 3 to 8) (size 9 to 14) (size 15 to 20)
#    0.000    1.000    1.250    4.500    3.500    4.500 
#    2.250    0.000    0.000    0.000    0.000    0.000 
#    0.000    0.000    0.000    0.000    0.000    0.000 
#
# Total GULP energy -89595.835818 kJ/mol
# GULP energy per Si atom -5599.739739 kJ/mol
# Density = 2.274704 g / cm^3
# Si number density = 22.798928 Si / 1000 Ang^3
#
#
#
# Elastic Constant Matrix: (Units=GPa)
#
#
# Indices 1 2 3 4 5 6 
#
# 1 106.5965 23.0786 32.2066 31.3039 -5.5116 4.2681
# 2 23.0786 91.5277 33.1678 5.9831 -3.0427 -8.8970
# 3 32.2066 33.1678 94.1804 11.8266 10.1523 -1.1774
# 4 31.3039 5.9831 11.8266 32.0842 -0.8864 3.3225
# 5 -5.5116 -3.0427 10.1523 -0.8864 32.6301 8.8823
# 6 4.2681 -8.8970 -1.1774 3.3225 8.8823 50.6984
#
#
#
# Elastic Compliance Matrix: (Units=1/GPa)
#
#
# Indices 1 2 3 4 5 6 
#
# 1 0.014632 -0.001734 -0.003195 -0.012541 0.003337 -0.001373
# 2 -0.001734 0.013120 -0.004272 0.000661 0.001733 0.002002
# 3 -0.003195 -0.004272 0.014018 -0.001503 -0.005592 0.000923
# 4 -0.012541 0.000661 -0.001503 0.044020 0.000087 -0.001763
# 5 0.003337 0.001733 -0.005592 0.000087 0.034804 -0.006210
# 6 -0.001373 0.002002 0.000923 -0.001763 -0.006210 0.021416
#
#
# Mechanical properties :
#
#
# Convention : Reuss Voigt Hill
#
# Bulk Modulus (GPa) = 42.79472 52.13450 47.46461
# Shear Modulus (GPa) = 29.72585 36.67266 33.19925
#
# Velocity S-wave (km/s) = 3.61477 4.01499 3.82013
# Velocity P-wave (km/s) = 6.01941 6.66410 6.34995
#
# Compressibility (1/GPa) = 0.02336737
#
# Stress axis : x y z
#
# Youngs Moduli (GPa) = 68.34141 76.21843 71.33623
#
# Poissons Ratio (x) = 0.13220 0.22792
# Poissons Ratio (y) = 0.11854 0.30476
# Poissons Ratio (z) = 0.21835 0.32562
#
# Static dielectric constant tensor:
#      x y z
#    x 1.847400 0.048690 -0.009840 
#    y 0.048690 1.905740 -0.010120 
#    z -0.009840 -0.010120 1.846480 
# 
# From -- ./inp_files/471144.got.cif
#   From: 2010.05.17/outbox.cif.g08.bks.cpg/sg2_236_cif.got.tgz:471144.got - 2010.06.03 11:33:40.
