data_PCOD9048405
_publ_section_title
;
Structure prediction by ZEFSAII (Michael W. Deem and Ramdas Pophale) SiO2 
 PCOD9048405
Probable space group: P -1
;
_chemical_formula_sum "Si O2"
_cell_formula_units_Z 14
_cell_length_a 16.586519
_cell_length_b 6.394046
_cell_length_c 8.544961
_cell_angle_alpha 105.553024
_cell_angle_beta 38.963933
_cell_angle_gamma 96.345520
_cell_volume 541.777159
_symmetry_space_group_name_H-M "P -1"
_symmetry_group_IT_number 2
_symmetry_cell_setting 'triclinic'
loop_
_space_group_symop_operation_xyz
x,y,z
-x,-y,-z
loop_
_atom_site_type_symbol
_atom_site_label
_atom_site_fract_x
_atom_site_fract_y
_atom_site_fract_z
Si Si1 0.501053 0.370274 0.632423
Si Si2 0.077513 0.448657 0.037205
Si Si3 0.289868 0.429097 0.494711
Si Si4 0.855735 0.212126 0.414058
Si Si5 0.359193 0.994223 0.135252
Si Si6 0.328171 0.048857 0.837370
Si Si7 0.943558 0.069388 0.769602
O O1 0.500000 0.500000 0.500000
O O2 0.565444 0.519887 0.685161
O O3 0.363396 0.292653 0.842264
O O4 0.592685 0.129451 0.434963
O O5 0.104484 0.673286 0.115537
O O6 0.971206 0.359465 0.290129
O O7 0.220200 0.339281 0.733827
O O8 0.000000 0.500000 0.000000
O O9 0.211471 0.668372 0.613389
O O10 0.287994 0.244842 0.328992
O O11 0.729204 0.175229 0.696276
O O12 0.950417 0.981815 0.260946
O O13 0.366017 0.954891 0.933754
O O14 0.500000 0.000000 0.000000
O O15 0.178055 0.049271 0.037045
O O16 0.000000 0.000000 0.500000
#
# Coordination Sequence:
#
# PCOD9048405 Si02
#       7
#     2   2   2   2   2   2   2
#     4  11  25  48  72 100 137 185 229 289 347 409
#     4  10  24  45  68 104 139 177 237 276 341 422
#     4  11  25  46  70 105 136 180 241 283 343 415
#     4  11  25  44  73  98 141 185 224 291 347 405
#     4  12  26  48  71 102 140 185 232 292 347 411
#     4  11  26  46  69 104 141 176 237 284 345 421
#     4  12  25  47  70 105 144 180 229 289 353 409
#
# _framework density 25.840883000000002
#
# number of rings (size 3 to 8) (size 9 to 14) (size 15 to 20)
#    0.000    0.857    2.857    3.429    2.000   10.286 
#    0.000    0.000    0.000    0.000    0.000    0.000 
#    0.000    0.000    0.000    0.000    0.000    0.000 
#
# Total GULP energy -78097.162856 kJ/mol
# GULP energy per Si atom -5578.368775 kJ/mol
# Density = 2.578207 g / cm^3
# Si number density = 25.840883 Si / 1000 Ang^3
#
#
#
# Elastic Constant Matrix: (Units=GPa)
#
#
# Indices 1 2 3 4 5 6 
#
# 1 82.2109 20.9530 5.9733 -8.0116 -26.8624 8.4331
# 2 20.9530 102.1654 47.9294 -36.7138 -6.6389 27.3193
# 3 5.9733 47.9294 92.7628 -28.5130 -12.9075 22.4866
# 4 -8.0116 -36.7138 -28.5130 67.9152 15.6878 -7.8615
# 5 -26.8624 -6.6389 -12.9075 15.6878 45.6800 -1.3588
# 6 8.4331 27.3193 22.4866 -7.8615 -1.3588 47.1802
#
#
#
# Elastic Compliance Matrix: (Units=1/GPa)
#
#
# Indices 1 2 3 4 5 6 
#
# 1 0.016357 -0.003946 0.002273 -0.001819 0.010261 -0.001730
# 2 -0.003946 0.016759 -0.005654 0.006498 -0.003872 -0.005333
# 3 0.002273 -0.005654 0.015887 0.002467 0.004033 -0.004177
# 4 -0.001819 0.006498 0.002467 0.020391 -0.006473 -0.001402
# 5 0.010261 -0.003872 0.004033 -0.006473 0.030675 -0.001709
# 6 -0.001730 -0.005333 -0.004177 -0.001402 -0.001709 0.026301
#
#
# Mechanical properties :
#
#
# Convention : Reuss Voigt Hill
#
# Bulk Modulus (GPa) = 29.11118 47.42784 38.26951
# Shear Modulus (GPa) = 32.79277 45.64061 39.21669
#
# Velocity S-wave (km/s) = 3.56620 4.20720 3.89989
# Velocity P-wave (km/s) = 5.31480 6.48030 5.92627
#
# Compressibility (1/GPa) = 0.03435107
#
# Stress axis : x y z
#
# Youngs Moduli (GPa) = 61.13465 59.66875 62.94430
#
# Poissons Ratio (x) = 0.23543 -0.14309
# Poissons Ratio (y) = 0.24121 0.35589
# Poissons Ratio (z) = -0.13898 0.33737
#
# Static dielectric constant tensor:
#      x y z
#    x 2.038530 -0.060070 -0.046000 
#    y -0.060070 2.074160 -0.010330 
#    z -0.046000 -0.010330 2.100180 
# 
# From -- ./inp_files/323802.got.cif
#   From: 2010.05.17/outbox.cif.g08.bks.cpg/sg2_162_cif.got.tgz:323802.got - 2010.06.03 11:33:40.
