data_PCOD9048193
_publ_section_title
;
Structure prediction by ZEFSAII (Michael W. Deem and Ramdas Pophale) SiO2 
 PCOD9048193
Probable space group: P -1
;
_chemical_formula_sum "Si O2"
_cell_formula_units_Z 16
_cell_length_a 11.666196
_cell_length_b 15.323269
_cell_length_c 14.358661
_cell_angle_alpha 160.238297
_cell_angle_beta 132.071381
_cell_angle_gamma 50.896060
_cell_volume 644.224028
_symmetry_space_group_name_H-M "P -1"
_symmetry_group_IT_number 2
_symmetry_cell_setting 'triclinic'
loop_
_space_group_symop_operation_xyz
x,y,z
-x,-y,-z
loop_
_atom_site_type_symbol
_atom_site_label
_atom_site_fract_x
_atom_site_fract_y
_atom_site_fract_z
Si Si1 0.432231 0.748302 0.661567
Si Si2 0.204525 0.851766 0.183042
Si Si3 0.928221 0.282169 0.856309
Si Si4 0.610466 0.789589 0.612632
Si Si5 0.960647 0.751650 0.790783
Si Si6 0.806931 0.711770 0.294994
Si Si7 0.118717 0.817254 0.476289
Si Si8 0.460840 0.713693 0.044848
O O1 0.500000 0.500000 0.500000
O O2 0.487330 0.754567 0.591886
O O3 0.246749 0.757632 0.562543
O O4 0.500000 0.000000 0.000000
O O5 0.121146 0.989053 0.382595
O O6 0.369601 0.769155 0.145757
O O7 0.214524 0.172164 0.495096
O O8 0.062217 0.765814 0.953106
O O9 0.845945 0.262915 0.691215
O O10 0.808724 0.396568 0.993733
O O11 0.092889 0.129798 0.771319
O O12 0.778798 0.753657 0.713250
O O13 0.596973 0.071460 0.843866
O O14 0.578709 0.567494 0.297588
O O15 0.000000 0.500000 0.500000
O O16 0.000000 0.000000 0.000000
O O17 0.644324 0.744444 0.185578
O O18 0.976464 0.608871 0.215497
#
# Coordination Sequence:
#
# PCOD9048193 Si02
#       8
#     2   2   2   2   2   2   2   2
#     4  12  30  51  80 115 153 202 258 325 378 460
#     4  11  26  44  71 115 146 195 261 311 380 463
#     4  10  24  44  76 106 148 201 247 323 374 460
#     4  12  27  50  78 110 157 204 257 315 393 456
#     4  12  25  49  76 106 149 207 253 312 378 454
#     4  11  26  43  77 108 154 199 255 323 390 456
#     4  10  25  49  73 112 149 202 262 312 398 452
#     4  12  27  48  76 115 156 204 252 317 390 468
#
# _framework density 24.836082000000001
#
# number of rings (size 3 to 8) (size 9 to 14) (size 15 to 20)
#    0.000    0.750    2.500    2.250   17.500    0.500 
#    0.000    0.000    0.000    0.000    0.000    0.000 
#    0.000    0.000    0.000    0.000    0.000    0.000 
#
# Total GULP energy -89355.207762 kJ/mol
# GULP energy per Si atom -5584.700485 kJ/mol
# Density = 2.477955 g / cm^3
# Si number density = 24.836082 Si / 1000 Ang^3
#
#
#
# Elastic Constant Matrix: (Units=GPa)
#
#
# Indices 1 2 3 4 5 6 
#
# 1 98.4693 14.4656 22.3722 2.5664 -10.7531 17.1355
# 2 14.4656 135.0591 52.8912 1.6495 -8.1379 -15.7863
# 3 22.3722 52.8912 212.0129 38.7526 -24.0040 -18.7071
# 4 2.5664 1.6495 38.7526 58.9649 -9.2163 14.5985
# 5 -10.7531 -8.1379 -24.0040 -9.2163 26.7135 -0.8955
# 6 17.1355 -15.7863 -18.7071 14.5985 -0.8955 50.6507
#
#
#
# Elastic Compliance Matrix: (Units=1/GPa)
#
#
# Indices 1 2 3 4 5 6 
#
# 1 0.011993 -0.001157 -0.001495 0.002477 0.003798 -0.005617
# 2 -0.001157 0.008545 -0.001834 0.000586 0.000766 0.002222
# 3 -0.001495 -0.001834 0.006983 -0.004905 0.003556 0.003990
# 4 0.002477 0.000586 -0.004905 0.022977 0.004393 -0.009012
# 5 0.003798 0.000766 0.003556 0.004393 0.043900 -0.000223
# 6 -0.005617 0.002222 0.003990 -0.009012 -0.000223 0.026403
#
#
# Mechanical properties :
#
#
# Convention : Reuss Voigt Hill
#
# Bulk Modulus (GPa) = 53.91270 69.44435 61.67853
# Shear Modulus (GPa) = 36.77672 50.98664 43.88168
#
# Velocity S-wave (km/s) = 3.85226 4.53584 4.20795
# Velocity P-wave (km/s) = 6.44524 7.44671 6.96400
#
# Compressibility (1/GPa) = 0.01854850
#
# Stress axis : x y z
#
# Youngs Moduli (GPa) = 83.38354 117.02737 143.19915
#
# Poissons Ratio (x) = 0.13538 0.21414
# Poissons Ratio (y) = 0.09646 0.26264
# Poissons Ratio (z) = 0.12469 0.21463
#
# Static dielectric constant tensor:
#      x y z
#    x 2.149290 -0.051270 -0.043170 
#    y -0.051270 1.932920 0.020920 
#    z -0.043170 0.020920 1.921960 
# 
# From -- ./inp_files/523378.got.cif
#   From: 2010.05.17/outbox.cif.g08.bks.cpg/sg2_262_cif.got.tgz:523378.got - 2010.06.03 11:33:40.
