data_PCOD9048552
_publ_section_title
;
Structure prediction by ZEFSAII (Michael W. Deem and Ramdas Pophale) SiO2 
 PCOD9048552
Probable space group: P -1
;
_chemical_formula_sum "Si O2"
_cell_formula_units_Z 16
_cell_length_a 8.899648
_cell_length_b 13.441019
_cell_length_c 7.774539
_cell_angle_alpha 63.706710
_cell_angle_beta 114.717610
_cell_angle_gamma 121.887446
_cell_volume 686.921078
_symmetry_space_group_name_H-M "P -1"
_symmetry_group_IT_number 2
_symmetry_cell_setting 'triclinic'
loop_
_space_group_symop_operation_xyz
x,y,z
-x,-y,-z
loop_
_atom_site_type_symbol
_atom_site_label
_atom_site_fract_x
_atom_site_fract_y
_atom_site_fract_z
Si Si1 0.042144 0.748658 0.191907
Si Si2 0.336128 0.268578 0.561424
Si Si3 0.286654 0.008656 0.193401
Si Si4 0.324685 0.679125 0.726565
Si Si5 0.668105 0.718859 0.050038
Si Si6 0.021610 0.322426 0.381162
Si Si7 0.751674 0.413087 0.585371
Si Si8 0.413490 0.078637 0.554851
O O1 0.138784 0.894826 0.110036
O O2 0.170926 0.684731 0.242156
O O3 0.836161 0.699295 0.064655
O O4 0.024410 0.728397 0.406160
O O5 0.339695 0.304309 0.734145
O O6 0.151160 0.268526 0.396950
O O7 0.533825 0.365070 0.520685
O O8 0.338170 0.138566 0.617954
O O9 0.476442 0.995526 0.266649
O O10 0.268975 0.002515 0.398789
O O11 0.290782 0.137660 0.049322
O O12 0.212716 0.575108 0.612870
O O13 0.439251 0.803936 0.574856
O O14 0.177087 0.696748 0.764718
O O15 0.474914 0.650756 0.918453
O O16 0.149805 0.465607 0.353264
#
# Coordination Sequence:
#
# PCOD9048552 Si02
#       8
#     2   2   2   2   2   2   2   2
#     4  10  18  35  55  81 107 137 181 218 255 316
#     4  10  20  37  51  83 113 133 171 223 274 312
#     4  10  17  34  59  78 105 141 183 208 259 313
#     4   9  17  36  55  79 104 139 184 216 250 313
#     4  10  22  32  54  81 116 139 165 220 274 314
#     4  10  19  34  60  79 101 141 183 223 260 308
#     4  10  19  37  60  77 100 143 187 218 257 310
#     4   9  18  33  59  78 104 141 181 218 248 317
#
# _framework density 23.292339999999999
#
# number of rings (size 3 to 8) (size 9 to 14) (size 15 to 20)
#    0.000    2.250    3.750    2.250    0.000    0.500 
#    0.000   12.500    0.000    0.000    0.000    0.000 
#    0.000    0.000    0.000    0.000    0.000    0.000 
#
# Total GULP energy -89231.334569 kJ/mol
# GULP energy per Si atom -5576.958411 kJ/mol
# Density = 2.323933 g / cm^3
# Si number density = 23.292340 Si / 1000 Ang^3
#
#
#
# Elastic Constant Matrix: (Units=GPa)
#
#
# Indices 1 2 3 4 5 6 
#
# 1 108.6481 0.0843 27.2906 9.3552 37.4861 3.4430
# 2 0.0843 49.5627 1.8309 -3.0872 12.2083 -5.5748
# 3 27.2906 1.8309 29.1561 14.6390 18.7506 4.9879
# 4 9.3552 -3.0872 14.6390 22.7506 8.5414 5.9172
# 5 37.4861 12.2083 18.7506 8.5414 32.1376 5.5382
# 6 3.4430 -5.5748 4.9879 5.9172 5.5382 23.5334
#
#
#
# Elastic Compliance Matrix: (Units=1/GPa)
#
#
# Indices 1 2 3 4 5 6 
#
# 1 0.017474 0.006091 -0.006169 0.004439 -0.020967 0.004012
# 2 0.006091 0.026690 0.002177 0.005533 -0.021471 0.008632
# 3 -0.006169 0.002177 0.076154 -0.035631 -0.028766 0.001006
# 4 0.004439 0.005533 -0.035631 0.069290 -0.003460 -0.008395
# 5 -0.020967 -0.021471 -0.028766 -0.003460 0.083986 -0.014816
# 6 0.004012 0.008632 0.001006 -0.008395 -0.014816 0.049335
#
#
# Mechanical properties :
#
#
# Convention : Reuss Voigt Hill
#
# Bulk Modulus (GPa) = 8.03124 27.30873 17.66999
# Shear Modulus (GPa) = 13.87980 26.22839 20.05410
#
# Velocity S-wave (km/s) = 2.44375 3.35931 2.93742
# Velocity P-wave (km/s) = 3.37906 5.17653 4.37118
#
# Compressibility (1/GPa) = 0.12451374
#
# Stress axis : x y z
#
# Youngs Moduli (GPa) = 57.22881 37.46714 13.13135
#
# Poissons Ratio (x) = -0.22820 0.08101
# Poissons Ratio (y) = -0.34856 -0.02858
# Poissons Ratio (z) = 0.35305 -0.08155
#
# Static dielectric constant tensor:
#      x y z
#    x 1.958590 0.014570 0.038500 
#    y 0.014570 1.938500 0.009640 
#    z 0.038500 0.009640 1.929390 
# 
# From -- ./inp_files/200399.got.cif
#   From: 2010.05.17/outbox.cif.g08.bks.cpg/sg2_101_cif.got.tgz:200399.got - 2010.06.03 11:33:40.
