data_PCOD9048965
_publ_section_title
;
Structure prediction by ZEFSAII (Michael W. Deem and Ramdas Pophale) SiO2 
 PCOD9048965
Probable space group: P -1
;
_chemical_formula_sum "Si O2"
_cell_formula_units_Z 13
_cell_length_a 14.694684
_cell_length_b 9.076013
_cell_length_c 8.623305
_cell_angle_alpha 134.291458
_cell_angle_beta 41.258680
_cell_angle_gamma 132.890277
_cell_volume 512.521632
_symmetry_space_group_name_H-M "P -1"
_symmetry_group_IT_number 2
_symmetry_cell_setting 'triclinic'
loop_
_space_group_symop_operation_xyz
x,y,z
-x,-y,-z
loop_
_atom_site_type_symbol
_atom_site_label
_atom_site_fract_x
_atom_site_fract_y
_atom_site_fract_z
Si Si1 0.381314 0.481973 0.270419
Si Si2 0.165797 0.223248 0.126626
Si Si3 0.548790 0.789589 0.743035
Si Si4 0.000000 0.500000 0.000000
Si Si5 0.172231 0.882635 0.497259
Si Si6 0.227915 0.516719 0.954153
Si Si7 0.751813 0.190483 0.311512
O O1 0.222867 0.369988 0.312315
O O2 0.406499 0.323459 0.249980
O O3 0.383549 0.725176 0.487237
O O4 0.500000 0.500000 0.000000
O O5 0.202626 0.364086 0.025574
O O6 0.991067 0.108974 0.275332
O O7 0.254940 0.055200 0.890501
O O8 0.693983 0.893293 0.531518
O O9 0.395998 0.612971 0.757736
O O10 0.500000 0.000000 0.000000
O O11 0.872695 0.575191 0.129617
O O12 0.122873 0.668474 0.857838
O O13 0.177731 0.721191 0.230198
O O14 0.204806 0.780906 0.541157
#
# Coordination Sequence:
#
# PCOD9048965 Si02
#       7
#     2   2   2   1   2   2   2
#     4  12  25  50  75 112 153 204 255 316 382 456
#     4  12  25  45  80 109 152 204 250 316 383 451
#     4  10  24  45  78 108 149 203 253 308 388 452
#     4  12  28  46  74 118 152 192 260 314 376 462
#     4  11  23  49  77 108 156 206 252 314 384 456
#     4  11  23  50  76 111 156 203 251 316 384 454
#     4  12  28  46  76 114 152 198 261 313 384 457
#
# _framework density 25.364782999999999
#
# number of rings (size 3 to 8) (size 9 to 14) (size 15 to 20)
#    0.000    0.615    4.615    2.769    6.462    1.231 
#    2.769    1.538    0.000    0.000    0.000    0.000 
#    0.000    0.000    0.000    0.000    0.000    0.000 
#
# Total GULP energy -72583.972243 kJ/mol
# GULP energy per Si atom -5583.382480 kJ/mol
# Density = 2.530705 g / cm^3
# Si number density = 25.364783 Si / 1000 Ang^3
#
#
#
# Elastic Constant Matrix: (Units=GPa)
#
#
# Indices 1 2 3 4 5 6 
#
# 1 2340.0897 963.0796 1376.9524-1832.5428-1356.4367 -303.7433
# 2 963.0796 518.6660 619.3059 -765.5579 -573.9351 -136.1912
# 3 1376.9524 619.3059 928.5780-1110.8056 -838.9343 -165.6482
# 4 -1832.5428 -765.5579-1110.8056 1556.5927 1094.9947 209.3938
# 5 -1356.4367 -573.9351 -838.9343 1094.9947 835.1323 155.5484
# 6 -303.7433 -136.1912 -165.6482 209.3938 155.5484 81.9666
#
#
#
# Elastic Compliance Matrix: (Units=1/GPa)
#
#
# Indices 1 2 3 4 5 6 
#
# 1 0.014743 0.000323 -0.000370 0.005974 0.013409 0.013715
# 2 0.000323 0.010995 -0.004852 0.000649 0.001337 0.005462
# 3 -0.000370 -0.004852 0.014142 0.000605 0.009589 -0.000594
# 4 0.005974 0.000649 0.000605 0.010837 -0.004405 0.005113
# 5 0.013409 0.001337 0.009589 -0.004405 0.037011 0.012306
# 6 0.013715 0.005462 -0.000594 0.005113 0.012306 0.034482
#
#
# Mechanical properties :
#
#
# Convention : Reuss Voigt Hill
#
# Bulk Modulus (GPa) = 33.24248 1078.44550 555.84399
# Shear Modulus (GPa) = 35.20227 549.93804 292.57015
#
# Velocity S-wave (km/s) = 3.72941 14.74050 10.75153
# Velocity P-wave (km/s) = 5.62840 26.75457 19.33243
#
# Compressibility (1/GPa) = 0.03008199
#
# Stress axis : x y z
#
# Youngs Moduli (GPa) = 67.82750 90.95189 70.71134
#
# Poissons Ratio (x) = -0.02936 0.02615
# Poissons Ratio (y) = -0.02189 0.34309
# Poissons Ratio (z) = 0.02509 0.44130
#
# Static dielectric constant tensor:
#      x y z
#    x 2.000100 0.085930 0.048890 
#    y 0.085930 2.008480 0.128200 
#    z 0.048890 0.128200 2.091840 
# 
# From -- ./inp_files/204006.got.cif
#   From: 2010.05.17/outbox.cif.g08.bks.cpg/sg2_103_cif.got.tgz:204006.got - 2010.06.03 11:33:40.
