data_PCOD9048916
_publ_section_title
;
Structure prediction by ZEFSAII (Michael W. Deem and Ramdas Pophale) SiO2 
 PCOD9048916
Probable space group: P -1
;
_chemical_formula_sum "Si O2"
_cell_formula_units_Z 16
_cell_length_a 11.828073
_cell_length_b 5.874593
_cell_length_c 11.856724
_cell_angle_alpha 100.663864
_cell_angle_beta 121.860404
_cell_angle_gamma 92.198630
_cell_volume 678.459438
_symmetry_space_group_name_H-M "P -1"
_symmetry_group_IT_number 2
_symmetry_cell_setting 'triclinic'
loop_
_space_group_symop_operation_xyz
x,y,z
-x,-y,-z
loop_
_atom_site_type_symbol
_atom_site_label
_atom_site_fract_x
_atom_site_fract_y
_atom_site_fract_z
Si Si1 0.937008 0.142523 0.881806
Si Si2 0.485119 0.707676 0.359407
Si Si3 0.303998 0.577741 0.618823
Si Si4 0.284313 0.708343 0.068057
Si Si5 0.344304 0.910814 0.883605
Si Si6 0.933638 0.719378 0.438173
Si Si7 0.179953 0.282151 0.852700
Si Si8 0.283282 0.866175 0.421086
O O1 0.847208 0.296816 0.923211
O O2 0.068153 0.222069 0.883472
O O3 0.828398 0.060062 0.716016
O O4 0.000000 0.000000 0.000000
O O5 0.552621 0.479970 0.352699
O O6 0.417733 0.788769 0.217489
O O7 0.602301 0.910380 0.479745
O O8 0.360563 0.679976 0.377628
O O9 0.326241 0.708733 0.762497
O O10 0.204973 0.332002 0.567043
O O11 0.245032 0.738871 0.508913
O O12 0.275664 0.858221 0.965361
O O13 0.292664 0.459568 0.993383
O O14 0.259194 0.103065 0.813923
O O15 0.500000 0.000000 0.000000
O O16 0.903179 0.636279 0.286386
O O17 0.000000 0.500000 0.500000
O O18 0.000000 0.000000 0.500000
#
# Coordination Sequence:
#
# PCOD9048916 Si02
#       8
#     2   2   2   2   2   2   2   2
#     4  11  24  48  76 102 144 194 250 316 383 459
#     4  10  24  45  75 108 150 190 257 314 385 463
#     4  12  25  45  74 107 149 200 256 317 394 459
#     4  11  24  47  70 108 141 195 250 313 378 461
#     4  12  26  43  74 107 153 199 253 312 390 466
#     4  12  29  48  74 110 156 209 264 321 393 475
#     4  12  26  47  72 106 151 194 257 316 392 463
#     4  10  24  48  74 110 147 197 250 317 387 466
#
# _framework density 23.582837999999999
#
# number of rings (size 3 to 8) (size 9 to 14) (size 15 to 20)
#    0.000    0.750    2.500    3.750    7.000    1.000 
#    9.000    0.000    0.000    0.000    0.000    0.000 
#    0.000    0.000    0.000    0.000    0.000    0.000 
#
# Total GULP energy -89179.164779 kJ/mol
# GULP energy per Si atom -5573.697799 kJ/mol
# Density = 2.352916 g / cm^3
# Si number density = 23.582838 Si / 1000 Ang^3
#
#
#
# Elastic Constant Matrix: (Units=GPa)
#
#
# Indices 1 2 3 4 5 6 
#
# 1 74.9721 26.8597 29.8063 -1.3755 -2.5947 -4.2611
# 2 26.8597 69.1922 51.3729 -6.0092 7.3900 -4.0165
# 3 29.8063 51.3729 162.2895 -19.6159 -0.8678 7.1713
# 4 -1.3755 -6.0092 -19.6159 45.7468 5.0753 -5.2546
# 5 -2.5947 7.3900 -0.8678 5.0753 39.1174 -6.7170
# 6 -4.2611 -4.0165 7.1713 -5.2546 -6.7170 45.2900
#
#
#
# Elastic Compliance Matrix: (Units=1/GPa)
#
#
# Indices 1 2 3 4 5 6 
#
# 1 0.015986 -0.005434 -0.001381 -0.000923 0.002433 0.001494
# 2 -0.005434 0.021520 -0.005812 0.000859 -0.004362 0.001770
# 3 -0.001381 -0.005812 0.008651 0.002654 0.000575 -0.001622
# 4 -0.000923 0.000859 0.002654 0.023621 -0.002907 0.001878
# 5 0.002433 -0.004362 0.000575 -0.002907 0.027540 0.003498
# 6 0.001494 0.001770 -0.001622 0.001878 0.003498 0.023371
#
#
# Mechanical properties :
#
#
# Convention : Reuss Voigt Hill
#
# Bulk Modulus (GPa) = 47.83719 58.05907 52.94813
# Shear Modulus (GPa) = 32.69888 39.25850 35.97869
#
# Velocity S-wave (km/s) = 3.72769 4.08451 3.91017
# Velocity P-wave (km/s) = 6.23348 6.84959 6.54879
#
# Compressibility (1/GPa) = 0.02090424
#
# Stress axis : x y z
#
# Youngs Moduli (GPa) = 62.55438 46.46755 115.59668
#
# Poissons Ratio (x) = 0.25250 0.15959
# Poissons Ratio (y) = 0.33991 0.67186
# Poissons Ratio (z) = 0.08636 0.27007
#
# Static dielectric constant tensor:
#      x y z
#    x 2.021160 -0.015930 -0.035540 
#    y -0.015930 2.013070 -0.025520 
#    z -0.035540 -0.025520 1.894760 
# 
# From -- ./inp_files/410920.got.cif
#   From: 2010.05.17/outbox.cif.g08.bks.cpg/sg2_206_cif.got.tgz:410920.got - 2010.06.03 11:33:40.
