data_PCOD9048394
_publ_section_title
;
Structure prediction by ZEFSAII (Michael W. Deem and Ramdas Pophale) SiO2 
 PCOD9048394
Probable space group: P -1
;
_chemical_formula_sum "Si O2"
_cell_formula_units_Z 12
_cell_length_a 15.716964
_cell_length_b 7.803659
_cell_length_c 10.500280
_cell_angle_alpha 116.831809
_cell_angle_beta 135.684515
_cell_angle_gamma 33.462488
_cell_volume 459.322806
_symmetry_space_group_name_H-M "P -1"
_symmetry_group_IT_number 2
_symmetry_cell_setting 'triclinic'
loop_
_space_group_symop_operation_xyz
x,y,z
-x,-y,-z
loop_
_atom_site_type_symbol
_atom_site_label
_atom_site_fract_x
_atom_site_fract_y
_atom_site_fract_z
Si Si1 0.251669 0.628120 0.058881
Si Si2 0.351759 0.680573 0.648318
Si Si3 0.496049 0.179548 0.815919
Si Si4 0.914108 0.405340 0.335967
Si Si5 0.665069 0.602697 0.650156
Si Si6 0.920408 0.786077 0.090092
O O1 0.505988 0.311892 0.197731
O O2 0.238086 0.618059 0.192047
O O3 0.123233 0.617598 0.855840
O O4 0.176112 0.920638 0.004447
O O5 0.387528 0.509744 0.753676
O O6 0.452873 0.413967 0.555284
O O7 0.106223 0.029499 0.471940
O O8 0.319750 0.327656 0.769657
O O9 0.542919 0.948684 0.685804
O O10 0.731129 0.951708 0.031413
O O11 0.000000 0.500000 0.500000
O O12 0.853275 0.423945 0.694658
O O13 0.000000 0.500000 0.000000
#
# Coordination Sequence:
#
# PCOD9048394 Si02
#       6
#     2   2   2   2   2   2
#     4  11  24  44  73 101 144 178 229 291 342 409
#     4  11  24  44  72 103 138 181 232 287 348 406
#     4  10  24  45  68 102 142 179 234 286 337 416
#     4  12  27  48  68 101 139 190 234 278 347 413
#     4  11  21  44  72 107 139 178 229 284 354 411
#     4   9  20  40  69 103 132 177 223 281 346 400
#
# _framework density 26.125418
#
# number of rings (size 3 to 8) (size 9 to 14) (size 15 to 20)
#    0.000    1.333    1.667    3.000    0.000    5.333 
#   15.000    0.000    0.000    0.000    0.000    0.000 
#    0.000    0.000    0.000    0.000    0.000    0.000 
#
# Total GULP energy -67046.060523 kJ/mol
# GULP energy per Si atom -5587.171710 kJ/mol
# Density = 2.606596 g / cm^3
# Si number density = 26.125418 Si / 1000 Ang^3
#
#
#
# Elastic Constant Matrix: (Units=GPa)
#
#
# Indices 1 2 3 4 5 6 
#
# 1 89.0278 23.8777 36.4893 -6.9780 25.9721 -0.4994
# 2 23.8777 104.7533 28.7259 6.3867 4.0204 12.1886
# 3 36.4893 28.7259 128.4708 9.1257 27.9700 -2.2530
# 4 -6.9780 6.3867 9.1257 45.8065 3.0047 15.4138
# 5 25.9721 4.0204 27.9700 3.0047 33.3973 -14.0076
# 6 -0.4994 12.1886 -2.2530 15.4138 -14.0076 43.8452
#
#
#
# Elastic Compliance Matrix: (Units=1/GPa)
#
#
# Indices 1 2 3 4 5 6 
#
# 1 0.017491 -0.002618 -0.001664 0.006455 -0.015096 -0.006251
# 2 -0.002618 0.010971 -0.002011 -0.000802 0.001448 -0.002438
# 3 -0.001664 -0.002011 0.010395 -0.001274 -0.007409 -0.000845
# 4 0.006455 -0.000802 -0.001274 0.028593 -0.012180 -0.013712
# 5 -0.015096 0.001448 -0.007409 -0.012180 0.057972 0.021847
# 6 -0.006251 -0.002438 -0.000845 -0.013712 0.021847 0.035171
#
#
# Mechanical properties :
#
#
# Convention : Reuss Voigt Hill
#
# Bulk Modulus (GPa) = 38.06261 55.60420 46.83341
# Shear Modulus (GPa) = 27.48210 40.15372 33.81791
#
# Velocity S-wave (km/s) = 3.24686 3.92466 3.60174
# Velocity P-wave (km/s) = 5.35322 6.47048 5.93818
#
# Compressibility (1/GPa) = 0.02627250
#
# Stress axis : x y z
#
# Youngs Moduli (GPa) = 57.17079 91.14658 96.20058
#
# Poissons Ratio (x) = 0.23858 0.16010
# Poissons Ratio (y) = 0.14965 0.19344
# Poissons Ratio (z) = 0.09515 0.18328
#
# Static dielectric constant tensor:
#      x y z
#    x 2.072060 -0.005180 0.012620 
#    y -0.005180 2.188360 0.051700 
#    z 0.012620 0.051700 2.109270 
# 
# From -- ./inp_files/300298.got.cif
#   From: 2010.05.17/outbox.cif.g08.bks.cpg/sg2_151_cif.got.tgz:300298.got - 2010.06.03 11:33:40.
