data_PCOD9048802
_publ_section_title
;
Structure prediction by ZEFSAII (Michael W. Deem and Ramdas Pophale) SiO2 
 PCOD9048802
Probable space group: P -1
;
_chemical_formula_sum "Si O2"
_cell_formula_units_Z 16
_cell_length_a 8.704913
_cell_length_b 19.386112
_cell_length_c 14.330839
_cell_angle_alpha 21.267559
_cell_angle_beta 126.181868
_cell_angle_gamma 125.469632
_cell_volume 704.277659
_symmetry_space_group_name_H-M "P -1"
_symmetry_group_IT_number 2
_symmetry_cell_setting 'triclinic'
loop_
_space_group_symop_operation_xyz
x,y,z
-x,-y,-z
loop_
_atom_site_type_symbol
_atom_site_label
_atom_site_fract_x
_atom_site_fract_y
_atom_site_fract_z
Si Si1 0.152432 0.890733 0.636216
Si Si2 0.778309 0.392660 0.280321
Si Si3 0.276657 0.919222 0.007656
Si Si4 0.575810 0.393230 0.900398
Si Si5 0.575284 0.756229 0.765034
Si Si6 0.902219 0.725323 0.591154
Si Si7 0.055446 0.665267 0.391353
Si Si8 0.672509 0.502125 0.488910
O O1 0.034776 0.755666 0.690547
O O2 0.292126 0.047585 0.433860
O O3 0.294190 0.761145 0.903773
O O4 0.000000 0.000000 0.500000
O O5 0.607214 0.241996 0.370587
O O6 0.811222 0.385416 0.411830
O O7 0.969833 0.358526 0.337326
O O8 0.704895 0.596549 0.974398
O O9 0.156960 0.853114 0.141556
O O10 0.270113 0.713766 0.213550
O O11 0.500000 0.000000 0.000000
O O12 0.168369 0.074765 0.718913
O O13 0.716842 0.583483 0.726046
O O14 0.411047 0.449837 0.702353
O O15 0.497703 0.309215 0.076448
O O16 0.000000 0.500000 0.500000
O O17 0.846986 0.663256 0.366304
O O18 0.500000 0.500000 0.500000
#
# Coordination Sequence:
#
# PCOD9048802 Si02
#       8
#     2   2   2   2   2   2   2   2
#     4  12  29  45  72 108 143 191 249 299 363 429
#     4  11  25  46  74 103 149 186 242 293 375 425
#     4  11  25  46  67 104 140 188 238 295 359 432
#     4  12  25  49  73 103 151 188 242 302 367 427
#     4  11  26  46  74 107 141 193 244 302 363 430
#     4  12  27  46  73 105 150 187 240 299 365 439
#     4  10  24  45  73 102 139 191 239 294 363 430
#     4  11  25  46  73 105 142 191 242 299 360 427
#
# _framework density 22.718313999999999
#
# number of rings (size 3 to 8) (size 9 to 14) (size 15 to 20)
#    0.000    0.750    2.500    3.750   10.500    0.500 
#    0.000    0.000    0.000    0.000    0.000    0.000 
#    0.000    0.000    0.000    0.000    0.000    0.000 
#
# Total GULP energy -89505.648541 kJ/mol
# GULP energy per Si atom -5594.103034 kJ/mol
# Density = 2.266661 g / cm^3
# Si number density = 22.718314 Si / 1000 Ang^3
#
#
#
# Elastic Constant Matrix: (Units=GPa)
#
#
# Indices 1 2 3 4 5 6 
#
# 1 123.8287 28.0868 47.8958 -3.1685 -8.7389 12.6324
# 2 28.0868 94.6960 20.1035 16.3893 -20.9923 15.3802
# 3 47.8958 20.1035 107.7699 -2.6859 -3.3818 13.8370
# 4 -3.1685 16.3893 -2.6859 35.1695 3.6112 -5.3827
# 5 -8.7389 -20.9923 -3.3818 3.6112 42.8930 -9.6958
# 6 12.6324 15.3802 13.8370 -5.3827 -9.6958 46.4938
#
#
#
# Elastic Compliance Matrix: (Units=1/GPa)
#
#
# Indices 1 2 3 4 5 6 
#
# 1 0.010273 -0.002281 -0.004014 0.001552 0.000399 -0.000579
# 2 -0.002281 0.015073 -0.001344 -0.008567 0.006723 -0.003556
# 3 -0.004014 -0.001344 0.011563 0.000951 -0.001102 -0.002026
# 4 0.001552 -0.008567 0.000951 0.033959 -0.005552 0.004903
# 5 0.000399 0.006723 -0.001102 -0.005552 0.027777 0.003145
# 6 -0.000579 -0.003556 -0.002026 0.004903 0.003145 0.024668
#
#
# Mechanical properties :
#
#
# Convention : Reuss Voigt Hill
#
# Bulk Modulus (GPa) = 46.23239 57.60742 51.91991
# Shear Modulus (GPa) = 34.29327 40.25847 37.27587
#
# Velocity S-wave (km/s) = 3.88944 4.21416 4.05506
# Velocity P-wave (km/s) = 6.36905 7.00651 6.69537
#
# Compressibility (1/GPa) = 0.02162986
#
# Stress axis : x y z
#
# Youngs Moduli (GPa) = 97.34548 66.34547 86.48227
#
# Poissons Ratio (x) = 0.15133 0.34718
# Poissons Ratio (y) = 0.22204 0.11622
# Poissons Ratio (z) = 0.39079 0.08916
#
# Static dielectric constant tensor:
#      x y z
#    x 1.971640 -0.017170 0.026650 
#    y -0.017170 1.841880 -0.011820 
#    z 0.026650 -0.011820 1.821930 
# 
# From -- ./inp_files/508094.got.cif
#   From: 2010.05.17/outbox.cif.g08.bks.cpg/sg2_255_cif.got.tgz:508094.got - 2010.06.03 11:33:40.
