data_PCOD9048101
_publ_section_title
;
Structure prediction by ZEFSAII (Michael W. Deem and Ramdas Pophale) SiO2 
 PCOD9048101
Probable space group: P -1
;
_chemical_formula_sum "Si O2"
_cell_formula_units_Z 12
_cell_length_a 5.346078
_cell_length_b 21.951231
_cell_length_c 4.688083
_cell_angle_alpha 99.389417
_cell_angle_beta 84.878116
_cell_angle_gamma 50.900824
_cell_volume 407.752308
_symmetry_space_group_name_H-M "P -1"
_symmetry_group_IT_number 2
_symmetry_cell_setting 'triclinic'
loop_
_space_group_symop_operation_xyz
x,y,z
-x,-y,-z
loop_
_atom_site_type_symbol
_atom_site_label
_atom_site_fract_x
_atom_site_fract_y
_atom_site_fract_z
Si Si1 0.259710 0.686090 0.219158
Si Si2 0.299015 0.925556 0.717820
Si Si3 0.735788 0.199775 0.339790
Si Si4 0.138729 0.340428 0.184086
Si Si5 0.358325 0.078974 0.870267
Si Si6 0.698252 0.513441 0.200945
O O1 0.122307 0.765531 0.472176
O O2 0.561090 0.670484 0.007729
O O3 0.435815 0.610023 0.364817
O O4 0.031457 0.683220 0.023659
O O5 0.226876 0.870893 0.553965
O O6 0.443866 0.944507 0.462947
O O7 0.551263 0.876424 0.913413
O O8 0.000000 0.000000 0.000000
O O9 0.350186 0.276241 0.368157
O O10 0.962043 0.147482 0.998563
O O11 0.875052 0.438577 0.348130
O O12 0.500000 0.000000 0.000000
O O13 0.500000 0.500000 0.000000
O O14 0.000000 0.500000 0.000000
#
# Coordination Sequence:
#
# PCOD9048101 Si02
#       6
#     2   2   2   2   2   2
#     4  10  24  44  73 110 163 213 279 345 416 494
#     4  12  29  52  84 119 163 219 284 344 427 514
#     4  12  30  43  78 118 162 216 278 345 428 500
#     4  10  24  44  73 110 163 213 279 345 416 494
#     4  12  29  52  84 119 163 219 284 344 427 514
#     4   8  16  39  68 103 149 216 272 338 409 489
#
# _framework density 29.429632999999999
#
# number of rings (size 3 to 8) (size 9 to 14) (size 15 to 20)
#    0.000    1.333    1.667    1.000    9.333    0.667 
#    0.000    0.000    0.000   12.000    0.000    3.500 
#    0.000    0.000    0.000    0.000    0.000    0.000 
#
# Total GULP energy -67112.622212 kJ/mol
# GULP energy per Si atom -5592.718518 kJ/mol
# Density = 2.936265 g / cm^3
# Si number density = 29.429633 Si / 1000 Ang^3
#
#
#
# Elastic Constant Matrix: (Units=GPa)
#
#
# Indices 1 2 3 4 5 6 
#
# 1 187.3825 41.3700 78.9845 -1.9975 14.7881 24.8902
# 2 41.3700 145.4229 46.1074 21.5891 -12.1952 13.9494
# 3 78.9845 46.1074 181.9660 -0.4546 -6.6276 15.0526
# 4 -1.9975 21.5891 -0.4546 37.7947 5.3652 2.8484
# 5 14.7881 -12.1952 -6.6276 5.3652 65.4765 -2.6699
# 6 24.8902 13.9494 15.0526 2.8484 -2.6699 68.0226
#
#
#
# Elastic Compliance Matrix: (Units=1/GPa)
#
#
# Indices 1 2 3 4 5 6 
#
# 1 0.007266 -0.001477 -0.002704 0.001681 -0.002406 -0.001922
# 2 -0.001477 0.008813 -0.001472 -0.005401 0.002243 -0.000627
# 3 -0.002704 -0.001472 0.007102 0.000663 0.000990 -0.000269
# 4 0.001681 -0.005401 0.000663 0.030267 -0.003842 -0.001073
# 5 -0.002406 0.002243 0.000990 -0.003842 0.016690 0.001017
# 6 -0.001922 -0.000627 -0.000269 -0.001073 0.001017 0.015677
#
#
# Mechanical properties :
#
#
# Convention : Reuss Voigt Hill
#
# Bulk Modulus (GPa) = 84.20505 94.18834 89.19670
# Shear Modulus (GPa) = 49.46563 57.47938 53.47251
#
# Velocity S-wave (km/s) = 4.10422 4.42420 4.26721
# Velocity P-wave (km/s) = 7.15080 7.62706 7.39277
#
# Compressibility (1/GPa) = 0.01187577
#
# Stress axis : x y z
#
# Youngs Moduli (GPa) = 137.63575 113.46305 140.80046
#
# Poissons Ratio (x) = 0.16754 0.38072
# Poissons Ratio (y) = 0.20323 0.20729
# Poissons Ratio (z) = 0.37216 0.16704
#
# Static dielectric constant tensor:
#      x y z
#    x 2.598870 0.005960 0.027450 
#    y 0.005960 2.407120 -0.038160 
#    z 0.027450 -0.038160 2.280660 
# 
# From -- ./inp_files/5777.got.cif
#   From: 2010.05.17/outbox.cif.g08.bks.cpg/sg2_3_cif.got.tgz:5777.got - 2010.06.03 11:33:40.
