data_PCOD9048781
_publ_section_title
;
Structure prediction by ZEFSAII (Michael W. Deem and Ramdas Pophale) SiO2 
 PCOD9048781
Probable space group: P -1
;
_chemical_formula_sum "Si O2"
_cell_formula_units_Z 14
_cell_length_a 15.084894
_cell_length_b 9.424645
_cell_length_c 24.894966
_cell_angle_alpha 42.558748
_cell_angle_beta 18.348474
_cell_angle_gamma 40.616122
_cell_volume 723.065731
_symmetry_space_group_name_H-M "P -1"
_symmetry_group_IT_number 2
_symmetry_cell_setting 'triclinic'
loop_
_space_group_symop_operation_xyz
x,y,z
-x,-y,-z
loop_
_atom_site_type_symbol
_atom_site_label
_atom_site_fract_x
_atom_site_fract_y
_atom_site_fract_z
Si Si1 0.926126 0.682349 0.537152
Si Si2 0.607637 0.123312 0.826944
Si Si3 0.575270 0.662760 0.017900
Si Si4 0.895652 0.539159 0.708231
Si Si5 0.935282 0.709833 0.215162
Si Si6 0.670125 0.978336 0.201995
Si Si7 0.387349 0.985898 0.892053
O O1 0.041353 0.589670 0.555461
O O2 0.000000 0.500000 0.500000
O O3 0.085899 0.860140 0.377359
O O4 0.578380 0.792905 0.711691
O O5 0.629697 0.887566 0.904688
O O6 0.393232 0.142142 0.894429
O O7 0.499229 0.300911 0.886606
O O8 0.851412 0.465091 0.898195
O O9 0.307918 0.611839 0.153114
O O10 0.671237 0.770000 0.791885
O O11 0.089959 0.418242 0.679893
O O12 0.668130 0.832671 0.296290
O O13 0.110658 0.886480 0.080241
O O14 0.601735 0.903709 0.202923
O O15 0.000000 0.000000 0.000000
#
# Coordination Sequence:
#
# PCOD9048781 Si02
#       7
#     2   2   2   2   2   2   2
#     4  11  23  38  59  87 119 151 192 242 287 337
#     4  11  20  33  59  89 119 142 199 243 285 324
#     4  10  19  33  59  89 114 152 190 240 283 342
#     4  10  17  34  59  83 111 151 197 228 276 348
#     4  10  17  36  60  84 112 153 197 228 281 354
#     4   9  21  36  61  83 118 155 193 229 288 350
#     4   9  17  33  57  88 107 150 198 236 268 344
#
# _framework density 19.362003000000001
#
# number of rings (size 3 to 8) (size 9 to 14) (size 15 to 20)
#    0.000    2.000    4.286    1.714    0.000    2.286 
#    0.000    2.143    0.000    0.000    0.000    0.000 
#    0.000    0.000    0.000    0.000    0.000    0.000 
#
# Total GULP energy -78011.203830 kJ/mol
# GULP energy per Si atom -5572.228845 kJ/mol
# Density = 1.931793 g / cm^3
# Si number density = 19.362003 Si / 1000 Ang^3
#
#
#
# Elastic Constant Matrix: (Units=GPa)
#
#
# Indices 1 2 3 4 5 6 
#
# 1 156.4467 47.9425 19.2299 2.4282 33.5226 -16.0260
# 2 47.9425 44.4516 17.5367 -0.5525 2.6434 1.8289
# 3 19.2299 17.5367 60.8816 -5.2254 18.1809 3.7165
# 4 2.4282 -0.5525 -5.2254 20.4921 0.7224 4.3234
# 5 33.5226 2.6434 18.1809 0.7224 27.6897 -5.7327
# 6 -16.0260 1.8289 3.7165 4.3234 -5.7327 36.1452
#
#
#
# Elastic Compliance Matrix: (Units=1/GPa)
#
#
# Indices 1 2 3 4 5 6 
#
# 1 0.016622 -0.019367 0.006405 -0.001027 -0.021543 0.004397
# 2 -0.019367 0.048194 -0.015974 -0.000459 0.028346 -0.004832
# 3 0.006405 -0.015974 0.027459 0.007568 -0.025304 -0.004094
# 4 -0.001027 -0.000459 0.007568 0.052899 -0.006848 -0.008624
# 5 -0.021543 0.028346 -0.025304 -0.006848 0.077253 0.004687
# 6 0.004397 -0.004832 -0.004094 -0.008624 0.004687 0.032056
#
#
# Mechanical properties :
#
#
# Convention : Reuss Voigt Hill
#
# Bulk Modulus (GPa) = 29.06673 47.91090 38.48881
# Shear Modulus (GPa) = 15.44052 28.67013 22.05533
#
# Velocity S-wave (km/s) = 2.82701 3.85222 3.37872
# Velocity P-wave (km/s) = 5.06959 6.67717 5.92813
#
# Compressibility (1/GPa) = 0.03440360
#
# Stress axis : x y z
#
# Youngs Moduli (GPa) = 60.16088 20.74962 36.41739
#
# Poissons Ratio (x) = 0.40186 -0.23326
# Poissons Ratio (y) = 1.16513 0.58173
# Poissons Ratio (z) = -0.38534 0.33145
#
# Static dielectric constant tensor:
#      x y z
#    x 1.727410 -0.022730 0.028670 
#    y -0.022730 1.666680 -0.036090 
#    z 0.028670 -0.036090 1.702510 
# 
# From -- ./inp_files/200766.got.cif
#   From: 2010.05.17/outbox.cif.g08.bks.cpg/sg2_101_cif.got.tgz:200766.got - 2010.06.03 11:33:40.
