data_PCOD9048043
_publ_section_title
;
Structure prediction by ZEFSAII (Michael W. Deem and Ramdas Pophale) SiO2 
 PCOD9048043
Probable space group: P -1
;
_chemical_formula_sum "Si O2"
_cell_formula_units_Z 14
_cell_length_a 15.165438
_cell_length_b 10.566075
_cell_length_c 8.071608
_cell_angle_alpha 131.868254
_cell_angle_beta 118.852844
_cell_angle_gamma 36.635812
_cell_volume 570.640709
_symmetry_space_group_name_H-M "P -1"
_symmetry_group_IT_number 2
_symmetry_cell_setting 'triclinic'
loop_
_space_group_symop_operation_xyz
x,y,z
-x,-y,-z
loop_
_atom_site_type_symbol
_atom_site_label
_atom_site_fract_x
_atom_site_fract_y
_atom_site_fract_z
Si Si1 0.471142 0.729816 0.235135
Si Si2 0.376629 0.639464 0.369555
Si Si3 0.741944 0.433707 0.404712
Si Si4 0.069644 0.474323 0.866789
Si Si5 0.361843 0.294076 0.096939
Si Si6 0.796615 0.016410 0.951154
Si Si7 0.085945 0.096481 0.393422
O O1 0.407882 0.763376 0.390060
O O2 0.623637 0.637592 0.332686
O O3 0.333709 0.955589 0.191811
O O4 0.500000 0.500000 0.000000
O O5 0.500000 0.500000 0.500000
O O6 0.399635 0.417143 0.133909
O O7 0.197434 0.875853 0.437507
O O8 0.693496 0.567877 0.653949
O O9 0.914351 0.260163 0.383965
O O10 0.736272 0.235368 0.210456
O O11 0.088013 0.294278 0.602394
O O12 0.945721 0.751870 0.923860
O O13 0.226666 0.365207 0.950389
O O14 0.000000 0.500000 0.000000
O O15 0.500000 0.000000 0.000000
O O16 0.843553 0.041024 0.839480
#
# Coordination Sequence:
#
# PCOD9048043 Si02
#       7
#     2   2   2   2   2   2   2
#     4   9  21  41  67  97 130 168 224 275 329 396
#     4  11  22  42  70  96 131 183 222 273 335 399
#     4  11  22  44  70 102 131 178 235 274 333 406
#     4  12  26  44  68 103 140 177 224 279 341 401
#     4  12  27  43  66 102 142 176 225 285 339 399
#     4  10  24  44  72  95 136 180 224 283 338 398
#     4  11  24  44  70 100 140 177 227 277 339 403
#
# _framework density 24.533825
#
# number of rings (size 3 to 8) (size 9 to 14) (size 15 to 20)
#    0.000    1.143    2.857    2.571    4.000    5.714 
#    0.000    0.714    0.000    0.000    0.000    0.000 
#    0.000    0.000    0.000    0.000    0.000    0.000 
#
# Total GULP energy -78236.435971 kJ/mol
# GULP energy per Si atom -5588.316855 kJ/mol
# Density = 2.447799 g / cm^3
# Si number density = 24.533825 Si / 1000 Ang^3
#
#
#
# Elastic Constant Matrix: (Units=GPa)
#
#
# Indices 1 2 3 4 5 6 
#
# 1 69.2081 43.2797 20.7264 -12.4714 6.3734 -33.9292
# 2 43.2797 232.9565 50.7792 -22.0659 21.8551 -53.4359
# 3 20.7264 50.7792 104.4935 -5.7219 2.8789 -13.8235
# 4 -12.4714 -22.0659 -5.7219 50.7061 -10.9119 9.9054
# 5 6.3734 21.8551 2.8789 -10.9119 46.4414 -7.4428
# 6 -33.9292 -53.4359 -13.8235 9.9054 -7.4428 45.7233
#
#
#
# Elastic Compliance Matrix: (Units=1/GPa)
#
#
# Indices 1 2 3 4 5 6 
#
# 1 0.023557 0.000138 -0.002441 0.002385 0.000041 0.016394
# 2 0.000138 0.006501 -0.002221 0.000976 -0.001662 0.006547
# 3 -0.002441 -0.002221 0.010986 -0.000018 0.000536 -0.000995
# 4 0.002385 0.000976 -0.000018 0.021852 0.004164 -0.001151
# 5 0.000041 -0.001662 0.000536 0.004164 0.023441 0.001163
# 6 0.016394 0.006547 -0.000995 -0.001151 0.001163 0.041825
#
#
# Mechanical properties :
#
#
# Convention : Reuss Voigt Hill
#
# Bulk Modulus (GPa) = 31.25466 70.69207 50.97337
# Shear Modulus (GPa) = 33.81190 48.03235 40.92213
#
# Velocity S-wave (km/s) = 3.71641 4.42951 4.08853
# Velocity P-wave (km/s) = 5.58414 7.41872 6.56582
#
# Compressibility (1/GPa) = 0.03199523
#
# Stress axis : x y z
#
# Youngs Moduli (GPa) = 42.45012 153.81517 91.02195
#
# Poissons Ratio (x) = -0.02125 0.22223
# Poissons Ratio (y) = -0.00587 0.20220
# Poissons Ratio (z) = 0.10364 0.34169
#
# Static dielectric constant tensor:
#      x y z
#    x 2.094050 0.035500 -0.055630 
#    y 0.035500 2.076120 -0.042760 
#    z -0.055630 -0.042760 1.941370 
# 
# From -- ./inp_files/159946.got.cif
#   From: 2010.05.17/outbox.cif.g08.bks.cpg/sg2_80_cif.got.tgz:159946.got - 2010.06.03 11:33:40.
