data_PCOD9048049
_publ_section_title
;
Structure prediction by ZEFSAII (Michael W. Deem and Ramdas Pophale) SiO2 
 PCOD9048049
Probable space group: P -1
;
_chemical_formula_sum "Si O2"
_cell_formula_units_Z 13
_cell_length_a 20.438582
_cell_length_b 9.674884
_cell_length_c 10.254173
_cell_angle_alpha 151.606161
_cell_angle_beta 140.692491
_cell_angle_gamma 40.001457
_cell_volume 585.782329
_symmetry_space_group_name_H-M "P -1"
_symmetry_group_IT_number 2
_symmetry_cell_setting 'triclinic'
loop_
_space_group_symop_operation_xyz
x,y,z
-x,-y,-z
loop_
_atom_site_type_symbol
_atom_site_label
_atom_site_fract_x
_atom_site_fract_y
_atom_site_fract_z
Si Si1 0.943697 0.798492 0.078162
Si Si2 0.878872 0.482869 0.270852
Si Si3 0.148785 0.876137 0.318538
Si Si4 0.432295 0.345631 0.675249
Si Si5 0.376915 0.506783 0.427389
Si Si6 0.500000 0.000000 0.000000
Si Si7 0.189682 0.555322 0.576883
O O1 0.876573 0.669729 0.762083
O O2 0.000000 0.500000 0.000000
O O3 0.039534 0.910630 0.257507
O O4 0.864177 0.099414 0.269959
O O5 0.822236 0.433811 0.276212
O O6 0.000000 0.500000 0.500000
O O7 0.824642 0.807461 0.392078
O O8 0.873074 0.232369 0.949391
O O9 0.247667 0.628302 0.329901
O O10 0.423668 0.443240 0.592400
O O11 0.311521 0.425100 0.610390
O O12 0.500000 0.000000 0.500000
O O13 0.500000 0.500000 0.000000
O O14 0.421916 0.776967 0.668322
O O15 0.414209 0.209373 0.148510
#
# Coordination Sequence:
#
# PCOD9048049 Si02
#       7
#     2   2   2   2   2   1   2
#     4  12  24  42  68 100 140 178 228 277 356 426
#     4  12  23  43  68 101 148 176 235 278 353 421
#     4  12  24  41  71 102 137 188 215 304 345 424
#     4  12  28  49  73 100 144 191 241 301 352 417
#     4  11  25  47  72 104 141 177 252 284 364 416
#     4  10  24  44  72  96 140 182 232 312 336 402
#     4  12  26  44  69 100 139 186 231 286 350 428
#
# _framework density 22.192544000000002
#
# number of rings (size 3 to 8) (size 9 to 14) (size 15 to 20)
#    0.000    0.308    3.077    5.538    0.000    9.846 
#    0.000    0.000    0.000    0.000    0.000    0.000 
#    0.000    0.000    0.000    0.000    0.000    0.000 
#
# Total GULP energy -72512.044688 kJ/mol
# GULP energy per Si atom -5577.849591 kJ/mol
# Density = 2.214203 g / cm^3
# Si number density = 22.192544 Si / 1000 Ang^3
#
#
#
# Elastic Constant Matrix: (Units=GPa)
#
#
# Indices 1 2 3 4 5 6 
#
# 1 71.3694 40.5973 3.4103 8.8669 -3.1096 -30.5071
# 2 40.5973 122.8244 26.1307 10.1818 -1.8156 -31.1654
# 3 3.4103 26.1307 111.9899 14.8161 -12.6742 -15.2601
# 4 8.8669 10.1818 14.8161 43.1171 -4.7754 -0.3924
# 5 -3.1096 -1.8156 -12.6742 -4.7754 27.2760 8.8784
# 6 -30.5071 -31.1654 -15.2601 -0.3924 8.8784 32.8005
#
#
#
# Elastic Compliance Matrix: (Units=1/GPa)
#
#
# Indices 1 2 3 4 5 6 
#
# 1 0.026726 -0.002764 0.003553 -0.006364 -0.004770 0.025099
# 2 -0.002764 0.011723 -0.001593 -0.001956 -0.003463 0.008741
# 3 0.003553 -0.001593 0.010815 -0.003716 0.002706 0.006046
# 4 -0.006364 -0.001956 -0.003716 0.026762 0.005585 -0.010699
# 5 -0.004770 -0.003463 0.002706 0.005585 0.044091 -0.018336
# 6 0.025099 0.008741 0.006046 -0.010699 -0.018336 0.069784
#
#
# Mechanical properties :
#
#
# Convention : Reuss Voigt Hill
#
# Bulk Modulus (GPa) = 20.98400 49.60670 35.29535
# Shear Modulus (GPa) = 24.10880 36.37508 30.24194
#
# Velocity S-wave (km/s) = 3.29955 4.05293 3.69549
# Velocity P-wave (km/s) = 4.89817 6.65606 5.84359
#
# Compressibility (1/GPa) = 0.04765536
#
# Stress axis : x y z
#
# Youngs Moduli (GPa) = 37.41740 85.30185 92.46828
#
# Poissons Ratio (x) = 0.23577 -0.32856
# Poissons Ratio (y) = 0.10342 0.14732
# Poissons Ratio (z) = -0.13295 0.13590
#
# Static dielectric constant tensor:
#      x y z
#    x 1.797380 0.015550 -0.007620 
#    y 0.015550 1.870840 0.006820 
#    z -0.007620 0.006820 1.749780 
# 
# From -- ./inp_files/344019.got.cif
#   From: 2010.05.17/outbox.cif.g08.bks.cpg/sg2_173_cif.got.tgz:344019.got - 2010.06.03 11:33:40.
