data_PCOD9048542
_publ_section_title
;
Structure prediction by ZEFSAII (Michael W. Deem and Ramdas Pophale) SiO2 
 PCOD9048542
Probable space group: P -1
;
_chemical_formula_sum "Si O2"
_cell_formula_units_Z 10
_cell_length_a 8.911103
_cell_length_b 10.431255
_cell_length_c 6.536507
_cell_angle_alpha 86.732834
_cell_angle_beta 129.028109
_cell_angle_gamma 113.542428
_cell_volume 416.259516
_symmetry_space_group_name_H-M "P -1"
_symmetry_group_IT_number 2
_symmetry_cell_setting 'triclinic'
loop_
_space_group_symop_operation_xyz
x,y,z
-x,-y,-z
loop_
_atom_site_type_symbol
_atom_site_label
_atom_site_fract_x
_atom_site_fract_y
_atom_site_fract_z
Si Si1 0.402958 0.596882 0.505714
Si Si2 0.418298 0.741935 0.909160
Si Si3 0.232730 0.159052 0.464526
Si Si4 0.278505 0.896345 0.439322
Si Si5 0.037304 0.674687 0.900691
O O1 0.500000 0.500000 0.500000
O O2 0.411261 0.623546 0.752339
O O3 0.568882 0.751046 0.534364
O O4 0.848043 0.509416 0.752445
O O5 0.360539 0.849741 0.716717
O O6 0.231724 0.682413 0.926031
O O7 0.647951 0.811538 0.216646
O O8 0.066282 0.225566 0.295519
O O9 0.151727 0.990127 0.362960
O O10 0.500000 0.000000 0.500000
O O11 0.131543 0.755650 0.189660
#
# Coordination Sequence:
#
# PCOD9048542 Si02
#       5
#     2   2   2   2   2
#     4  10  24  45  69  98 138 175 219 276 336 395
#     4  12  24  43  72  98 136 172 229 274 331 391
#     4  11  25  46  70 100 138 175 221 274 333 399
#     4  12  24  46  69  97 139 178 219 277 335 392
#     4  11  26  43  71 102 132 179 224 271 333 397
#
# _framework density 24.023472999999999
#
# number of rings (size 3 to 8) (size 9 to 14) (size 15 to 20)
#    0.000    0.800    4.000    1.800    0.000   12.000 
#    0.000    0.000    0.000    0.000    0.000    0.000 
#    0.000    0.000    0.000    0.000    0.000    0.000 
#
# Total GULP energy -55913.087254 kJ/mol
# GULP energy per Si atom -5591.308725 kJ/mol
# Density = 2.396879 g / cm^3
# Si number density = 24.023473 Si / 1000 Ang^3
#
#
#
# Elastic Constant Matrix: (Units=GPa)
#
#
# Indices 1 2 3 4 5 6 
#
# 1 104.9774 19.7394 30.3246 12.3877 -8.8216 -26.0642
# 2 19.7394 107.5403 21.2072 18.8063 -12.5862 -29.9484
# 3 30.3246 21.2072 126.5726 12.4191 -16.8264 -16.0335
# 4 12.3877 18.8063 12.4191 46.7712 -12.5306 -7.2050
# 5 -8.8216 -12.5862 -16.8264 -12.5306 32.8502 1.0148
# 6 -26.0642 -29.9484 -16.0335 -7.2050 1.0148 49.9726
#
#
#
# Elastic Compliance Matrix: (Units=1/GPa)
#
#
# Indices 1 2 3 4 5 6 
#
# 1 0.011642 0.000134 -0.001789 -0.001423 0.001554 0.005342
# 2 0.000134 0.012107 -0.000518 -0.002909 0.003093 0.006677
# 3 -0.001789 -0.000518 0.009163 -0.000501 0.003776 0.001547
# 4 -0.001423 -0.002909 -0.000501 0.025298 0.007871 0.000841
# 5 0.001554 0.003093 0.003776 0.007871 0.036848 0.004262
# 6 0.005342 0.006677 0.001547 0.000841 0.004262 0.027330
#
#
# Mechanical properties :
#
#
# Convention : Reuss Voigt Hill
#
# Bulk Modulus (GPa) = 35.00652 53.51476 44.26064
# Shear Modulus (GPa) = 36.69557 43.77341 40.23449
#
# Velocity S-wave (km/s) = 3.91255 4.27325 4.09687
# Velocity P-wave (km/s) = 5.91728 6.83169 6.39086
#
# Compressibility (1/GPa) = 0.02856611
#
# Stress axis : x y z
#
# Youngs Moduli (GPa) = 85.89435 82.60014 109.13308
#
# Poissons Ratio (x) = -0.01108 0.19523
# Poissons Ratio (y) = -0.01153 0.05655
# Poissons Ratio (z) = 0.15365 0.04280
#
# Static dielectric constant tensor:
#      x y z
#    x 1.796240 -0.015380 0.033390 
#    y -0.015380 1.990750 -0.050180 
#    z 0.033390 -0.050180 1.933500 
# 
# From -- ./inp_files/4573.got.cif
#   From: 2010.05.17/outbox.cif.g08.bks.cpg/sg2_3_cif.got.tgz:4573.got - 2010.06.03 11:33:40.
