data_PCOD9048852
_publ_section_title
;
Structure prediction by ZEFSAII (Michael W. Deem and Ramdas Pophale) SiO2 
 PCOD9048852
Probable space group: P -1
;
_chemical_formula_sum "Si O2"
_cell_formula_units_Z 16
_cell_length_a 13.450279
_cell_length_b 10.666668
_cell_length_c 10.004292
_cell_angle_alpha 87.818221
_cell_angle_beta 76.601181
_cell_angle_gamma 29.494844
_cell_volume 646.072103
_symmetry_space_group_name_H-M "P -1"
_symmetry_group_IT_number 2
_symmetry_cell_setting 'triclinic'
loop_
_space_group_symop_operation_xyz
x,y,z
-x,-y,-z
loop_
_atom_site_type_symbol
_atom_site_label
_atom_site_fract_x
_atom_site_fract_y
_atom_site_fract_z
Si Si1 0.266284 0.314655 0.517180
Si Si2 0.259804 0.258469 0.000906
Si Si3 0.013555 0.622451 0.318933
Si Si4 0.247924 0.836898 0.558884
Si Si5 0.879661 0.876620 0.961968
Si Si6 0.198269 0.829225 0.853951
Si Si7 0.336728 0.807312 0.257045
Si Si8 0.337623 0.350723 0.749986
O O1 0.204856 0.423952 0.382527
O O2 0.262609 0.433460 0.617486
O O3 0.094667 0.394643 0.613321
O O4 0.500000 0.000000 0.500000
O O5 0.116360 0.497875 0.142453
O O6 0.157484 0.231689 0.027999
O O7 0.317777 0.238198 0.832200
O O8 0.500000 0.000000 0.000000
O O9 0.836045 0.928139 0.386302
O O10 0.500000 0.500000 0.500000
O O11 0.139786 0.881343 0.714087
O O12 0.201662 0.886071 0.413153
O O13 0.138352 0.628465 0.883292
O O14 0.774190 0.045850 0.853572
O O15 0.773086 0.056770 0.115287
O O16 0.435420 0.513380 0.822230
O O17 0.000000 0.000000 0.000000
O O18 0.429189 0.838747 0.288883
#
# Coordination Sequence:
#
# PCOD9048852 Si02
#       8
#     2   2   2   2   2   2   2   2
#     4  11  24  40  68 102 140 190 232 289 369 440
#     4  12  25  43  68 109 147 188 237 295 366 438
#     4  11  24  44  67 102 149 183 237 301 361 427
#     4  10  24  45  74 100 140 191 242 303 356 426
#     4  12  24  43  71  98 142 185 235 296 357 428
#     4  11  24  46  75 100 135 190 239 297 358 420
#     4  11  24  46  70 100 139 185 241 294 353 429
#     4  12  23  41  67  98 141 182 228 290 355 426
#
# _framework density 24.765037
#
# number of rings (size 3 to 8) (size 9 to 14) (size 15 to 20)
#    0.000    0.750    3.750    3.750    3.500    0.000 
#    2.250    0.625    8.250    0.000    0.000    0.000 
#    0.000    0.000    0.000    0.000    0.000    0.000 
#
# Total GULP energy -89242.392340 kJ/mol
# GULP energy per Si atom -5577.649521 kJ/mol
# Density = 2.470867 g / cm^3
# Si number density = 24.765037 Si / 1000 Ang^3
#
#
#
# Elastic Constant Matrix: (Units=GPa)
#
#
# Indices 1 2 3 4 5 6 
#
# 1 51.0572 20.1062 25.5060 4.0803 5.9609 -1.0164
# 2 20.1062 80.7889 52.8905 -8.5050 2.9173 11.8822
# 3 25.5060 52.8905 175.7797 -16.4661 0.6757 -1.2316
# 4 4.0803 -8.5050 -16.4661 52.4296 -0.1495 12.4221
# 5 5.9609 2.9173 0.6757 -0.1495 36.9736 1.2915
# 6 -1.0164 11.8822 -1.2316 12.4221 1.2915 38.9178
#
#
#
# Elastic Compliance Matrix: (Units=1/GPa)
#
#
# Indices 1 2 3 4 5 6 
#
# 1 0.023583 -0.005293 -0.002189 -0.004253 -0.003489 0.003636
# 2 -0.005293 0.017936 -0.004340 0.003590 -0.000227 -0.006890
# 3 -0.002189 -0.004340 0.007465 0.001580 0.000531 0.000982
# 4 -0.004253 0.003590 0.001580 0.022464 0.000756 -0.008353
# 5 -0.003489 -0.000227 0.000531 0.000756 0.027661 -0.001164
# 6 0.003636 -0.006890 0.000982 -0.008353 -0.001164 0.030630
#
#
# Mechanical properties :
#
#
# Convention : Reuss Voigt Hill
#
# Bulk Modulus (GPa) = 39.46120 56.07016 47.76568
# Shear Modulus (GPa) = 30.89694 39.60573 35.25133
#
# Velocity S-wave (km/s) = 3.53597 4.00341 3.77693
# Velocity P-wave (km/s) = 5.71311 6.63775 6.19271
#
# Compressibility (1/GPa) = 0.02534135
#
# Stress axis : x y z
#
# Youngs Moduli (GPa) = 42.40317 55.75408 133.95486
#
# Poissons Ratio (x) = 0.29509 0.29322
# Poissons Ratio (y) = 0.22442 0.58135
# Poissons Ratio (z) = 0.09282 0.24197
#
# Static dielectric constant tensor:
#      x y z
#    x 2.138010 0.154300 0.027390 
#    y 0.154300 2.133620 0.043150 
#    z 0.027390 0.043150 1.961770 
# 
# From -- ./inp_files/307517.got.cif
#   From: 2010.05.17/outbox.cif.g08.bks.cpg/sg2_154_cif.got.tgz:307517.got - 2010.06.03 11:33:40.
