data_PCOD9048126
_publ_section_title
;
Structure prediction by ZEFSAII (Michael W. Deem and Ramdas Pophale) SiO2 
 PCOD9048126
Probable space group: P -1
;
_chemical_formula_sum "Si O2"
_cell_formula_units_Z 12
_cell_length_a 8.922418
_cell_length_b 12.660329
_cell_length_c 9.671537
_cell_angle_alpha 140.635387
_cell_angle_beta 105.751440
_cell_angle_gamma 53.670471
_cell_volume 519.698795
_symmetry_space_group_name_H-M "P -1"
_symmetry_group_IT_number 2
_symmetry_cell_setting 'triclinic'
loop_
_space_group_symop_operation_xyz
x,y,z
-x,-y,-z
loop_
_atom_site_type_symbol
_atom_site_label
_atom_site_fract_x
_atom_site_fract_y
_atom_site_fract_z
Si Si1 0.566253 0.682121 0.108813
Si Si2 0.915130 0.245409 0.892197
Si Si3 0.520186 0.464060 0.633406
Si Si4 0.102192 0.597572 0.676870
Si Si5 0.226510 0.117148 0.611871
Si Si6 0.971537 0.168919 0.383450
O O1 0.698043 0.757741 0.184575
O O2 0.406854 0.873347 0.367508
O O3 0.708230 0.453699 0.990233
O O4 0.493092 0.640343 0.907680
O O5 0.076561 0.136298 0.701851
O O6 0.986289 0.311734 0.103035
O O7 0.903485 0.077446 0.796332
O O8 0.500000 0.500000 0.500000
O O9 0.344281 0.448782 0.605645
O O10 0.757637 0.274698 0.507445
O O11 0.052606 0.768703 0.719565
O O12 0.000000 0.500000 0.500000
O O13 0.092725 0.232772 0.557374
#
# Coordination Sequence:
#
# PCOD9048126 Si02
#       6
#     2   2   2   2   2   2
#     4  11  25  45  75 110 148 186 246 293 365 416
#     4  12  25  43  77 103 150 189 238 303 353 429
#     4  10  24  44  74 102 147 191 237 295 360 428
#     4  11  26  46  73 103 147 194 240 298 360 426
#     4  11  25  44  76 111 142 190 242 299 351 437
#     4  11  24  46  69 109 146 191 240 286 374 424
#
# _framework density 23.090298000000001
#
# number of rings (size 3 to 8) (size 9 to 14) (size 15 to 20)
#    0.000    1.000    1.667    3.500    7.000    2.667 
#    0.000    0.833    0.000    0.000    0.000    0.000 
#    0.000    0.000    0.000    0.000    0.000    0.000 
#
# Total GULP energy -66993.439883 kJ/mol
# GULP energy per Si atom -5582.786657 kJ/mol
# Density = 2.303774 g / cm^3
# Si number density = 23.090298 Si / 1000 Ang^3
#
#
#
# Elastic Constant Matrix: (Units=GPa)
#
#
# Indices 1 2 3 4 5 6 
#
# 1 98.2759 56.4563 50.0938 5.5941 12.3211 -24.5079
# 2 56.4563 110.1769 63.0834 -6.5143 -10.1218 4.3438
# 3 50.0938 63.0834 119.9079 -19.0498 11.0794 -8.0300
# 4 5.5941 -6.5143 -19.0498 52.4427 -5.5145 2.6612
# 5 12.3211 -10.1218 11.0794 -5.5145 51.4032 -10.4934
# 6 -24.5079 4.3438 -8.0300 2.6612 -10.4934 32.9316
#
#
#
# Elastic Compliance Matrix: (Units=1/GPa)
#
#
# Indices 1 2 3 4 5 6 
#
# 1 0.024106 -0.012050 -0.003166 -0.006601 -0.004533 0.017846
# 2 -0.012050 0.020137 -0.006475 0.002667 0.006199 -0.011443
# 3 -0.003166 -0.006475 0.014068 0.004300 -0.002957 0.000639
# 4 -0.006601 0.002667 0.004300 0.022193 0.002497 -0.005213
# 5 -0.004533 0.006199 -0.002957 0.002497 0.023127 0.002255
# 6 0.017846 -0.011443 0.000639 -0.005213 0.002255 0.046452
#
#
# Mechanical properties :
#
#
# Convention : Reuss Voigt Hill
#
# Bulk Modulus (GPa) = 66.98484 74.18084 70.58284
# Shear Modulus (GPa) = 25.19641 37.93732 31.56686
#
# Velocity S-wave (km/s) = 3.30693 4.05779 3.70145
# Velocity P-wave (km/s) = 6.60712 7.35869 6.99301
#
# Compressibility (1/GPa) = 0.01492875
#
# Stress axis : x y z
#
# Youngs Moduli (GPa) = 41.48346 49.66066 71.08285
#
# Poissons Ratio (x) = 0.59841 0.22504
# Poissons Ratio (y) = 0.49987 0.46027
# Poissons Ratio (z) = 0.13133 0.32156
#
# Static dielectric constant tensor:
#      x y z
#    x 1.955040 -0.064420 0.044410 
#    y -0.064420 1.880260 0.005380 
#    z 0.044410 0.005380 1.958220 
# 
# From -- ./inp_files/183590.got.cif
#   From: 2010.05.17/outbox.cif.g08.bks.cpg/sg2_92_cif.got.tgz:183590.got - 2010.06.03 11:33:40.
