data_PCOD9048203
_publ_section_title
;
Structure prediction by ZEFSAII (Michael W. Deem and Ramdas Pophale) SiO2 
 PCOD9048203
Probable space group: P -1
;
_chemical_formula_sum "Si O2"
_cell_formula_units_Z 14
_cell_length_a 10.133994
_cell_length_b 9.436381
_cell_length_c 10.820366
_cell_angle_alpha 53.872388
_cell_angle_beta 51.515146
_cell_angle_gamma 45.537453
_cell_volume 555.769607
_symmetry_space_group_name_H-M "P -1"
_symmetry_group_IT_number 2
_symmetry_cell_setting 'triclinic'
loop_
_space_group_symop_operation_xyz
x,y,z
-x,-y,-z
loop_
_atom_site_type_symbol
_atom_site_label
_atom_site_fract_x
_atom_site_fract_y
_atom_site_fract_z
Si Si1 0.063841 0.765167 0.064139
Si Si2 0.411289 0.811461 0.504261
Si Si3 0.390100 0.121070 0.876708
Si Si4 0.280485 0.526898 0.828202
Si Si5 0.148103 0.417988 0.572388
Si Si6 0.324311 0.768290 0.098253
Si Si7 0.987945 0.132832 0.557038
O O1 0.115745 0.692823 0.930639
O O2 0.260662 0.659709 0.090626
O O3 0.838437 0.146896 0.741126
O O4 0.000000 0.000000 0.000000
O O5 0.347460 0.642894 0.635861
O O6 0.469671 0.855178 0.314003
O O7 0.000000 0.000000 0.500000
O O8 0.207666 0.024096 0.545844
O O9 0.239650 0.359368 0.879707
O O10 0.386627 0.278883 0.487106
O O11 0.500000 0.000000 0.000000
O O12 0.330178 0.963295 0.942034
O O13 0.470027 0.390469 0.875753
O O14 0.095045 0.633148 0.555016
O O15 0.000000 0.500000 0.500000
O O16 0.080987 0.296579 0.760064
#
# Coordination Sequence:
#
# PCOD9048203 Si02
#       7
#     2   2   2   2   2   2   2
#     4  12  26  48  67 107 150 202 260 311 377 456
#     4  12  26  49  78 112 156 199 253 322 384 456
#     4  10  24  44  76 111 149 196 255 314 390 457
#     4  11  24  44  77 105 147 202 251 314 390 449
#     4  12  28  52  75 112 156 204 263 315 383 457
#     4  11  23  49  67 109 155 193 255 321 370 462
#     4  12  27  46  80 112 155 199 259 313 389 457
#
# _framework density 25.190294000000002
#
# number of rings (size 3 to 8) (size 9 to 14) (size 15 to 20)
#    0.000    0.571    2.857    4.286    8.000    0.571 
#    2.571    2.143    0.000    0.000    0.000    0.000 
#    0.000    0.000    0.000    0.000    0.000    0.000 
#
# Total GULP energy -78379.976564 kJ/mol
# GULP energy per Si atom -5598.569755 kJ/mol
# Density = 2.513296 g / cm^3
# Si number density = 25.190294 Si / 1000 Ang^3
#
#
#
# Elastic Constant Matrix: (Units=GPa)
#
#
# Indices 1 2 3 4 5 6 
#
# 1 141.9235 39.6732 47.9503 -10.3974 -3.5150 0.1657
# 2 39.6732 105.9560 36.3935 -5.9317 -28.0560 -15.3967
# 3 47.9503 36.3935 148.7890 -21.0921 -31.6314 7.0154
# 4 -10.3974 -5.9317 -21.0921 51.0733 1.9578 6.1300
# 5 -3.5150 -28.0560 -31.6314 1.9578 64.8047 -14.2284
# 6 0.1657 -15.3967 7.0154 6.1300 -14.2284 43.0641
#
#
#
# Elastic Compliance Matrix: (Units=1/GPa)
#
#
# Indices 1 2 3 4 5 6 
#
# 1 0.008779 -0.003375 -0.002357 0.000736 -0.002554 -0.001805
# 2 -0.003375 0.014081 -0.001352 -0.000799 0.006964 0.007682
# 3 -0.002357 -0.001352 0.009018 0.003115 0.003310 -0.001293
# 4 0.000736 -0.000799 0.003115 0.021408 -0.000297 -0.003942
# 5 -0.002554 0.006964 0.003310 -0.000297 0.021966 0.009260
# 6 -0.001805 0.007682 -0.001293 -0.003942 0.009260 0.029806
#
#
# Mechanical properties :
#
#
# Convention : Reuss Voigt Hill
#
# Bulk Modulus (GPa) = 56.46277 71.63360 64.04819
# Shear Modulus (GPa) = 39.95923 49.96519 44.96221
#
# Velocity S-wave (km/s) = 3.98715 4.45849 4.22939
# Velocity P-wave (km/s) = 6.60755 7.41640 7.02362
#
# Compressibility (1/GPa) = 0.01771078
#
# Stress axis : x y z
#
# Youngs Moduli (GPa) = 113.91382 71.01549 110.89496
#
# Poissons Ratio (x) = 0.23965 0.26139
# Poissons Ratio (y) = 0.38442 0.14989
# Poissons Ratio (z) = 0.26851 0.09599
#
# Static dielectric constant tensor:
#      x y z
#    x 2.080830 -0.016680 0.133710 
#    y -0.016680 2.008130 -0.018250 
#    z 0.133710 -0.018250 2.015880 
# 
# From -- ./inp_files/511880.got.cif
#   From: 2010.05.17/outbox.cif.g08.bks.cpg/sg2_256_cif.got.tgz:511880.got - 2010.06.03 11:33:40.
