data_PCOD9048447
_publ_section_title
;
Structure prediction by ZEFSAII (Michael W. Deem and Ramdas Pophale) SiO2 
 PCOD9048447
Probable space group: P -1
;
_chemical_formula_sum "Si O2"
_cell_formula_units_Z 14
_cell_length_a 8.207313
_cell_length_b 20.999157
_cell_length_c 14.852852
_cell_angle_alpha 161.919514
_cell_angle_beta 64.004103
_cell_angle_gamma 124.479068
_cell_volume 602.960459
_symmetry_space_group_name_H-M "P -1"
_symmetry_group_IT_number 2
_symmetry_cell_setting 'triclinic'
loop_
_space_group_symop_operation_xyz
x,y,z
-x,-y,-z
loop_
_atom_site_type_symbol
_atom_site_label
_atom_site_fract_x
_atom_site_fract_y
_atom_site_fract_z
Si Si1 0.381028 0.214971 0.667334
Si Si2 0.977460 0.116819 0.560975
Si Si3 0.431099 0.667905 0.835748
Si Si4 0.239141 0.890623 0.573340
Si Si5 0.011311 0.462019 0.174339
Si Si6 0.826876 0.356617 0.428615
Si Si7 0.599772 0.820863 0.810523
O O1 0.566938 0.156455 0.547426
O O2 0.183380 0.090594 0.474913
O O3 0.242886 0.114923 0.658596
O O4 0.500000 0.500000 0.000000
O O5 0.917569 0.186383 0.576422
O O6 0.044355 0.323325 0.898406
O O7 0.487453 0.807970 0.915460
O O8 0.348763 0.386868 0.466942
O O9 0.241242 0.669910 0.932293
O O10 0.646820 0.823704 0.050524
O O11 0.107464 0.732350 0.477451
O O12 0.106283 0.492120 0.291457
O O13 0.590270 0.282099 0.354828
O O14 0.000000 0.500000 0.500000
O O15 0.789199 0.090562 0.100932
#
# Coordination Sequence:
#
# PCOD9048447 Si02
#       7
#     2   2   2   2   2   2   2
#     4  11  24  43  70  97 139 183 234 286 335 407
#     4  11  26  45  69 104 141 183 232 281 344 418
#     4  11  24  44  69 101 135 181 234 282 346 422
#     4  12  25  47  69 100 147 186 226 288 347 409
#     4  12  24  42  70 100 134 182 231 277 347 416
#     4  11  23  44  71  99 137 177 228 294 345 413
#     4  10  24  45  68  98 137 178 228 290 351 402
#
# _framework density 23.218769999999999
#
# number of rings (size 3 to 8) (size 9 to 14) (size 15 to 20)
#    0.000    0.857    5.714    0.857    0.000    4.000 
#    2.571    0.000    0.000    0.000    0.000    0.000 
#    0.000    0.000    0.000    0.000    0.000    0.000 
#
# Total GULP energy -78173.294968 kJ/mol
# GULP energy per Si atom -5583.806783 kJ/mol
# Density = 2.316592 g / cm^3
# Si number density = 23.218770 Si / 1000 Ang^3
#
#
#
# Elastic Constant Matrix: (Units=GPa)
#
#
# Indices 1 2 3 4 5 6 
#
# 1 87.2729 44.0385 1.6780 -2.4826 14.7993 -14.3167
# 2 44.0385 114.8114 31.6365 16.3510 10.6639 -10.6811
# 3 1.6780 31.6365 88.0997 20.7107 9.7091 -3.8298
# 4 -2.4826 16.3510 20.7107 43.3861 -10.4568 10.1708
# 5 14.7993 10.6639 9.7091 -10.4568 35.9068 -3.9307
# 6 -14.3167 -10.6811 -3.8298 10.1708 -3.9307 37.1931
#
#
#
# Elastic Compliance Matrix: (Units=1/GPa)
#
#
# Indices 1 2 3 4 5 6 
#
# 1 0.015968 -0.005927 0.002671 -0.000379 -0.005186 0.004275
# 2 -0.005927 0.012856 -0.003156 -0.004575 -0.001617 0.002166
# 3 0.002671 -0.003156 0.015196 -0.008195 -0.006302 0.003262
# 4 -0.000379 -0.004575 -0.008195 0.034100 0.012534 -0.010304
# 5 -0.005186 -0.001617 -0.006302 0.012534 0.035517 -0.002783
# 6 0.004275 0.002166 0.003262 -0.010304 -0.002783 0.032014
#
#
# Mechanical properties :
#
#
# Convention : Reuss Voigt Hill
#
# Bulk Modulus (GPa) = 32.05583 49.43224 40.74403
# Shear Modulus (GPa) = 29.60784 37.48593 33.54688
#
# Velocity S-wave (km/s) = 3.57482 4.02240 3.80520
# Velocity P-wave (km/s) = 5.55654 6.55049 6.07388
#
# Compressibility (1/GPa) = 0.03119557
#
# Stress axis : x y z
#
# Youngs Moduli (GPa) = 62.62598 77.78206 65.80657
#
# Poissons Ratio (x) = 0.46105 -0.17576
# Poissons Ratio (y) = 0.37121 0.20768
# Poissons Ratio (z) = -0.16727 0.24547
#
# Static dielectric constant tensor:
#      x y z
#    x 1.895640 -0.002400 -0.052670 
#    y -0.002400 1.849890 -0.001360 
#    z -0.052670 -0.001360 1.994580 
# 
# From -- ./inp_files/508183.got.cif
#   From: 2010.05.17/outbox.cif.g08.bks.cpg/sg2_255_cif.got.tgz:508183.got - 2010.06.03 11:33:40.
