data_PCOD9048372
_publ_section_title
;
Structure prediction by ZEFSAII (Michael W. Deem and Ramdas Pophale) SiO2 
 PCOD9048372
Probable space group: P -1
;
_chemical_formula_sum "Si O2"
_cell_formula_units_Z 14
_cell_length_a 11.330796
_cell_length_b 12.863109
_cell_length_c 11.104948
_cell_angle_alpha 55.120306
_cell_angle_beta 40.133978
_cell_angle_gamma 34.498833
_cell_volume 583.333871
_symmetry_space_group_name_H-M "P -1"
_symmetry_group_IT_number 2
_symmetry_cell_setting 'triclinic'
loop_
_space_group_symop_operation_xyz
x,y,z
-x,-y,-z
loop_
_atom_site_type_symbol
_atom_site_label
_atom_site_fract_x
_atom_site_fract_y
_atom_site_fract_z
Si Si1 0.872753 0.283161 0.684839
Si Si2 0.944194 0.670435 0.887303
Si Si3 0.194718 0.939864 0.497148
Si Si4 0.248519 0.779436 0.929930
Si Si5 0.382735 0.603832 0.696811
Si Si6 0.499223 0.036645 0.133118
Si Si7 0.600756 0.834628 0.616301
O O1 0.668464 0.416901 0.648049
O O2 0.084881 0.290357 0.532269
O O3 0.740177 0.308003 0.897715
O O4 0.033211 0.081091 0.641587
O O5 0.745109 0.759723 0.869373
O O6 0.236960 0.583098 0.732072
O O7 0.000000 0.500000 0.000000
O O8 0.767136 0.870977 0.960474
O O9 0.374807 0.739039 0.543560
O O10 0.380234 0.957136 0.293604
O O11 0.000000 0.000000 0.500000
O O12 0.221713 0.704829 0.882630
O O13 0.504703 0.741147 0.723798
O O14 0.000000 0.000000 0.000000
O O15 0.543791 0.070078 0.206399
O O16 0.500000 0.000000 0.500000
#
# Coordination Sequence:
#
# PCOD9048372 Si02
#       7
#     2   2   2   2   2   2   2
#     4  11  27  44  68 107 140 181 235 286 351 416
#     4  11  26  43  69 101 137 180 227 287 345 409
#     4  11  23  44  70  94 136 186 224 282 344 408
#     4  12  22  45  76  96 139 186 227 290 347 411
#     4  12  26  45  70 104 137 179 234 289 347 410
#     4  10  24  45  68 100 133 180 230 278 347 414
#     4  11  23  44  72 101 139 182 229 282 349 413
#
# _framework density 23.999976
#
# number of rings (size 3 to 8) (size 9 to 14) (size 15 to 20)
#    0.000    0.857    4.286    2.143    4.000    3.429 
#    0.000    0.000    0.000    0.000    0.000    0.000 
#    0.000    0.000    0.000    0.000    0.000    0.000 
#
# Total GULP energy -78208.415345 kJ/mol
# GULP energy per Si atom -5586.315382 kJ/mol
# Density = 2.394535 g / cm^3
# Si number density = 23.999976 Si / 1000 Ang^3
#
#
#
# Elastic Constant Matrix: (Units=GPa)
#
#
# Indices 1 2 3 4 5 6 
#
# 1 87.9407 16.0636 21.5098 2.9204 3.0195 -15.2113
# 2 16.0636 142.1168 43.5948 -13.9331 -8.4919 -29.1092
# 3 21.5098 43.5948 75.9416 -12.0331 -0.3497 -9.9212
# 4 2.9204 -13.9331 -12.0331 43.6221 -1.6246 5.9398
# 5 3.0195 -8.4919 -0.3497 -1.6246 49.3138 0.8423
# 6 -15.2113 -29.1092 -9.9212 5.9398 0.8423 42.4119
#
#
#
# Elastic Compliance Matrix: (Units=1/GPa)
#
#
# Indices 1 2 3 4 5 6 
#
# 1 0.013093 0.000244 -0.003669 -0.002440 -0.000941 0.004366
# 2 0.000244 0.009814 -0.004800 0.001102 0.001583 0.005514
# 3 -0.003669 -0.004800 0.017402 0.003642 -0.000341 -0.001043
# 4 -0.002440 0.001102 0.003642 0.024868 0.001232 -0.002774
# 5 -0.000941 0.001583 -0.000341 0.001232 0.020645 0.000087
# 6 0.004366 0.005514 -0.001043 -0.002774 0.000087 0.029072
#
#
# Mechanical properties :
#
#
# Convention : Reuss Voigt Hill
#
# Bulk Modulus (GPa) = 41.91506 52.03730 46.97618
# Shear Modulus (GPa) = 35.89477 42.05829 38.97653
#
# Velocity S-wave (km/s) = 3.87152 4.19075 4.03429
# Velocity P-wave (km/s) = 6.12269 6.71906 6.42780
#
# Compressibility (1/GPa) = 0.02385777
#
# Stress axis : x y z
#
# Youngs Moduli (GPa) = 76.37908 101.90038 57.46373
#
# Poissons Ratio (x) = -0.02491 0.21085
# Poissons Ratio (y) = -0.01867 0.27585
# Poissons Ratio (z) = 0.28026 0.48917
#
# Static dielectric constant tensor:
#      x y z
#    x 1.887250 -0.278810 -0.178170 
#    y -0.278810 1.392370 -0.449640 
#    z -0.178170 -0.449640 1.298140 
# 
# From -- ./inp_files/428002.got.cif
#   From: 2010.05.17/outbox.cif.g08.bks.cpg/sg2_215_cif.got.tgz:428002.got - 2010.06.03 11:33:40.
