data_PCOD9048485
_publ_section_title
;
Structure prediction by ZEFSAII (Michael W. Deem and Ramdas Pophale) SiO2 
 PCOD9048485
Probable space group: P -1
;
_chemical_formula_sum "Si O2"
_cell_formula_units_Z 14
_cell_length_a 16.954435
_cell_length_b 5.485391
_cell_length_c 12.572339
_cell_angle_alpha 100.243657
_cell_angle_beta 149.403961
_cell_angle_gamma 74.418692
_cell_volume 569.848572
_symmetry_space_group_name_H-M "P -1"
_symmetry_group_IT_number 2
_symmetry_cell_setting 'triclinic'
loop_
_space_group_symop_operation_xyz
x,y,z
-x,-y,-z
loop_
_atom_site_type_symbol
_atom_site_label
_atom_site_fract_x
_atom_site_fract_y
_atom_site_fract_z
Si Si1 0.417460 0.633853 0.771905
Si Si2 0.002941 0.848623 0.602502
Si Si3 0.749289 0.547012 0.258646
Si Si4 0.753887 0.007029 0.726194
Si Si5 0.172278 0.170260 0.961026
Si Si6 0.520711 0.955698 0.280364
Si Si7 0.947518 0.360677 0.029593
O O1 0.273612 0.640011 0.686778
O O2 0.397724 0.858027 0.681007
O O3 0.452160 0.341519 0.744251
O O4 0.571807 0.661133 0.020797
O O5 0.146708 0.601847 0.727832
O O6 0.843099 0.751519 0.422549
O O7 0.000000 0.000000 0.500000
O O8 0.052287 0.010297 0.766466
O O9 0.777764 0.896007 0.864037
O O10 0.901204 0.877387 0.808832
O O11 0.595957 0.970959 0.484972
O O12 0.783960 0.285906 0.801640
O O13 0.332928 0.087823 0.073303
O O14 0.084079 0.465508 0.889933
O O15 0.000000 0.500000 0.000000
#
# Coordination Sequence:
#
# PCOD9048485 Si02
#       7
#     2   2   2   2   2   2   2
#     4  11  27  47  76 107 152 192 245 305 366 442
#     4  11  24  44  74 107 141 191 249 302 368 435
#     4  10  25  47  72 104 147 191 247 301 370 431
#     4  10  24  45  69 103 145 192 244 296 373 440
#     4  11  24  44  73 105 149 188 247 308 368 431
#     4  12  27  45  76 111 148 195 247 297 375 440
#     4   9  22  43  67  98 142 190 238 299 358 438
#
# _framework density 24.56793
#
# number of rings (size 3 to 8) (size 9 to 14) (size 15 to 20)
#    0.000    1.429    1.429    1.286    8.000    8.571 
#    0.000    0.000    0.000    0.000    0.000    0.000 
#    0.000    0.000    0.000    0.000    0.000    0.000 
#
# Total GULP energy -78335.049753 kJ/mol
# GULP energy per Si atom -5595.360697 kJ/mol
# Density = 2.451201 g / cm^3
# Si number density = 24.567930 Si / 1000 Ang^3
#
#
#
# Elastic Constant Matrix: (Units=GPa)
#
#
# Indices 1 2 3 4 5 6 
#
# 1 112.9310 50.1652 30.7381 14.0111 0.6205 4.6508
# 2 50.1652 120.1912 49.8464 35.4854 1.5492 -13.4655
# 3 30.7381 49.8464 135.7984 35.6766 0.4665 7.3547
# 4 14.0111 35.4854 35.6766 41.3736 9.6534 -8.2959
# 5 0.6205 1.5492 0.4665 9.6534 33.9377 0.5246
# 6 4.6508 -13.4655 7.3547 -8.2959 0.5246 49.8803
#
#
#
# Elastic Compliance Matrix: (Units=1/GPa)
#
#
# Indices 1 2 3 4 5 6 
#
# 1 0.011201 -0.004737 -0.000840 0.000601 -0.000115 -0.002098
# 2 -0.004737 0.013939 -0.002001 -0.008435 0.001830 0.003077
# 3 -0.000840 -0.002001 0.010698 -0.008488 0.002428 -0.003477
# 4 0.000601 -0.008435 -0.008488 0.042471 -0.011684 0.006105
# 5 -0.000115 0.001830 0.002428 -0.011684 0.032708 -0.002141
# 6 -0.002098 0.003077 -0.003477 0.006105 -0.002141 0.022625
#
#
# Mechanical properties :
#
#
# Convention : Reuss Voigt Hill
#
# Bulk Modulus (GPa) = 48.35429 70.04669 59.20049
# Shear Modulus (GPa) = 32.11473 40.91638 36.51555
#
# Velocity S-wave (km/s) = 3.61942 4.08541 3.85945
# Velocity P-wave (km/s) = 6.09848 7.12933 6.63396
#
# Compressibility (1/GPa) = 0.02068069
#
# Stress axis : x y z
#
# Youngs Moduli (GPa) = 89.28136 71.74200 93.47163
#
# Poissons Ratio (x) = 0.33987 0.07853
# Poissons Ratio (y) = 0.42296 0.18704
# Poissons Ratio (z) = 0.07501 0.14356
#
# Static dielectric constant tensor:
#      x y z
#    x 1.969670 -0.013890 0.005780 
#    y -0.013890 2.070080 -0.069100 
#    z 0.005780 -0.069100 1.931450 
# 
# From -- ./inp_files/84374.got.cif
#   From: 2010.05.17/outbox.cif.g08.bks.cpg/sg2_43_cif.got.tgz:84374.got - 2010.06.03 11:33:40.
