data_PCOD9048510
_publ_section_title
;
Structure prediction by ZEFSAII (Michael W. Deem and Ramdas Pophale) SiO2 
 PCOD9048510
Probable space group: P -1
;
_chemical_formula_sum "Si O2"
_cell_formula_units_Z 16
_cell_length_a 12.350341
_cell_length_b 6.864552
_cell_length_c 8.562581
_cell_angle_alpha 105.711260
_cell_angle_beta 71.002547
_cell_angle_gamma 98.084808
_cell_volume 659.648317
_symmetry_space_group_name_H-M "P -1"
_symmetry_group_IT_number 2
_symmetry_cell_setting 'triclinic'
loop_
_space_group_symop_operation_xyz
x,y,z
-x,-y,-z
loop_
_atom_site_type_symbol
_atom_site_label
_atom_site_fract_x
_atom_site_fract_y
_atom_site_fract_z
Si Si1 0.120824 0.768151 0.351209
Si Si2 0.541982 0.465747 0.674239
Si Si3 0.421964 0.175299 0.453600
Si Si4 0.157960 0.362952 0.070395
Si Si5 0.698794 0.335577 0.126558
Si Si6 0.746649 0.958247 0.217895
Si Si7 0.990682 0.064350 0.261609
Si Si8 0.369615 0.826050 0.205849
O O1 0.146480 0.538333 0.244225
O O2 0.041632 0.799312 0.544158
O O3 0.247048 0.867641 0.348826
O O4 0.069191 0.892086 0.257858
O O5 0.529503 0.278592 0.519575
O O6 0.619885 0.644595 0.597459
O O7 0.413940 0.541590 0.763627
O O8 0.587713 0.384090 0.795590
O O9 0.338750 0.107219 0.617779
O O10 0.451651 0.004218 0.277849
O O11 0.051031 0.209125 0.134042
O O12 0.192805 0.511638 0.938943
O O13 0.256379 0.202010 0.960438
O O14 0.731913 0.182341 0.210328
O O15 0.658166 0.198892 0.966522
O O16 0.874404 0.956893 0.227920
#
# Coordination Sequence:
#
# PCOD9048510 Si02
#       8
#     2   2   2   2   2   2   2   2
#     4  10  24  45  69 108 137 182 236 279 350 414
#     4  11  26  46  73 103 137 184 236 283 351 410
#     4  11  26  45  72 101 135 186 234 286 342 412
#     4  11  23  44  67 100 141 183 222 285 334 413
#     4  11  27  45  69 107 142 182 234 279 350 417
#     4  12  26  46  71 102 145 182 231 289 344 410
#     4  11  24  45  72 102 142 184 229 286 348 407
#     4  11  24  46  72 102 141 182 229 288 344 412
#
# _framework density 24.25535
#
# number of rings (size 3 to 8) (size 9 to 14) (size 15 to 20)
#    0.000    1.000    2.500    3.000    5.250    6.500 
#    2.250    0.000    0.000    0.000    0.000    0.000 
#    0.000    0.000    0.000    0.000    0.000    0.000 
#
# Total GULP energy -89303.522341 kJ/mol
# GULP energy per Si atom -5581.470146 kJ/mol
# Density = 2.420014 g / cm^3
# Si number density = 24.255350 Si / 1000 Ang^3
#
#
#
# Elastic Constant Matrix: (Units=GPa)
#
#
# Indices 1 2 3 4 5 6 
#
# 1 58.4243 38.6278 23.9610 -9.5973 -4.0238 -21.3004
# 2 38.6278 134.5459 53.4261 -16.3568 -8.0451 3.9373
# 3 23.9610 53.4261 98.4209 -3.3284 -20.5067 7.7229
# 4 -9.5973 -16.3568 -3.3284 53.0405 3.4140 -7.5617
# 5 -4.0238 -8.0451 -20.5067 3.4140 34.2578 -3.1701
# 6 -21.3004 3.9373 7.7229 -7.5617 -3.1701 29.1879
#
#
#
# Elastic Compliance Matrix: (Units=1/GPa)
#
#
# Indices 1 2 3 4 5 6 
#
# 1 0.039820 -0.008351 -0.007452 0.009054 0.000551 0.034564
# 2 -0.008351 0.011663 -0.004038 0.000995 -0.001359 -0.006489
# 3 -0.007452 -0.004038 0.016329 -0.003370 0.007428 -0.009281
# 4 0.009054 0.000995 -0.003370 0.022556 -0.001764 0.013017
# 5 0.000551 -0.001359 0.007428 -0.001764 0.033727 0.001826
# 6 0.034564 -0.006489 -0.009281 0.013017 0.001826 0.066386
#
#
# Mechanical properties :
#
#
# Convention : Reuss Voigt Hill
#
# Bulk Modulus (GPa) = 35.55062 58.15787 46.85425
# Shear Modulus (GPa) = 20.87325 34.98900 27.93112
#
# Velocity S-wave (km/s) = 2.93672 3.80218 3.39712
# Velocity P-wave (km/s) = 5.11739 6.58064 5.89460
#
# Compressibility (1/GPa) = 0.02812890
#
# Stress axis : x y z
#
# Youngs Moduli (GPa) = 25.11281 85.74107 61.24133
#
# Poissons Ratio (x) = 0.71601 0.45640
# Poissons Ratio (y) = 0.20971 0.24731
# Poissons Ratio (z) = 0.18715 0.34625
#
# Static dielectric constant tensor:
#      x y z
#    x 1.913450 0.052300 -0.024590 
#    y 0.052300 2.039710 0.017600 
#    z -0.024590 0.017600 1.971970 
# 
# From -- ./inp_files/288999.got.cif
#   From: 2010.05.17/outbox.cif.g08.bks.cpg/sg2_145_cif.got.tgz:288999.got - 2010.06.03 11:33:40.
