data_PCOD9048586
_publ_section_title
;
Structure prediction by ZEFSAII (Michael W. Deem and Ramdas Pophale) SiO2 
 PCOD9048586
Probable space group: P -1
;
_chemical_formula_sum "Si O2"
_cell_formula_units_Z 13
_cell_length_a 15.468265
_cell_length_b 8.119198
_cell_length_c 19.825063
_cell_angle_alpha 43.244159
_cell_angle_beta 19.831853
_cell_angle_gamma 52.396801
_cell_volume 547.714616
_symmetry_space_group_name_H-M "P -1"
_symmetry_group_IT_number 2
_symmetry_cell_setting 'triclinic'
loop_
_space_group_symop_operation_xyz
x,y,z
-x,-y,-z
loop_
_atom_site_type_symbol
_atom_site_label
_atom_site_fract_x
_atom_site_fract_y
_atom_site_fract_z
Si Si1 0.715847 0.837927 0.311659
Si Si2 0.263323 0.610066 0.817849
Si Si3 0.459309 0.196136 0.833937
Si Si4 0.500000 0.000000 0.000000
Si Si5 0.672116 0.030678 0.152318
Si Si6 0.063378 0.302748 0.370410
Si Si7 0.551691 0.547613 0.836891
O O1 0.510712 0.674202 0.565038
O O2 0.738203 0.130926 0.224170
O O3 0.615526 0.810481 0.316152
O O4 0.011573 0.819826 0.111560
O O5 0.292312 0.388487 0.910073
O O6 0.000000 0.500000 0.000000
O O7 0.414975 0.978468 0.987845
O O8 0.780324 0.342393 0.553415
O O9 0.375015 0.071199 0.859093
O O10 0.544348 0.303517 0.872662
O O11 0.488641 0.211040 0.242732
O O12 0.178872 0.362805 0.342856
O O13 0.293763 0.452009 0.105127
O O14 0.000000 0.000000 0.500000
#
# Coordination Sequence:
#
# PCOD9048586 Si02
#       7
#     2   2   2   1   2   2   2
#     4  10  24  45  70 102 139 181 234 286 355 410
#     4  11  23  46  69 102 138 178 228 296 351 408
#     4  12  24  44  69 102 139 184 230 284 345 413
#     4  12  26  42  66 104 140 182 228 282 352 406
#     4  11  22  45  72 101 138 189 234 285 344 425
#     4  11  21  44  67  93 134 184 232 274 339 417
#     4  11  23  43  67  98 138 179 230 285 341 419
#
# _framework density 23.734987
#
# number of rings (size 3 to 8) (size 9 to 14) (size 15 to 20)
#    0.000    0.923    4.615    2.769    0.000    1.231 
#    8.308    0.000    0.000    0.000    0.000    0.000 
#    0.000    0.000    0.000    0.000    0.000    0.000 
#
# Total GULP energy -72519.617560 kJ/mol
# GULP energy per Si atom -5578.432120 kJ/mol
# Density = 2.368097 g / cm^3
# Si number density = 23.734987 Si / 1000 Ang^3
#
#
#
# Elastic Constant Matrix: (Units=GPa)
#
#
# Indices 1 2 3 4 5 6 
#
# 1 159.0863 27.2560 23.4225 -2.2635 -16.8623 -22.1441
# 2 27.2560 106.3983 9.8454 -10.7254 -26.2720 -10.5422
# 3 23.4225 9.8454 52.6447 14.5813 -10.2987 -18.7407
# 4 -2.2635 -10.7254 14.5813 32.0653 -4.2763 -5.3801
# 5 -16.8623 -26.2720 -10.2987 -4.2763 38.5414 2.4610
# 6 -22.1441 -10.5422 -18.7407 -5.3801 2.4610 46.7138
#
#
#
# Elastic Compliance Matrix: (Units=1/GPa)
#
#
# Indices 1 2 3 4 5 6 
#
# 1 0.007366 -0.000659 -0.002418 0.002113 0.002202 0.002500
# 2 -0.000659 0.012664 -0.001342 0.006322 0.008542 0.002286
# 3 -0.002418 -0.001342 0.026866 -0.011052 0.003477 0.007873
# 4 0.002113 0.006322 -0.011052 0.039722 0.006546 0.002224
# 5 0.002202 0.008542 0.003477 0.006546 0.034176 0.003320
# 6 0.002500 0.002286 0.007873 0.002224 0.003320 0.026348
#
#
# Mechanical properties :
#
#
# Convention : Reuss Voigt Hill
#
# Bulk Modulus (GPa) = 26.27514 48.79746 37.53630
# Shear Modulus (GPa) = 29.64419 40.63779 35.14099
#
# Velocity S-wave (km/s) = 3.53790 4.14230 3.85197
# Velocity P-wave (km/s) = 5.27098 6.59410 5.96931
#
# Compressibility (1/GPa) = 0.03805879
#
# Stress axis : x y z
#
# Youngs Moduli (GPa) = 135.75224 78.96117 37.22144
#
# Poissons Ratio (x) = 0.05201 0.09002
# Poissons Ratio (y) = 0.08942 0.04995
# Poissons Ratio (z) = 0.32831 0.10596
#
# Static dielectric constant tensor:
#      x y z
#    x 1.974400 0.059280 0.002570 
#    y 0.059280 1.857600 0.053680 
#    z 0.002570 0.053680 1.841130 
# 
# From -- ./inp_files/28796.got.cif
#   From: 2010.05.17/outbox.cif.g08.bks.cpg/sg2_15_cif.got.tgz:28796.got - 2010.06.03 11:33:40.
