data_PCOD9048926
_publ_section_title
;
Structure prediction by ZEFSAII (Michael W. Deem and Ramdas Pophale) SiO2 
 PCOD9048926
Probable space group: P -1
;
_chemical_formula_sum "Si O2"
_cell_formula_units_Z 13
_cell_length_a 12.626281
_cell_length_b 11.507210
_cell_length_c 8.056057
_cell_angle_alpha 141.600266
_cell_angle_beta 129.694254
_cell_angle_gamma 40.446790
_cell_volume 469.058612
_symmetry_space_group_name_H-M "P -1"
_symmetry_group_IT_number 2
_symmetry_cell_setting 'triclinic'
loop_
_space_group_symop_operation_xyz
x,y,z
-x,-y,-z
loop_
_atom_site_type_symbol
_atom_site_label
_atom_site_fract_x
_atom_site_fract_y
_atom_site_fract_z
Si Si1 0.513568 0.417781 0.608567
Si Si2 0.846963 0.295552 0.495028
Si Si3 0.320287 0.382449 0.790594
Si Si4 0.782994 0.911850 0.002275
Si Si5 0.548306 0.023762 0.340392
Si Si6 0.000000 0.500000 0.000000
Si Si7 0.010568 0.217748 0.253980
O O1 0.500000 0.500000 0.500000
O O2 0.319573 0.546239 0.597038
O O3 0.597994 0.153837 0.414448
O O4 0.602343 0.496965 0.904597
O O5 0.994790 0.261943 0.486215
O O6 0.872680 0.411513 0.803618
O O7 0.840739 0.081062 0.288339
O O8 0.458300 0.206792 0.602374
O O9 0.146958 0.569959 0.751480
O O10 0.310947 0.213170 0.716272
O O11 0.590153 0.010363 0.909603
O O12 0.843907 0.840624 0.791546
O O13 0.863682 0.703759 0.971884
O O14 0.000000 0.000000 0.000000
#
# Coordination Sequence:
#
# PCOD9048926 Si02
#       7
#     2   2   2   2   2   1   2
#     4  12  26  46  70 102 146 190 235 290 355 424
#     4  11  24  48  68 102 144 182 238 294 338 433
#     4  11  24  45  75 103 142 182 241 294 356 414
#     4  11  24  46  72 105 140 185 235 296 354 415
#     4  11  24  45  76 105 137 187 239 302 349 413
#     4  12  24  42  72  96 148 186 226 278 370 404
#     4  10  24  45  76 105 138 185 236 294 353 419
#
# _framework density 27.715084999999998
#
# number of rings (size 3 to 8) (size 9 to 14) (size 15 to 20)
#    0.000    0.923    4.615    0.923    2.154    4.308 
#    2.769    0.000    0.000    0.000    0.000    0.000 
#    0.000    0.000    0.000    0.000    0.000    0.000 
#
# Total GULP energy -72679.883752 kJ/mol
# GULP energy per Si atom -5590.760289 kJ/mol
# Density = 2.765200 g / cm^3
# Si number density = 27.715085 Si / 1000 Ang^3
#
#
#
# Elastic Constant Matrix: (Units=GPa)
#
#
# Indices 1 2 3 4 5 6 
#
# 1 108.7002 40.2751 47.2334 2.0861 13.7936 17.5891
# 2 40.2751 163.2604 30.9922 41.2045 24.9144 40.0713
# 3 47.2334 30.9922 143.6045 22.7414 32.5866 4.4380
# 4 2.0861 41.2045 22.7414 44.4110 2.3957 13.7618
# 5 13.7936 24.9144 32.5866 2.3957 54.3359 2.2267
# 6 17.5891 40.0713 4.4380 13.7618 2.2267 43.5051
#
#
#
# Elastic Compliance Matrix: (Units=1/GPa)
#
#
# Indices 1 2 3 4 5 6 
#
# 1 0.012588 -0.002798 -0.004426 0.005415 0.000659 -0.003807
# 2 -0.002798 0.010893 0.001063 -0.008385 -0.004301 -0.006138
# 3 -0.004426 0.001063 0.010367 -0.006436 -0.005382 0.002064
# 4 0.005415 -0.008385 -0.006436 0.034623 0.005009 -0.005018
# 5 0.000659 -0.004301 -0.005382 0.005009 0.023155 0.001474
# 6 -0.003807 -0.006138 0.002064 -0.005018 0.001474 0.031480
#
#
# Mechanical properties :
#
#
# Convention : Reuss Voigt Hill
#
# Bulk Modulus (GPa) = 46.45719 72.50740 59.48229
# Shear Modulus (GPa) = 35.06266 48.25469 41.65868
#
# Velocity S-wave (km/s) = 3.56070 4.17717 3.88120
# Velocity P-wave (km/s) = 5.80548 7.03445 6.44931
#
# Compressibility (1/GPa) = 0.02152519
#
# Stress axis : x y z
#
# Youngs Moduli (GPa) = 79.44021 91.80494 96.46382
#
# Poissons Ratio (x) = 0.25687 0.42695
# Poissons Ratio (y) = 0.22227 -0.10253
# Poissons Ratio (z) = 0.35160 -0.09758
#
# Static dielectric constant tensor:
#      x y z
#    x 3.831140 -0.063350 -2.101040 
#    y -0.063350 2.085610 0.077530 
#    z -2.101040 0.077530 4.917530 
# 
# From -- ./inp_files/304448.got.cif
#   From: 2010.05.17/outbox.cif.g08.bks.cpg/sg2_153_cif.got.tgz:304448.got - 2010.06.03 11:33:40.
