data_PCOD9048797
_publ_section_title
;
Structure prediction by ZEFSAII (Michael W. Deem and Ramdas Pophale) SiO2 
 PCOD9048797
Probable space group: P -1
;
_chemical_formula_sum "Si O2"
_cell_formula_units_Z 15
_cell_length_a 11.716021
_cell_length_b 11.271409
_cell_length_c 9.027373
_cell_angle_alpha 139.996077
_cell_angle_beta 112.295969
_cell_angle_gamma 84.851946
_cell_volume 667.382105
_symmetry_space_group_name_H-M "P -1"
_symmetry_group_IT_number 2
_symmetry_cell_setting 'triclinic'
loop_
_space_group_symop_operation_xyz
x,y,z
-x,-y,-z
loop_
_atom_site_type_symbol
_atom_site_label
_atom_site_fract_x
_atom_site_fract_y
_atom_site_fract_z
Si Si1 0.000000 0.500000 0.500000
Si Si2 0.534143 0.738012 0.072768
Si Si3 0.327509 0.442961 0.255519
Si Si4 0.600424 0.100812 0.276544
Si Si5 0.087224 0.376431 0.863752
Si Si6 0.834158 0.752108 0.750114
Si Si7 0.709837 0.589199 0.238608
Si Si8 0.884019 0.141210 0.328553
O O1 0.947772 0.659303 0.711513
O O2 0.923587 0.332277 0.427260
O O3 0.577630 0.659691 0.867142
O O4 0.389350 0.605269 0.921629
O O5 0.629172 0.690974 0.195362
O O6 0.556296 0.964145 0.268870
O O7 0.387342 0.674556 0.478391
O O8 0.290370 0.386762 0.351687
O O9 0.186559 0.359309 0.022424
O O10 0.743483 0.106771 0.300461
O O11 0.500000 0.000000 0.000000
O O12 0.186926 0.472073 0.868842
O O13 0.988883 0.183147 0.553642
O O14 0.000000 0.500000 0.000000
O O15 0.786300 0.739784 0.545688
O O16 0.877020 0.959186 0.048452
#
# Coordination Sequence:
#
# PCOD9048797 Si02
#       8
#     1   2   2   2   2   2   2   2
#     4  12  24  44  66 104 152 176 238 296 350 430
#     4  10  24  49  68 102 145 186 244 289 361 428
#     4  11  24  44  74 103 141 192 235 296 358 425
#     4  12  25  43  72 108 137 186 245 290 356 430
#     4  11  22  46  71 101 145 186 236 292 352 431
#     4  12  24  45  71 110 142 187 240 295 362 426
#     4  10  24  45  73 101 145 192 231 301 358 419
#     4  12  26  45  69 109 143 191 240 292 368 423
#
# _framework density 22.475881999999999
#
# number of rings (size 3 to 8) (size 9 to 14) (size 15 to 20)
#    0.000    0.800    5.333    1.200    1.867    1.600 
#    2.400    6.000    0.000    0.000    0.000    0.000 
#    0.000    0.000    0.000    0.000    0.000    0.000 
#
# Total GULP energy -83678.030751 kJ/mol
# GULP energy per Si atom -5578.535383 kJ/mol
# Density = 2.242473 g / cm^3
# Si number density = 22.475882 Si / 1000 Ang^3
#
#
#
# Elastic Constant Matrix: (Units=GPa)
#
#
# Indices 1 2 3 4 5 6 
#
# 1 88.6234 10.6582 14.1611 -16.3983 7.4882 7.3507
# 2 10.6582 96.6910 40.1659 16.2178 11.1985 15.6715
# 3 14.1611 40.1659 109.5651 0.9266 6.9496 -9.1115
# 4 -16.3983 16.2178 0.9266 31.8939 3.5700 -10.1434
# 5 7.4882 11.1985 6.9496 3.5700 38.1617 1.3840
# 6 7.3507 15.6715 -9.1115 -10.1434 1.3840 26.1673
#
#
#
# Elastic Compliance Matrix: (Units=1/GPa)
#
#
# Indices 1 2 3 4 5 6 
#
# 1 0.013477 -0.002636 -0.000583 0.008966 -0.002647 0.001205
# 2 -0.002636 0.021458 -0.009147 -0.019014 -0.001516 -0.022586
# 3 -0.000583 -0.009147 0.013688 0.008429 -0.000981 0.013727
# 4 0.008966 -0.019014 0.008429 0.056676 -0.004250 0.033998
# 5 -0.002647 -0.001516 -0.000981 -0.004250 0.027810 -0.001808
# 6 0.001205 -0.022586 0.013727 0.033998 -0.001808 0.069458
#
#
# Mechanical properties :
#
#
# Convention : Reuss Voigt Hill
#
# Bulk Modulus (GPa) = 41.85759 47.20552 44.53155
# Shear Modulus (GPa) = 21.25294 34.57090 27.91192
#
# Velocity S-wave (km/s) = 3.07838 3.92616 3.52783
# Velocity P-wave (km/s) = 5.59455 6.44991 6.03740
#
# Compressibility (1/GPa) = 0.02389053
#
# Stress axis : x y z
#
# Youngs Moduli (GPa) = 74.20283 46.60299 73.05629
#
# Poissons Ratio (x) = 0.12284 0.04261
# Poissons Ratio (y) = 0.19559 0.66824
# Poissons Ratio (z) = 0.04328 0.42627
#
# Static dielectric constant tensor:
#      x y z
#    x 1.828550 0.006370 0.035490 
#    y 0.006370 1.856150 -0.034330 
#    z 0.035490 -0.034330 1.830670 
# 
# From -- ./inp_files/261157.got.cif
#   From: 2010.05.17/outbox.cif.g08.bks.cpg/sg2_131_cif.got.tgz:261157.got - 2010.06.03 11:33:40.
