data_PCOD9048095
_publ_section_title
;
Structure prediction by ZEFSAII (Michael W. Deem and Ramdas Pophale) SiO2 
 PCOD9048095
Probable space group: P -1
;
_chemical_formula_sum "Si O2"
_cell_formula_units_Z 16
_cell_length_a 9.170956
_cell_length_b 13.122092
_cell_length_c 9.151873
_cell_angle_alpha 119.740748
_cell_angle_beta 106.281597
_cell_angle_gamma 46.990395
_cell_volume 696.346213
_symmetry_space_group_name_H-M "P -1"
_symmetry_group_IT_number 2
_symmetry_cell_setting 'triclinic'
loop_
_space_group_symop_operation_xyz
x,y,z
-x,-y,-z
loop_
_atom_site_type_symbol
_atom_site_label
_atom_site_fract_x
_atom_site_fract_y
_atom_site_fract_z
Si Si1 0.942924 0.259599 0.249680
Si Si2 0.710595 0.253550 0.651680
Si Si3 0.656613 0.514073 0.119788
Si Si4 0.822632 0.537854 0.582325
Si Si5 0.993745 0.055828 0.345243
Si Si6 0.850527 0.444230 0.839174
Si Si7 0.764129 0.853491 0.360188
Si Si8 0.645182 0.837267 0.625442
O O1 0.826960 0.356322 0.141257
O O2 0.827858 0.399667 0.437395
O O3 0.941088 0.130132 0.223390
O O4 0.175492 0.181060 0.258559
O O5 0.488711 0.341049 0.710294
O O6 0.731845 0.382490 0.725936
O O7 0.795940 0.149715 0.456137
O O8 0.869932 0.127630 0.729215
O O9 0.500000 0.500000 0.000000
O O10 0.756484 0.533287 0.027781
O O11 0.846202 0.527866 0.755504
O O12 0.643249 0.713763 0.616435
O O13 0.000000 0.500000 0.500000
O O14 0.128755 0.089522 0.487614
O O15 0.077803 0.285779 0.800777
O O16 0.711735 0.798481 0.445583
O O17 0.565630 0.992380 0.321075
#
# Coordination Sequence:
#
# PCOD9048095 Si02
#       8
#     2   2   2   2   2   2   2   2
#     4  10  19  36  54  84 111 143 189 233 269 324
#     4   9  18  35  54  83 111 146 187 222 283 319
#     4  10  23  38  54  76 118 156 181 223 282 333
#     4  10  17  34  58  83 109 138 190 237 272 314
#     4   9  17  33  57  85 111 138 186 240 267 326
#     4  10  18  38  53  79 118 148 179 230 281 332
#     4   9  16  32  56  82 112 137 179 226 291 318
#     4   9  18  31  56  87 106 139 180 240 276 316
#
# _framework density 22.977074999999999
#
# number of rings (size 3 to 8) (size 9 to 14) (size 15 to 20)
#    0.000    2.500    5.000    0.000    1.750    0.500 
#    0.000    6.875    0.000    0.000    0.000    0.000 
#    0.000    0.000    0.000    0.000    0.000    0.000 
#
# Total GULP energy -89240.222953 kJ/mol
# GULP energy per Si atom -5577.513935 kJ/mol
# Density = 2.292478 g / cm^3
# Si number density = 22.977075 Si / 1000 Ang^3
#
#
#
# Elastic Constant Matrix: (Units=GPa)
#
#
# Indices 1 2 3 4 5 6 
#
# 1 83.6353 51.7637 47.0528 -6.7428 -22.9166 -9.2296
# 2 51.7637 158.9057 45.7743 -31.8719 -29.6637 -13.0738
# 3 47.0528 45.7743 73.7973 -13.9929 -28.4096 -11.1723
# 4 -6.7428 -31.8719 -13.9929 31.0411 -1.8385 -6.0711
# 5 -22.9166 -29.6637 -28.4096 -1.8385 39.7565 1.0858
# 6 -9.2296 -13.0738 -11.1723 -6.0711 1.0858 45.8386
#
#
#
# Elastic Compliance Matrix: (Units=1/GPa)
#
#
# Indices 1 2 3 4 5 6 
#
# 1 0.020788 -0.004603 -0.011518 -0.005528 0.000081 -0.000668
# 2 -0.004603 0.011765 0.001902 0.013282 0.007977 0.004463
# 3 -0.011518 0.001902 0.030275 0.015521 0.016934 0.007257
# 4 -0.005528 0.013282 0.015521 0.055441 0.020015 0.013327
# 5 0.000081 0.007977 0.016934 0.020015 0.043958 0.008028
# 6 -0.000668 0.004463 0.007257 0.013327 0.008028 0.026298
#
#
# Mechanical properties :
#
#
# Convention : Reuss Voigt Hill
#
# Bulk Modulus (GPa) = 29.07712 67.27997 48.17855
# Shear Modulus (GPa) = 21.88909 34.77708 28.33308
#
# Velocity S-wave (km/s) = 3.08985 3.89466 3.51537
# Velocity P-wave (km/s) = 5.04102 7.04056 6.12296
#
# Compressibility (1/GPa) = 0.03439130
#
# Stress axis : x y z
#
# Youngs Moduli (GPa) = 48.10538 85.00035 33.03051
#
# Poissons Ratio (x) = 0.39122 0.38043
# Poissons Ratio (y) = 0.22141 -0.06283
# Poissons Ratio (z) = 0.55406 -0.16168
#
# Static dielectric constant tensor:
#      x y z
#    x 1.942410 0.023950 0.031810 
#    y 0.023950 1.883010 0.011500 
#    z 0.031810 0.011500 1.923020 
# 
# From -- ./inp_files/270699.got.cif
#   From: 2010.05.17/outbox.cif.g08.bks.cpg/sg2_136_cif.got.tgz:270699.got - 2010.06.03 11:33:40.
