data_PCOD9048077
_publ_section_title
;
Structure prediction by ZEFSAII (Michael W. Deem and Ramdas Pophale) SiO2 
 PCOD9048077
Probable space group: P -1
;
_chemical_formula_sum "Si O2"
_cell_formula_units_Z 11
_cell_length_a 6.776189
_cell_length_b 11.014326
_cell_length_c 11.541361
_cell_angle_alpha 46.890242
_cell_angle_beta 122.153557
_cell_angle_gamma 95.524936
_cell_volume 479.991962
_symmetry_space_group_name_H-M "P -1"
_symmetry_group_IT_number 2
_symmetry_cell_setting 'triclinic'
loop_
_space_group_symop_operation_xyz
x,y,z
-x,-y,-z
loop_
_atom_site_type_symbol
_atom_site_label
_atom_site_fract_x
_atom_site_fract_y
_atom_site_fract_z
Si Si1 0.579677 0.857786 0.222404
Si Si2 0.247345 0.692439 0.306004
Si Si3 0.000000 0.500000 0.500000
Si Si4 0.426486 0.404910 0.147133
Si Si5 0.031774 0.926336 0.426387
Si Si6 0.008777 0.727158 0.959893
O O1 0.347057 0.851520 0.229631
O O2 0.715946 0.659178 0.334140
O O3 0.789909 0.881479 0.353641
O O4 0.500000 0.000000 0.000000
O O5 0.500000 0.500000 0.500000
O O6 0.075867 0.718755 0.120670
O O7 0.087561 0.665232 0.378825
O O8 0.695779 0.253455 0.379184
O O9 0.251312 0.561515 0.080495
O O10 0.500000 0.500000 0.000000
O O11 0.244312 0.308689 0.113279
O O12 0.000000 0.000000 0.500000
O O13 0.024552 0.085367 0.234488
#
# Coordination Sequence:
#
# PCOD9048077 Si02
#       6
#     2   2   1   2   2   2
#     4  11  25  46  73 108 145 188 242 304 364 439
#     4  10  24  44  73 104 142 186 248 303 357 438
#     4  10  26  46  70 102 142 194 242 294 368 418
#     4  11  26  44  75 103 143 199 238 298 363 438
#     4  12  26  47  73 110 148 191 241 301 369 441
#     4  11  25  48  70 106 147 190 247 299 367 437
#
# _framework density 22.91705
#
# number of rings (size 3 to 8) (size 9 to 14) (size 15 to 20)
#    0.000    1.091    3.636    0.545   10.182    2.182 
#    3.273    0.000    0.000    0.000    0.000    0.000 
#    0.000    0.000    0.000    0.000    0.000    0.000 
#
# Total GULP energy -61303.720874 kJ/mol
# GULP energy per Si atom -5573.065534 kJ/mol
# Density = 2.286489 g / cm^3
# Si number density = 22.917050 Si / 1000 Ang^3
#
#
#
# Elastic Constant Matrix: (Units=GPa)
#
#
# Indices 1 2 3 4 5 6 
#
# 1 166.9147 44.3813 46.0174 -1.2585 -11.4434 49.6323
# 2 44.3813 80.8464 70.1182 17.3901 0.7382 33.5004
# 3 46.0174 70.1182 146.4769 -3.3753 1.9252 17.0092
# 4 -1.2585 17.3901 -3.3753 40.2423 10.4394 2.1887
# 5 -11.4434 0.7382 1.9252 10.4394 34.4807 -9.3731
# 6 49.6323 33.5004 17.0092 2.1887 -9.3731 46.9193
#
#
#
# Elastic Compliance Matrix: (Units=1/GPa)
#
#
# Indices 1 2 3 4 5 6 
#
# 1 0.009222 0.000514 -0.002069 0.000249 0.000570 -0.009270
# 2 0.000514 0.039599 -0.016956 -0.017195 -0.000496 -0.021967
# 3 -0.002069 -0.016956 0.014853 0.008444 -0.001474 0.008222
# 4 0.000249 -0.017195 0.008444 0.035070 -0.009146 0.005489
# 5 0.000570 -0.000496 -0.001474 -0.009146 0.034098 0.007524
# 6 -0.009270 -0.021967 0.008222 0.005489 0.007524 0.045071
#
#
# Mechanical properties :
#
#
# Convention : Reuss Voigt Hill
#
# Bulk Modulus (GPa) = 37.51987 79.47466 58.49727
# Shear Modulus (GPa) = 22.33954 39.90986 31.12470
#
# Velocity S-wave (km/s) = 3.12557 4.17765 3.68930
# Velocity P-wave (km/s) = 5.42523 7.61741 6.61279
#
# Compressibility (1/GPa) = 0.02665254
#
# Stress axis : x y z
#
# Youngs Moduli (GPa) = 108.43406 25.25330 67.32665
#
# Poissons Ratio (x) = -0.01298 0.13927
# Poissons Ratio (y) = -0.05574 1.14160
# Poissons Ratio (z) = 0.22431 0.42820
#
# Static dielectric constant tensor:
#      x y z
#    x 1.822250 0.000000 -0.012320 
#    y 0.000000 1.880970 -0.009890 
#    z -0.012320 -0.009890 1.816490 
# 
# From -- ./inp_files/68074.got.cif
#   From: 2010.05.17/outbox.cif.g08.bks.cpg/sg2_35_cif.got.tgz:68074.got - 2010.06.03 11:33:40.
