data_PCOD9048558
_publ_section_title
;
Structure prediction by ZEFSAII (Michael W. Deem and Ramdas Pophale) SiO2 
 PCOD9048558
Probable space group: P -1
;
_chemical_formula_sum "Si O2"
_cell_formula_units_Z 16
_cell_length_a 13.797938
_cell_length_b 23.274062
_cell_length_c 6.907091
_cell_angle_alpha 50.774130
_cell_angle_beta 106.230791
_cell_angle_gamma 148.338885
_cell_volume 695.726287
_symmetry_space_group_name_H-M "P -1"
_symmetry_group_IT_number 2
_symmetry_cell_setting 'triclinic'
loop_
_space_group_symop_operation_xyz
x,y,z
-x,-y,-z
loop_
_atom_site_type_symbol
_atom_site_label
_atom_site_fract_x
_atom_site_fract_y
_atom_site_fract_z
Si Si1 0.140944 0.597914 0.570042
Si Si2 0.631920 0.403280 0.169703
Si Si3 0.017016 0.850257 0.451868
Si Si4 0.441603 0.375579 0.485827
Si Si5 0.001648 0.646104 0.553148
Si Si6 0.666924 0.008796 0.990496
Si Si7 0.223122 0.122656 0.235231
Si Si8 0.043624 0.271955 0.952424
O O1 0.219818 0.568094 0.731838
O O2 0.995016 0.553652 0.730839
O O3 0.000000 0.500000 0.500000
O O4 0.389904 0.808922 0.248155
O O5 0.523746 0.378863 0.339364
O O6 0.421685 0.236900 0.263508
O O7 0.815858 0.559844 0.780752
O O8 0.761556 0.704837 0.534715
O O9 0.202359 0.956024 0.164197
O O10 0.998684 0.768999 0.760491
O O11 0.124918 0.988918 0.342009
O O12 0.688836 0.581125 0.249213
O O13 0.330647 0.252989 0.860464
O O14 0.254522 0.853741 0.301145
O O15 0.940469 0.635419 0.326443
O O16 0.812964 0.088247 0.100071
O O17 0.000000 0.000000 0.500000
#
# Coordination Sequence:
#
# PCOD9048558 Si02
#       8
#     2   2   2   2   2   2   2   2
#     4  12  26  46  76 106 137 186 247 301 359 421
#     4  12  25  47  74 103 146 187 239 301 356 423
#     4  12  25  41  72 108 141 191 236 287 356 427
#     4  12  25  44  73 106 147 183 243 285 353 432
#     4  10  24  49  69  99 140 187 238 296 355 413
#     4  10  25  46  71  99 149 183 234 295 356 425
#     4  12  26  44  70 105 149 194 228 290 360 425
#     4  10  24  45  69  99 144 185 239 284 354 418
#
# _framework density 22.997548999999999
#
# number of rings (size 3 to 8) (size 9 to 14) (size 15 to 20)
#    0.750    0.000    2.500    4.500    5.250    0.500 
#    2.250    1.250    0.000    0.000    0.000    0.000 
#    0.000    0.000    0.000    0.000    0.000    0.000 
#
# Total GULP energy -89326.494522 kJ/mol
# GULP energy per Si atom -5582.905908 kJ/mol
# Density = 2.294521 g / cm^3
# Si number density = 22.997549 Si / 1000 Ang^3
#
#
#
# Elastic Constant Matrix: (Units=GPa)
#
#
# Indices 1 2 3 4 5 6 
#
# 1 95.3366 31.5439 16.3237 30.5685 -21.5134 -4.3886
# 2 31.5439 166.4402 31.9853 4.7252 -4.1493 14.0914
# 3 16.3237 31.9853 52.3925 10.3936 -12.0726 13.2824
# 4 30.5685 4.7252 10.3936 40.1892 5.3921 5.5982
# 5 -21.5134 -4.1493 -12.0726 5.3921 36.7093 5.7686
# 6 -4.3886 14.0914 13.2824 5.5982 5.7686 35.0596
#
#
#
# Elastic Compliance Matrix: (Units=1/GPa)
#
#
# Indices 1 2 3 4 5 6 
#
# 1 0.020674 -0.003713 0.001728 -0.018210 0.014314 0.003978
# 2 -0.003713 0.007538 -0.004394 0.003748 -0.003016 -0.001932
# 3 0.001728 -0.004394 0.028169 -0.008450 0.012498 -0.009397
# 4 -0.018210 0.003748 -0.008450 0.043613 -0.018731 -0.004466
# 5 0.014314 -0.003016 0.012498 -0.018731 0.043066 -0.005826
# 6 0.003978 -0.001932 -0.009397 -0.004466 -0.005826 0.035029
#
#
# Mechanical properties :
#
#
# Convention : Reuss Voigt Hill
#
# Bulk Modulus (GPa) = 22.92377 52.65278 37.78827
# Shear Modulus (GPa) = 24.34418 38.01273 31.17846
#
# Velocity S-wave (km/s) = 3.25707 4.07000 3.68602
# Velocity P-wave (km/s) = 4.91266 6.71053 5.88071
#
# Compressibility (1/GPa) = 0.04362285
#
# Stress axis : x y z
#
# Youngs Moduli (GPa) = 48.37071 132.65704 35.49978
#
# Poissons Ratio (x) = 0.49257 -0.06133
# Poissons Ratio (y) = 0.17961 0.15598
# Poissons Ratio (z) = -0.08357 0.58286
#
# Static dielectric constant tensor:
#      x y z
#    x 2.677370 -1.438220 0.239800 
#    y -1.438220 4.385190 -0.376860 
#    z 0.239800 -0.376860 1.957840 
# 
# From -- ./inp_files/101008.got.cif
#   From: 2010.05.17/outbox.cif.g08.bks.cpg/sg2_51_cif.got.tgz:101008.got - 2010.06.03 11:33:40.
