data_PCOD9048257
_publ_section_title
;
Structure prediction by ZEFSAII (Michael W. Deem and Ramdas Pophale) SiO2 
 PCOD9048257
Probable space group: P -1
;
_chemical_formula_sum "Si O2"
_cell_formula_units_Z 16
_cell_length_a 13.790002
_cell_length_b 10.871112
_cell_length_c 14.256523
_cell_angle_alpha 113.587882
_cell_angle_beta 136.601213
_cell_angle_gamma 35.464135
_cell_volume 747.069436
_symmetry_space_group_name_H-M "P -1"
_symmetry_group_IT_number 2
_symmetry_cell_setting 'triclinic'
loop_
_space_group_symop_operation_xyz
x,y,z
-x,-y,-z
loop_
_atom_site_type_symbol
_atom_site_label
_atom_site_fract_x
_atom_site_fract_y
_atom_site_fract_z
Si Si1 0.113554 0.381101 0.681370
Si Si2 0.679218 0.888801 0.866568
Si Si3 0.021726 0.550253 0.175909
Si Si4 0.236030 0.662284 0.407747
Si Si5 0.683428 0.512581 0.382378
Si Si6 0.240068 0.778561 0.806902
Si Si7 0.140164 0.032079 0.105251
Si Si8 0.213287 0.579834 0.876366
O O1 0.109163 0.546033 0.725468
O O2 0.093809 0.374072 0.778285
O O3 0.889915 0.468577 0.507556
O O4 0.379898 0.128620 0.746266
O O5 0.771167 0.722826 0.794612
O O6 0.786910 0.952267 0.936117
O O7 0.805119 0.728138 0.999171
O O8 0.158760 0.584724 0.281518
O O9 0.500000 0.500000 0.500000
O O10 0.269302 0.603002 0.522726
O O11 0.006198 0.947275 0.316174
O O12 0.694230 0.393124 0.271877
O O13 0.407214 0.798818 0.273842
O O14 0.192400 0.739043 0.858541
O O15 0.490996 0.671426 0.964778
O O16 0.953133 0.278446 0.104613
O O17 0.000000 0.000000 0.000000
#
# Coordination Sequence:
#
# PCOD9048257 Si02
#       8
#     2   2   2   2   2   2   2   2
#     4  11  24  46  68 103 138 179 227 287 342 414
#     4  11  24  43  74  96 141 181 228 284 343 412
#     4  10  24  45  64 106 132 183 230 276 347 409
#     4  11  25  43  67  97 141 178 228 288 343 407
#     4  11  26  45  68 101 136 180 229 282 353 411
#     4  11  24  43  67 102 134 185 230 276 351 405
#     4  12  25  45  70 103 137 179 235 283 342 415
#     4  11  24  43  72  99 138 179 230 288 335 413
#
# _framework density 21.417020000000001
#
# number of rings (size 3 to 8) (size 9 to 14) (size 15 to 20)
#    0.000    1.000    2.500    3.000    7.000    3.500 
#    0.000    0.000    0.000    0.000    0.000    0.000 
#    0.000    0.000    0.000    0.000    0.000    0.000 
#
# Total GULP energy -89471.392095 kJ/mol
# GULP energy per Si atom -5591.962006 kJ/mol
# Density = 2.136827 g / cm^3
# Si number density = 21.417020 Si / 1000 Ang^3
#
#
#
# Elastic Constant Matrix: (Units=GPa)
#
#
# Indices 1 2 3 4 5 6 
#
# 1 78.1294 32.7111 49.4719 -21.9004 22.4081 -14.6301
# 2 32.7111 74.9213 27.7567 -16.6826 17.6646 -10.6437
# 3 49.4719 27.7567 75.0725 -8.0948 17.8964 -11.3457
# 4 -21.9004 -16.6826 -8.0948 39.9054 1.2207 0.9409
# 5 22.4081 17.6646 17.8964 1.2207 42.9270 0.1230
# 6 -14.6301 -10.6437 -11.3457 0.9409 0.1230 32.8003
#
#
#
# Elastic Compliance Matrix: (Units=1/GPa)
#
#
# Indices 1 2 3 4 5 6 
#
# 1 0.030798 -0.001624 -0.014787 0.013336 -0.009645 0.007749
# 2 -0.001624 0.018531 -0.003143 0.006296 -0.005658 0.004043
# 3 -0.014787 -0.003143 0.024080 -0.004536 -0.000901 0.000848
# 4 0.013336 0.006296 -0.004536 0.034226 -0.008650 0.005473
# 5 -0.009645 -0.005658 -0.000901 -0.008650 0.031298 -0.006319
# 6 0.007749 0.004043 0.000848 0.005473 -0.006319 0.035416
#
#
# Mechanical properties :
#
#
# Convention : Reuss Voigt Hill
#
# Bulk Modulus (GPa) = 29.15229 49.77806 39.46517
# Shear Modulus (GPa) = 22.23326 31.00544 26.61935
#
# Velocity S-wave (km/s) = 3.22547 3.80899 3.52931
# Velocity P-wave (km/s) = 5.24527 6.52973 5.92242
#
# Compressibility (1/GPa) = 0.03430262
#
# Stress axis : x y z
#
# Youngs Moduli (GPa) = 32.47011 53.96383 41.52781
#
# Poissons Ratio (x) = 0.08763 0.61405
# Poissons Ratio (y) = 0.05273 0.13051
# Poissons Ratio (z) = 0.48012 0.16959
#
# Static dielectric constant tensor:
#      x y z
#    x 1.802880 0.009020 -0.017900 
#    y 0.009020 1.767950 0.030070 
#    z -0.017900 0.030070 1.758490 
# 
# From -- ./inp_files/532628.got.cif
#   From: 2010.05.17/outbox.cif.g08.bks.cpg/sg2_267_cif.got.tgz:532628.got - 2010.06.03 11:33:40.
