data_PCOD9048231
_publ_section_title
;
Structure prediction by ZEFSAII (Michael W. Deem and Ramdas Pophale) SiO2 
 PCOD9048231
Probable space group: P -1
;
_chemical_formula_sum "Si O2"
_cell_formula_units_Z 13
_cell_length_a 10.583668
_cell_length_b 9.837817
_cell_length_c 9.032142
_cell_angle_alpha 134.020466
_cell_angle_beta 127.443154
_cell_angle_gamma 80.729626
_cell_volume 477.335882
_symmetry_space_group_name_H-M "P -1"
_symmetry_group_IT_number 2
_symmetry_cell_setting 'triclinic'
loop_
_space_group_symop_operation_xyz
x,y,z
-x,-y,-z
loop_
_atom_site_type_symbol
_atom_site_label
_atom_site_fract_x
_atom_site_fract_y
_atom_site_fract_z
Si Si1 0.640175 0.063098 0.421469
Si Si2 0.613138 0.727680 0.678115
Si Si3 0.213238 0.097552 0.346258
Si Si4 0.000000 0.500000 0.000000
Si Si5 0.305605 0.452569 0.882829
Si Si6 0.803683 0.848007 0.186991
Si Si7 0.063272 0.632139 0.799871
O O1 0.495810 0.139308 0.330310
O O2 0.834788 0.266671 0.709847
O O3 0.648286 0.959076 0.505006
O O4 0.654305 0.904630 0.190809
O O5 0.500000 0.500000 0.500000
O O6 0.689845 0.721114 0.568868
O O7 0.780258 0.846477 0.995985
O O8 0.168049 0.230564 0.537799
O O9 0.089127 0.873085 0.008553
O O10 0.967680 0.519544 0.801175
O O11 0.254261 0.390155 0.972351
O O12 0.258329 0.639002 0.954558
O O13 0.500000 0.500000 0.000000
O O14 0.000000 0.000000 0.500000
O O15 0.000000 0.500000 0.500000
#
# Coordination Sequence:
#
# PCOD9048231 Si02
#       7
#     2   2   2   1   2   2   2
#     4  10  24  46  74 102 148 200 250 319 397 471
#     4  12  27  44  75 109 148 199 262 323 397 483
#     4  10  26  47  74 109 152 198 260 326 392 475
#     4  10  24  44  78 112 152 198 266 324 402 470
#     4  11  26  47  75 111 152 205 264 328 400 482
#     4  11  26  46  72 106 151 196 257 330 398 471
#     4  11  27  48  79 111 159 211 261 330 409 484
#
# _framework density 27.234491999999999
#
# number of rings (size 3 to 8) (size 9 to 14) (size 15 to 20)
#    0.000    1.231    0.000    2.769   19.385    3.077 
#    2.769    0.000    0.000    0.000    0.000    0.000 
#    0.000    0.000    0.000    0.000    0.000    0.000 
#
# Total GULP energy -72478.942165 kJ/mol
# GULP energy per Si atom -5575.303243 kJ/mol
# Density = 2.717251 g / cm^3
# Si number density = 27.234492 Si / 1000 Ang^3
#
#
#
# Elastic Constant Matrix: (Units=GPa)
#
#
# Indices 1 2 3 4 5 6 
#
# 1 55.0607 45.9279 18.6898 -6.4912 -13.4006 12.8461
# 2 45.9279 158.8974 50.2655 -9.6018 -10.0124 20.4290
# 3 18.6898 50.2655 144.1421 -8.8450 -18.4390 14.4022
# 4 -6.4912 -9.6018 -8.8450 48.1201 3.2102 -14.3690
# 5 -13.4006 -10.0124 -18.4390 3.2102 57.4866 1.1917
# 6 12.8461 20.4290 14.4022 -14.3690 1.1917 77.6722
#
#
#
# Elastic Compliance Matrix: (Units=1/GPa)
#
#
# Indices 1 2 3 4 5 6 
#
# 1 0.025621 -0.006718 -0.000070 0.001089 0.004767 -0.002329
# 2 -0.006718 0.009026 -0.002274 0.000294 -0.000723 -0.000776
# 3 -0.000070 -0.002274 0.008139 0.000645 0.002179 -0.000814
# 4 0.001089 0.000294 0.000645 0.022281 -0.000810 0.003758
# 5 0.004767 -0.000723 0.002179 -0.000810 0.019155 -0.001446
# 6 -0.002329 -0.000776 -0.000814 0.003758 -0.001446 0.014332
#
#
# Mechanical properties :
#
#
# Convention : Reuss Voigt Hill
#
# Bulk Modulus (GPa) = 40.54521 65.31852 52.93186
# Shear Modulus (GPa) = 40.03231 52.87023 46.45127
#
# Velocity S-wave (km/s) = 3.83810 4.41079 4.13438
# Velocity P-wave (km/s) = 5.87887 7.06937 6.50143
#
# Compressibility (1/GPa) = 0.02466383
#
# Stress axis : x y z
#
# Youngs Moduli (GPa) = 39.03017 110.78827 122.86258
#
# Poissons Ratio (x) = 0.74425 0.00861
# Poissons Ratio (y) = 0.26219 0.27934
# Poissons Ratio (z) = 0.00273 0.25189
#
# Static dielectric constant tensor:
#      x y z
#    x 1.684670 0.309230 -0.117740 
#    y 0.309230 1.862180 0.044190 
#    z -0.117740 0.044190 2.075980 
# 
# From -- ./inp_files/246227.got.cif
#   From: 2010.05.17/outbox.cif.g08.bks.cpg/sg2_124_cif.got.tgz:246227.got - 2010.06.03 11:33:40.
