data_PCOD9048479
_publ_section_title
;
Structure prediction by ZEFSAII (Michael W. Deem and Ramdas Pophale) SiO2 
 PCOD9048479
Probable space group: P -1
;
_chemical_formula_sum "Si O2"
_cell_formula_units_Z 16
_cell_length_a 8.627713
_cell_length_b 15.050780
_cell_length_c 11.859151
_cell_angle_alpha 151.651549
_cell_angle_beta 106.826171
_cell_angle_gamma 62.870092
_cell_volume 627.558418
_symmetry_space_group_name_H-M "P -1"
_symmetry_group_IT_number 2
_symmetry_cell_setting 'triclinic'
loop_
_space_group_symop_operation_xyz
x,y,z
-x,-y,-z
loop_
_atom_site_type_symbol
_atom_site_label
_atom_site_fract_x
_atom_site_fract_y
_atom_site_fract_z
Si Si1 0.371037 0.341560 0.400608
Si Si2 0.321494 0.256573 0.947374
Si Si3 0.798034 0.506365 0.254564
Si Si4 0.878809 0.373190 0.510755
Si Si5 0.031545 0.181743 0.654195
Si Si6 0.612759 0.066452 0.967204
Si Si7 0.348532 0.445229 0.958590
Si Si8 0.103558 0.962351 0.193070
O O1 0.374605 0.410957 0.606247
O O2 0.215627 0.540032 0.530409
O O3 0.322146 0.146534 0.187009
O O4 0.537766 0.251713 0.249993
O O5 0.443984 0.086694 0.874387
O O6 0.433262 0.275817 0.885117
O O7 0.161591 0.229150 0.818929
O O8 0.243675 0.464739 0.239320
O O9 0.734239 0.597873 0.220092
O O10 0.940971 0.590844 0.413843
O O11 0.888588 0.254559 0.002884
O O12 0.925552 0.136965 0.289009
O O13 0.115161 0.091723 0.449480
O O14 0.832343 0.374113 0.822348
O O15 0.000000 0.000000 0.500000
O O16 0.747975 0.080798 0.920472
O O17 0.500000 0.500000 0.000000
#
# Coordination Sequence:
#
# PCOD9048479 Si02
#       8
#     2   2   2   2   2   2   2   2
#     4  10  24  46  69  96 142 180 237 298 346 407
#     4  11  23  43  74  97 142 193 228 284 367 412
#     4  12  24  43  69 103 138 186 227 291 350 418
#     4  11  22  45  72  99 135 186 237 288 349 418
#     4  12  24  44  66 107 144 183 234 286 346 439
#     4  10  24  45  69 103 133 186 241 292 344 423
#     4  12  25  43  68 106 146 178 229 290 350 423
#     4  12  24  41  71 103 141 179 242 281 351 424
#
# _framework density 25.495633999999999
#
# number of rings (size 3 to 8) (size 9 to 14) (size 15 to 20)
#    0.000    0.750    5.000    2.250    0.000    2.500 
#    0.000    1.250    0.000    0.000    0.000    0.000 
#    0.000    0.000    0.000    0.000    0.000    0.000 
#
# Total GULP energy -89493.790002 kJ/mol
# GULP energy per Si atom -5593.361875 kJ/mol
# Density = 2.543760 g / cm^3
# Si number density = 25.495634 Si / 1000 Ang^3
#
#
#
# Elastic Constant Matrix: (Units=GPa)
#
#
# Indices 1 2 3 4 5 6 
#
# 1 84.1003 16.4624 20.3052 -9.7600 -1.8941 20.4809
# 2 16.4624 136.0384 40.7282 -0.7506 -10.8013 26.1966
# 3 20.3052 40.7282 103.4141 -7.3063 -17.4654 12.2795
# 4 -9.7600 -0.7506 -7.3063 36.0436 25.5659 -13.2932
# 5 -1.8941 -10.8013 -17.4654 25.5659 37.0802 -2.5459
# 6 20.4809 26.1966 12.2795 -13.2932 -2.5459 39.7418
#
#
#
# Elastic Compliance Matrix: (Units=1/GPa)
#
#
# Indices 1 2 3 4 5 6 
#
# 1 0.014182 -0.000228 -0.002374 0.003844 -0.003479 -0.005362
# 2 -0.000228 0.010183 -0.002399 -0.008321 0.006999 -0.008189
# 3 -0.002374 -0.002399 0.012362 -0.004690 0.008094 -0.002065
# 4 0.003844 -0.008321 -0.004690 0.077367 -0.055908 0.027249
# 5 -0.003479 0.006999 0.008094 -0.055908 0.069847 -0.019548
# 6 -0.005362 -0.008189 -0.002065 0.027249 -0.019548 0.041824
#
#
# Mechanical properties :
#
#
# Convention : Reuss Voigt Hill
#
# Bulk Modulus (GPa) = 37.41883 53.17161 45.29522
# Shear Modulus (GPa) = 20.43525 38.97693 29.70609
#
# Velocity S-wave (km/s) = 2.83418 3.91419 3.41712
# Velocity P-wave (km/s) = 5.04168 6.42871 5.77697
#
# Compressibility (1/GPa) = 0.02672451
#
# Stress axis : x y z
#
# Youngs Moduli (GPa) = 70.51220 98.19839 80.89474
#
# Poissons Ratio (x) = 0.02238 0.19205
# Poissons Ratio (y) = 0.01607 0.19409
# Poissons Ratio (z) = 0.16740 0.23561
#
# Static dielectric constant tensor:
#      x y z
#    x 2.093550 -0.083300 -0.055220 
#    y -0.083300 2.085720 0.051180 
#    z -0.055220 0.051180 2.060710 
# 
# From -- ./inp_files/400080.got.cif
#   From: 2010.05.17/outbox.cif.g08.bks.cpg/sg2_201_cif.got.tgz:400080.got - 2010.06.03 11:33:40.
