data_PCOD9048285
_publ_section_title
;
Structure prediction by ZEFSAII (Michael W. Deem and Ramdas Pophale) SiO2 
 PCOD9048285
Probable space group: P -1
;
_chemical_formula_sum "Si O2"
_cell_formula_units_Z 14
_cell_length_a 16.623321
_cell_length_b 13.642471
_cell_length_c 10.345328
_cell_angle_alpha 31.587041
_cell_angle_beta 142.223537
_cell_angle_gamma 152.164167
_cell_volume 567.169695
_symmetry_space_group_name_H-M "P -1"
_symmetry_group_IT_number 2
_symmetry_cell_setting 'triclinic'
loop_
_space_group_symop_operation_xyz
x,y,z
-x,-y,-z
loop_
_atom_site_type_symbol
_atom_site_label
_atom_site_fract_x
_atom_site_fract_y
_atom_site_fract_z
Si Si1 0.257629 0.687080 0.274895
Si Si2 0.406601 0.511427 0.058826
Si Si3 0.536921 0.792484 0.349474
Si Si4 0.360658 0.880092 0.661775
Si Si5 0.756206 0.899191 0.898291
Si Si6 0.060402 0.139548 0.630340
Si Si7 0.217827 0.037699 0.731393
O O1 0.346152 0.696596 0.243093
O O2 0.137232 0.405683 0.482113
O O3 0.430262 0.879050 0.366455
O O4 0.164668 0.794875 0.006379
O O5 0.444394 0.386486 0.352230
O O6 0.284043 0.294433 0.043144
O O7 0.333826 0.636863 0.880419
O O8 0.589077 0.728613 0.973796
O O9 0.656193 0.051148 0.292504
O O10 0.588892 0.818729 0.237801
O O11 0.249569 0.905671 0.396379
O O12 0.924255 0.997558 0.083198
O O13 0.883659 0.012917 0.472646
O O14 0.179200 0.165912 0.636228
#
# Coordination Sequence:
#
# PCOD9048285 Si02
#       7
#     2   2   2   2   2   2   2
#     4  10  20  37  59  85 109 141 192 231 272 326
#     4  10  17  34  58  86 115 137 182 236 285 321
#     4   9  21  36  57  88 111 142 188 234 275 327
#     4   9  20  33  60  87 109 141 182 239 283 319
#     4  10  18  34  54  86 112 141 188 227 276 332
#     4  11  23  39  57  81 115 154 186 224 276 335
#     4  11  24  39  56  80 117 155 185 224 278 332
#
# _framework density 24.683969999999999
#
# number of rings (size 3 to 8) (size 9 to 14) (size 15 to 20)
#    0.857    1.143    1.429    3.000    0.000    2.857 
#    0.000    2.857    0.000    1.714    0.000    0.000 
#    0.000    0.000    0.000    0.000    0.000    0.000 
#
# Total GULP energy -78236.044659 kJ/mol
# GULP energy per Si atom -5588.288904 kJ/mol
# Density = 2.462779 g / cm^3
# Si number density = 24.683970 Si / 1000 Ang^3
#
#
#
# Elastic Constant Matrix: (Units=GPa)
#
#
# Indices 1 2 3 4 5 6 
#
# 1 65.0104 7.4220 21.4758 -23.7164 19.0251 -8.0696
# 2 7.4220 43.8822 44.3296 5.6700 9.8010 -22.9349
# 3 21.4758 44.3296 181.6835 -3.4345 6.6247 -31.1659
# 4 -23.7164 5.6700 -3.4345 44.1067 -16.7994 4.3349
# 5 19.0251 9.8010 6.6247 -16.7994 33.0760 -8.1556
# 6 -8.0696 -22.9349 -31.1659 4.3349 -8.1556 27.4616
#
#
#
# Elastic Compliance Matrix: (Units=1/GPa)
#
#
# Indices 1 2 3 4 5 6 
#
# 1 0.021436 -0.001791 -0.001799 0.009005 -0.007051 -0.000754
# 2 -0.001791 0.053313 -0.006586 -0.016869 -0.013330 0.035228
# 3 -0.001799 -0.006586 0.007850 0.001257 0.002928 0.003551
# 4 0.009005 -0.016869 0.001257 0.036780 0.015480 -0.011224
# 5 -0.007051 -0.013330 0.002928 0.015480 0.045832 0.001286
# 6 -0.000754 0.035228 0.003551 -0.011224 0.001286 0.071798
#
#
# Mechanical properties :
#
#
# Convention : Reuss Voigt Hill
#
# Bulk Modulus (GPa) = 16.06508 48.55898 32.31203
# Shear Modulus (GPa) = 17.97852 35.41878 26.69865
#
# Velocity S-wave (km/s) = 2.70172 3.79210 3.29237
# Velocity P-wave (km/s) = 4.03173 6.23605 5.25087
#
# Compressibility (1/GPa) = 0.06224681
#
# Stress axis : x y z
#
# Youngs Moduli (GPa) = 46.65088 18.75703 127.39242
#
# Poissons Ratio (x) = 0.03360 0.22915
# Poissons Ratio (y) = 0.08356 0.83903
# Poissons Ratio (z) = 0.08391 0.12354
#
# Static dielectric constant tensor:
#      x y z
#    x 1.975000 0.031290 0.003130 
#    y 0.031290 1.983890 0.027460 
#    z 0.003130 0.027460 1.953200 
# 
# From -- ./inp_files/428906.got.cif
#   From: 2010.05.17/outbox.cif.g08.bks.cpg/sg2_215_cif.got.tgz:428906.got - 2010.06.03 11:33:40.
