data_PCOD9048576
_publ_section_title
;
Structure prediction by ZEFSAII (Michael W. Deem and Ramdas Pophale) SiO2 
 PCOD9048576
Probable space group: P -1
;
_chemical_formula_sum "Si O2"
_cell_formula_units_Z 10
_cell_length_a 9.545820
_cell_length_b 22.054143
_cell_length_c 14.731755
_cell_angle_alpha 16.012913
_cell_angle_beta 134.086645
_cell_angle_gamma 143.914416
_cell_volume 436.753330
_symmetry_space_group_name_H-M "P -1"
_symmetry_group_IT_number 2
_symmetry_cell_setting 'triclinic'
loop_
_space_group_symop_operation_xyz
x,y,z
-x,-y,-z
loop_
_atom_site_type_symbol
_atom_site_label
_atom_site_fract_x
_atom_site_fract_y
_atom_site_fract_z
Si Si1 0.933238 0.821657 0.822474
Si Si2 0.635358 0.984964 0.497858
Si Si3 0.231799 0.253744 0.671243
Si Si4 0.205733 0.873825 0.046700
Si Si5 0.912249 0.432664 0.238058
O O1 0.672771 0.749489 0.849753
O O2 0.000000 0.000000 0.500000
O O3 0.138124 0.953852 0.808645
O O4 0.910990 0.557995 0.152545
O O5 0.407702 0.865847 0.492058
O O6 0.500000 0.000000 0.500000
O O7 0.945731 0.306359 0.152516
O O8 0.500000 0.500000 0.500000
O O9 0.116574 0.391515 0.384257
O O10 0.222072 0.064398 0.860833
O O11 0.000000 0.000000 0.000000
O O12 0.000000 0.500000 0.500000
O O13 0.500000 0.000000 0.000000
#
# Coordination Sequence:
#
# PCOD9048576 Si02
#       5
#     2   2   2   2   2
#     4  10  24  45  70 101 141 185 231 286 348 417
#     4  11  23  40  64  96 132 176 226 285 342 405
#     4  12  25  45  70 101 139 186 234 289 350 418
#     4  12  27  47  73 105 141 186 237 290 352 421
#     4  11  23  41  64  95 132 177 227 284 342 405
#
# _framework density 22.896221000000001
#
# number of rings (size 3 to 8) (size 9 to 14) (size 15 to 20)
#    0.000    0.800    0.000    7.200    0.000   11.200 
#    0.000    0.000    0.000    0.000    0.000    0.000 
#    0.000    0.000    0.000    0.000    0.000    0.000 
#
# Total GULP energy -55741.275145 kJ/mol
# GULP energy per Si atom -5574.127515 kJ/mol
# Density = 2.284411 g / cm^3
# Si number density = 22.896221 Si / 1000 Ang^3
#
#
#
# Elastic Constant Matrix: (Units=GPa)
#
#
# Indices 1 2 3 4 5 6 
#
# 1 211.8060 80.3863 46.0016 -6.8192 53.8515 -17.0201
# 2 80.3863 185.5629 52.7883 -4.1884 15.6072 -4.2109
# 3 46.0016 52.7883 85.4588 -11.0083 11.1317 2.8985
# 4 -6.8192 -4.1884 -11.0083 39.3272 2.5091 4.6953
# 5 53.8515 15.6072 11.1317 2.5091 54.3034 -7.2216
# 6 -17.0201 -4.2109 2.8985 4.6953 -7.2216 59.4847
#
#
#
# Elastic Compliance Matrix: (Units=1/GPa)
#
#
# Indices 1 2 3 4 5 6 
#
# 1 0.007775 -0.002231 -0.001889 0.000845 -0.006548 0.001297
# 2 -0.002231 0.007264 -0.003497 -0.000675 0.000901 0.000209
# 3 -0.001889 -0.003497 0.015549 0.003933 -0.000750 -0.001947
# 4 0.000845 -0.000675 0.003933 0.027096 -0.003035 -0.002505
# 5 -0.006548 0.000901 -0.000750 -0.003035 0.025146 0.001519
# 6 0.001297 0.000209 -0.001947 -0.002505 0.001519 0.017674
#
#
# Mechanical properties :
#
#
# Convention : Reuss Voigt Hill
#
# Bulk Modulus (GPa) = 65.13606 93.46447 79.30027
# Shear Modulus (GPa) = 41.37145 50.86648 46.11897
#
# Velocity S-wave (km/s) = 4.25539 4.71851 4.49292
# Velocity P-wave (km/s) = 7.25635 8.40210 7.85016
#
# Compressibility (1/GPa) = 0.01535248
#
# Stress axis : x y z
#
# Youngs Moduli (GPa) = 128.62278 137.65892 64.31294
#
# Poissons Ratio (x) = 0.30717 0.12148
# Poissons Ratio (y) = 0.28701 0.22493
# Poissons Ratio (z) = 0.24296 0.48145
#
# Static dielectric constant tensor:
#      x y z
#    x 1.792350 -0.032060 -0.012480 
#    y -0.032060 1.851300 0.057970 
#    z -0.012480 0.057970 2.013480 
# 
# From -- ./inp_files/16986.got.cif
#   From: 2010.05.17/outbox.cif.g08.bks.cpg/sg2_9_cif.got.tgz:16986.got - 2010.06.03 11:33:40.
