data_PCOD9048360
_publ_section_title
;
Structure prediction by ZEFSAII (Michael W. Deem and Ramdas Pophale) SiO2 
 PCOD9048360
Probable space group: P -1
;
_chemical_formula_sum "Si O2"
_cell_formula_units_Z 14
_cell_length_a 14.965519
_cell_length_b 17.399808
_cell_length_c 5.599189
_cell_angle_alpha 55.825954
_cell_angle_beta 115.340705
_cell_angle_gamma 151.316806
_cell_volume 571.210585
_symmetry_space_group_name_H-M "P -1"
_symmetry_group_IT_number 2
_symmetry_cell_setting 'triclinic'
loop_
_space_group_symop_operation_xyz
x,y,z
-x,-y,-z
loop_
_atom_site_type_symbol
_atom_site_label
_atom_site_fract_x
_atom_site_fract_y
_atom_site_fract_z
Si Si1 0.642095 0.920537 0.799818
Si Si2 0.568951 0.513223 0.305768
Si Si3 0.041840 0.302906 0.150268
Si Si4 0.301701 0.867447 0.875577
Si Si5 0.387371 0.614394 0.692526
Si Si6 0.257160 0.629951 0.146190
Si Si7 0.002881 0.890833 0.200451
O O1 0.558016 0.775482 0.776519
O O2 0.669649 0.036636 0.475035
O O3 0.469644 0.799774 0.988420
O O4 0.837336 0.030453 0.915381
O O5 0.500000 0.500000 0.500000
O O6 0.532603 0.375534 0.462969
O O7 0.791181 0.698806 0.229302
O O8 0.500000 0.500000 0.000000
O O9 0.131693 0.450173 0.187588
O O10 0.978695 0.154760 0.453777
O O11 0.854640 0.205596 0.011080
O O12 0.221359 0.429796 0.966512
O O13 0.206731 0.697395 0.964361
O O14 0.500000 0.000000 0.000000
O O15 0.281985 0.621358 0.465469
O O16 0.000000 0.000000 0.000000
#
# Coordination Sequence:
#
# PCOD9048360 Si02
#       7
#     2   2   2   2   2   2   2
#     4  10  24  45  68 103 144 180 238 300 358 431
#     4  12  27  48  74 104 142 192 249 299 363 440
#     4  10  24  45  67  98 142 184 244 291 355 443
#     4  11  22  42  66 106 138 186 232 298 363 418
#     4  11  23  45  70  99 139 188 236 295 355 438
#     4  11  22  43  69  96 140 187 233 288 360 430
#     4  11  24  45  71 101 135 184 236 303 368 419
#
# _framework density 24.509352
#
# number of rings (size 3 to 8) (size 9 to 14) (size 15 to 20)
#    0.000    1.143    2.857    2.571    4.000    1.714 
#    5.143    3.571    0.000    0.000    0.000    0.000 
#    0.000    0.000    0.000    0.000    0.000    0.000 
#
# Total GULP energy -78166.544000 kJ/mol
# GULP energy per Si atom -5583.324571 kJ/mol
# Density = 2.445357 g / cm^3
# Si number density = 24.509352 Si / 1000 Ang^3
#
#
#
# Elastic Constant Matrix: (Units=GPa)
#
#
# Indices 1 2 3 4 5 6 
#
# 1 153.6801 44.5062 54.0755 1.9695 18.0618 -2.2277
# 2 44.5062 80.0911 10.6702 9.2514 -2.0135 20.7976
# 3 54.0755 10.6702 99.8997 -11.6611 21.5629 3.5813
# 4 1.9695 9.2514 -11.6611 37.4643 1.0654 12.8398
# 5 18.0618 -2.0135 21.5629 1.0654 38.0612 4.8971
# 6 -2.2277 20.7976 3.5813 12.8398 4.8971 47.7500
#
#
#
# Elastic Compliance Matrix: (Units=1/GPa)
#
#
# Indices 1 2 3 4 5 6 
#
# 1 0.010376 -0.006129 -0.004665 -0.001879 -0.003109 0.004328
# 2 -0.006129 0.018279 0.000501 -0.001283 0.004712 -0.008423
# 3 -0.004665 0.000501 0.014480 0.005630 -0.005807 -0.002440
# 4 -0.001879 -0.001283 0.005630 0.031755 -0.002191 -0.008265
# 5 -0.003109 0.004712 -0.005807 -0.002191 0.031921 -0.004446
# 6 0.004328 -0.008423 -0.002440 -0.008265 -0.004446 0.027674
#
#
# Mechanical properties :
#
#
# Convention : Reuss Voigt Hill
#
# Bulk Modulus (GPa) = 44.35147 61.35274 52.85210
# Shear Modulus (GPa) = 30.75256 39.61639 35.18448
#
# Velocity S-wave (km/s) = 3.54606 4.02478 3.79298
# Velocity P-wave (km/s) = 5.90771 6.83266 6.38695
#
# Compressibility (1/GPa) = 0.02254717
#
# Stress axis : x y z
#
# Youngs Moduli (GPa) = 96.37835 54.70773 69.06220
#
# Poissons Ratio (x) = 0.33531 0.32218
# Poissons Ratio (y) = 0.59072 -0.03457
# Poissons Ratio (z) = 0.44961 -0.02738
#
# Static dielectric constant tensor:
#      x y z
#    x 1.984280 -0.002610 0.043760 
#    y -0.002610 2.016420 0.063910 
#    z 0.043760 0.063910 2.090390 
# 
# From -- ./inp_files/99509.got.cif
#   From: 2010.05.17/outbox.cif.g08.bks.cpg/sg2_50_cif.got.tgz:99509.got - 2010.06.03 11:33:40.
