data_PCOD9048565
_publ_section_title
;
Structure prediction by ZEFSAII (Michael W. Deem and Ramdas Pophale) SiO2 
 PCOD9048565
Probable space group: P -1
;
_chemical_formula_sum "Si O2"
_cell_formula_units_Z 16
_cell_length_a 8.652322
_cell_length_b 13.637039
_cell_length_c 6.805148
_cell_angle_alpha 73.864147
_cell_angle_beta 102.494559
_cell_angle_gamma 70.068752
_cell_volume 680.739745
_symmetry_space_group_name_H-M "P -1"
_symmetry_group_IT_number 2
_symmetry_cell_setting 'triclinic'
loop_
_space_group_symop_operation_xyz
x,y,z
-x,-y,-z
loop_
_atom_site_type_symbol
_atom_site_label
_atom_site_fract_x
_atom_site_fract_y
_atom_site_fract_z
Si Si1 0.628411 0.050749 0.085051
Si Si2 0.240018 0.300755 0.454844
Si Si3 0.088651 0.186421 0.785150
Si Si4 0.658194 0.388043 0.198798
Si Si5 0.572198 0.177288 0.388425
Si Si6 0.019437 0.681371 0.959797
Si Si7 0.168525 0.897647 0.195533
Si Si8 0.831548 0.480094 0.535222
O O1 0.551215 0.124397 0.211188
O O2 0.804476 0.935583 0.215575
O O3 0.680182 0.126413 0.907604
O O4 0.500000 0.000000 0.000000
O O5 0.146294 0.263817 0.623279
O O6 0.409539 0.199428 0.472061
O O7 0.297141 0.394529 0.500156
O O8 0.103898 0.345690 0.210516
O O9 0.105145 0.206210 0.011812
O O10 0.890159 0.200928 0.721469
O O11 0.587791 0.295189 0.291959
O O12 0.743784 0.433273 0.372318
O O13 0.500000 0.500000 0.000000
O O14 0.818254 0.323805 0.123648
O O15 0.749691 0.086645 0.588693
O O16 0.104460 0.594883 0.209690
O O17 0.000000 0.000000 0.000000
O O18 0.000000 0.500000 0.500000
#
# Coordination Sequence:
#
# PCOD9048565 Si02
#       8
#     2   2   2   2   2   2   2   2
#     4  11  25  46  71 103 143 188 242 302 370 436
#     4  12  26  42  73 108 148 193 248 305 373 440
#     4  11  24  42  70 104 140 190 243 299 363 440
#     4  12  29  48  75 111 150 195 247 309 377 441
#     4  12  27  46  72 108 149 192 248 310 371 442
#     4  12  23  44  72 103 149 193 246 297 374 442
#     4  10  24  45  70 100 142 190 243 306 368 430
#     4  12  25  46  73 106 147 192 248 303 367 448
#
# _framework density 23.503841000000001
#
# number of rings (size 3 to 8) (size 9 to 14) (size 15 to 20)
#    0.000    0.500    2.500    4.875    1.750   11.000 
#    0.000    0.000    0.000    0.000    0.000    0.000 
#    0.000    0.000    0.000    0.000    0.000    0.000 
#
# Total GULP energy -89312.454520 kJ/mol
# GULP energy per Si atom -5582.028407 kJ/mol
# Density = 2.345035 g / cm^3
# Si number density = 23.503841 Si / 1000 Ang^3
#
#
#
# Elastic Constant Matrix: (Units=GPa)
#
#
# Indices 1 2 3 4 5 6 
#
# 1 128.7618 47.9932 66.0796 17.3158 -12.8014 8.2309
# 2 47.9932 106.7948 39.0470 22.9134 -4.7681 4.6590
# 3 66.0796 39.0470 107.4713 16.2837 0.3015 2.3252
# 4 17.3158 22.9134 16.2837 49.6969 -5.9543 1.4190
# 5 -12.8014 -4.7681 0.3015 -5.9543 42.1037 4.1464
# 6 8.2309 4.6590 2.3252 1.4190 4.1464 31.5105
#
#
#
# Elastic Compliance Matrix: (Units=1/GPa)
#
#
# Indices 1 2 3 4 5 6 
#
# 1 0.012987 -0.002967 -0.006797 -0.000379 0.003898 -0.002948
# 2 -0.002967 0.012324 -0.002038 -0.003958 0.000019 -0.000721
# 3 -0.006797 -0.002038 0.014475 -0.001812 -0.002801 0.001459
# 4 -0.000379 -0.003958 -0.001812 0.023020 0.002763 -0.000582
# 5 0.003898 0.000019 -0.002801 0.002763 0.025776 -0.004331
# 6 -0.002948 -0.000721 0.001459 -0.000582 -0.004331 0.033101
#
#
# Mechanical properties :
#
#
# Convention : Reuss Voigt Hill
#
# Bulk Modulus (GPa) = 61.79726 72.14081 66.96903
# Shear Modulus (GPa) = 33.18261 37.32277 35.25269
#
# Velocity S-wave (km/s) = 3.76146 3.98922 3.87702
# Velocity P-wave (km/s) = 6.72416 7.20960 6.97111
#
# Compressibility (1/GPa) = 0.01618195
#
# Stress axis : x y z
#
# Youngs Moduli (GPa) = 76.99736 81.14378 69.08296
#
# Poissons Ratio (x) = 0.24079 0.46956
# Poissons Ratio (y) = 0.22848 0.14078
# Poissons Ratio (z) = 0.52336 0.16536
#
# Static dielectric constant tensor:
#      x y z
#    x 1.925490 0.004760 0.032620 
#    y 0.004760 1.951380 -0.042470 
#    z 0.032620 -0.042470 1.916970 
# 
# From -- ./inp_files/38103.got.cif
#   From: 2010.05.17/outbox.cif.g08.bks.cpg/sg2_20_cif.got.tgz:38103.got - 2010.06.03 11:33:40.
