data_PCOD9048225
_publ_section_title
;
Structure prediction by ZEFSAII (Michael W. Deem and Ramdas Pophale) SiO2 
 PCOD9048225
Probable space group: P -1
;
_chemical_formula_sum "Si O2"
_cell_formula_units_Z 14
_cell_length_a 12.322498
_cell_length_b 21.929073
_cell_length_c 5.571662
_cell_angle_alpha 130.398089
_cell_angle_beta 127.507659
_cell_angle_gamma 26.950938
_cell_volume 517.543780
_symmetry_space_group_name_H-M "P -1"
_symmetry_group_IT_number 2
_symmetry_cell_setting 'triclinic'
loop_
_space_group_symop_operation_xyz
x,y,z
-x,-y,-z
loop_
_atom_site_type_symbol
_atom_site_label
_atom_site_fract_x
_atom_site_fract_y
_atom_site_fract_z
Si Si1 0.230550 0.329402 0.873609
Si Si2 0.378468 0.482505 0.915734
Si Si3 0.183793 0.009108 0.876886
Si Si4 0.647300 0.232841 0.326873
Si Si5 0.883048 0.745029 0.107393
Si Si6 0.204778 0.716538 0.715830
Si Si7 0.416324 0.955242 0.562370
O O1 0.208979 0.294056 0.010012
O O2 0.314071 0.212157 0.522122
O O3 0.463195 0.273836 0.010043
O O4 0.000000 0.500000 0.000000
O O5 0.462798 0.363323 0.591195
O O6 0.500000 0.500000 0.000000
O O7 0.513761 0.419785 0.192467
O O8 0.095181 0.627395 0.904541
O O9 0.192716 0.911786 0.705223
O O10 0.299768 0.970154 0.676851
O O11 0.311338 0.985460 0.229651
O O12 0.925423 0.175513 0.966739
O O13 0.804847 0.221752 0.371362
O O14 0.052603 0.710470 0.444480
O O15 0.669000 0.910467 0.186498
#
# Coordination Sequence:
#
# PCOD9048225 Si02
#       7
#     2   2   2   2   2   2   2
#     4  11  26  48  76 106 147 191 245 310 370 435
#     4  12  25  41  72 106 146 190 250 300 365 439
#     4  10  24  44  78 106 151 189 249 305 373 433
#     4  11  26  45  69 109 144 191 242 310 368 433
#     4  11  24  47  74 105 147 196 246 296 369 442
#     4  11  24  45  72 105 144 194 243 303 363 442
#     4  10  24  51  72 110 147 198 245 303 370 447
#
# _framework density 27.050851000000002
#
# number of rings (size 3 to 8) (size 9 to 14) (size 15 to 20)
#    0.000    1.143    1.429    3.000   10.000    1.143 
#    2.571    5.714    0.000    0.000    0.000    0.000 
#    0.000    0.000    0.000    0.000    0.000    0.000 
#
# Total GULP energy -78279.944549 kJ/mol
# GULP energy per Si atom -5591.424611 kJ/mol
# Density = 2.698928 g / cm^3
# Si number density = 27.050851 Si / 1000 Ang^3
#
#
#
# Elastic Constant Matrix: (Units=GPa)
#
#
# Indices 1 2 3 4 5 6 
#
# 1 109.1120 21.5627 17.7208 -9.1420 -23.3548 15.8235
# 2 21.5627 191.4364 62.6574 24.3621 -9.2902 0.1189
# 3 17.7208 62.6574 84.6664 29.3135 -12.9934 -12.3536
# 4 -9.1420 24.3621 29.3135 61.9347 -4.1335 -2.7554
# 5 -23.3548 -9.2902 -12.9934 -4.1335 46.4296 4.3694
# 6 15.8235 0.1189 -12.3536 -2.7554 4.3694 51.4084
#
#
#
# Elastic Compliance Matrix: (Units=1/GPa)
#
#
# Indices 1 2 3 4 5 6 
#
# 1 0.012034 -0.000476 -0.003241 0.003674 0.005828 -0.004780
# 2 -0.000476 0.007001 -0.005113 -0.000467 -0.000207 -0.001106
# 3 -0.003241 -0.005113 0.019920 -0.007545 0.001756 0.005243
# 4 0.003674 -0.000467 -0.007545 0.020465 0.001652 -0.001986
# 5 0.005828 -0.000207 0.001756 0.001652 0.025390 -0.003441
# 6 -0.004780 -0.001106 0.005243 -0.001986 -0.003441 0.022372
#
#
# Mechanical properties :
#
#
# Convention : Reuss Voigt Hill
#
# Bulk Modulus (GPa) = 46.96178 65.45519 56.20849
# Shear Modulus (GPa) = 37.89603 50.83946 44.36775
#
# Velocity S-wave (km/s) = 3.74694 4.33991 4.05428
# Velocity P-wave (km/s) = 6.00980 7.02586 6.53760
#
# Compressibility (1/GPa) = 0.02129391
#
# Stress axis : x y z
#
# Youngs Moduli (GPa) = 83.09841 142.84161 50.20164
#
# Poissons Ratio (x) = 0.06804 0.16272
# Poissons Ratio (y) = 0.03958 0.25666
# Poissons Ratio (z) = 0.26935 0.73028
#
# Static dielectric constant tensor:
#      x y z
#    x 2.039540 0.064600 0.038750 
#    y 0.064600 2.355720 -0.074400 
#    z 0.038750 -0.074400 2.241050 
# 
# From -- ./inp_files/83448.got.cif
#   From: 2010.05.17/outbox.cif.g08.bks.cpg/sg2_42_cif.got.tgz:83448.got - 2010.06.03 11:33:40.
