data_PCOD9048828
_publ_section_title
;
Structure prediction by ZEFSAII (Michael W. Deem and Ramdas Pophale) SiO2 
 PCOD9048828
Probable space group: P -1
;
_chemical_formula_sum "Si O2"
_cell_formula_units_Z 16
_cell_length_a 5.364533
_cell_length_b 7.422616
_cell_length_c 19.854837
_cell_angle_alpha 115.018852
_cell_angle_beta 57.448556
_cell_angle_gamma 110.736228
_cell_volume 595.530908
_symmetry_space_group_name_H-M "P -1"
_symmetry_group_IT_number 2
_symmetry_cell_setting 'triclinic'
loop_
_space_group_symop_operation_xyz
x,y,z
-x,-y,-z
loop_
_atom_site_type_symbol
_atom_site_label
_atom_site_fract_x
_atom_site_fract_y
_atom_site_fract_z
Si Si1 0.785244 0.381421 0.290577
Si Si2 0.192075 0.444124 0.829492
Si Si3 0.653441 0.127000 0.838974
Si Si4 0.805616 0.779544 0.988195
Si Si5 0.218376 0.054935 0.345167
Si Si6 0.343290 0.254267 0.139096
Si Si7 0.015246 0.301409 0.576263
Si Si8 0.657460 0.212028 0.481686
O O1 0.743626 0.522601 0.254660
O O2 0.488324 0.241710 0.338127
O O3 0.957340 0.519013 0.345617
O O4 0.994787 0.237472 0.204056
O O5 0.509768 0.518638 0.828797
O O6 0.977757 0.233301 0.835783
O O7 0.000268 0.606793 0.915461
O O8 0.694937 0.086925 0.748772
O O9 0.556135 0.908703 0.852334
O O10 0.404916 0.253536 0.921366
O O11 0.600780 0.783797 0.952460
O O12 0.000000 0.000000 0.000000
O O13 0.920419 0.151691 0.387351
O O14 0.136440 0.907951 0.398189
O O15 0.368618 0.296810 0.510207
O O16 0.830362 0.326035 0.539236
O O17 0.500000 0.000000 0.500000
#
# Coordination Sequence:
#
# PCOD9048828 Si02
#       8
#     2   2   2   2   2   2   2   2
#     4  11  25  43  68 104 139 182 233 294 349 424
#     4  11  24  45  65 100 140 176 233 285 348 429
#     4  12  23  42  72  97 133 187 228 289 354 419
#     4  11  23  46  67  95 143 176 228 290 352 422
#     4  11  23  44  70 101 141 182 232 291 361 420
#     4  11  25  43  67  98 138 182 230 293 347 419
#     4  11  25  47  74 104 147 188 238 298 364 433
#     4  10  24  45  73 106 144 189 236 299 363 433
#
# _framework density 26.866782000000001
#
# number of rings (size 3 to 8) (size 9 to 14) (size 15 to 20)
#    0.000    1.000    3.750    3.000    1.750    5.500 
#    4.500    0.000    0.000    0.000    0.000    0.000 
#    0.000    0.000    0.000    0.000    0.000    0.000 
#
# Total GULP energy -89631.512387 kJ/mol
# GULP energy per Si atom -5601.969524 kJ/mol
# Density = 2.680563 g / cm^3
# Si number density = 26.866782 Si / 1000 Ang^3
#
#
#
# Elastic Constant Matrix: (Units=GPa)
#
#
# Indices 1 2 3 4 5 6 
#
# 1 80.0761 31.0684 46.9722 -11.0459 9.3126 38.2377
# 2 31.0684 155.3108 44.7954 -19.3292 9.2919 29.7468
# 3 46.9722 44.7954 176.7142 -12.0962 -0.2750 11.2936
# 4 -11.0459 -19.3292 -12.0962 42.4828 17.1973 3.7550
# 5 9.3126 9.2919 -0.2750 17.1973 44.4090 3.1471
# 6 38.2377 29.7468 11.2936 3.7550 3.1471 44.3243
#
#
#
# Elastic Compliance Matrix: (Units=1/GPa)
#
#
# Indices 1 2 3 4 5 6 
#
# 1 0.032324 0.003619 -0.006613 0.015386 -0.011471 -0.029118
# 2 0.003619 0.009305 -0.002248 0.007325 -0.004914 -0.009066
# 3 -0.006613 -0.002248 0.007514 -0.002004 0.002304 0.005305
# 4 0.015386 0.007325 -0.002004 0.039621 -0.018718 -0.019706
# 5 -0.011471 -0.004914 0.002304 -0.018718 0.032372 0.011894
# 6 -0.029118 -0.009066 0.005305 -0.019706 0.011894 0.053238
#
#
# Mechanical properties :
#
#
# Convention : Reuss Voigt Hill
#
# Bulk Modulus (GPa) = 25.86658 73.08592 49.47625
# Shear Modulus (GPa) = 25.28537 45.52756 35.40647
#
# Velocity S-wave (km/s) = 3.07113 4.12098 3.63416
# Velocity P-wave (km/s) = 4.71427 7.06438 6.00541
#
# Compressibility (1/GPa) = 0.03865992
#
# Stress axis : x y z
#
# Youngs Moduli (GPa) = 30.93686 107.46795 133.08812
#
# Poissons Ratio (x) = -0.38898 0.88015
# Poissons Ratio (y) = -0.11198 0.29914
# Poissons Ratio (z) = 0.20459 0.24155
#
# Static dielectric constant tensor:
#      x y z
#    x 2.182560 -0.029400 -0.018220 
#    y -0.029400 2.032040 0.019670 
#    z -0.018220 0.019670 2.080700 
# 
# From -- ./inp_files/47187.got.cif
#   From: 2010.05.17/outbox.cif.g08.bks.cpg/sg2_24_cif.got.tgz:47187.got - 2010.06.03 11:33:40.
