data_PCOD9048973
_publ_section_title
;
Structure prediction by ZEFSAII (Michael W. Deem and Ramdas Pophale) SiO2 
 PCOD9048973
Probable space group: P -1
;
_chemical_formula_sum "Si O2"
_cell_formula_units_Z 14
_cell_length_a 11.937466
_cell_length_b 8.586613
_cell_length_c 7.908458
_cell_angle_alpha 102.300892
_cell_angle_beta 87.095939
_cell_angle_gamma 41.926875
_cell_volume 501.318165
_symmetry_space_group_name_H-M "P -1"
_symmetry_group_IT_number 2
_symmetry_cell_setting 'triclinic'
loop_
_space_group_symop_operation_xyz
x,y,z
-x,-y,-z
loop_
_atom_site_type_symbol
_atom_site_label
_atom_site_fract_x
_atom_site_fract_y
_atom_site_fract_z
Si Si1 0.879012 0.447487 0.698876
Si Si2 0.314461 0.848417 0.198277
Si Si3 0.555072 0.831584 0.614261
Si Si4 0.653117 0.700261 0.112874
Si Si5 0.985615 0.376068 0.206048
Si Si6 0.839967 0.064867 0.094570
Si Si7 0.736924 0.314195 0.518936
O O1 0.019009 0.430366 0.722678
O O2 0.890744 0.259580 0.574919
O O3 0.584111 0.958247 0.185113
O O4 0.759853 0.554057 0.900159
O O5 0.478147 0.788003 0.163272
O O6 0.320871 0.736769 0.338457
O O7 0.119001 0.149047 0.277801
O O8 0.307779 0.759394 0.999825
O O9 0.748925 0.671398 0.623202
O O10 0.500000 0.000000 0.500000
O O11 0.580181 0.614495 0.556900
O O12 0.790073 0.525619 0.218150
O O13 0.090625 0.193385 0.990146
O O14 0.791666 0.166559 0.309353
O O15 0.000000 0.000000 0.000000
#
# Coordination Sequence:
#
# PCOD9048973 Si02
#       7
#     2   2   2   2   2   2   2
#     4  10  24  51  79 123 164 228 286 349 427 504
#     4  10  25  51  84 122 177 223 272 362 426 508
#     4  10  24  45  79 117 165 215 279 353 412 510
#     4  12  24  52  83 119 172 225 293 341 433 514
#     4  10  25  49  87 120 163 235 278 353 430 506
#     4  10  25  51  82 123 173 219 280 350 432 508
#     4  10  25  50  87 129 166 225 285 348 439 504
#
# _framework density 27.926379000000001
#
# number of rings (size 3 to 8) (size 9 to 14) (size 15 to 20)
#    1.714    0.000    1.429    0.857    4.000    1.143 
#    5.143    7.143    3.143    0.000    0.000    0.000 
#    0.000    0.000    0.000    0.000    0.000    0.000 
#
# Total GULP energy -78347.071540 kJ/mol
# GULP energy per Si atom -5596.219396 kJ/mol
# Density = 2.786282 g / cm^3
# Si number density = 27.926379 Si / 1000 Ang^3
#
#
#
# Elastic Constant Matrix: (Units=GPa)
#
#
# Indices 1 2 3 4 5 6 
#
# 1 212.3751 52.1070 85.8765 -24.1023 7.4412 -17.1565
# 2 52.1070 152.7674 58.1592 -24.9644 9.5817 -10.6675
# 3 85.8765 58.1592 208.9895 -12.1023 18.9345 14.4344
# 4 -24.1023 -24.9644 -12.1023 62.4345 10.0747 7.3840
# 5 7.4412 9.5817 18.9345 10.0747 47.2835 -1.1352
# 6 -17.1565 -10.6675 14.4344 7.3840 -1.1352 33.5933
#
#
#
# Elastic Compliance Matrix: (Units=1/GPa)
#
#
# Indices 1 2 3 4 5 6 
#
# 1 0.006401 -0.000711 -0.002635 0.001209 0.000028 0.003910
# 2 -0.000711 0.008173 -0.001888 0.002544 -0.001272 0.002441
# 3 -0.002635 -0.001888 0.006983 0.000551 -0.002240 -0.005143
# 4 0.001209 0.002544 0.000551 0.018782 -0.005003 -0.003109
# 5 0.000028 -0.001272 -0.002240 -0.005003 0.023424 0.002464
# 6 0.003910 0.002441 -0.005143 -0.003109 0.002464 0.035517
#
#
# Mechanical properties :
#
#
# Convention : Reuss Voigt Hill
#
# Bulk Modulus (GPa) = 90.18563 107.37970 98.78266
# Shear Modulus (GPa) = 44.07393 53.86155 48.96774
#
# Velocity S-wave (km/s) = 3.97699 4.39646 4.19197
# Velocity P-wave (km/s) = 7.31114 8.01912 7.67330
#
# Compressibility (1/GPa) = 0.01108824
#
# Stress axis : x y z
#
# Youngs Moduli (GPa) = 156.23332 122.34850 143.20151
#
# Poissons Ratio (x) = 0.08702 0.37731
# Poissons Ratio (y) = 0.11113 0.27042
# Poissons Ratio (z) = 0.41165 0.23104
#
# Static dielectric constant tensor:
#      x y z
#    x 2.119040 -0.039420 0.068930 
#    y -0.039420 2.263630 0.084870 
#    z 0.068930 0.084870 2.291390 
# 
# From -- ./inp_files/295779.got.cif
#   From: 2010.05.17/outbox.cif.g08.bks.cpg/sg2_148_cif.got.tgz:295779.got - 2010.06.03 11:33:40.
