data_PCOD9048388
_publ_section_title
;
Structure prediction by ZEFSAII (Michael W. Deem and Ramdas Pophale) SiO2 
 PCOD9048388
Probable space group: P -1
;
_chemical_formula_sum "Si O2"
_cell_formula_units_Z 12
_cell_length_a 9.190202
_cell_length_b 11.847648
_cell_length_c 11.111509
_cell_angle_alpha 26.861203
_cell_angle_beta 120.880551
_cell_angle_gamma 122.478631
_cell_volume 459.285470
_symmetry_space_group_name_H-M "P -1"
_symmetry_group_IT_number 2
_symmetry_cell_setting 'triclinic'
loop_
_space_group_symop_operation_xyz
x,y,z
-x,-y,-z
loop_
_atom_site_type_symbol
_atom_site_label
_atom_site_fract_x
_atom_site_fract_y
_atom_site_fract_z
Si Si1 0.852654 0.689308 0.187434
Si Si2 0.770574 0.040973 0.001388
Si Si3 0.601970 0.023198 0.204904
Si Si4 0.368390 0.611899 0.921013
Si Si5 0.851463 0.887062 0.634783
Si Si6 0.213128 0.867013 0.417507
O O1 0.803609 0.396857 0.406948
O O2 0.054776 0.779075 0.149337
O O3 0.808047 0.766275 0.230565
O O4 0.756327 0.882532 0.888837
O O5 0.592404 0.087218 0.818819
O O6 0.723462 0.061290 0.102196
O O7 0.596403 0.282733 0.029910
O O8 0.682632 0.871038 0.487910
O O9 0.340391 0.844243 0.603460
O O10 0.500000 0.500000 0.000000
O O11 0.191252 0.398451 0.058303
O O12 0.925699 0.063883 0.614910
O O13 0.000000 0.000000 0.500000
#
# Coordination Sequence:
#
# PCOD9048388 Si02
#       6
#     2   2   2   2   2   2
#     4  11  24  46  76 104 144 193 250 298 370 437
#     4  10  24  46  66 102 144 198 241 301 356 447
#     4  10  24  45  68 101 150 188 248 298 374 432
#     4  11  25  44  75 111 145 190 244 313 376 437
#     4  11  25  44  75 111 145 190 244 313 376 437
#     4  11  24  44  76 106 142 187 244 308 368 435
#
# _framework density 26.127541000000001
#
# number of rings (size 3 to 8) (size 9 to 14) (size 15 to 20)
#    0.000    1.333    1.667    2.000    4.667    5.333 
#    6.000    1.667    0.000    0.000    0.000    0.000 
#    0.000    0.000    0.000    0.000    0.000    0.000 
#
# Total GULP energy -66804.105095 kJ/mol
# GULP energy per Si atom -5567.008758 kJ/mol
# Density = 2.606807 g / cm^3
# Si number density = 26.127541 Si / 1000 Ang^3
#
#
#
# Elastic Constant Matrix: (Units=GPa)
#
#
# Indices 1 2 3 4 5 6 
#
# 1 169.7641 69.1774 30.3745 -8.0905 -20.2991 -34.7065
# 2 69.1774 195.0441 72.6451 -11.2014 -6.3517 -49.2518
# 3 30.3745 72.6451 126.0712 2.8140 -6.2088 -10.2604
# 4 -8.0905 -11.2014 2.8140 47.1029 12.0427 1.7943
# 5 -20.2991 -6.3517 -6.2088 12.0427 23.3177 7.2956
# 6 -34.7065 -49.2518 -10.2604 1.7943 7.2956 64.7811
#
#
#
# Elastic Compliance Matrix: (Units=1/GPa)
#
#
# Indices 1 2 3 4 5 6 
#
# 1 0.007847 -0.002046 -0.000242 -0.000726 0.005972 0.001958
# 2 -0.002046 0.008877 -0.004432 0.002747 -0.003614 0.005282
# 3 -0.000242 -0.004432 0.010592 -0.002507 0.003364 -0.002131
# 4 -0.000726 0.002747 -0.002507 0.025511 -0.014421 0.002220
# 5 0.005972 -0.003614 0.003364 -0.014421 0.057020 -0.005038
# 6 0.001958 0.005282 -0.002131 0.002220 -0.005038 0.020670
#
#
# Mechanical properties :
#
#
# Convention : Reuss Voigt Hill
#
# Bulk Modulus (GPa) = 72.06053 92.80816 82.43435
# Shear Modulus (GPa) = 33.65129 48.28585 40.96857
#
# Velocity S-wave (km/s) = 3.59271 4.30360 3.96412
# Velocity P-wave (km/s) = 6.69704 7.76485 7.25063
#
# Compressibility (1/GPa) = 0.01387722
#
# Stress axis : x y z
#
# Youngs Moduli (GPa) = 127.43269 112.64839 94.40844
#
# Poissons Ratio (x) = 0.23046 0.02286
# Poissons Ratio (y) = 0.26070 0.41840
# Poissons Ratio (z) = 0.03086 0.49923
#
# Static dielectric constant tensor:
#      x y z
#    x 2.351680 0.058240 0.171700 
#    y 0.058240 2.198560 0.072300 
#    z 0.171700 0.072300 2.106520 
# 
# From -- ./inp_files/383798.got.cif
#   From: 2010.05.17/outbox.cif.g08.bks.cpg/sg2_192_cif.got.tgz:383798.got - 2010.06.03 11:33:40.
