data_PCOD9048683
_publ_section_title
;
Structure prediction by ZEFSAII (Michael W. Deem and Ramdas Pophale) SiO2 
 PCOD9048683
Probable space group: P -1
;
_chemical_formula_sum "Si O2"
_cell_formula_units_Z 14
_cell_length_a 11.973152
_cell_length_b 20.097368
_cell_length_c 19.598370
_cell_angle_alpha 20.469593
_cell_angle_beta 148.673966
_cell_angle_gamma 158.334743
_cell_volume 603.896922
_symmetry_space_group_name_H-M "P -1"
_symmetry_group_IT_number 2
_symmetry_cell_setting 'triclinic'
loop_
_space_group_symop_operation_xyz
x,y,z
-x,-y,-z
loop_
_atom_site_type_symbol
_atom_site_label
_atom_site_fract_x
_atom_site_fract_y
_atom_site_fract_z
Si Si1 0.635195 0.075948 0.620174
Si Si2 0.733180 0.961605 0.921624
Si Si3 0.706138 0.449854 0.132557
Si Si4 0.850021 0.372244 0.682686
Si Si5 0.832850 0.594022 0.805801
Si Si6 0.884237 0.968809 0.582923
Si Si7 0.268399 0.954694 0.868259
O O1 0.435556 0.143862 0.451606
O O2 0.994465 0.343550 0.541033
O O3 0.574221 0.940724 0.790988
O O4 0.512614 0.856792 0.709789
O O5 0.873375 0.225728 0.779816
O O6 0.508030 0.694569 0.105872
O O7 0.000000 0.000000 0.000000
O O8 0.928135 0.533681 0.229309
O O9 0.500000 0.500000 0.000000
O O10 0.954047 0.639332 0.018753
O O11 0.499698 0.131884 0.755055
O O12 0.845424 0.755593 0.719466
O O13 0.960812 0.780307 0.627328
O O14 0.000000 0.500000 0.000000
O O15 0.098871 0.054737 0.677608
O O16 0.500000 0.000000 0.000000
#
# Coordination Sequence:
#
# PCOD9048683 Si02
#       7
#     2   2   2   2   2   2   2
#     4  12  25  44  73 108 141 193 252 292 357 447
#     4  12  25  41  68 105 153 187 234 306 373 416
#     4  11  24  49  74  97 142 198 243 297 362 444
#     4  11  25  43  68 102 147 182 239 303 363 426
#     4  11  23  43  70 106 147 194 236 295 362 439
#     4  11  24  42  74 105 143 193 247 293 361 437
#     4  10  24  45  71 103 142 186 240 303 360 426
#
# _framework density 23.182763999999999
#
# number of rings (size 3 to 8) (size 9 to 14) (size 15 to 20)
#    0.000    0.857    1.429    5.143    6.000    0.000 
#    0.000    3.571    0.000    0.000    0.000    0.000 
#    0.000    0.000    0.000    0.000    0.000    0.000 
#
# Total GULP energy -78078.907518 kJ/mol
# GULP energy per Si atom -5577.064823 kJ/mol
# Density = 2.313000 g / cm^3
# Si number density = 23.182764 Si / 1000 Ang^3
#
#
#
# Elastic Constant Matrix: (Units=GPa)
#
#
# Indices 1 2 3 4 5 6 
#
# 1 78.9878 25.3970 47.8250 -28.6581 8.8677 4.4283
# 2 25.3970 98.8633 34.9049 -1.0131 18.2367 13.2358
# 3 47.8250 34.9049 138.9139 -30.5982 -2.8757 3.6012
# 4 -28.6581 -1.0131 -30.5982 81.2262 6.4937 -2.6035
# 5 8.8677 18.2367 -2.8757 6.4937 46.7925 -0.9802
# 6 4.4283 13.2358 3.6012 -2.6035 -0.9802 47.5031
#
#
#
# Elastic Compliance Matrix: (Units=1/GPa)
#
#
# Indices 1 2 3 4 5 6 
#
# 1 0.018525 -0.002287 -0.004766 0.004984 -0.003615 -0.000530
# 2 -0.002287 0.012990 -0.002802 -0.001435 -0.004673 -0.003369
# 3 -0.004766 -0.002802 0.009990 0.001878 0.002362 0.000619
# 4 0.004984 -0.001435 0.001878 0.014964 -0.002335 0.000565
# 5 -0.003615 -0.004673 0.002362 -0.002335 0.024385 0.001835
# 6 -0.000530 -0.003369 0.000619 0.000565 0.001835 0.022061
#
#
# Mechanical properties :
#
#
# Convention : Reuss Voigt Hill
#
# Bulk Modulus (GPa) = 45.88381 59.22433 52.55407
# Shear Modulus (GPa) = 38.49353 49.01357 43.75355
#
# Velocity S-wave (km/s) = 4.07927 4.60306 4.34906
# Velocity P-wave (km/s) = 6.48247 7.33846 6.92371
#
# Compressibility (1/GPa) = 0.02179418
#
# Stress axis : x y z
#
# Youngs Moduli (GPa) = 53.97991 76.98146 100.09829
#
# Poissons Ratio (x) = 0.17608 0.47711
# Poissons Ratio (y) = 0.12347 0.28048
# Poissons Ratio (z) = 0.25729 0.21570
#
# Static dielectric constant tensor:
#      x y z
#    x 1.934580 0.044140 -0.105530 
#    y 0.044140 2.048860 -0.010180 
#    z -0.105530 -0.010180 1.949920 
# 
# From -- ./inp_files/305779.got.cif
#   From: 2010.05.17/outbox.cif.g08.bks.cpg/sg2_153_cif.got.tgz:305779.got - 2010.06.03 11:33:40.
