data_PCOD9048334
_publ_section_title
;
Structure prediction by ZEFSAII (Michael W. Deem and Ramdas Pophale) SiO2 
 PCOD9048334
Probable space group: P -1
;
_chemical_formula_sum "Si O2"
_cell_formula_units_Z 16
_cell_length_a 18.946404
_cell_length_b 8.818824
_cell_length_c 7.111804
_cell_angle_alpha 73.539675
_cell_angle_beta 126.621193
_cell_angle_gamma 135.794073
_cell_volume 642.486956
_symmetry_space_group_name_H-M "P -1"
_symmetry_group_IT_number 2
_symmetry_cell_setting 'triclinic'
loop_
_space_group_symop_operation_xyz
x,y,z
-x,-y,-z
loop_
_atom_site_type_symbol
_atom_site_label
_atom_site_fract_x
_atom_site_fract_y
_atom_site_fract_z
Si Si1 0.825137 0.009895 0.236259
Si Si2 0.196021 0.801263 0.207155
Si Si3 0.407877 0.272956 0.549141
Si Si4 0.160736 0.672905 0.593256
Si Si5 0.830679 0.810826 0.767929
Si Si6 0.258083 0.564617 0.488695
Si Si7 0.589092 0.477931 0.073931
Si Si8 0.957423 0.756706 0.243663
O O1 0.716509 0.739764 0.137691
O O2 0.789338 0.106931 0.295665
O O3 0.953920 0.101352 0.484621
O O4 0.852174 0.140642 0.043833
O O5 0.153581 0.266853 0.985830
O O6 0.234311 0.671769 0.261264
O O7 0.329192 0.043861 0.394050
O O8 0.500000 0.500000 0.500000
O O9 0.296178 0.251685 0.436902
O O10 0.502662 0.306603 0.828217
O O11 0.239587 0.628375 0.638462
O O12 0.114614 0.675470 0.312659
O O13 0.082848 0.474101 0.692705
O O14 0.833393 0.687526 0.646158
O O15 0.944947 0.076833 0.826397
O O16 0.383674 0.626311 0.699198
O O17 0.500000 0.500000 0.000000
#
# Coordination Sequence:
#
# PCOD9048334 Si02
#       8
#     2   2   2   2   2   2   2   2
#     4  12  23  48  72 106 146 193 245 299 372 426
#     4  10  25  46  69 109 149 185 248 297 365 446
#     4  12  25  46  74 106 143 195 246 304 364 437
#     4  10  25  44  71 106 150 195 238 299 364 442
#     4  11  24  48  72 111 150 192 250 299 368 439
#     4  10  24  45  67 107 147 183 242 302 358 435
#     4  12  23  45  75  98 142 194 246 303 363 435
#     4  11  24  44  78 103 151 195 241 309 362 436
#
# _framework density 24.903231000000002
#
# number of rings (size 3 to 8) (size 9 to 14) (size 15 to 20)
#    0.750    0.250    3.750    2.625    1.750    1.500 
#    6.750    1.250    0.000    0.000    0.000    0.000 
#    0.000    0.000    0.000    0.000    0.000    0.000 
#
# Total GULP energy -89076.135872 kJ/mol
# GULP energy per Si atom -5567.258492 kJ/mol
# Density = 2.484655 g / cm^3
# Si number density = 24.903231 Si / 1000 Ang^3
#
#
#
# Elastic Constant Matrix: (Units=GPa)
#
#
# Indices 1 2 3 4 5 6 
#
# 1 76.9431 23.4815 8.0860 -1.8946 8.9343 -11.6943
# 2 23.4815 121.4021 41.9724 -17.4839 10.2697 -5.5318
# 3 8.0860 41.9724 205.6854 -31.2778 6.8137 4.7182
# 4 -1.8946 -17.4839 -31.2778 56.4203 -1.3335 -2.2795
# 5 8.9343 10.2697 6.8137 -1.3335 26.4452 -11.0537
# 6 -11.6943 -5.5318 4.7182 -2.2795 -11.0537 34.1877
#
#
#
# Elastic Compliance Matrix: (Units=1/GPa)
#
#
# Indices 1 2 3 4 5 6 
#
# 1 0.014607 -0.002442 -0.000121 -0.000234 -0.002362 0.003838
# 2 -0.002442 0.009740 -0.001509 0.002058 -0.002325 0.000334
# 3 -0.000121 -0.001509 0.005636 0.002571 -0.001235 -0.001291
# 4 -0.000234 0.002058 0.002571 0.019834 0.000148 0.001268
# 5 -0.002362 -0.002325 -0.001235 0.000148 0.045581 0.013733
# 6 0.003838 0.000334 -0.001291 0.001268 0.013733 0.035320
#
#
# Mechanical properties :
#
#
# Convention : Reuss Voigt Hill
#
# Bulk Modulus (GPa) = 45.79411 61.23449 53.51430
# Shear Modulus (GPa) = 34.21324 45.44336 39.82830
#
# Velocity S-wave (km/s) = 3.71057 4.27640 4.00349
# Velocity P-wave (km/s) = 6.06519 7.00184 6.55028
#
# Compressibility (1/GPa) = 0.02183687
#
# Stress axis : x y z
#
# Youngs Moduli (GPa) = 68.46202 102.67444 177.42824
#
# Poissons Ratio (x) = 0.25076 0.02152
# Poissons Ratio (y) = 0.16720 0.26776
# Poissons Ratio (z) = 0.00830 0.15495
#
# Static dielectric constant tensor:
#      x y z
#    x 2.193550 0.039430 -0.272410 
#    y 0.039430 2.138870 -0.226270 
#    z -0.272410 -0.226270 2.767280 
# 
# From -- ./inp_files/341653.got.cif
#   From: 2010.05.17/outbox.cif.g08.bks.cpg/sg2_171_cif.got.tgz:341653.got - 2010.06.03 11:33:40.
