data_PCOD9048877
_publ_section_title
;
Structure prediction by ZEFSAII (Michael W. Deem and Ramdas Pophale) SiO2 
 PCOD9048877
Probable space group: P -1
;
_chemical_formula_sum "Si O2"
_cell_formula_units_Z 16
_cell_length_a 20.348071
_cell_length_b 9.016170
_cell_length_c 7.555350
_cell_angle_alpha 80.829853
_cell_angle_beta 120.645507
_cell_angle_gamma 141.122185
_cell_volume 672.259428
_symmetry_space_group_name_H-M "P -1"
_symmetry_group_IT_number 2
_symmetry_cell_setting 'triclinic'
loop_
_space_group_symop_operation_xyz
x,y,z
-x,-y,-z
loop_
_atom_site_type_symbol
_atom_site_label
_atom_site_fract_x
_atom_site_fract_y
_atom_site_fract_z
Si Si1 0.234489 0.330347 0.627059
Si Si2 0.392545 0.065515 0.538206
Si Si3 0.770429 0.228484 0.284870
Si Si4 0.612334 0.688189 0.265905
Si Si5 0.937419 0.195341 0.317349
Si Si6 0.054005 0.223912 0.144841
Si Si7 0.607091 0.223049 0.957476
Si Si8 0.869136 0.346358 0.964969
O O1 0.335665 0.396183 0.632868
O O2 0.166667 0.341777 0.407194
O O3 0.127857 0.035818 0.605272
O O4 0.301910 0.510999 0.859579
O O5 0.436220 0.298430 0.633075
O O6 0.523403 0.169755 0.695904
O O7 0.299410 0.842111 0.606396
O O8 0.280465 0.915983 0.266241
O O9 0.919943 0.527127 0.460418
O O10 0.728983 0.986162 0.293391
O O11 0.691233 0.206888 0.041653
O O12 0.500000 0.500000 0.000000
O O13 0.950248 0.132257 0.156588
O O14 0.875883 0.259188 0.167852
O O15 0.103845 0.433289 0.041536
O O16 0.000000 0.000000 0.000000
O O17 0.500000 0.000000 0.000000
O O18 0.000000 0.500000 0.000000
#
# Coordination Sequence:
#
# PCOD9048877 Si02
#       8
#     2   2   2   2   2   2   2   2
#     4  12  23  37  60  93 124 148 201 258 305 341
#     4   9  17  32  59  80 110 155 209 232 278 357
#     4   9  18  33  55  84 117 156 194 239 300 356
#     4  10  19  33  55  89 116 148 206 252 279 348
#     4  11  23  40  59  88 126 161 190 247 317 362
#     4  11  23  37  60  88 118 156 204 245 287 362
#     4  10  17  34  59  85 112 164 201 242 289 359
#     4  10  19  39  59  79 120 164 198 230 305 370
#
# _framework density 23.800335
#
# number of rings (size 3 to 8) (size 9 to 14) (size 15 to 20)
#    0.750    1.000    5.000    1.125    5.250    0.500 
#    0.000    0.625    0.000    0.000    0.000    3.500 
#    0.000    0.000    0.000    0.000    0.000    0.000 
#
# Total GULP energy -89173.995762 kJ/mol
# GULP energy per Si atom -5573.374735 kJ/mol
# Density = 2.374616 g / cm^3
# Si number density = 23.800335 Si / 1000 Ang^3
#
#
#
# Elastic Constant Matrix: (Units=GPa)
#
#
# Indices 1 2 3 4 5 6 
#
# 1 -4.9758 14.5758 -7.4662 -9.3697 -19.7612 -14.8255
# 2 14.5758 97.4070 29.3241 0.1272 5.0264 -24.0912
# 3 -7.4662 29.3241 120.6028 2.8029 8.4251 -13.1821
# 4 -9.3697 0.1272 2.8029 46.2349 -16.6936 -5.0389
# 5 -19.7612 5.0264 8.4251 -16.6936 28.5777 -0.2897
# 6 -14.8255 -24.0912 -13.1821 -5.0389 -0.2897 43.3967
#
#
#
# Elastic Compliance Matrix: (Units=1/GPa)
#
#
# Indices 1 2 3 4 5 6 
#
# 1 -0.025250 0.003258 -0.001101 -0.015824 -0.027045 -0.009170
# 2 0.003258 0.012163 -0.002145 0.002372 0.002207 0.007504
# 3 -0.001101 -0.002145 0.009209 -0.002267 -0.004413 0.000938
# 4 -0.015824 0.002372 -0.002267 0.018240 -0.000063 -0.002660
# 5 -0.027045 0.002207 -0.004413 -0.000063 0.017073 -0.009248
# 6 -0.009170 0.007504 0.000938 -0.002660 -0.009248 0.023991
#
#
# Mechanical properties :
#
#
# Convention : Reuss Voigt Hill
#
# Bulk Modulus (GPa) = -259.52922 31.76684 -113.88119
# Shear Modulus (GPa) = 92.39423 35.41521 63.90472
#
# Velocity S-wave (km/s) = 6.23737 3.86166 5.18735
# Velocity P-wave (km/s) = 7.57680 5.76710 3.47480
#
# Compressibility (1/GPa) = -0.00385313
#
# Stress axis : x y z
#
# Youngs Moduli (GPa) = -39.60352 82.21459 108.59485
#
# Poissons Ratio (x) = -0.26786 0.11951
# Poissons Ratio (y) = 0.12903 0.23292
# Poissons Ratio (z) = -0.04359 0.17634
#
# Static dielectric constant tensor:
#      x y z
#    x 2.047910 0.010710 -0.068670 
#    y 0.010710 1.812150 -0.029840 
#    z -0.068670 -0.029840 1.951470 
# 
# From -- ./inp_files/476240.got.cif
#   From: 2010.05.17/outbox.cif.g08.bks.cpg/sg2_239_cif.got.tgz:476240.got - 2010.06.03 11:33:40.
