data_PCOD9048812
_publ_section_title
;
Structure prediction by ZEFSAII (Michael W. Deem and Ramdas Pophale) SiO2 
 PCOD9048812
Probable space group: P -1
;
_chemical_formula_sum "Si O2"
_cell_formula_units_Z 14
_cell_length_a 13.879629
_cell_length_b 25.083254
_cell_length_c 8.755696
_cell_angle_alpha 146.776955
_cell_angle_beta 45.541788
_cell_angle_gamma 158.177396
_cell_volume 575.751216
_symmetry_space_group_name_H-M "P -1"
_symmetry_group_IT_number 2
_symmetry_cell_setting 'triclinic'
loop_
_space_group_symop_operation_xyz
x,y,z
-x,-y,-z
loop_
_atom_site_type_symbol
_atom_site_label
_atom_site_fract_x
_atom_site_fract_y
_atom_site_fract_z
Si Si1 0.385410 0.358950 0.655717
Si Si2 0.056211 0.750742 0.485509
Si Si3 0.787402 0.454403 0.324943
Si Si4 0.816910 0.802324 0.820754
Si Si5 0.178842 0.063200 0.589856
Si Si6 0.633973 0.192141 0.296854
Si Si7 0.327941 0.816794 0.108142
O O1 0.581078 0.386092 0.499095
O O2 0.371192 0.368141 0.510044
O O3 0.064875 0.144980 0.546429
O O4 0.500000 0.500000 0.000000
O O5 0.083616 0.731654 0.235822
O O6 0.852082 0.555742 0.343476
O O7 0.993867 0.824882 0.744376
O O8 0.376214 0.942083 0.646252
O O9 0.090366 0.629120 0.479646
O O10 0.656014 0.265732 0.994227
O O11 0.698687 0.782618 0.053811
O O12 0.000000 0.000000 0.000000
O O13 0.409558 0.133406 0.445107
O O14 0.000000 0.000000 0.500000
O O15 0.722552 0.256965 0.178378
O O16 0.500000 0.000000 0.000000
#
# Coordination Sequence:
#
# PCOD9048812 Si02
#       7
#     2   2   2   2   2   2   2
#     4  11  26  45  72 106 152 192 251 316 377 449
#     4  11  25  45  75 105 151 198 249 319 380 458
#     4  12  26  47  72 112 148 196 259 313 381 456
#     4  10  24  45  73 103 146 200 253 298 388 452
#     4  11  25  47  78 108 152 201 250 312 383 460
#     4  12  25  45  79 111 151 204 255 308 391 456
#     4  11  25  45  72 108 151 194 250 315 381 449
#
# _framework density 24.316057000000001
#
# number of rings (size 3 to 8) (size 9 to 14) (size 15 to 20)
#    0.000    0.857    1.429    5.143    8.000    2.857 
#    0.000    0.000    0.000    0.000    0.000    0.000 
#    0.000    0.000    0.000    0.000    0.000    0.000 
#
# Total GULP energy -78257.795954 kJ/mol
# GULP energy per Si atom -5589.842568 kJ/mol
# Density = 2.426071 g / cm^3
# Si number density = 24.316057 Si / 1000 Ang^3
#
#
#
# Elastic Constant Matrix: (Units=GPa)
#
#
# Indices 1 2 3 4 5 6 
#
# 1 83.0143 30.5379 38.9349 -18.7019 1.6151 2.0384
# 2 30.5379 114.9618 48.3235 -30.9343 -4.2344 8.0525
# 3 38.9349 48.3235 156.2152 -31.7313 4.6743 0.8533
# 4 -18.7019 -30.9343 -31.7313 56.2469 -0.2234 -10.5785
# 5 1.6151 -4.2344 4.6743 -0.2234 53.0528 2.6932
# 6 2.0384 8.0525 0.8533 -10.5785 2.6932 44.8462
#
#
#
# Elastic Compliance Matrix: (Units=1/GPa)
#
#
# Indices 1 2 3 4 5 6 
#
# 1 0.014539 -0.002260 -0.002453 0.002272 -0.000415 0.000353
# 2 -0.002260 0.011438 -0.002167 0.004132 0.001241 -0.001010
# 3 -0.002453 -0.002167 0.008285 0.002865 -0.000871 0.001071
# 4 0.002272 0.004132 0.002865 0.023287 -0.000127 0.004601
# 5 -0.000415 0.001241 -0.000871 -0.000127 0.019106 -0.001365
# 6 0.000353 -0.001010 0.001071 0.004601 -0.001365 0.023611
#
#
# Mechanical properties :
#
#
# Convention : Reuss Voigt Hill
#
# Bulk Modulus (GPa) = 48.77350 65.53154 57.15252
# Shear Modulus (GPa) = 41.37002 46.58884 43.97943
#
# Velocity S-wave (km/s) = 4.12921 4.38193 4.25745
# Velocity P-wave (km/s) = 6.54489 7.25328 6.90817
#
# Compressibility (1/GPa) = 0.02050294
#
# Stress axis : x y z
#
# Youngs Moduli (GPa) = 68.78032 87.42744 120.69654
#
# Poissons Ratio (x) = 0.19756 0.29602
# Poissons Ratio (y) = 0.15542 0.26160
# Poissons Ratio (z) = 0.16869 0.18949
#
# Static dielectric constant tensor:
#      x y z
#    x 1.989000 -0.031370 0.020760 
#    y -0.031370 1.936620 -0.024610 
#    z 0.020760 -0.024610 1.996090 
# 
# From -- ./inp_files/199374.got.cif
#   From: 2010.05.17/outbox.cif.g08.bks.cpg/sg2_100_cif.got.tgz:199374.got - 2010.06.03 11:33:40.
