data_PCOD9048765
_publ_section_title
;
Structure prediction by ZEFSAII (Michael W. Deem and Ramdas Pophale) SiO2 
 PCOD9048765
Probable space group: P -1
;
_chemical_formula_sum "Si O2"
_cell_formula_units_Z 16
_cell_length_a 5.061317
_cell_length_b 17.590360
_cell_length_c 7.257906
_cell_angle_alpha 113.738507
_cell_angle_beta 77.269284
_cell_angle_gamma 95.595206
_cell_volume 576.933719
_symmetry_space_group_name_H-M "P -1"
_symmetry_group_IT_number 2
_symmetry_cell_setting 'triclinic'
loop_
_space_group_symop_operation_xyz
x,y,z
-x,-y,-z
loop_
_atom_site_type_symbol
_atom_site_label
_atom_site_fract_x
_atom_site_fract_y
_atom_site_fract_z
Si Si1 0.476998 0.206383 0.275374
Si Si2 0.049163 0.086066 0.408578
Si Si3 0.297091 0.825856 0.142136
Si Si4 0.724529 0.344154 0.549321
Si Si5 0.921473 0.350741 0.920492
Si Si6 0.207782 0.349614 0.215679
Si Si7 0.568403 0.496218 0.201762
Si Si8 0.441804 0.013520 0.800864
O O1 0.606864 0.251103 0.475308
O O2 0.230890 0.148613 0.318216
O O3 0.349622 0.278888 0.242275
O O4 0.721288 0.171442 0.076959
O O5 0.918260 0.135210 0.646629
O O6 0.819028 0.038310 0.277329
O O7 0.285396 0.022723 0.369554
O O8 0.277331 0.728058 0.093694
O O9 0.557070 0.889688 0.169000
O O10 0.910777 0.354298 0.352886
O O11 0.484000 0.410059 0.641634
O O12 0.910469 0.360579 0.713963
O O13 0.178199 0.328390 0.982111
O O14 0.834023 0.439842 0.104733
O O15 0.355853 0.438048 0.285273
O O16 0.500000 0.500000 0.000000
O O17 0.500000 0.000000 0.000000
#
# Coordination Sequence:
#
# PCOD9048765 Si02
#       8
#     2   2   2   2   2   2   2   2
#     4  12  28  50  81 115 163 213 271 337 412 485
#     4  12  30  52  82 121 162 218 270 338 416 491
#     4  12  26  50  80 113 163 208 272 332 403 499
#     4  11  26  49  72 112 156 208 267 334 405 488
#     4  11  26  46  75 111 149 208 265 331 407 478
#     4  12  24  45  74 111 148 210 264 329 411 470
#     4  10  24  45  72 107 157 202 267 327 406 487
#     4  12  28  53  83 118 162 215 270 337 413 495
#
# _framework density 27.732823
#
# number of rings (size 3 to 8) (size 9 to 14) (size 15 to 20)
#    0.000    0.500    3.750    2.250    5.250   10.000 
#    0.000    0.000    0.000    0.000    0.000    0.000 
#    0.000    0.000    0.000    0.000    0.000    0.000 
#
# Total GULP energy -89528.874316 kJ/mol
# GULP energy per Si atom -5595.554645 kJ/mol
# Density = 2.766970 g / cm^3
# Si number density = 27.732823 Si / 1000 Ang^3
#
#
#
# Elastic Constant Matrix: (Units=GPa)
#
#
# Indices 1 2 3 4 5 6 
#
# 1 117.7448 21.8907 36.5748 -0.4907 4.4397 15.1964
# 2 21.8907 152.9585 32.4225 -10.3947 -13.6132 20.5418
# 3 36.5748 32.4225 145.2355 -3.5960 1.1541 16.2699
# 4 -0.4907 -10.3947 -3.5960 38.8225 -3.2105 4.9807
# 5 4.4397 -13.6132 1.1541 -3.2105 38.7381 -7.8145
# 6 15.1964 20.5418 16.2699 4.9807 -7.8145 46.5125
#
#
#
# Elastic Compliance Matrix: (Units=1/GPa)
#
#
# Indices 1 2 3 4 5 6 
#
# 1 0.009631 -0.000811 -0.001965 -0.000121 -0.001823 -0.002395
# 2 -0.000811 0.007633 -0.001175 0.002457 0.002502 -0.002538
# 3 -0.001965 -0.001175 0.007860 0.000555 -0.000733 -0.001772
# 4 -0.000121 0.002457 0.000555 0.027142 0.002354 -0.003751
# 5 -0.001823 0.002502 -0.000733 0.002354 0.027965 0.004194
# 6 -0.002395 -0.002538 -0.001772 -0.003751 0.004194 0.025129
#
#
# Mechanical properties :
#
#
# Convention : Reuss Voigt Hill
#
# Bulk Modulus (GPa) = 58.05578 66.41274 62.23426
# Shear Modulus (GPa) = 42.01574 46.48467 44.25021
#
# Velocity S-wave (km/s) = 3.89655 4.09854 3.99882
# Velocity P-wave (km/s) = 6.42055 6.81151 6.61892
#
# Compressibility (1/GPa) = 0.01722481
#
# Stress axis : x y z
#
# Youngs Moduli (GPa) = 103.82821 131.00543 127.22028
#
# Poissons Ratio (x) = 0.10622 0.24995
# Poissons Ratio (y) = 0.08419 0.14943
# Poissons Ratio (z) = 0.20399 0.15388
#
# Static dielectric constant tensor:
#      x y z
#    x 2.099360 -0.019050 -0.006610 
#    y -0.019050 2.178100 0.080460 
#    z -0.006610 0.080460 2.234290 
# 
# From -- ./inp_files/139321.got.cif
#   From: 2010.05.17/outbox.cif.g08.bks.cpg/sg2_70_cif.got.tgz:139321.got - 2010.06.03 11:33:40.
