data_PCOD9048408
_publ_section_title
;
Structure prediction by ZEFSAII (Michael W. Deem and Ramdas Pophale) SiO2 
 PCOD9048408
Probable space group: P -1
;
_chemical_formula_sum "Si O2"
_cell_formula_units_Z 14
_cell_length_a 8.622487
_cell_length_b 16.415289
_cell_length_c 6.594970
_cell_angle_alpha 64.628276
_cell_angle_beta 50.385771
_cell_angle_gamma 62.867197
_cell_volume 626.915998
_symmetry_space_group_name_H-M "P -1"
_symmetry_group_IT_number 2
_symmetry_cell_setting 'triclinic'
loop_
_space_group_symop_operation_xyz
x,y,z
-x,-y,-z
loop_
_atom_site_type_symbol
_atom_site_label
_atom_site_fract_x
_atom_site_fract_y
_atom_site_fract_z
Si Si1 0.227932 0.148846 0.038767
Si Si2 0.317227 0.302553 0.518750
Si Si3 0.666018 0.558280 0.333040
Si Si4 0.940616 0.607293 0.704352
Si Si5 0.964608 0.192585 0.559899
Si Si6 0.540894 0.164254 0.128043
Si Si7 0.214179 0.031596 0.799107
O O1 0.397172 0.153772 0.065950
O O2 0.268486 0.061974 0.945396
O O3 0.015045 0.153989 0.332005
O O4 0.215497 0.237669 0.811847
O O5 0.426941 0.358294 0.521098
O O6 0.142981 0.380585 0.465889
O O7 0.448797 0.240928 0.295200
O O8 0.500000 0.500000 0.500000
O O9 0.870976 0.482596 0.322942
O O10 0.751833 0.600991 0.018549
O O11 0.010506 0.702603 0.580993
O O12 0.745233 0.187433 0.836763
O O13 0.146460 0.124553 0.618398
O O14 0.613849 0.064439 0.289375
O O15 0.000000 0.000000 0.000000
#
# Coordination Sequence:
#
# PCOD9048408 Si02
#       7
#     2   2   2   2   2   2   2
#     4  12  23  45  72  98 146 186 239 285 341 412
#     4  12  24  48  71 106 141 182 231 290 356 413
#     4  11  27  49  76 103 137 179 234 290 355 425
#     4  11  24  49  70 104 138 181 230 288 353 420
#     4  11  24  46  71 100 145 185 236 288 345 413
#     4  11  26  43  70 107 142 186 240 286 345 407
#     4  10  24  45  68 105 143 191 238 284 344 408
#
# _framework density 22.33154
#
# number of rings (size 3 to 8) (size 9 to 14) (size 15 to 20)
#    0.000    0.857    4.286    0.857    4.000    8.571 
#    5.143    0.000    0.000    0.000    0.000    0.000 
#    0.000    0.000    0.000    0.000    0.000    0.000 
#
# Total GULP energy -78212.826395 kJ/mol
# GULP energy per Si atom -5586.630457 kJ/mol
# Density = 2.228071 g / cm^3
# Si number density = 22.331540 Si / 1000 Ang^3
#
#
#
# Elastic Constant Matrix: (Units=GPa)
#
#
# Indices 1 2 3 4 5 6 
#
# 1 85.1779 32.3864 59.0329 5.1367 1.9445 13.2118
# 2 32.3864 120.7411 57.7675 1.5031 8.0984 17.0033
# 3 59.0329 57.7675 145.2251 -2.4900 -6.0550 -0.2369
# 4 5.1367 1.5031 -2.4900 45.0410 2.7086 6.1426
# 5 1.9445 8.0984 -6.0550 2.7086 33.8418 -7.0158
# 6 13.2118 17.0033 -0.2369 6.1426 -7.0158 42.8313
#
#
#
# Elastic Compliance Matrix: (Units=1/GPa)
#
#
# Indices 1 2 3 4 5 6 
#
# 1 0.018046 -0.000212 -0.007428 -0.001455 -0.003417 -0.005874
# 2 -0.000212 0.011708 -0.004774 0.000402 -0.004807 -0.005454
# 3 -0.007428 -0.004774 0.012020 0.000719 0.004681 0.004917
# 4 -0.001455 0.000402 0.000719 0.023005 -0.002431 -0.003404
# 5 -0.003417 -0.004807 0.004681 -0.002431 0.033766 0.008868
# 6 -0.005874 -0.005454 0.004917 -0.003404 0.008868 0.029293
#
#
# Mechanical properties :
#
#
# Convention : Reuss Voigt Hill
#
# Bulk Modulus (GPa) = 59.00941 72.16866 65.58903
# Shear Modulus (GPa) = 31.58288 37.80661 34.69475
#
# Velocity S-wave (km/s) = 3.76476 4.11903 3.94588
# Velocity P-wave (km/s) = 6.73643 7.41681 7.08479
#
# Compressibility (1/GPa) = 0.01694645
#
# Stress axis : x y z
#
# Youngs Moduli (GPa) = 55.41482 85.40891 83.19677
#
# Poissons Ratio (x) = 0.01810 0.61799
# Poissons Ratio (y) = 0.01175 0.39715
# Poissons Ratio (z) = 0.41163 0.40771
#
# Static dielectric constant tensor:
#      x y z
#    x 1.848630 -0.009660 -0.012420 
#    y -0.009660 1.850770 0.001150 
#    z -0.012420 0.001150 1.838640 
# 
# From -- ./inp_files/40618.got.cif
#   From: 2010.05.17/outbox.cif.g08.bks.cpg/sg2_21_cif.got.tgz:40618.got - 2010.06.03 11:33:40.
