data_PCOD9048727
_publ_section_title
;
Structure prediction by ZEFSAII (Michael W. Deem and Ramdas Pophale) SiO2 
 PCOD9048727
Probable space group: P -1
;
_chemical_formula_sum "Si O2"
_cell_formula_units_Z 16
_cell_length_a 13.151986
_cell_length_b 18.498029
_cell_length_c 9.012790
_cell_angle_alpha 149.469027
_cell_angle_beta 51.556626
_cell_angle_gamma 134.893936
_cell_volume 788.517217
_symmetry_space_group_name_H-M "P -1"
_symmetry_group_IT_number 2
_symmetry_cell_setting 'triclinic'
loop_
_space_group_symop_operation_xyz
x,y,z
-x,-y,-z
loop_
_atom_site_type_symbol
_atom_site_label
_atom_site_fract_x
_atom_site_fract_y
_atom_site_fract_z
Si Si1 0.644960 0.385509 0.747134
Si Si2 0.634176 0.696723 0.325039
Si Si3 0.080458 0.671472 0.155985
Si Si4 0.873396 0.351581 0.274247
Si Si5 0.872279 0.017445 0.729667
Si Si6 0.427370 0.324499 0.312301
Si Si7 0.389692 0.815655 0.274868
Si Si8 0.900457 0.869698 0.744866
O O1 0.484831 0.346181 0.768980
O O2 0.729379 0.347192 0.470698
O O3 0.636460 0.282178 0.718413
O O4 0.710561 0.576451 0.044140
O O5 0.733345 0.880589 0.541157
O O6 0.573471 0.677863 0.513184
O O7 0.231572 0.775504 0.283957
O O8 0.979377 0.763387 0.427959
O O9 0.112142 0.641181 0.903888
O O10 0.000000 0.500000 0.000000
O O11 0.000000 0.500000 0.500000
O O12 0.880601 0.189043 0.019724
O O13 0.877021 0.966485 0.802502
O O14 0.000000 0.000000 0.500000
O O15 0.500000 0.500000 0.500000
O O16 0.263083 0.240680 0.253511
O O17 0.527888 0.249824 0.026556
O O18 0.500000 0.000000 0.500000
O O19 0.000000 0.000000 0.000000
#
# Coordination Sequence:
#
# PCOD9048727 Si02
#       8
#     2   2   2   2   2   2   2   2
#     4  11  25  45  70 103 141 179 240 290 350 427
#     4  10  24  45  71  98 135 186 235 291 350 418
#     4  12  27  48  72 104 145 188 232 296 357 426
#     4  12  27  45  72 103 141 188 237 292 358 417
#     4  11  24  45  71  96 139 184 234 290 349 418
#     4  11  22  45  70  98 137 183 231 284 348 416
#     4  12  27  43  71 106 144 184 235 293 355 423
#     4  11  26  44  71 105 138 183 236 285 353 421
#
# _framework density 20.291250999999999
#
# number of rings (size 3 to 8) (size 9 to 14) (size 15 to 20)
#    0.000    0.750    2.500    3.750   12.250    1.500 
#    0.000    0.000    0.000    0.000    0.000    0.000 
#    0.000    0.000    0.000    0.000    0.000    0.000 
#
# Total GULP energy -89378.278096 kJ/mol
# GULP energy per Si atom -5586.142381 kJ/mol
# Density = 2.024507 g / cm^3
# Si number density = 20.291251 Si / 1000 Ang^3
#
#
#
# Elastic Constant Matrix: (Units=GPa)
#
#
# Indices 1 2 3 4 5 6 
#
# 1 86.1917 29.5489 -0.4705 18.3306 3.5772 1.8811
# 2 29.5489 110.5675 38.0064 20.3419 -6.0832 -1.1150
# 3 -0.4705 38.0064 108.2263 18.3486 -18.0254 -16.4786
# 4 18.3306 20.3419 18.3486 51.3424 4.7037 3.8737
# 5 3.5772 -6.0832 -18.0254 4.7037 35.0960 2.0779
# 6 1.8811 -1.1150 -16.4786 3.8737 2.0779 30.2766
#
#
#
# Elastic Compliance Matrix: (Units=1/GPa)
#
#
# Indices 1 2 3 4 5 6 
#
# 1 0.013763 -0.003634 0.002092 -0.004236 -0.000433 0.000721
# 2 -0.003634 0.011732 -0.003873 -0.001941 0.000749 -0.001253
# 3 0.002092 -0.003873 0.013697 -0.005255 0.006416 0.007414
# 4 -0.004236 -0.001941 -0.005255 0.024556 -0.005573 -0.005428
# 5 -0.000433 0.000749 0.006416 -0.005573 0.032590 0.002023
# 6 0.000721 -0.001253 0.007414 -0.005428 0.002023 0.037529
#
#
# Mechanical properties :
#
#
# Convention : Reuss Voigt Hill
#
# Bulk Modulus (GPa) = 35.25857 48.79502 42.02679
# Shear Modulus (GPa) = 32.43553 39.20305 35.81929
#
# Velocity S-wave (km/s) = 4.00246 4.40024 4.20606
# Velocity P-wave (km/s) = 6.22684 7.06510 6.65917
#
# Compressibility (1/GPa) = 0.02836190
#
# Stress axis : x y z
#
# Youngs Moduli (GPa) = 72.66103 85.23375 73.00627
#
# Poissons Ratio (x) = 0.30977 -0.15273
# Poissons Ratio (y) = 0.26407 0.28275
# Poissons Ratio (z) = -0.15201 0.33010
#
# Static dielectric constant tensor:
#      x y z
#    x 1.777470 0.045450 0.064040 
#    y 0.045450 1.711720 0.013570 
#    z 0.064040 0.013570 1.701140 
# 
# From -- ./inp_files/260300.got.cif
#   From: 2010.05.17/outbox.cif.g08.bks.cpg/sg2_131_cif.got.tgz:260300.got - 2010.06.03 11:33:40.
