data_PCOD9048907
_publ_section_title
;
Structure prediction by ZEFSAII (Michael W. Deem and Ramdas Pophale) SiO2 
 PCOD9048907
Probable space group: P -1
;
_chemical_formula_sum "Si O2"
_cell_formula_units_Z 14
_cell_length_a 9.286818
_cell_length_b 20.916061
_cell_length_c 5.096030
_cell_angle_alpha 111.152210
_cell_angle_beta 76.942660
_cell_angle_gamma 143.014821
_cell_volume 551.956189
_symmetry_space_group_name_H-M "P -1"
_symmetry_group_IT_number 2
_symmetry_cell_setting 'triclinic'
loop_
_space_group_symop_operation_xyz
x,y,z
-x,-y,-z
loop_
_atom_site_type_symbol
_atom_site_label
_atom_site_fract_x
_atom_site_fract_y
_atom_site_fract_z
Si Si1 0.242913 0.900352 0.818517
Si Si2 0.503870 0.604848 0.180421
Si Si3 0.341688 0.184344 0.580391
Si Si4 0.232102 0.679891 0.764363
Si Si5 0.802091 0.486096 0.307140
Si Si6 0.965173 0.250601 0.829634
Si Si7 0.850213 0.990667 0.247887
O O1 0.174761 0.827499 0.488383
O O2 0.218243 0.966726 0.810582
O O3 0.078382 0.814772 0.998186
O O4 0.500000 0.000000 0.000000
O O5 0.576007 0.709403 0.230595
O O6 0.373876 0.560388 0.447192
O O7 0.745069 0.648605 0.170168
O O8 0.309311 0.519287 0.908538
O O9 0.498309 0.220221 0.316019
O O10 0.055666 0.086965 0.513388
O O11 0.355918 0.128513 0.701578
O O12 0.191122 0.594820 0.820373
O O13 0.062221 0.607216 0.470118
O O14 0.142601 0.715633 0.992541
O O15 0.000000 0.000000 0.000000
#
# Coordination Sequence:
#
# PCOD9048907 Si02
#       7
#     2   2   2   2   2   2   2
#     4  12  29  49  70 108 153 194 245 307 365 434
#     4  11  23  46  76 103 145 194 243 301 365 442
#     4  10  24  45  75 104 147 193 252 301 357 438
#     4  10  26  47  73 111 146 188 244 309 372 430
#     4  10  25  47  75 108 145 189 246 308 364 435
#     4  12  27  48  73 106 150 197 240 304 375 436
#     4  11  25  46  75 104 140 200 253 294 358 439
#
# _framework density 25.364333999999999
#
# number of rings (size 3 to 8) (size 9 to 14) (size 15 to 20)
#    0.000    1.143    1.429    2.143   10.000   10.857 
#    0.000    0.000    0.000    0.000    0.000    0.000 
#    0.000    0.000    0.000    0.000    0.000    0.000 
#
# Total GULP energy -78455.778239 kJ/mol
# GULP energy per Si atom -5603.984160 kJ/mol
# Density = 2.530660 g / cm^3
# Si number density = 25.364334 Si / 1000 Ang^3
#
#
#
# Elastic Constant Matrix: (Units=GPa)
#
#
# Indices 1 2 3 4 5 6 
#
# 1 192.1742 52.4342 85.8985 10.3578 -4.3643 1.3064
# 2 52.4342 100.2245 23.7633 -7.7043 -3.2268 -15.5340
# 3 85.8985 23.7633 142.6429 0.0240 3.3214 -11.4144
# 4 10.3578 -7.7043 0.0240 19.1487 3.8075 1.6857
# 5 -4.3643 -3.2268 3.3214 3.8075 34.6246 -1.1221
# 6 1.3064 -15.5340 -11.4144 1.6857 -1.1221 35.5629
#
#
#
# Elastic Compliance Matrix: (Units=1/GPa)
#
#
# Indices 1 2 3 4 5 6 
#
# 1 0.009174 -0.004620 -0.005085 -0.006866 0.001852 -0.003603
# 2 -0.004620 0.013680 0.000992 0.007469 -0.000026 0.006109
# 3 -0.005085 0.000992 0.010244 0.003160 -0.001759 0.003703
# 4 -0.006866 0.007469 0.003160 0.060211 -0.007047 0.001453
# 5 0.001852 -0.000026 -0.001759 -0.007047 0.030076 0.000639
# 6 -0.003603 0.006109 0.003703 0.001453 0.000639 0.032060
#
#
# Mechanical properties :
#
#
# Convention : Reuss Voigt Hill
#
# Bulk Modulus (GPa) = 63.81545 84.35928 74.08736
# Shear Modulus (GPa) = 28.07471 36.06360 32.06916
#
# Velocity S-wave (km/s) = 3.33056 3.77480 3.55961
# Velocity P-wave (km/s) = 6.32489 7.23395 6.79464
#
# Compressibility (1/GPa) = 0.01567019
#
# Stress axis : x y z
#
# Youngs Moduli (GPa) = 109.00627 73.10004 97.61656
#
# Poissons Ratio (x) = 0.33775 0.49638
# Poissons Ratio (y) = 0.50366 -0.09680
# Poissons Ratio (z) = 0.55429 -0.07249
#
# Static dielectric constant tensor:
#      x y z
#    x 1.770300 0.091650 -0.175370 
#    y 0.091650 2.024570 0.133230 
#    z -0.175370 0.133230 1.842940 
# 
# From -- ./inp_files/53701.got.cif
#   From: 2010.05.17/outbox.cif.g08.bks.cpg/sg2_27_cif.got.tgz:53701.got - 2010.06.03 11:33:40.
