data_PCOD9048335
_publ_section_title
;
Structure prediction by ZEFSAII (Michael W. Deem and Ramdas Pophale) SiO2 
 PCOD9048335
Probable space group: P -1
;
_chemical_formula_sum "Si O2"
_cell_formula_units_Z 14
_cell_length_a 9.233046
_cell_length_b 11.594262
_cell_length_c 5.086654
_cell_angle_alpha 98.402536
_cell_angle_beta 75.942676
_cell_angle_gamma 97.784957
_cell_volume 519.708499
_symmetry_space_group_name_H-M "P -1"
_symmetry_group_IT_number 2
_symmetry_cell_setting 'triclinic'
loop_
_space_group_symop_operation_xyz
x,y,z
-x,-y,-z
loop_
_atom_site_type_symbol
_atom_site_label
_atom_site_fract_x
_atom_site_fract_y
_atom_site_fract_z
Si Si1 0.240009 0.299762 0.861412
Si Si2 0.433891 0.643853 0.057493
Si Si3 0.393688 0.062796 0.263280
Si Si4 0.053854 0.691754 0.689998
Si Si5 0.336912 0.833789 0.537738
Si Si6 0.292169 0.520375 0.560164
Si Si7 0.900113 0.876734 0.507450
O O1 0.391672 0.311419 0.967230
O O2 0.271387 0.389245 0.631970
O O3 0.184334 0.171677 0.733288
O O4 0.094619 0.338850 0.085559
O O5 0.346342 0.748066 0.256011
O O6 0.390824 0.542725 0.262862
O O7 0.369135 0.597467 0.792955
O O8 0.506972 0.164819 0.374606
O O9 0.241487 0.105601 0.237150
O O10 0.338250 0.964223 0.470946
O O11 0.500000 0.000000 0.000000
O O12 0.191888 0.787081 0.755756
O O13 0.137380 0.575477 0.582911
O O14 0.995217 0.770623 0.508693
O O15 0.000000 0.000000 0.500000
#
# Coordination Sequence:
#
# PCOD9048335 Si02
#       7
#     2   2   2   2   2   2   2
#     4  12  28  47  78 114 157 207 259 328 393 460
#     4  11  26  49  82 115 154 203 270 325 387 463
#     4  11  25  44  75 100 151 202 265 314 390 455
#     4  11  28  44  76 107 160 203 254 320 397 467
#     4  10  24  45  67 110 144 204 258 319 382 464
#     4  11  28  51  81 116 159 208 266 319 392 472
#     4  12  28  49  73 116 158 199 264 322 398 469
#
# _framework density 26.938178000000001
#
# number of rings (size 3 to 8) (size 9 to 14) (size 15 to 20)
#    0.000    0.857    2.857    1.286   16.000    1.143 
#    0.000    0.000    0.000    0.000    0.000    0.000 
#    0.000    0.000    0.000    0.000    0.000    0.000 
#
# Total GULP energy -78424.971239 kJ/mol
# GULP energy per Si atom -5601.783660 kJ/mol
# Density = 2.687687 g / cm^3
# Si number density = 26.938178 Si / 1000 Ang^3
#
#
#
# Elastic Constant Matrix: (Units=GPa)
#
#
# Indices 1 2 3 4 5 6 
#
# 1 217.9986 45.4207 64.2855 0.8721 -10.1055 10.7119
# 2 45.4207 108.3939 35.7357 1.6384 22.8980 16.5419
# 3 64.2855 35.7357 107.3764 -1.6130 10.6505 12.3115
# 4 0.8721 1.6384 -1.6130 52.3969 7.5152 -6.3163
# 5 -10.1055 22.8980 10.6505 7.5152 50.8052 2.4444
# 6 10.7119 16.5419 12.3115 -6.3163 2.4444 60.8869
#
#
#
# Elastic Compliance Matrix: (Units=1/GPa)
#
#
# Indices 1 2 3 4 5 6 
#
# 1 0.006127 -0.002098 -0.003267 -0.000560 0.002933 -0.000023
# 2 -0.002098 0.012271 -0.002021 0.000086 -0.005425 -0.002329
# 3 -0.003267 -0.002021 0.012324 0.000692 -0.002367 -0.001201
# 4 -0.000560 0.000086 0.000692 0.019848 -0.003334 0.002128
# 5 0.002933 -0.005425 -0.002367 -0.003334 0.023694 0.000139
# 6 -0.000023 -0.002329 -0.001201 0.002128 0.000139 0.017519
#
#
# Mechanical properties :
#
#
# Convention : Reuss Voigt Hill
#
# Bulk Modulus (GPa) = 62.69393 80.51698 71.60545
# Shear Modulus (GPa) = 44.69374 52.03959 48.36666
#
# Velocity S-wave (km/s) = 4.07765 4.40001 4.24189
# Velocity P-wave (km/s) = 6.74488 7.46779 7.11552
#
# Compressibility (1/GPa) = 0.01595051
#
# Stress axis : x y z
#
# Youngs Moduli (GPa) = 163.21315 81.49035 81.14000
#
# Poissons Ratio (x) = 0.17097 0.26505
# Poissons Ratio (y) = 0.34243 0.16402
# Poissons Ratio (z) = 0.53315 0.16473
#
# Static dielectric constant tensor:
#      x y z
#    x 2.132730 -0.071440 -0.002850 
#    y -0.071440 2.154660 -0.002250 
#    z -0.002850 -0.002250 2.190630 
# 
# From -- ./inp_files/28199.got.cif
#   From: 2010.05.17/outbox.cif.g08.bks.cpg/sg2_15_cif.got.tgz:28199.got - 2010.06.03 11:33:40.
