data_PCOD9048395
_publ_section_title
;
Structure prediction by ZEFSAII (Michael W. Deem and Ramdas Pophale) SiO2 
 PCOD9048395
Probable space group: P -1
;
_chemical_formula_sum "Si O2"
_cell_formula_units_Z 16
_cell_length_a 17.656338
_cell_length_b 17.480051
_cell_length_c 5.340338
_cell_angle_alpha 133.036892
_cell_angle_beta 58.839514
_cell_angle_gamma 149.276855
_cell_volume 604.794566
_symmetry_space_group_name_H-M "P -1"
_symmetry_group_IT_number 2
_symmetry_cell_setting 'triclinic'
loop_
_space_group_symop_operation_xyz
x,y,z
-x,-y,-z
loop_
_atom_site_type_symbol
_atom_site_label
_atom_site_fract_x
_atom_site_fract_y
_atom_site_fract_z
Si Si1 0.379561 0.551515 0.400572
Si Si2 0.826225 0.036940 0.289351
Si Si3 0.918250 0.594386 0.408176
Si Si4 0.670372 0.665959 0.673849
Si Si5 0.590156 0.108746 0.339479
Si Si6 0.117155 0.657207 0.841569
Si Si7 0.495339 0.237689 0.835599
Si Si8 0.021628 0.090949 0.419054
O O1 0.340783 0.392880 0.159566
O O2 0.464007 0.650502 0.218773
O O3 0.227473 0.473661 0.507627
O O4 0.479708 0.690531 0.772362
O O5 0.676087 0.966121 0.379751
O O6 0.954459 0.202682 0.248544
O O7 0.741087 0.847904 0.927228
O O8 0.908818 0.076204 0.493966
O O9 0.856096 0.420430 0.207220
O O10 0.032606 0.667016 0.153654
O O11 0.500000 0.500000 0.500000
O O12 0.798544 0.711097 0.438155
O O13 0.738049 0.181732 0.212795
O O14 0.614124 0.255905 0.646145
O O15 0.500000 0.000000 0.500000
O O16 0.500000 0.000000 0.000000
O O17 0.000000 0.500000 0.500000
O O18 0.000000 0.000000 0.500000
O O19 0.000000 0.000000 0.000000
#
# Coordination Sequence:
#
# PCOD9048395 Si02
#       8
#     2   2   2   2   2   2   2   2
#     4  12  26  49  74 108 149 202 252 308 373 454
#     4  11  25  47  72 110 147 198 253 310 376 449
#     4  11  25  49  75 108 152 199 254 313 377 458
#     4  11  24  49  75 107 149 199 248 313 377 441
#     4  12  27  48  77 112 154 196 252 314 382 450
#     4  11  26  48  77 110 151 202 248 313 387 450
#     4  12  27  46  74 108 151 196 253 306 377 454
#     4  10  24  45  68 102 143 187 240 303 364 434
#
# _framework density 26.455266000000002
#
# number of rings (size 3 to 8) (size 9 to 14) (size 15 to 20)
#    0.000    0.750    3.750    2.250    7.000    2.500 
#    4.500    0.000    0.000    0.000    0.000    0.000 
#    0.000    0.000    0.000    0.000    0.000    0.000 
#
# Total GULP energy -89300.600822 kJ/mol
# GULP energy per Si atom -5581.287551 kJ/mol
# Density = 2.639505 g / cm^3
# Si number density = 26.455266 Si / 1000 Ang^3
#
#
#
# Elastic Constant Matrix: (Units=GPa)
#
#
# Indices 1 2 3 4 5 6 
#
# 1 106.2797 44.6323 24.1133 -11.5987 -1.4426 14.6990
# 2 44.6323 162.0296 18.8452 -15.8651 30.5240 21.3590
# 3 24.1133 18.8452 92.9610 -10.6019 14.1165 -4.0142
# 4 -11.5987 -15.8651 -10.6019 38.1857 -2.1739 4.2040
# 5 -1.4426 30.5240 14.1165 -2.1739 45.3161 12.4482
# 6 14.6990 21.3590 -4.0142 4.2040 12.4482 72.4890
#
#
#
# Elastic Compliance Matrix: (Units=1/GPa)
#
#
# Indices 1 2 3 4 5 6 
#
# 1 0.012086 -0.003264 -0.003007 0.002002 0.004306 -0.002511
# 2 -0.003264 0.008443 0.000190 0.002370 -0.005457 -0.001016
# 3 -0.003007 0.000190 0.012518 0.002173 -0.004541 0.001901
# 4 0.002002 0.002370 0.002173 0.028667 -0.000113 -0.002627
# 5 0.004306 -0.005457 -0.004541 -0.000113 0.028499 -0.004404
# 6 -0.002511 -0.001016 0.001901 -0.002627 -0.004404 0.015618
#
#
# Mechanical properties :
#
#
# Convention : Reuss Voigt Hill
#
# Bulk Modulus (GPa) = 47.88001 59.60576 53.74289
# Shear Modulus (GPa) = 40.01467 49.44347 44.72907
#
# Velocity S-wave (km/s) = 3.89336 4.32782 4.11633
# Velocity P-wave (km/s) = 6.19264 6.89587 6.55369
#
# Compressibility (1/GPa) = 0.02088554
#
# Stress axis : x y z
#
# Youngs Moduli (GPa) = 82.73872 118.44709 79.88297
#
# Poissons Ratio (x) = 0.38656 0.24024
# Poissons Ratio (y) = 0.27002 -0.01519
# Poissons Ratio (z) = 0.24883 -0.02253
#
# Static dielectric constant tensor:
#      x y z
#    x 2.057370 0.057800 0.030970 
#    y 0.057800 2.131120 0.007550 
#    z 0.030970 0.007550 2.090500 
# 
# From -- ./inp_files/111710.got.cif
#   From: 2010.05.17/outbox.cif.g08.bks.cpg/sg2_56_cif.got.tgz:111710.got - 2010.06.03 11:33:40.
