data_PCOD9048922
_publ_section_title
;
Structure prediction by ZEFSAII (Michael W. Deem and Ramdas Pophale) SiO2 
 PCOD9048922
Probable space group: P -1
;
_chemical_formula_sum "Si O2"
_cell_formula_units_Z 12
_cell_length_a 9.304287
_cell_length_b 7.562199
_cell_length_c 8.749714
_cell_angle_alpha 110.765395
_cell_angle_beta 108.595342
_cell_angle_gamma 111.763571
_cell_volume 457.108171
_symmetry_space_group_name_H-M "P -1"
_symmetry_group_IT_number 2
_symmetry_cell_setting 'triclinic'
loop_
_space_group_symop_operation_xyz
x,y,z
-x,-y,-z
loop_
_atom_site_type_symbol
_atom_site_label
_atom_site_fract_x
_atom_site_fract_y
_atom_site_fract_z
Si Si1 0.432834 0.743756 0.368177
Si Si2 0.683823 0.446530 0.053894
Si Si3 0.233580 0.158975 0.310965
Si Si4 0.090031 0.706993 0.286231
Si Si5 0.664199 0.817392 0.994146
Si Si6 0.940001 0.241545 0.377207
O O1 0.573909 0.712038 0.496337
O O2 0.224106 0.619634 0.309291
O O3 0.500000 0.000000 0.500000
O O4 0.426735 0.704393 0.174861
O O5 0.711047 0.685547 0.093099
O O6 0.884007 0.502173 0.141510
O O7 0.553824 0.322737 0.115030
O O8 0.099844 0.220542 0.358471
O O9 0.145055 0.891130 0.229045
O O10 0.267214 0.197969 0.153438
O O11 0.108389 0.840401 0.488844
O O12 0.766735 0.074005 0.163383
O O13 0.000000 0.500000 0.500000
#
# Coordination Sequence:
#
# PCOD9048922 Si02
#       6
#     2   2   2   2   2   2
#     4  10  24  45  75 112 147 197 252 310 371 445
#     4  11  25  46  77 110 159 197 251 308 387 453
#     4  11  25  50  81 107 154 201 258 311 376 454
#     4  11  25  48  79 110 151 201 255 313 377 450
#     4  11  26  47  77 114 151 204 252 309 385 453
#     4  12  28  48  78 117 152 196 259 317 378 449
#
# _framework density 26.251991
#
# number of rings (size 3 to 8) (size 9 to 14) (size 15 to 20)
#    0.000    1.000    1.667    3.500    7.000    4.667 
#    0.000    5.000    0.000    0.000    0.000    0.000 
#    0.000    0.000    0.000    0.000    0.000    0.000 
#
# Total GULP energy -67262.841473 kJ/mol
# GULP energy per Si atom -5605.236789 kJ/mol
# Density = 2.619224 g / cm^3
# Si number density = 26.251991 Si / 1000 Ang^3
#
#
#
# Elastic Constant Matrix: (Units=GPa)
#
#
# Indices 1 2 3 4 5 6 
#
# 1 173.1254 59.2568 34.1917 -4.8492 6.7091 44.4071
# 2 59.2568 118.7800 27.5475 8.2003 -9.6191 16.8027
# 3 34.1917 27.5475 125.6055 5.2000 -17.1360 17.8248
# 4 -4.8492 8.2003 5.2000 43.5618 10.7530 -15.3187
# 5 6.7091 -9.6191 -17.1360 10.7530 49.7988 2.5975
# 6 44.4071 16.8027 17.8248 -15.3187 2.5975 34.4776
#
#
#
# Elastic Compliance Matrix: (Units=1/GPa)
#
#
# Indices 1 2 3 4 5 6 
#
# 1 0.009989 -0.003106 -0.000352 -0.002290 -0.000940 -0.012117
# 2 -0.003106 0.011163 -0.000433 -0.004506 0.003581 -0.003489
# 3 -0.000352 -0.000433 0.010000 -0.004800 0.004806 -0.007000
# 4 -0.002290 -0.004506 -0.004800 0.035367 -0.011111 0.024179
# 5 -0.000940 0.003581 0.004806 -0.011111 0.025467 -0.009875
# 6 -0.012117 -0.003489 -0.007000 0.024179 -0.009875 0.061417
#
#
# Mechanical properties :
#
#
# Convention : Reuss Voigt Hill
#
# Bulk Modulus (GPa) = 42.78698 73.27810 58.03254
# Shear Modulus (GPa) = 29.59010 45.33530 37.46270
#
# Velocity S-wave (km/s) = 3.36096 4.16014 3.78172
# Velocity P-wave (km/s) = 5.60315 7.14490 6.42047
#
# Compressibility (1/GPa) = 0.02337160
#
# Stress axis : x y z
#
# Youngs Moduli (GPa) = 100.11009 89.58033 100.00002
#
# Poissons Ratio (x) = 0.27820 0.03519
# Poissons Ratio (y) = 0.31090 0.04328
# Poissons Ratio (z) = 0.03523 0.03877
#
# Static dielectric constant tensor:
#      x y z
#    x 2.125520 0.009810 0.045740 
#    y 0.009810 2.131180 -0.017890 
#    z 0.045740 -0.017890 2.027570 
# 
# From -- ./inp_files/152399.got.cif
#   From: 2010.05.17/outbox.cif.g08.bks.cpg/sg2_77_cif.got.tgz:152399.got - 2010.06.03 11:33:40.
