data_PCOD9048912
_publ_section_title
;
Structure prediction by ZEFSAII (Michael W. Deem and Ramdas Pophale) SiO2 
 PCOD9048912
Probable space group: P -1
;
_chemical_formula_sum "Si O2"
_cell_formula_units_Z 15
_cell_length_a 15.432571
_cell_length_b 8.388920
_cell_length_c 6.036505
_cell_angle_alpha 104.788991
_cell_angle_beta 81.005539
_cell_angle_gamma 131.617403
_cell_volume 564.799026
_symmetry_space_group_name_H-M "P -1"
_symmetry_group_IT_number 2
_symmetry_cell_setting 'triclinic'
loop_
_space_group_symop_operation_xyz
x,y,z
-x,-y,-z
loop_
_atom_site_type_symbol
_atom_site_label
_atom_site_fract_x
_atom_site_fract_y
_atom_site_fract_z
Si Si1 0.188444 0.456117 0.626293
Si Si2 0.560646 0.826969 0.232159
Si Si3 0.132163 0.126136 0.908530
Si Si4 0.994978 0.315692 0.330327
Si Si5 0.154113 0.660648 0.068965
Si Si6 0.721843 0.869309 0.814075
Si Si7 0.355555 0.778791 0.345514
Si Si8 0.500000 0.500000 0.500000
O O1 0.173425 0.305210 0.771720
O O2 0.084647 0.319332 0.442513
O O3 0.309824 0.606933 0.502803
O O4 0.179974 0.626867 0.802313
O O5 0.451546 0.798771 0.176911
O O6 0.519226 0.610438 0.290429
O O7 0.602054 0.002991 0.472838
O O8 0.646449 0.886037 0.023144
O O9 0.221054 0.212328 0.104845
O O10 0.120179 0.930690 0.732950
O O11 0.000000 0.000000 0.000000
O O12 0.039701 0.421563 0.105981
O O13 0.000000 0.500000 0.500000
O O14 0.250373 0.696593 0.202552
O O15 0.171474 0.874303 0.189619
O O16 0.636381 0.717026 0.597211
#
# Coordination Sequence:
#
# PCOD9048912 Si02
#       8
#     2   2   2   2   2   2   2   1
#     4  11  24  46  74 108 151 199 249 315 379 456
#     4  11  25  47  70 109 143 202 248 318 378 454
#     4  12  28  49  75 115 155 200 256 318 383 451
#     4  11  26  46  76 109 149 199 256 313 386 457
#     4  11  23  46  74 109 149 199 252 312 381 462
#     4  12  28  48  76 108 159 199 259 315 385 455
#     4  10  24  45  75 106 148 192 257 304 388 450
#     4  12  28  48  72 108 156 200 256 318 382 446
#
# _framework density 26.558118
#
# number of rings (size 3 to 8) (size 9 to 14) (size 15 to 20)
#    0.000    0.800    4.000    1.600    7.467    2.667 
#    0.000    0.000    0.000    0.000    0.000    0.000 
#    0.000    0.000    0.000    0.000    0.000    0.000 
#
# Total GULP energy -83785.837418 kJ/mol
# GULP energy per Si atom -5585.722495 kJ/mol
# Density = 2.649767 g / cm^3
# Si number density = 26.558118 Si / 1000 Ang^3
#
#
#
# Elastic Constant Matrix: (Units=GPa)
#
#
# Indices 1 2 3 4 5 6 
#
# 1 97.6087 18.7109 31.0907 -4.8339 12.0221 -3.7934
# 2 18.7109 128.7083 11.8821 3.7973 21.9907 -10.8071
# 3 31.0907 11.8821 55.8882 8.3503 4.6494 -5.6407
# 4 -4.8339 3.7973 8.3503 48.2808 -1.3920 10.3884
# 5 12.0221 21.9907 4.6494 -1.3920 58.0053 0.1150
# 6 -3.7934 -10.8071 -5.6407 10.3884 0.1150 38.4634
#
#
#
# Elastic Compliance Matrix: (Units=1/GPa)
#
#
# Indices 1 2 3 4 5 6 
#
# 1 0.013136 -0.001098 -0.007448 0.002828 -0.001640 -0.000864
# 2 -0.001098 0.008770 -0.000523 -0.001370 -0.003093 0.002658
# 3 -0.007448 -0.000523 0.023425 -0.005641 -0.000279 0.004078
# 4 0.002828 -0.001370 -0.005641 0.023685 0.000968 -0.007333
# 5 -0.001640 -0.003093 -0.000279 0.000968 0.018801 -0.001390
# 6 -0.000864 0.002658 0.004078 -0.007333 -0.001390 0.029243
#
#
# Mechanical properties :
#
#
# Convention : Reuss Voigt Hill
#
# Bulk Modulus (GPa) = 36.77416 45.06362 40.91889
# Shear Modulus (GPa) = 34.65930 43.65132 39.15531
#
# Velocity S-wave (km/s) = 3.61645 4.05855 3.84386
# Velocity P-wave (km/s) = 5.59598 6.24237 5.92799
#
# Compressibility (1/GPa) = 0.02719301
#
# Stress axis : x y z
#
# Youngs Moduli (GPa) = 76.12576 114.03053 42.68946
#
# Poissons Ratio (x) = 0.12520 0.31794
# Poissons Ratio (y) = 0.08358 0.02234
# Poissons Ratio (z) = 0.56696 0.05967
#
# Static dielectric constant tensor:
#      x y z
#    x 2.200550 -0.000030 -0.080430 
#    y -0.000030 2.103140 -0.014720 
#    z -0.080430 -0.014720 2.078180 
# 
# From -- ./inp_files/105361.got.cif
#   From: 2010.05.17/outbox.cif.g08.bks.cpg/sg2_53_cif.got.tgz:105361.got - 2010.06.03 11:33:40.
