data_PCOD9048205
_publ_section_title
;
Structure prediction by ZEFSAII (Michael W. Deem and Ramdas Pophale) SiO2 
 PCOD9048205
Probable space group: P -1
;
_chemical_formula_sum "Si O2"
_cell_formula_units_Z 14
_cell_length_a 11.340832
_cell_length_b 9.092044
_cell_length_c 11.412406
_cell_angle_alpha 74.539331
_cell_angle_beta 34.864919
_cell_angle_gamma 59.882401
_cell_volume 556.239378
_symmetry_space_group_name_H-M "P -1"
_symmetry_group_IT_number 2
_symmetry_cell_setting 'triclinic'
loop_
_space_group_symop_operation_xyz
x,y,z
-x,-y,-z
loop_
_atom_site_type_symbol
_atom_site_label
_atom_site_fract_x
_atom_site_fract_y
_atom_site_fract_z
Si Si1 0.097085 0.417865 0.811378
Si Si2 0.518375 0.324832 0.236542
Si Si3 0.589177 0.631703 0.122969
Si Si4 0.250285 0.876729 0.533751
Si Si5 0.000000 0.500000 0.500000
Si Si6 0.500000 0.500000 0.500000
Si Si7 0.779487 0.979461 0.226960
Si Si8 0.813861 0.232726 0.774737
O O1 0.344774 0.410833 0.602428
O O2 0.150839 0.219419 0.809390
O O3 0.000000 0.500000 0.000000
O O4 0.869814 0.549373 0.886007
O O5 0.573006 0.466645 0.230457
O O6 0.248788 0.420962 0.390046
O O7 0.572040 0.144524 0.291129
O O8 0.698798 0.272583 0.989447
O O9 0.464435 0.794006 0.281135
O O10 0.417233 0.691440 0.138776
O O11 0.265812 0.702745 0.613141
O O12 0.268765 0.982619 0.604793
O O13 0.996268 0.021874 0.653415
O O14 0.043624 0.665040 0.386508
O O15 0.000000 0.000000 0.000000
#
# Coordination Sequence:
#
# PCOD9048205 Si02
#       8
#     2   2   2   2   1   1   2   2
#     4  12  26  50  75 111 159 200 263 324 392 461
#     4  11  24  49  78 113 154 207 259 318 390 463
#     4  11  23  48  74 109 159 199 258 321 383 460
#     4  12  25  49  76 116 156 199 258 322 394 462
#     4  10  24  44  76 114 152 198 264 318 380 460
#     4  12  28  48  76 112 162 204 252 326 392 466
#     4  12  24  48  82 114 154 203 261 325 386 474
#     4  11  25  49  77 110 157 209 259 319 383 473
#
# _framework density 25.169018000000001
#
# number of rings (size 3 to 8) (size 9 to 14) (size 15 to 20)
#    0.000    0.571    4.286    3.857    2.000    0.571 
#   20.571    0.714    0.000    0.000    0.000    0.000 
#    0.000    0.000    0.000    0.000    0.000    0.000 
#
# Total GULP energy -77973.188923 kJ/mol
# GULP energy per Si atom -5569.513494 kJ/mol
# Density = 2.511173 g / cm^3
# Si number density = 25.169018 Si / 1000 Ang^3
#
#
#
# Elastic Constant Matrix: (Units=GPa)
#
#
# Indices 1 2 3 4 5 6 
#
# 1 74.9369 74.7084 43.8220 10.4539 -18.6603 7.0720
# 2 74.7084 188.2727 63.8063 21.1841 -15.8188 13.1842
# 3 43.8220 63.8063 145.2429 6.7332 -26.4041 10.2253
# 4 10.4539 21.1841 6.7332 49.1006 0.0643 -6.0935
# 5 -18.6603 -15.8188 -26.4041 0.0643 63.5895 16.0933
# 6 7.0720 13.1842 10.2253 -6.0935 16.0933 54.2438
#
#
#
# Elastic Compliance Matrix: (Units=1/GPa)
#
#
# Indices 1 2 3 4 5 6 
#
# 1 0.024659 -0.008099 -0.002801 -0.001661 0.004637 -0.002281
# 2 -0.008099 0.009341 -0.001563 -0.002220 -0.000437 -0.001039
# 3 -0.002801 -0.001563 0.009117 -0.000220 0.003057 -0.001905
# 4 -0.001661 -0.002220 -0.000220 0.022198 -0.002147 0.003928
# 5 0.004637 -0.000437 0.003057 -0.002147 0.020091 -0.007277
# 6 -0.002281 -0.001039 -0.001905 0.003928 -0.007277 0.021944
#
#
# Mechanical properties :
#
#
# Convention : Reuss Voigt Hill
#
# Bulk Modulus (GPa) = 54.97794 85.90289 70.44041
# Shear Modulus (GPa) = 36.14243 48.46116 42.30180
#
# Velocity S-wave (km/s) = 3.79356 4.39273 4.10409
# Velocity P-wave (km/s) = 6.40929 7.74162 7.10674
#
# Compressibility (1/GPa) = 0.01818911
#
# Stress axis : x y z
#
# Youngs Moduli (GPa) = 40.55313 107.05509 109.68490
#
# Poissons Ratio (x) = 0.86708 0.30727
# Poissons Ratio (y) = 0.32846 0.17146
# Poissons Ratio (z) = 0.11360 0.16735
#
# Static dielectric constant tensor:
#      x y z
#    x 2.251840 -0.091800 0.144310 
#    y -0.091800 1.979190 -0.018610 
#    z 0.144310 -0.018610 2.144240 
# 
# From -- ./inp_files/512985.got.cif
#   From: 2010.05.17/outbox.cif.g08.bks.cpg/sg2_257_cif.got.tgz:512985.got - 2010.06.03 11:33:40.
