data_PCOD9048782
_publ_section_title
;
Structure prediction by ZEFSAII (Michael W. Deem and Ramdas Pophale) SiO2 
 PCOD9048782
Probable space group: P -1
;
_chemical_formula_sum "Si O2"
_cell_formula_units_Z 14
_cell_length_a 9.412393
_cell_length_b 11.505281
_cell_length_c 9.258255
_cell_angle_alpha 131.005647
_cell_angle_beta 48.606364
_cell_angle_gamma 107.743151
_cell_volume 552.636924
_symmetry_space_group_name_H-M "P -1"
_symmetry_group_IT_number 2
_symmetry_cell_setting 'triclinic'
loop_
_space_group_symop_operation_xyz
x,y,z
-x,-y,-z
loop_
_atom_site_type_symbol
_atom_site_label
_atom_site_fract_x
_atom_site_fract_y
_atom_site_fract_z
Si Si1 0.531031 0.602436 0.701125
Si Si2 0.011021 0.141014 0.299876
Si Si3 0.921486 0.811384 0.035100
Si Si4 0.270710 0.142699 0.371389
Si Si5 0.665157 0.402012 0.703595
Si Si6 0.544225 0.857260 0.463993
Si Si7 0.092639 0.653655 0.051087
O O1 0.500000 0.500000 0.500000
O O2 0.618985 0.738720 0.684332
O O3 0.677770 0.521825 0.663010
O O4 0.312289 0.641999 0.946610
O O5 0.858194 0.305293 0.576717
O O6 0.187388 0.067920 0.229643
O O7 0.909384 0.994397 0.231975
O O8 0.078943 0.186474 0.134132
O O9 0.742607 0.753562 0.177966
O O10 0.096070 0.706399 0.923428
O O11 0.413053 0.077221 0.354975
O O12 0.067663 0.216567 0.650670
O O13 0.599502 0.258901 0.543880
O O14 0.500000 0.500000 0.000000
O O15 0.500000 0.000000 0.500000
O O16 0.000000 0.500000 0.000000
#
# Coordination Sequence:
#
# PCOD9048782 Si02
#       7
#     2   2   2   2   2   2   2
#     4  12  22  43  69 100 141 184 232 289 350 420
#     4  11  25  46  69 104 141 187 238 298 357 430
#     4  10  24  45  72  97 145 189 236 293 369 419
#     4  11  26  43  70 105 137 183 242 290 359 422
#     4  12  26  45  72 107 144 187 240 293 360 424
#     4  11  23  47  74 101 144 190 235 294 359 433
#     4  11  22  42  69 101 139 185 237 287 354 425
#
# _framework density 25.333088
#
# number of rings (size 3 to 8) (size 9 to 14) (size 15 to 20)
#    0.000    0.857    4.286    2.571    2.000    2.857 
#    2.571    1.429    0.000    0.000    0.000    0.000 
#    0.000    0.000    0.000    0.000    0.000    0.000 
#
# Total GULP energy -78167.398797 kJ/mol
# GULP energy per Si atom -5583.385628 kJ/mol
# Density = 2.527543 g / cm^3
# Si number density = 25.333088 Si / 1000 Ang^3
#
#
#
# Elastic Constant Matrix: (Units=GPa)
#
#
# Indices 1 2 3 4 5 6 
#
# 1 117.8098 43.8639 14.4252 -5.5514 14.1925 -22.7557
# 2 43.8639 111.3546 16.1092 -23.6035 8.8887 -35.1376
# 3 14.4252 16.1092 68.2877 -11.8558 -3.8609 -6.1708
# 4 -5.5514 -23.6035 -11.8558 30.5980 -6.0466 -3.6989
# 5 14.1925 8.8887 -3.8609 -6.0466 29.6953 -10.2350
# 6 -22.7557 -35.1376 -6.1708 -3.6989 -10.2350 60.5742
#
#
#
# Elastic Compliance Matrix: (Units=1/GPa)
#
#
# Indices 1 2 3 4 5 6 
#
# 1 0.010748 -0.003967 -0.002010 -0.002718 -0.004559 0.000595
# 2 -0.003967 0.015992 0.000410 0.013491 0.003070 0.009171
# 3 -0.002010 0.000410 0.016897 0.007913 0.005551 0.002625
# 4 -0.002718 0.013491 0.007913 0.049748 0.012837 0.012817
# 5 -0.004559 0.003070 0.005551 0.012837 0.041156 0.008372
# 6 0.000595 0.009171 0.002625 0.012817 0.008372 0.024516
#
#
# Mechanical properties :
#
#
# Convention : Reuss Voigt Hill
#
# Bulk Modulus (GPa) = 30.76833 49.58321 40.17577
# Shear Modulus (GPa) = 27.62033 39.04376 33.33204
#
# Velocity S-wave (km/s) = 3.30553 3.93009 3.63126
# Velocity P-wave (km/s) = 5.17113 6.34107 5.78575
#
# Compressibility (1/GPa) = 0.03250095
#
# Stress axis : x y z
#
# Youngs Moduli (GPa) = 93.04383 62.53120 59.18307
#
# Poissons Ratio (x) = 0.24808 0.11898
# Poissons Ratio (y) = 0.36913 -0.02427
# Poissons Ratio (z) = 0.18706 -0.02564
#
# Static dielectric constant tensor:
#      x y z
#    x 2.204550 -0.074860 -0.092420 
#    y -0.074860 1.939010 0.044180 
#    z -0.092420 0.044180 2.144030 
# 
# From -- ./inp_files/190580.got.cif
#   From: 2010.05.17/outbox.cif.g08.bks.cpg/sg2_96_cif.got.tgz:190580.got - 2010.06.03 11:33:40.
