data_PCOD9048055
_publ_section_title
;
Structure prediction by ZEFSAII (Michael W. Deem and Ramdas Pophale) SiO2 
 PCOD9048055
Probable space group: P -1
;
_chemical_formula_sum "Si O2"
_cell_formula_units_Z 15
_cell_length_a 9.887523
_cell_length_b 15.758449
_cell_length_c 15.405120
_cell_angle_alpha 153.201450
_cell_angle_beta 49.611119
_cell_angle_gamma 113.360298
_cell_volume 699.177560
_symmetry_space_group_name_H-M "P -1"
_symmetry_group_IT_number 2
_symmetry_cell_setting 'triclinic'
loop_
_space_group_symop_operation_xyz
x,y,z
-x,-y,-z
loop_
_atom_site_type_symbol
_atom_site_label
_atom_site_fract_x
_atom_site_fract_y
_atom_site_fract_z
Si Si1 0.585815 0.207340 0.965920
Si Si2 0.695258 0.470965 0.949623
Si Si3 0.297908 0.690602 0.805555
Si Si4 0.393244 0.688460 0.416957
Si Si5 0.946691 0.829936 0.720340
Si Si6 0.045297 0.425739 0.198625
Si Si7 0.000000 0.000000 0.500000
Si Si8 0.269388 0.083760 0.945124
O O1 0.441238 0.107841 0.946744
O O2 0.658735 0.269734 0.078980
O O3 0.446009 0.443371 0.192362
O O4 0.791088 0.044515 0.677230
O O5 0.831255 0.533214 0.890201
O O6 0.500000 0.500000 0.000000
O O7 0.576752 0.647572 0.238727
O O8 0.844629 0.228893 0.710296
O O9 0.500000 0.500000 0.500000
O O10 0.117493 0.634933 0.824934
O O11 0.228891 0.919779 0.996239
O O12 0.162886 0.806266 0.579441
O O13 0.366506 0.833065 0.644281
O O14 0.929399 0.646840 0.508187
O O15 0.933579 0.810636 0.812003
O O16 0.204169 0.227715 0.015789
#
# Coordination Sequence:
#
# PCOD9048055 Si02
#       8
#     2   2   2   2   2   2   1   2
#     4  11  25  45  67 101 141 178 234 294 351 415
#     4  11  23  46  74 106 145 181 242 295 354 426
#     4  12  28  44  65 105 144 182 231 294 352 420
#     4  11  24  43  71 102 133 183 232 293 347 419
#     4  12  24  44  70  98 143 179 234 291 346 418
#     4  12  25  44  75 103 136 192 232 285 362 418
#     4  10  24  44  72  98 142 188 222 294 358 406
#     4  12  25  42  73 103 135 189 237 285 355 422
#
# _framework density 21.453778
#
# number of rings (size 3 to 8) (size 9 to 14) (size 15 to 20)
#    0.000    0.533    4.000    4.000    1.867    6.933 
#    0.000    2.667    0.000    0.000    0.000    0.000 
#    0.000    0.000    0.000    0.000    0.000    0.000 
#
# Total GULP energy -83577.723431 kJ/mol
# GULP energy per Si atom -5571.848229 kJ/mol
# Density = 2.140495 g / cm^3
# Si number density = 21.453778 Si / 1000 Ang^3
#
#
#
# Elastic Constant Matrix: (Units=GPa)
#
#
# Indices 1 2 3 4 5 6 
#
# 1 42.7949 -45.5256 10.8824 -20.4176 -13.2602 21.4956
# 2 -45.5256 27.1765 8.3510 -32.6837 -30.4724 2.7448
# 3 10.8824 8.3510 110.0830 -2.2502 -13.3530 12.4933
# 4 -20.4176 -32.6837 -2.2502 32.2607 -11.7015 -2.3204
# 5 -13.2602 -30.4724 -13.3530 -11.7015 25.6518 7.5326
# 6 21.4956 2.7448 12.4933 -2.3204 7.5326 30.3420
#
#
#
# Elastic Compliance Matrix: (Units=1/GPa)
#
#
# Indices 1 2 3 4 5 6 
#
# 1 0.007614 -0.009073 -0.001329 -0.008543 -0.010848 -0.001986
# 2 -0.009073 0.001397 -0.001543 -0.007345 -0.009768 0.008800
# 3 -0.001329 -0.001543 0.010238 -0.000634 0.003726 -0.004108
# 4 -0.008543 -0.007345 -0.000634 0.015404 -0.009535 0.010523
# 5 -0.010848 -0.009768 0.003726 -0.009535 0.018888 0.001616
# 6 -0.001986 0.008800 -0.004108 0.010523 0.001616 0.035664
#
#
# Mechanical properties :
#
#
# Convention : Reuss Voigt Hill
#
# Bulk Modulus (GPa) = -215.45233 14.16332 -100.64450
# Shear Modulus (GPa) = 44.82411 31.40734 38.11572
#
# Velocity S-wave (km/s) = 4.57588 3.83032 4.21960
# Velocity P-wave (km/s) = 8.52796 5.11643 4.82432
#
# Compressibility (1/GPa) = -0.00464140
#
# Stress axis : x y z
#
# Youngs Moduli (GPa) = 131.33259 715.91284 97.67822
#
# Poissons Ratio (x) = 6.49539 0.12986
# Poissons Ratio (y) = 1.19156 0.15070
# Poissons Ratio (z) = 0.17460 1.10450
#
# Static dielectric constant tensor:
#      x y z
#    x 1.729640 0.025100 0.030660 
#    y 0.025100 1.713240 -0.036660 
#    z 0.030660 -0.036660 1.754890 
# 
# From -- ./inp_files/182030.got.cif
#   From: 2010.05.17/outbox.cif.g08.bks.cpg/sg2_92_cif.got.tgz:182030.got - 2010.06.03 11:33:40.
