data_PCOD9048031
_publ_section_title
;
Structure prediction by ZEFSAII (Michael W. Deem and Ramdas Pophale) SiO2 
 PCOD9048031
Probable space group: P -1
;
_chemical_formula_sum "Si O2"
_cell_formula_units_Z 14
_cell_length_a 18.335208
_cell_length_b 9.014044
_cell_length_c 12.147111
_cell_angle_alpha 29.993618
_cell_angle_beta 36.626664
_cell_angle_gamma 46.682179
_cell_volume 598.477886
_symmetry_space_group_name_H-M "P -1"
_symmetry_group_IT_number 2
_symmetry_cell_setting 'triclinic'
loop_
_space_group_symop_operation_xyz
x,y,z
-x,-y,-z
loop_
_atom_site_type_symbol
_atom_site_label
_atom_site_fract_x
_atom_site_fract_y
_atom_site_fract_z
Si Si1 0.270525 0.435945 0.547252
Si Si2 0.364220 0.425473 0.675522
Si Si3 0.306269 0.795953 0.880109
Si Si4 0.315184 0.954464 0.531152
Si Si5 0.050498 0.794060 0.674010
Si Si6 0.422882 0.795944 0.972494
Si Si7 0.111092 0.291280 0.465608
O O1 0.354223 0.483897 0.521797
O O2 0.159029 0.639856 0.575946
O O3 0.231721 0.090836 0.809534
O O4 0.356028 0.517552 0.288707
O O5 0.500000 0.500000 0.500000
O O6 0.285165 0.654593 0.690872
O O7 0.347579 0.073595 0.933469
O O8 0.364329 0.856944 0.652550
O O9 0.395354 0.769495 0.893075
O O10 0.215406 0.519856 0.148997
O O11 0.434206 0.131876 0.222408
O O12 0.189357 0.130991 0.570205
O O13 0.076943 0.043292 0.575782
O O14 0.000000 0.000000 0.500000
O O15 0.000000 0.500000 0.000000
O O16 0.000000 0.500000 0.500000
#
# Coordination Sequence:
#
# PCOD9048031 Si02
#       7
#     2   2   2   2   2   2   2
#     4  11  24  46  73 107 151 200 256 316 385 471
#     4   9  21  40  67 103 145 186 247 308 383 452
#     4  11  26  44  73 105 156 193 253 313 394 461
#     4  11  24  44  72 109 151 196 255 315 393 460
#     4  12  31  53  83 110 154 208 269 325 395 464
#     4  10  24  44  72 110 151 199 246 312 393 470
#     4  12  29  48  73 107 149 197 260 321 387 457
#
# _framework density 23.392676000000002
#
# number of rings (size 3 to 8) (size 9 to 14) (size 15 to 20)
#    0.000    1.143    1.429    2.143   12.000    8.571 
#    0.000    0.000    0.000    0.000    0.000    0.000 
#    0.000    0.000    0.000    0.000    0.000    0.000 
#
# Total GULP energy -78044.458784 kJ/mol
# GULP energy per Si atom -5574.604199 kJ/mol
# Density = 2.333943 g / cm^3
# Si number density = 23.392676 Si / 1000 Ang^3
#
#
#
# Elastic Constant Matrix: (Units=GPa)
#
#
# Indices 1 2 3 4 5 6 
#
# 1 117.9926 38.8976 38.2019 -17.2174 7.7952 6.8871
# 2 38.8976 145.6747 36.0316 -26.0420 -6.1532 -5.6188
# 3 38.2019 36.0316 107.5251 -21.8293 -9.0022 6.1338
# 4 -17.2174 -26.0420 -21.8293 38.1666 6.5093 -8.5066
# 5 7.7952 -6.1532 -9.0022 6.5093 28.4473 -5.6355
# 6 6.8871 -5.6188 6.1338 -8.5066 -5.6355 46.0253
#
#
#
# Elastic Compliance Matrix: (Units=1/GPa)
#
#
# Indices 1 2 3 4 5 6 
#
# 1 0.010924 -0.002032 -0.003077 0.002303 -0.005269 -0.001692
# 2 -0.002032 0.008711 -0.001283 0.004613 0.001489 0.002573
# 3 -0.003077 -0.001283 0.011916 0.003940 0.003408 -0.000139
# 4 0.002303 0.004613 0.003940 0.034757 -0.005255 0.005474
# 5 -0.005269 0.001489 0.003408 -0.005255 0.040082 0.004453
# 6 -0.001692 0.002573 -0.000139 0.005474 0.004453 0.023870
#
#
# Mechanical properties :
#
#
# Convention : Reuss Voigt Hill
#
# Bulk Modulus (GPa) = 53.28269 66.38385 59.83327
# Shear Modulus (GPa) = 33.48940 39.73193 36.61067
#
# Velocity S-wave (km/s) = 3.78778 4.12573 3.96036
# Velocity P-wave (km/s) = 6.47740 7.15089 6.82246
#
# Compressibility (1/GPa) = 0.01876782
#
# Stress axis : x y z
#
# Youngs Moduli (GPa) = 91.53972 114.79319 83.91766
#
# Poissons Ratio (x) = 0.23325 0.25824
# Poissons Ratio (y) = 0.18600 0.10765
# Poissons Ratio (z) = 0.28170 0.14726
#
# Static dielectric constant tensor:
#      x y z
#    x 1.878550 -0.023140 0.042570 
#    y -0.023140 1.925530 -0.047000 
#    z 0.042570 -0.047000 1.898380 
# 
# From -- ./inp_files/131750.got.cif
#   From: 2010.05.17/outbox.cif.g08.bks.cpg/sg2_66_cif.got.tgz:131750.got - 2010.06.03 11:33:40.
