data_PCOD9048108
_publ_section_title
;
Structure prediction by ZEFSAII (Michael W. Deem and Ramdas Pophale) SiO2 
 PCOD9048108
Probable space group: P -1
;
_chemical_formula_sum "Si O2"
_cell_formula_units_Z 12
_cell_length_a 8.686053
_cell_length_b 9.552413
_cell_length_c 9.584872
_cell_angle_alpha 95.976855
_cell_angle_beta 133.727230
_cell_angle_gamma 75.876330
_cell_volume 554.961226
_symmetry_space_group_name_H-M "P -1"
_symmetry_group_IT_number 2
_symmetry_cell_setting 'triclinic'
loop_
_space_group_symop_operation_xyz
x,y,z
-x,-y,-z
loop_
_atom_site_type_symbol
_atom_site_label
_atom_site_fract_x
_atom_site_fract_y
_atom_site_fract_z
Si Si1 0.395625 0.395691 0.521204
Si Si2 0.596206 0.417025 0.196973
Si Si3 0.031701 0.881529 0.629686
Si Si4 0.537562 0.896754 0.378938
Si Si5 0.850069 0.951168 0.016435
Si Si6 0.187654 0.355717 0.107241
O O1 0.500000 0.500000 0.500000
O O2 0.315894 0.482548 0.622945
O O3 0.550280 0.245652 0.656911
O O4 0.246744 0.338120 0.307257
O O5 0.784288 0.269288 0.281131
O O6 0.392812 0.376523 0.146469
O O7 0.500000 0.500000 0.000000
O O8 0.793515 0.849561 0.499314
O O9 0.000000 0.000000 0.500000
O O10 0.096588 0.972657 0.805579
O O11 0.500000 0.000000 0.500000
O O12 0.402225 0.985492 0.178174
O O13 0.889008 0.779193 0.018416
O O14 0.000000 0.000000 0.000000
O O15 0.000000 0.500000 0.000000
#
# Coordination Sequence:
#
# PCOD9048108 Si02
#       6
#     2   2   2   2   2   2
#     4  10  24  44  73  97 141 183 237 289 350 422
#     4  11  27  47  70 107 149 182 238 301 363 420
#     4  12  29  46  73 108 149 188 235 303 366 416
#     4  12  24  46  75 106 139 188 247 285 358 431
#     4  12  26  46  77 105 143 188 245 297 349 432
#     4  11  26  44  75 103 136 190 243 284 355 430
#
# _framework density 21.623131000000001
#
# number of rings (size 3 to 8) (size 9 to 14) (size 15 to 20)
#    0.000    0.667    3.333    2.000   14.000    4.667 
#    0.000    0.000    0.000    0.000    0.000    0.000 
#    0.000    0.000    0.000    0.000    0.000    0.000 
#
# Total GULP energy -67026.194045 kJ/mol
# GULP energy per Si atom -5585.516170 kJ/mol
# Density = 2.157392 g / cm^3
# Si number density = 21.623131 Si / 1000 Ang^3
#
#
#
# Elastic Constant Matrix: (Units=GPa)
#
#
# Indices 1 2 3 4 5 6 
#
# 1 119.5401 58.9570 53.8941 -13.9538 2.0059 -14.0873
# 2 58.9570 191.8485 49.4159 -4.4306 -7.3195 -22.3887
# 3 53.8941 49.4159 126.2372 1.0484 -26.0353 -27.5918
# 4 -13.9538 -4.4306 1.0484 51.7227 -7.1754 -1.7712
# 5 2.0059 -7.3195 -26.0353 -7.1754 49.4122 -1.9699
# 6 -14.0873 -22.3887 -27.5918 -1.7712 -1.9699 38.3848
#
#
#
# Elastic Compliance Matrix: (Units=1/GPa)
#
#
# Indices 1 2 3 4 5 6 
#
# 1 0.012193 -0.002593 -0.005011 0.002708 -0.003153 -0.000677
# 2 -0.002593 0.006512 -0.000776 0.000060 0.000763 0.002331
# 3 -0.005011 -0.000776 0.013646 -0.000379 0.007538 0.007887
# 4 0.002708 0.000060 -0.000379 0.020522 0.002753 0.001844
# 5 -0.003153 0.000763 0.007538 0.002753 0.025095 0.006121
# 6 -0.000677 0.002331 0.007887 0.001844 0.006121 0.033232
#
#
# Mechanical properties :
#
#
# Convention : Reuss Voigt Hill
#
# Bulk Modulus (GPa) = 64.13904 84.68441 74.41173
# Shear Modulus (GPa) = 37.54999 46.26120 41.90560
#
# Velocity S-wave (km/s) = 4.17173 4.63042 4.40705
# Velocity P-wave (km/s) = 7.27538 8.23629 7.77070
#
# Compressibility (1/GPa) = 0.01559113
#
# Stress axis : x y z
#
# Youngs Moduli (GPa) = 82.01599 153.57310 73.27964
#
# Poissons Ratio (x) = 0.39820 0.36721
# Poissons Ratio (y) = 0.21266 0.05685
# Poissons Ratio (z) = 0.41099 0.11914
#
# Static dielectric constant tensor:
#      x y z
#    x 1.820880 0.086140 -0.028020 
#    y 0.086140 1.880820 -0.109460 
#    z -0.028020 -0.109460 1.888240 
# 
# From -- ./inp_files/151129.got.cif
#   From: 2010.05.17/outbox.cif.g08.bks.cpg/sg2_76_cif.got.tgz:151129.got - 2010.06.03 11:33:40.
