data_PCOD9048127
_publ_section_title
;
Structure prediction by ZEFSAII (Michael W. Deem and Ramdas Pophale) SiO2 
 PCOD9048127
Probable space group: P -1
;
_chemical_formula_sum "Si O2"
_cell_formula_units_Z 16
_cell_length_a 5.167420
_cell_length_b 14.961172
_cell_length_c 12.268653
_cell_angle_alpha 138.405891
_cell_angle_beta 87.622086
_cell_angle_gamma 95.904895
_cell_volume 625.415448
_symmetry_space_group_name_H-M "P -1"
_symmetry_group_IT_number 2
_symmetry_cell_setting 'triclinic'
loop_
_space_group_symop_operation_xyz
x,y,z
-x,-y,-z
loop_
_atom_site_type_symbol
_atom_site_label
_atom_site_fract_x
_atom_site_fract_y
_atom_site_fract_z
Si Si1 0.495476 0.699394 0.927399
Si Si2 0.858709 0.298534 0.345651
Si Si3 0.921834 0.884477 0.985031
Si Si4 0.353156 0.352995 0.888860
Si Si5 0.396942 0.411936 0.554870
Si Si6 0.384762 0.834482 0.576907
Si Si7 0.150155 0.782340 0.314937
Si Si8 0.184335 0.917638 0.228203
O O1 0.409662 0.556475 0.743447
O O2 0.634259 0.807677 0.937427
O O3 0.680715 0.672256 0.003314
O O4 0.278208 0.774483 0.059572
O O5 0.122723 0.361062 0.457435
O O6 0.359883 0.599294 0.542965
O O7 0.927171 0.240900 0.175774
O O8 0.732355 0.173083 0.306745
O O9 0.997342 0.942706 0.155412
O O10 0.000000 0.000000 0.000000
O O11 0.556214 0.252248 0.748262
O O12 0.079488 0.334679 0.814175
O O13 0.500000 0.500000 0.000000
O O14 0.461774 0.300166 0.542731
O O15 0.165291 0.819611 0.474855
O O16 0.577485 0.966480 0.672409
O O17 0.086310 0.894715 0.330973
#
# Coordination Sequence:
#
# PCOD9048127 Si02
#       8
#     2   2   2   2   2   2   2   2
#     4  11  26  44  74 107 147 186 242 303 357 431
#     4  10  26  44  72 104 139 194 241 290 358 425
#     4  12  26  47  76 102 148 192 246 300 361 427
#     4  11  24  43  71 108 145 193 233 291 365 429
#     4  10  25  46  71 106 143 186 242 294 360 427
#     4  10  24  44  74 103 150 191 240 291 363 430
#     4  11  24  43  69 108 142 188 238 298 353 432
#     4  11  25  47  70 108 143 192 244 299 359 429
#
# _framework density 25.582993999999999
#
# number of rings (size 3 to 8) (size 9 to 14) (size 15 to 20)
#    0.750    0.500    1.250    3.000    7.000    2.000 
#    0.000    1.875    0.000    0.000    0.000    0.000 
#    0.000    0.000    0.000    0.000    0.000    0.000 
#
# Total GULP energy -89550.971060 kJ/mol
# GULP energy per Si atom -5596.935691 kJ/mol
# Density = 2.552477 g / cm^3
# Si number density = 25.582994 Si / 1000 Ang^3
#
#
#
# Elastic Constant Matrix: (Units=GPa)
#
#
# Indices 1 2 3 4 5 6 
#
# 1 101.3418 12.2698 32.8700 10.6729 9.2305 -1.8977
# 2 12.2698 107.5890 31.4616 -5.6219 7.7802 2.3325
# 3 32.8700 31.4616 128.9892 3.5571 5.8495 -6.9417
# 4 10.6729 -5.6219 3.5571 36.1403 2.5620 3.5538
# 5 9.2305 7.7802 5.8495 2.5620 58.4189 3.8090
# 6 -1.8977 2.3325 -6.9417 3.5538 3.8090 43.5119
#
#
#
# Elastic Compliance Matrix: (Units=1/GPa)
#
#
# Indices 1 2 3 4 5 6 
#
# 1 0.011224 -0.000615 -0.002537 -0.003114 -0.001333 0.000489
# 2 -0.000615 0.010287 -0.002422 0.002199 -0.001058 -0.001052
# 3 -0.002537 -0.002422 0.009103 -0.000657 -0.000260 0.001548
# 4 -0.003114 0.002199 -0.000657 0.029320 -0.000846 -0.002679
# 5 -0.001333 -0.001058 -0.000260 -0.000846 0.017631 -0.001517
# 6 0.000489 -0.001052 0.001548 -0.002679 -0.001517 0.023658
#
#
# Mechanical properties :
#
#
# Convention : Reuss Voigt Hill
#
# Bulk Modulus (GPa) = 51.37240 54.56917 52.97079
# Shear Modulus (GPa) = 42.06637 45.03548 43.55092
#
# Velocity S-wave (km/s) = 4.05941 4.20023 4.13042
# Velocity P-wave (km/s) = 6.48814 6.70068 6.59527
#
# Compressibility (1/GPa) = 0.01946571
#
# Stress axis : x y z
#
# Youngs Moduli (GPa) = 89.09830 97.20897 109.85280
#
# Poissons Ratio (x) = 0.05977 0.27875
# Poissons Ratio (y) = 0.05479 0.26603
# Poissons Ratio (z) = 0.22609 0.23541
#
# Static dielectric constant tensor:
#      x y z
#    x 2.061350 -0.073260 -0.013380 
#    y -0.073260 2.059510 -0.015820 
#    z -0.013380 -0.015820 1.974870 
# 
# From -- ./inp_files/368080.got.cif
#   From: 2010.05.17/outbox.cif.g08.bks.cpg/sg2_185_cif.got.tgz:368080.got - 2010.06.03 11:33:40.
