data_PCOD9048130
_publ_section_title
;
Structure prediction by ZEFSAII (Michael W. Deem and Ramdas Pophale) SiO2 
 PCOD9048130
Probable space group: P -1
;
_chemical_formula_sum "Si O2"
_cell_formula_units_Z 13
_cell_length_a 5.362092
_cell_length_b 18.808707
_cell_length_c 9.121594
_cell_angle_alpha 144.070485
_cell_angle_beta 86.696489
_cell_angle_gamma 78.620566
_cell_volume 489.961610
_symmetry_space_group_name_H-M "P -1"
_symmetry_group_IT_number 2
_symmetry_cell_setting 'triclinic'
loop_
_space_group_symop_operation_xyz
x,y,z
-x,-y,-z
loop_
_atom_site_type_symbol
_atom_site_label
_atom_site_fract_x
_atom_site_fract_y
_atom_site_fract_z
Si Si1 0.000000 0.000000 0.000000
Si Si2 0.017142 0.208599 0.190889
Si Si3 0.028107 0.487137 0.651537
Si Si4 0.404424 0.990485 0.221501
Si Si5 0.317499 0.434102 0.820801
Si Si6 0.817854 0.149704 0.806444
Si Si7 0.573374 0.749019 0.245938
O O1 0.840544 0.157548 0.213773
O O2 0.136684 0.038721 0.209699
O O3 0.993112 0.352397 0.469751
O O4 0.304284 0.073053 0.980753
O O5 0.957239 0.205281 0.015011
O O6 0.306620 0.455806 0.682353
O O7 0.000000 0.500000 0.500000
O O8 0.810460 0.627052 0.953400
O O9 0.418165 0.869164 0.121437
O O10 0.401098 0.111529 0.521589
O O11 0.419225 0.290204 0.651347
O O12 0.500000 0.500000 0.000000
O O13 0.000000 0.500000 0.000000
O O14 0.697336 0.232690 0.804556
O O15 0.000000 0.000000 0.500000
#
# Coordination Sequence:
#
# PCOD9048130 Si02
#       7
#     1   2   2   2   2   2   2
#     4  10  24  44  74 104 142 192 246 314 374 448
#     4  11  24  46  69 105 144 186 249 306 386 444
#     4  11  26  47  74 111 152 198 250 322 390 461
#     4  11  23  45  70 103 142 189 252 301 377 451
#     4  10  25  50  72 108 150 204 255 309 389 468
#     4  11  24  40  73 104 137 193 247 310 365 456
#     4  11  24  46  74 106 146 198 248 315 379 465
#
# _framework density 26.532689000000001
#
# number of rings (size 3 to 8) (size 9 to 14) (size 15 to 20)
#    0.000    1.231    1.538    2.769    4.308    1.846 
#   24.923    0.000    0.000    0.000    0.000    0.000 
#    0.000    0.000    0.000    0.000    0.000    0.000 
#
# Total GULP energy -72484.069266 kJ/mol
# GULP energy per Si atom -5575.697636 kJ/mol
# Density = 2.647230 g / cm^3
# Si number density = 26.532689 Si / 1000 Ang^3
#
#
#
# Elastic Constant Matrix: (Units=GPa)
#
#
# Indices 1 2 3 4 5 6 
#
# 1 63.3795 20.9290 45.7328 -15.2553 13.4908 -31.9668
# 2 20.9290 171.6270 30.1945 -19.2739 6.7492 -36.3550
# 3 45.7328 30.1945 150.9872 0.6014 8.7039 2.1699
# 4 -15.2553 -19.2739 0.6014 55.5168 7.2971 14.7895
# 5 13.4908 6.7492 8.7039 7.2971 50.2070 -2.9678
# 6 -31.9668 -36.3550 2.1699 14.7895 -2.9678 38.4445
#
#
#
# Elastic Compliance Matrix: (Units=1/GPa)
#
#
# Indices 1 2 3 4 5 6 
#
# 1 0.059197 0.009269 -0.019959 0.006320 -0.011312 0.055811
# 2 0.009269 0.009166 -0.004745 0.001881 -0.002243 0.015746
# 3 -0.019959 -0.004745 0.013771 -0.002078 0.002683 -0.020854
# 4 0.006320 0.001881 -0.002078 0.021446 -0.004795 -0.001470
# 5 -0.011312 -0.002243 0.002683 -0.004795 0.023014 -0.008057
# 6 0.055811 0.015746 -0.020854 -0.001470 -0.008057 0.088429
#
#
# Mechanical properties :
#
#
# Convention : Reuss Voigt Hill
#
# Bulk Modulus (GPa) = 19.50683 64.41180 41.95932
# Shear Modulus (GPa) = 19.01269 48.10947 33.56108
#
# Velocity S-wave (km/s) = 2.67980 4.26281 3.56040
# Velocity P-wave (km/s) = 4.11619 6.96834 5.72280
#
# Compressibility (1/GPa) = 0.05126410
#
# Stress axis : x y z
#
# Youngs Moduli (GPa) = 16.89262 109.09934 72.61726
#
# Poissons Ratio (x) = -1.01128 1.44939
# Poissons Ratio (y) = -0.15658 0.34458
# Poissons Ratio (z) = 0.33716 0.51769
#
# Static dielectric constant tensor:
#      x y z
#    x 1.560000 -0.325110 0.188100 
#    y -0.325110 1.964430 0.061390 
#    z 0.188100 0.061390 2.008960 
# 
# From -- ./inp_files/24069.got.cif
#   From: 2010.05.17/outbox.cif.g08.bks.cpg/sg2_13_cif.got.tgz:24069.got - 2010.06.03 11:33:40.
