data_PCOD9048328
_publ_section_title
;
Structure prediction by ZEFSAII (Michael W. Deem and Ramdas Pophale) SiO2 
 PCOD9048328
Probable space group: P -1
;
_chemical_formula_sum "Si O2"
_cell_formula_units_Z 14
_cell_length_a 9.391936
_cell_length_b 5.147281
_cell_length_c 17.428163
_cell_angle_alpha 49.684198
_cell_angle_beta 92.608465
_cell_angle_gamma 113.269124
_cell_volume 562.995417
_symmetry_space_group_name_H-M "P -1"
_symmetry_group_IT_number 2
_symmetry_cell_setting 'triclinic'
loop_
_space_group_symop_operation_xyz
x,y,z
-x,-y,-z
loop_
_atom_site_type_symbol
_atom_site_label
_atom_site_fract_x
_atom_site_fract_y
_atom_site_fract_z
Si Si1 0.776245 0.512678 0.682113
Si Si2 0.984635 0.288484 0.620763
Si Si3 0.001984 0.096380 0.070825
Si Si4 0.352235 0.500374 0.040213
Si Si5 0.514066 0.607254 0.568155
Si Si6 0.503520 0.306337 0.827900
Si Si7 0.734185 0.601943 0.284468
O O1 0.853414 0.324948 0.664188
O O2 0.685233 0.680834 0.592242
O O3 0.623379 0.255435 0.781687
O O4 0.913121 0.840738 0.677437
O O5 0.000000 0.500000 0.500000
O O6 0.150510 0.473224 0.638981
O O7 0.175268 0.151438 0.091170
O O8 0.865410 0.814590 0.180079
O O9 0.000000 0.500000 0.000000
O O10 0.000000 0.000000 0.000000
O O11 0.395197 0.542562 0.121682
O O12 0.500000 0.500000 0.000000
O O13 0.357850 0.889555 0.929917
O O14 0.500000 0.500000 0.500000
O O15 0.359271 0.277003 0.675024
O O16 0.500000 0.000000 0.500000
O O17 0.431027 0.574744 0.739943
#
# Coordination Sequence:
#
# PCOD9048328 Si02
#       7
#     2   2   2   2   2   2   2
#     4  11  25  44  69 101 139 181 239 285 366 427
#     4  12  26  47  72 104 144 186 238 304 368 426
#     4  12  27  47  71 109 152 190 242 298 358 431
#     4  11  24  44  73  97 149 188 246 290 357 422
#     4  11  24  46  73 103 138 185 240 299 356 431
#     4  10  24  45  67 104 137 195 238 295 350 433
#     4  11  25  46  72 107 145 191 241 297 365 422
#
# _framework density 24.866985
#
# number of rings (size 3 to 8) (size 9 to 14) (size 15 to 20)
#    0.000    0.857    1.429    4.714    6.000    3.429 
#    5.143    0.000    0.000    0.000    0.000    0.000 
#    0.000    0.000    0.000    0.000    0.000    0.000 
#
# Total GULP energy -78085.418230 kJ/mol
# GULP energy per Si atom -5577.529874 kJ/mol
# Density = 2.481039 g / cm^3
# Si number density = 24.866985 Si / 1000 Ang^3
#
#
#
# Elastic Constant Matrix: (Units=GPa)
#
#
# Indices 1 2 3 4 5 6 
#
# 1 154.6950 28.6052 52.4343 26.7697 -10.6375 12.6043
# 2 28.6052 78.9254 47.5869 25.6823 -17.4684 -18.2975
# 3 52.4343 47.5869 169.3893 42.1810 -24.3423 1.6731
# 4 26.7697 25.6823 42.1810 43.6332 -4.6276 -8.0824
# 5 -10.6375 -17.4684 -24.3423 -4.6276 60.4161 4.4363
# 6 12.6043 -18.2975 1.6731 -8.0824 4.4363 40.3175
#
#
#
# Elastic Compliance Matrix: (Units=1/GPa)
#
#
# Indices 1 2 3 4 5 6 
#
# 1 0.008173 -0.002104 -0.000926 -0.003616 0.000493 -0.004251
# 2 -0.002104 0.019701 -0.003200 -0.005349 0.003015 0.008327
# 3 -0.000926 -0.003200 0.009120 -0.006702 0.002303 -0.003139
# 4 -0.003616 -0.005349 -0.006702 0.035676 -0.002623 0.006422
# 5 0.000493 0.003015 0.002303 -0.002623 0.018342 -0.001425
# 6 -0.004251 0.008327 -0.003139 0.006422 -0.001425 0.031486
#
#
# Mechanical properties :
#
#
# Convention : Reuss Voigt Hill
#
# Bulk Modulus (GPa) = 40.75868 73.36248 57.06058
# Shear Modulus (GPa) = 34.93209 47.16559 41.04884
#
# Velocity S-wave (km/s) = 3.75208 4.35985 4.06733
# Velocity P-wave (km/s) = 5.93271 7.41016 6.71221
#
# Compressibility (1/GPa) = 0.02453465
#
# Stress axis : x y z
#
# Youngs Moduli (GPa) = 122.35242 50.75981 109.64800
#
# Poissons Ratio (x) = 0.10678 0.10149
# Poissons Ratio (y) = 0.25739 0.35091
# Poissons Ratio (z) = 0.11325 0.16245
#
# Static dielectric constant tensor:
#      x y z
#    x 1.934110 0.019320 0.060230 
#    y 0.019320 1.999210 -0.170940 
#    z 0.060230 -0.170940 2.051780 
# 
# From -- ./inp_files/140555.got.cif
#   From: 2010.05.17/outbox.cif.g08.bks.cpg/sg2_71_cif.got.tgz:140555.got - 2010.06.03 11:33:40.
