data_PCOD9048854
_publ_section_title
;
Structure prediction by ZEFSAII (Michael W. Deem and Ramdas Pophale) SiO2 
 PCOD9048854
Probable space group: P -1
;
_chemical_formula_sum "Si O2"
_cell_formula_units_Z 10
_cell_length_a 7.925115
_cell_length_b 16.743813
_cell_length_c 4.999761
_cell_angle_alpha 110.358018
_cell_angle_beta 83.000905
_cell_angle_gamma 143.223339
_cell_volume 357.571776
_symmetry_space_group_name_H-M "P -1"
_symmetry_group_IT_number 2
_symmetry_cell_setting 'triclinic'
loop_
_space_group_symop_operation_xyz
x,y,z
-x,-y,-z
loop_
_atom_site_type_symbol
_atom_site_label
_atom_site_fract_x
_atom_site_fract_y
_atom_site_fract_z
Si Si1 0.474027 0.362627 0.285777
Si Si2 0.957793 0.677000 0.799551
Si Si3 0.745120 0.951330 0.640023
Si Si4 0.258865 0.673422 0.120889
Si Si5 0.117601 0.888755 0.679484
O O1 0.777140 0.529169 0.510400
O O2 0.300391 0.359765 0.128294
O O3 0.519697 0.290762 0.061712
O O4 0.238146 0.257845 0.446644
O O5 0.125957 0.701696 0.035580
O O6 0.168151 0.819311 0.735785
O O7 0.811463 0.010997 0.992883
O O8 0.443640 0.776486 0.461400
O O9 0.739958 0.030691 0.533358
O O10 0.000000 0.000000 0.500000
O O11 0.000000 0.500000 0.000000
#
# Coordination Sequence:
#
# PCOD9048854 Si02
#       5
#     2   2   2   2   2
#     4   9  21  45  69 101 144 189 232 293 359 421
#     4   9  22  44  69 105 142 189 235 297 352 427
#     4  12  25  45  75 104 145 190 236 296 358 425
#     4  12  27  40  70 110 142 189 242 294 356 428
#     4  10  24  45  74 101 140 194 234 286 364 419
#
# _framework density 27.966412999999999
#
# number of rings (size 3 to 8) (size 9 to 14) (size 15 to 20)
#    1.200    0.400    2.000    1.200    2.800    5.600 
#    0.000    0.000    0.000    0.000    0.000    0.000 
#    0.000    0.000    0.000    0.000    0.000    0.000 
#
# Total GULP energy -56070.136580 kJ/mol
# GULP energy per Si atom -5607.013658 kJ/mol
# Density = 2.790276 g / cm^3
# Si number density = 27.966413 Si / 1000 Ang^3
#
#
#
# Elastic Constant Matrix: (Units=GPa)
#
#
# Indices 1 2 3 4 5 6 
#
# 1 112.4800 0.9330 34.3720 -0.1840 21.2163 -17.8480
# 2 0.9330 156.3709 42.4032 21.3240 10.8823 -8.1227
# 3 34.3720 42.4032 151.2621 16.6776 -18.4167 -6.5661
# 4 -0.1840 21.3240 16.6776 53.4286 -2.7307 9.6634
# 5 21.2163 10.8823 -18.4167 -2.7307 26.6711 -9.8841
# 6 -17.8480 -8.1227 -6.5661 9.6634 -9.8841 48.7385
#
#
#
# Elastic Compliance Matrix: (Units=1/GPa)
#
#
# Indices 1 2 3 4 5 6 
#
# 1 0.013732 0.002637 -0.005610 -0.000339 -0.015286 0.001680
# 2 0.002637 0.008312 -0.003556 -0.002750 -0.007926 0.000810
# 3 -0.005610 -0.003556 0.010849 -0.001629 0.013968 0.001970
# 4 -0.000339 -0.002750 -0.001629 0.021237 0.000631 -0.004885
# 5 -0.015286 -0.007926 0.013968 0.000631 0.065615 0.008145
# 6 0.001680 0.000810 0.001970 -0.004885 0.008145 0.024153
#
#
# Mechanical properties :
#
#
# Convention : Reuss Voigt Hill
#
# Bulk Modulus (GPa) = 50.41943 63.94770 57.18356
# Shear Modulus (GPa) = 30.56807 48.59464 39.58136
#
# Velocity S-wave (km/s) = 3.30968 4.17298 3.76615
# Velocity P-wave (km/s) = 5.71603 6.79220 6.27722
#
# Compressibility (1/GPa) = 0.01983363
#
# Stress axis : x y z
#
# Youngs Moduli (GPa) = 72.82126 120.30438 92.17825
#
# Poissons Ratio (x) = -0.31720 0.51716
# Poissons Ratio (y) = -0.19201 0.32778
# Poissons Ratio (z) = 0.40856 0.42780
#
# Static dielectric constant tensor:
#      x y z
#    x 2.277160 0.013720 -0.004600 
#    y 0.013720 2.195320 -0.013270 
#    z -0.004600 -0.013270 2.081650 
# 
# From -- ./inp_files/21496.got.cif
#   From: 2010.05.17/outbox.cif.g08.bks.cpg/sg2_11_cif.got.tgz:21496.got - 2010.06.03 11:33:40.
