data_PCOD9048584
_publ_section_title
;
Structure prediction by ZEFSAII (Michael W. Deem and Ramdas Pophale) SiO2 
 PCOD9048584
Probable space group: P -1
;
_chemical_formula_sum "Si O2"
_cell_formula_units_Z 16
_cell_length_a 18.880709
_cell_length_b 16.071914
_cell_length_c 11.252829
_cell_angle_alpha 140.817985
_cell_angle_beta 151.686207
_cell_angle_gamma 21.532385
_cell_volume 575.322280
_symmetry_space_group_name_H-M "P -1"
_symmetry_group_IT_number 2
_symmetry_cell_setting 'triclinic'
loop_
_space_group_symop_operation_xyz
x,y,z
-x,-y,-z
loop_
_atom_site_type_symbol
_atom_site_label
_atom_site_fract_x
_atom_site_fract_y
_atom_site_fract_z
Si Si1 0.199759 0.154606 0.434295
Si Si2 0.137994 0.400454 0.428429
Si Si3 0.786345 0.503257 0.573301
Si Si4 0.367604 0.747201 0.856015
Si Si5 0.346642 0.438076 0.159306
Si Si6 0.212917 0.017623 0.530017
Si Si7 0.744242 0.162421 0.939049
Si Si8 0.957769 0.235008 0.726540
O O1 0.949239 0.409085 0.411174
O O2 0.355635 0.988423 0.597897
O O3 0.293708 0.193375 0.520412
O O4 0.148820 0.060095 0.179492
O O5 0.261910 0.342164 0.418597
O O6 0.867475 0.520322 0.132265
O O7 0.502434 0.633662 0.289222
O O8 0.884630 0.426566 0.768917
O O9 0.038383 0.249930 0.601708
O O10 0.575594 0.567857 0.861849
O O11 0.143678 0.801217 0.555791
O O12 0.395544 0.728779 0.017614
O O13 0.251254 0.976236 0.903318
O O14 0.206303 0.650228 0.267492
O O15 0.589468 0.201540 0.332854
O O16 0.990849 0.081960 0.216626
#
# Coordination Sequence:
#
# PCOD9048584 Si02
#       8
#     2   2   2   2   2   2   2   2
#     4  10  24  45  70 102 137 184 239 277 347 414
#     4  10  26  47  67 100 142 188 234 282 333 419
#     4  11  24  45  68 102 144 184 226 287 346 408
#     4  11  24  42  68 107 140 177 228 294 348 410
#     4  12  25  45  72 102 138 193 224 285 348 411
#     4  11  23  45  71 106 139 177 231 292 355 404
#     4  12  24  43  73 105 140 180 226 296 353 408
#     4  11  23  46  69 102 144 177 235 283 354 414
#
# _framework density 27.810500999999999
#
# number of rings (size 3 to 8) (size 9 to 14) (size 15 to 20)
#    0.000    1.000    2.500    3.375    5.250    4.000 
#    2.250    0.000    0.000    0.000    0.000    0.000 
#    0.000    0.000    0.000    0.000    0.000    0.000 
#
# Total GULP energy -89570.212191 kJ/mol
# GULP energy per Si atom -5598.138262 kJ/mol
# Density = 2.774720 g / cm^3
# Si number density = 27.810501 Si / 1000 Ang^3
#
#
#
# Elastic Constant Matrix: (Units=GPa)
#
#
# Indices 1 2 3 4 5 6 
#
# 1 175.6375 12.9443 10.8475 3.3022 -11.7768 -0.9519
# 2 12.9443 110.1177 5.8013 13.1642 -14.8435 -0.4690
# 3 10.8475 5.8013 81.2351 -5.0806 -3.5925 0.7785
# 4 3.3022 13.1642 -5.0806 29.3347 -5.2509 -6.2779
# 5 -11.7768 -14.8435 -3.5925 -5.2509 35.5482 1.2278
# 6 -0.9519 -0.4690 0.7785 -6.2779 1.2278 48.1271
#
#
#
# Elastic Compliance Matrix: (Units=1/GPa)
#
#
# Indices 1 2 3 4 5 6 
#
# 1 0.005884 -0.000394 -0.000703 -0.000300 0.001668 0.000042
# 2 -0.000394 0.010121 -0.000772 -0.004130 0.003426 -0.000523
# 3 -0.000703 -0.000772 0.012687 0.002853 0.001144 0.000116
# 4 -0.000300 -0.004130 0.002853 0.038201 0.003942 0.004790
# 5 0.001668 0.003426 0.001144 0.003942 0.030820 -0.000224
# 6 0.000042 -0.000523 0.000116 0.004790 -0.000224 0.021403
#
#
# Mechanical properties :
#
#
# Convention : Reuss Voigt Hill
#
# Bulk Modulus (GPa) = 40.07276 47.35294 43.71285
# Shear Modulus (GPa) = 38.11815 45.09515 41.60665
#
# Velocity S-wave (km/s) = 3.70623 4.03117 3.87211
# Velocity P-wave (km/s) = 5.72323 6.22343 5.97856
#
# Compressibility (1/GPa) = 0.02495461
#
# Stress axis : x y z
#
# Youngs Moduli (GPa) = 169.96150 98.79999 78.82188
#
# Poissons Ratio (x) = 0.03890 0.05541
# Poissons Ratio (y) = 0.06692 0.06085
# Poissons Ratio (z) = 0.11947 0.07628
#
# Static dielectric constant tensor:
#      x y z
#    x 2.246640 0.077110 0.057870 
#    y 0.077110 2.188770 -0.001380 
#    z 0.057870 -0.001380 2.165020 
# 
# From -- ./inp_files/472435.got.cif
#   From: 2010.05.17/outbox.cif.g08.bks.cpg/sg2_237_cif.got.tgz:472435.got - 2010.06.03 11:33:40.
