data_PCOD9048566
_publ_section_title
;
Structure prediction by ZEFSAII (Michael W. Deem and Ramdas Pophale) SiO2 
 PCOD9048566
Probable space group: P -1
;
_chemical_formula_sum "Si O2"
_cell_formula_units_Z 16
_cell_length_a 15.482396
_cell_length_b 8.346772
_cell_length_c 12.124942
_cell_angle_alpha 125.625606
_cell_angle_beta 131.106723
_cell_angle_gamma 32.105617
_cell_volume 626.199858
_symmetry_space_group_name_H-M "P -1"
_symmetry_group_IT_number 2
_symmetry_cell_setting 'triclinic'
loop_
_space_group_symop_operation_xyz
x,y,z
-x,-y,-z
loop_
_atom_site_type_symbol
_atom_site_label
_atom_site_fract_x
_atom_site_fract_y
_atom_site_fract_z
Si Si1 0.399017 0.646819 0.651595
Si Si2 0.545384 0.880238 0.833251
Si Si3 0.901120 0.788783 0.617134
Si Si4 0.962771 0.731121 0.388772
Si Si5 0.892835 0.194273 0.878979
Si Si6 0.541955 0.303736 0.055887
Si Si7 0.531640 0.078128 0.446747
Si Si8 0.953839 0.737650 0.140368
O O1 0.426381 0.837558 0.713817
O O2 0.503311 0.513304 0.800170
O O3 0.447735 0.404636 0.518454
O O4 0.193792 0.907536 0.612197
O O5 0.733746 0.555742 0.901913
O O6 0.554829 0.920603 0.727963
O O7 0.468705 0.176019 0.943704
O O8 0.976913 0.739071 0.539764
O O9 0.047499 0.495470 0.699741
O O10 0.821173 0.085243 0.724462
O O11 0.739347 0.843464 0.508808
O O12 0.050594 0.628812 0.297905
O O13 0.016603 0.113764 0.853226
O O14 0.000000 0.000000 0.000000
O O15 0.749325 0.987425 0.098678
O O16 0.500000 0.500000 0.000000
O O17 0.500000 0.000000 0.500000
O O18 0.000000 0.500000 0.000000
#
# Coordination Sequence:
#
# PCOD9048566 Si02
#       8
#     2   2   2   2   2   2   2   2
#     4  11  23  46  69 101 141 186 237 293 357 431
#     4  12  24  45  73 103 143 194 238 299 362 434
#     4  11  24  48  70 105 145 186 244 299 360 446
#     4  10  24  45  70 100 143 183 234 305 362 424
#     4  12  27  42  75 105 139 195 252 297 362 431
#     4  11  26  43  69 105 144 182 235 300 361 424
#     4  12  26  45  77 106 143 192 243 294 366 443
#     4  11  24  46  69 100 141 189 242 296 363 432
#
# _framework density 25.550948999999999
#
# number of rings (size 3 to 8) (size 9 to 14) (size 15 to 20)
#    0.000    0.750    3.750    3.000    5.250    3.500 
#    9.000    0.000    0.000    0.000    0.000    0.000 
#    0.000    0.000    0.000    0.000    0.000    0.000 
#
# Total GULP energy -89217.391672 kJ/mol
# GULP energy per Si atom -5576.086980 kJ/mol
# Density = 2.549279 g / cm^3
# Si number density = 25.550949 Si / 1000 Ang^3
#
#
#
# Elastic Constant Matrix: (Units=GPa)
#
#
# Indices 1 2 3 4 5 6 
#
# 1 98.2147 12.2880 44.5792 -13.6047 -29.2519 12.5290
# 2 12.2880 83.7182 38.0325 11.8091 -6.4644 5.0502
# 3 44.5792 38.0325 101.4728 1.9221 -30.9640 6.2548
# 4 -13.6047 11.8091 1.9221 41.0785 11.7466 -15.0572
# 5 -29.2519 -6.4644 -30.9640 11.7466 50.3895 -5.0083
# 6 12.5290 5.0502 6.2548 -15.0572 -5.0083 46.5243
#
#
#
# Elastic Compliance Matrix: (Units=1/GPa)
#
#
# Indices 1 2 3 4 5 6 
#
# 1 0.014386 0.000172 -0.004982 0.003035 0.004429 -0.001764
# 2 0.000172 0.015326 -0.005750 -0.004853 -0.000591 -0.002571
# 3 -0.004982 -0.005750 0.016458 -0.002968 0.007132 -0.000440
# 4 0.003035 -0.004853 -0.002968 0.032588 -0.007300 0.009869
# 5 0.004429 -0.000591 0.007132 -0.007300 0.028285 -0.001405
# 6 -0.001764 -0.002571 -0.000440 0.009869 -0.001405 0.025350
#
#
# Mechanical properties :
#
#
# Convention : Reuss Voigt Hill
#
# Bulk Modulus (GPa) = 39.91899 52.57835 46.24867
# Shear Modulus (GPa) = 30.89038 40.16555 35.52796
#
# Velocity S-wave (km/s) = 3.48080 3.96912 3.73295
# Velocity P-wave (km/s) = 5.64020 6.45196 6.05968
#
# Compressibility (1/GPa) = 0.02505074
#
# Stress axis : x y z
#
# Youngs Moduli (GPa) = 69.51151 65.25005 60.76065
#
# Poissons Ratio (x) = -0.01122 0.30269
# Poissons Ratio (y) = -0.01195 0.34936
# Poissons Ratio (z) = 0.34629 0.37517
#
# Static dielectric constant tensor:
#      x y z
#    x 2.133320 -0.064550 0.031020 
#    y -0.064550 2.116540 -0.052380 
#    z 0.031020 -0.052380 2.088950 
# 
# From -- ./inp_files/462471.got.cif
#   From: 2010.05.17/outbox.cif.g08.bks.cpg/sg2_232_cif.got.tgz:462471.got - 2010.06.03 11:33:40.
