data_PCOD9048732
_publ_section_title
;
Structure prediction by ZEFSAII (Michael W. Deem and Ramdas Pophale) SiO2 
 PCOD9048732
Probable space group: P -1
;
_chemical_formula_sum "Si O2"
_cell_formula_units_Z 16
_cell_length_a 14.671361
_cell_length_b 11.398496
_cell_length_c 10.034178
_cell_angle_alpha 92.354403
_cell_angle_beta 95.643817
_cell_angle_gamma 152.245884
_cell_volume 747.329279
_symmetry_space_group_name_H-M "P -1"
_symmetry_group_IT_number 2
_symmetry_cell_setting 'triclinic'
loop_
_space_group_symop_operation_xyz
x,y,z
-x,-y,-z
loop_
_atom_site_type_symbol
_atom_site_label
_atom_site_fract_x
_atom_site_fract_y
_atom_site_fract_z
Si Si1 0.638222 0.147548 0.842873
Si Si2 0.568350 0.337567 0.238582
Si Si3 0.197862 0.709572 0.849580
Si Si4 0.037050 0.340046 0.597172
Si Si5 0.079721 0.421337 0.306363
Si Si6 0.677800 0.608186 0.016649
Si Si7 0.890574 0.806120 0.792820
Si Si8 0.322605 0.228454 0.384665
O O1 0.726583 0.300909 0.727509
O O2 0.571849 0.937557 0.802483
O O3 0.432393 0.977087 0.848867
O O4 0.793807 0.325683 0.998593
O O5 0.775410 0.537270 0.353999
O O6 0.632634 0.453614 0.107196
O O7 0.439703 0.291077 0.289556
O O8 0.073570 0.475889 0.727292
O O9 0.104624 0.730157 0.809594
O O10 0.057981 0.422502 0.459281
O O11 0.820359 0.026111 0.566882
O O12 0.094309 0.298664 0.286284
O O13 0.500000 0.500000 0.000000
O O14 0.721442 0.607540 0.876496
O O15 0.887970 0.913333 0.101385
O O16 0.827501 0.844440 0.697080
O O17 0.500000 0.500000 0.500000
#
# Coordination Sequence:
#
# PCOD9048732 Si02
#       8
#     2   2   2   2   2   2   2   2
#     4  10  25  44  71 104 132 182 236 284 347 408
#     4  11  24  45  75  97 143 181 233 292 346 411
#     4  10  24  45  71  99 137 184 230 287 342 412
#     4  11  26  46  70 101 141 187 232 290 343 418
#     4  12  26  42  69 100 144 179 231 283 345 413
#     4  11  24  44  71 101 139 183 228 292 352 407
#     4  11  27  41  68 107 138 179 235 285 345 424
#     4  12  26  45  69 100 140 187 235 282 352 413
#
# _framework density 21.409569999999999
#
# number of rings (size 3 to 8) (size 9 to 14) (size 15 to 20)
#    0.000    1.000    2.500    2.250    8.750    5.000 
#    0.000    0.000    0.000    0.000    0.000    0.000 
#    0.000    0.000    0.000    0.000    0.000    0.000 
#
# Total GULP energy -89502.755372 kJ/mol
# GULP energy per Si atom -5593.922211 kJ/mol
# Density = 2.136084 g / cm^3
# Si number density = 21.409570 Si / 1000 Ang^3
#
#
#
# Elastic Constant Matrix: (Units=GPa)
#
#
# Indices 1 2 3 4 5 6 
#
# 1 88.7383 4.6722 -9.2667 7.0731 -1.4673 15.5610
# 2 4.6722 100.9078 41.4919 -16.9162 -8.5761 2.2416
# 3 -9.2667 41.4919 72.9119 -7.9245 -4.0901 -0.5503
# 4 7.0731 -16.9162 -7.9245 34.5131 -4.4134 9.1148
# 5 -1.4673 -8.5761 -4.0901 -4.4134 35.1417 7.4756
# 6 15.5610 2.2416 -0.5503 9.1148 7.4756 30.1869
#
#
#
# Elastic Compliance Matrix: (Units=1/GPa)
#
#
# Indices 1 2 3 4 5 6 
#
# 1 0.012860 -0.001413 0.002404 -0.000780 0.001797 -0.006690
# 2 -0.001413 0.014785 -0.007574 0.007371 0.004407 -0.003824
# 3 0.002404 -0.007574 0.018381 0.000228 0.000536 -0.000543
# 4 -0.000780 0.007371 0.000228 0.037671 0.009473 -0.013862
# 5 0.001797 0.004407 0.000536 0.009473 0.033496 -0.012399
# 6 -0.006690 -0.003824 -0.000543 -0.013862 -0.012399 0.044106
#
#
# Mechanical properties :
#
#
# Convention : Reuss Voigt Hill
#
# Bulk Modulus (GPa) = 30.43210 37.37252 33.90231
# Shear Modulus (GPa) = 26.96604 35.01238 30.98921
#
# Velocity S-wave (km/s) = 3.55284 4.04835 3.80866
# Velocity P-wave (km/s) = 5.57452 6.27264 5.93386
#
# Compressibility (1/GPa) = 0.03286004
#
# Stress axis : x y z
#
# Youngs Moduli (GPa) = 77.76331 67.63684 54.40269
#
# Poissons Ratio (x) = 0.09560 -0.13080
# Poissons Ratio (y) = 0.10991 0.41203
# Poissons Ratio (z) = -0.18696 0.51227
#
# Static dielectric constant tensor:
#      x y z
#    x 1.788350 0.018140 -0.005420 
#    y 0.018140 1.754140 0.005960 
#    z -0.005420 0.005960 1.777230 
# 
# From -- ./inp_files/307589.got.cif
#   From: 2010.05.17/outbox.cif.g08.bks.cpg/sg2_154_cif.got.tgz:307589.got - 2010.06.03 11:33:40.
