data_PCOD9048598
_publ_section_title
;
Structure prediction by ZEFSAII (Michael W. Deem and Ramdas Pophale) SiO2 
 PCOD9048598
Probable space group: P -1
;
_chemical_formula_sum "Si O2"
_cell_formula_units_Z 16
_cell_length_a 9.632762
_cell_length_b 8.670666
_cell_length_c 19.798023
_cell_angle_alpha 48.844134
_cell_angle_beta 32.140140
_cell_angle_gamma 61.703900
_cell_volume 647.883687
_symmetry_space_group_name_H-M "P -1"
_symmetry_group_IT_number 2
_symmetry_cell_setting 'triclinic'
loop_
_space_group_symop_operation_xyz
x,y,z
-x,-y,-z
loop_
_atom_site_type_symbol
_atom_site_label
_atom_site_fract_x
_atom_site_fract_y
_atom_site_fract_z
Si Si1 0.880487 0.590611 0.089330
Si Si2 0.625402 0.311598 0.689941
Si Si3 0.615992 0.661842 0.845742
Si Si4 0.296049 0.982871 0.821112
Si Si5 0.974510 0.529416 0.636037
Si Si6 0.216347 0.920731 0.177234
Si Si7 0.069288 0.761100 0.732929
Si Si8 0.563404 0.270622 0.521990
O O1 0.557970 0.547494 0.238135
O O2 0.975959 0.465790 0.148307
O O3 0.000000 0.500000 0.000000
O O4 0.002196 0.839848 0.974356
O O5 0.888906 0.416056 0.508804
O O6 0.704884 0.167218 0.757563
O O7 0.410411 0.189820 0.758955
O O8 0.446635 0.821585 0.842232
O O9 0.871382 0.782398 0.747044
O O10 0.692684 0.552728 0.777124
O O11 0.500000 0.500000 0.000000
O O12 0.378890 0.068624 0.688189
O O13 0.170272 0.695729 0.552401
O O14 0.962158 0.284896 0.724777
O O15 0.028254 0.085699 0.217726
O O16 0.500000 0.000000 0.000000
O O17 0.356182 0.774787 0.574443
O O18 0.500000 0.500000 0.500000
#
# Coordination Sequence:
#
# PCOD9048598 Si02
#       8
#     2   2   2   2   2   2   2   2
#     4  12  27  45  67 101 142 184 230 289 347 416
#     4  11  25  45  65  98 137 183 230 282 350 413
#     4  11  21  41  72 104 132 178 232 292 338 411
#     4  11  24  43  74  99 136 182 236 281 350 414
#     4  10  25  41  70  96 142 174 228 286 348 402
#     4  12  25  41  66 102 137 182 231 287 346 407
#     4  11  23  42  68  98 137 178 231 282 348 415
#     4  10  24  45  70 103 138 182 234 286 347 421
#
# _framework density 24.695792999999998
#
# number of rings (size 3 to 8) (size 9 to 14) (size 15 to 20)
#    0.000    1.000    2.500    3.750    3.500    4.500 
#    0.000    1.875    0.000    0.000    0.000    0.000 
#    0.000    0.000    0.000    0.000    0.000    0.000 
#
# Total GULP energy -89117.178076 kJ/mol
# GULP energy per Si atom -5569.823630 kJ/mol
# Density = 2.463958 g / cm^3
# Si number density = 24.695793 Si / 1000 Ang^3
#
#
#
# Elastic Constant Matrix: (Units=GPa)
#
#
# Indices 1 2 3 4 5 6 
#
# 1 66.9116 0.0156 28.4896 4.1975 14.5088 4.2313
# 2 0.0156 90.1786 67.7123 21.5074 9.0394 -1.8312
# 3 28.4896 67.7123 217.7216 11.9244 32.7945 -2.6120
# 4 4.1975 21.5074 11.9244 41.8808 2.1090 1.3002
# 5 14.5088 9.0394 32.7945 2.1090 21.5176 -7.7332
# 6 4.2313 -1.8312 -2.6120 1.3002 -7.7332 37.5004
#
#
#
# Elastic Compliance Matrix: (Units=1/GPa)
#
#
# Indices 1 2 3 4 5 6 
#
# 1 0.018811 0.002645 -0.001196 -0.002075 -0.013489 -0.004786
# 2 0.002645 0.016714 -0.005112 -0.007397 -0.000150 0.000387
# 3 -0.001196 -0.005112 0.007680 0.001081 -0.009417 -0.001559
# 4 -0.002075 -0.007397 0.001081 0.027621 -0.000227 -0.001056
# 5 -0.013489 -0.000150 -0.009417 -0.000227 0.075947 0.016528
# 6 -0.004786 0.000387 -0.001559 -0.001056 0.016528 0.030562
#
#
# Mechanical properties :
#
#
# Convention : Reuss Voigt Hill
#
# Bulk Modulus (GPa) = 27.87140 63.02741 45.44940
# Shear Modulus (GPa) = 25.42967 38.75273 32.09120
#
# Velocity S-wave (km/s) = 3.21240 3.96561 3.60871
# Velocity P-wave (km/s) = 5.00697 6.82239 5.98393
#
# Compressibility (1/GPa) = 0.03587908
#
# Stress axis : x y z
#
# Youngs Moduli (GPa) = 53.15898 59.82959 130.21012
#
# Poissons Ratio (x) = -0.15823 0.15573
# Poissons Ratio (y) = -0.14059 0.66562
# Poissons Ratio (z) = 0.06358 0.30584
#
# Static dielectric constant tensor:
#      x y z
#    x 2.072360 0.001930 -0.099170 
#    y 0.001930 2.007530 0.115480 
#    z -0.099170 0.115480 2.110440 
# 
# From -- ./inp_files/588855.got.cif
#   From: 2010.05.17/outbox.cif.g08.bks.cpg/sg2_295_cif.got.tgz:588855.got - 2010.06.03 11:33:40.
