data_PCOD9048526
_publ_section_title
;
Structure prediction by ZEFSAII (Michael W. Deem and Ramdas Pophale) SiO2 
 PCOD9048526
Probable space group: P -1
;
_chemical_formula_sum "Si O2"
_cell_formula_units_Z 14
_cell_length_a 5.240340
_cell_length_b 14.434647
_cell_length_c 8.968134
_cell_angle_alpha 63.957416
_cell_angle_beta 109.611461
_cell_angle_gamma 104.414285
_cell_volume 569.988988
_symmetry_space_group_name_H-M "P -1"
_symmetry_group_IT_number 2
_symmetry_cell_setting 'triclinic'
loop_
_space_group_symop_operation_xyz
x,y,z
-x,-y,-z
loop_
_atom_site_type_symbol
_atom_site_label
_atom_site_fract_x
_atom_site_fract_y
_atom_site_fract_z
Si Si1 0.397912 0.685495 0.648500
Si Si2 0.820239 0.838428 0.505175
Si Si3 0.609552 0.538618 0.335990
Si Si4 0.668253 0.061564 0.296887
Si Si5 0.971065 0.744242 0.305689
Si Si6 0.059836 0.093024 0.065819
Si Si7 0.713715 0.429950 0.014388
O O1 0.701119 0.744224 0.656293
O O2 0.355168 0.567893 0.663732
O O3 0.289026 0.668228 0.807547
O O4 0.248501 0.745745 0.451039
O O5 0.795315 0.796411 0.360339
O O6 0.132570 0.878618 0.583303
O O7 0.664509 0.939662 0.419814
O O8 0.500000 0.500000 0.500000
O O9 0.864970 0.624058 0.344167
O O10 0.399084 0.595042 0.155052
O O11 0.364001 0.090601 0.193946
O O12 0.838604 0.078966 0.163824
O O13 0.968077 0.804732 0.108768
O O14 0.000000 0.000000 0.000000
O O15 0.500000 0.500000 0.000000
O O16 0.000000 0.500000 0.000000
#
# Coordination Sequence:
#
# PCOD9048526 Si02
#       7
#     2   2   2   2   2   2   2
#     4  11  25  46  72 103 149 195 243 298 364 441
#     4  11  26  46  73 107 144 194 245 295 369 438
#     4  11  23  45  69 107 141 190 239 304 363 422
#     4  11  28  48  75 108 149 192 239 308 365 437
#     4  12  26  42  73 105 143 193 244 301 360 433
#     4  12  26  49  76 107 148 188 246 304 370 429
#     4  10  24  45  69  96 139 189 237 292 354 422
#
# _framework density 24.561876000000002
#
# number of rings (size 3 to 8) (size 9 to 14) (size 15 to 20)
#    0.000    0.857    2.857    2.571    8.000    2.286 
#    0.000    0.000    0.000    0.000    0.000    0.000 
#    0.000    0.000    0.000    0.000    0.000    0.000 
#
# Total GULP energy -78356.651691 kJ/mol
# GULP energy per Si atom -5596.903692 kJ/mol
# Density = 2.450597 g / cm^3
# Si number density = 24.561876 Si / 1000 Ang^3
#
#
#
# Elastic Constant Matrix: (Units=GPa)
#
#
# Indices 1 2 3 4 5 6 
#
# 1 104.4600 21.2801 48.8518 -4.4180 1.3659 23.7573
# 2 21.2801 127.7530 32.9190 -17.2811 -8.8392 17.5849
# 3 48.8518 32.9190 172.3905 -6.1530 -7.3274 13.3771
# 4 -4.4180 -17.2811 -6.1530 45.2142 1.2831 -1.9806
# 5 1.3659 -8.8392 -7.3274 1.2831 46.2928 -2.2084
# 6 23.7573 17.5849 13.3771 -1.9806 -2.2084 40.4423
#
#
#
# Elastic Compliance Matrix: (Units=1/GPa)
#
#
# Indices 1 2 3 4 5 6 
#
# 1 0.012524 -0.000490 -0.003014 0.000390 -0.001247 -0.006196
# 2 -0.000490 0.009156 -0.001203 0.003115 0.001339 -0.003069
# 3 -0.003014 -0.001203 0.006926 0.000164 0.000954 0.000063
# 4 0.000390 0.003115 0.000164 0.023348 -0.000062 -0.000498
# 5 -0.001247 0.001339 0.000954 -0.000062 0.022096 0.001038
# 6 -0.006196 -0.003069 0.000063 -0.000498 0.001038 0.029713
#
#
# Mechanical properties :
#
#
# Convention : Reuss Voigt Hill
#
# Bulk Modulus (GPa) = 52.10484 67.85616 59.98050
# Shear Modulus (GPa) = 41.81480 46.49337 44.15408
#
# Velocity S-wave (km/s) = 4.13052 4.35548 4.24449
# Velocity P-wave (km/s) = 6.63386 7.27875 6.96377
#
# Compressibility (1/GPa) = 0.01919207
#
# Stress axis : x y z
#
# Youngs Moduli (GPa) = 79.84469 109.21945 144.38143
#
# Poissons Ratio (x) = 0.05354 0.43513
# Poissons Ratio (y) = 0.03914 0.17371
# Poissons Ratio (z) = 0.24063 0.13141
#
# Static dielectric constant tensor:
#      x y z
#    x 2.021790 -0.039170 0.042400 
#    y -0.039170 1.948240 -0.011970 
#    z 0.042400 -0.011970 2.014030 
# 
# From -- ./inp_files/134864.got.cif
#   From: 2010.05.17/outbox.cif.g08.bks.cpg/sg2_68_cif.got.tgz:134864.got - 2010.06.03 11:33:40.
