data_PCOD9048766
_publ_section_title
;
Structure prediction by ZEFSAII (Michael W. Deem and Ramdas Pophale) SiO2 
 PCOD9048766
Probable space group: P -1
;
_chemical_formula_sum "Si O2"
_cell_formula_units_Z 14
_cell_length_a 8.749243
_cell_length_b 15.784685
_cell_length_c 8.996486
_cell_angle_alpha 58.117803
_cell_angle_beta 145.437179
_cell_angle_gamma 121.580801
_cell_volume 588.272688
_symmetry_space_group_name_H-M "P -1"
_symmetry_group_IT_number 2
_symmetry_cell_setting 'triclinic'
loop_
_space_group_symop_operation_xyz
x,y,z
-x,-y,-z
loop_
_atom_site_type_symbol
_atom_site_label
_atom_site_fract_x
_atom_site_fract_y
_atom_site_fract_z
Si Si1 0.895696 0.749465 0.795199
Si Si2 0.083315 0.442551 0.835276
Si Si3 0.542899 0.171098 0.480744
Si Si4 0.895235 0.883850 0.070151
Si Si5 0.659115 0.572625 0.265692
Si Si6 0.623132 0.095224 0.912845
Si Si7 0.721459 0.775352 0.314716
O O1 0.587622 0.741500 0.624568
O O2 0.902313 0.752270 0.620354
O O3 0.053480 0.860657 0.873422
O O4 0.999567 0.655813 0.038280
O O5 0.190204 0.411945 0.788144
O O6 0.837057 0.503200 0.561139
O O7 0.349039 0.515315 0.048531
O O8 0.866267 0.182525 0.703209
O O9 0.505877 0.085332 0.661065
O O10 0.378060 0.150314 0.214912
O O11 0.840204 0.868665 0.215051
O O12 0.000000 0.000000 0.000000
O O13 0.659539 0.677833 0.251770
O O14 0.527520 0.188975 0.833663
O O15 0.500000 0.000000 0.000000
#
# Coordination Sequence:
#
# PCOD9048766 Si02
#       7
#     2   2   2   2   2   2   2
#     4  11  26  46  74 106 144 198 237 297 362 437
#     4  10  24  46  75 101 144 186 240 285 375 432
#     4  11  25  45  71  97 137 192 238 294 348 431
#     4  12  26  45  71 104 140 188 244 302 356 416
#     4  10  24  45  72 108 138 186 235 305 352 435
#     4  11  26  48  72 104 150 198 243 291 366 431
#     4  11  28  42  72 111 149 185 245 303 361 422
#
# _framework density 23.798487000000002
#
# number of rings (size 3 to 8) (size 9 to 14) (size 15 to 20)
#    0.000    1.143    1.429    2.143   10.000    4.571 
#    0.000    0.000    0.000    0.000    0.000    0.000 
#    0.000    0.000    0.000    0.000    0.000    0.000 
#
# Total GULP energy -78264.567687 kJ/mol
# GULP energy per Si atom -5590.326263 kJ/mol
# Density = 2.374432 g / cm^3
# Si number density = 23.798487 Si / 1000 Ang^3
#
#
#
# Elastic Constant Matrix: (Units=GPa)
#
#
# Indices 1 2 3 4 5 6 
#
# 1 79.2758 19.8569 40.5941 -7.4407 -13.2089 6.9966
# 2 19.8569 110.5930 46.7094 -4.7247 -13.6516 4.8271
# 3 40.5941 46.7094 158.8293 -0.1129 -12.4232 8.4718
# 4 -7.4407 -4.7247 -0.1129 28.5388 6.0007 -11.1133
# 5 -13.2089 -13.6516 -12.4232 6.0007 39.7001 -12.2103
# 6 6.9966 4.8271 8.4718 -11.1133 -12.2103 39.4207
#
#
#
# Elastic Compliance Matrix: (Units=1/GPa)
#
#
# Indices 1 2 3 4 5 6 
#
# 1 0.015426 -0.000765 -0.003458 0.003195 0.003312 0.000026
# 2 -0.000765 0.010696 -0.002780 0.001245 0.002538 0.000561
# 3 -0.003458 -0.002780 0.008087 -0.001870 0.000335 -0.001207
# 4 0.003195 0.001245 -0.001870 0.040582 -0.001997 0.010505
# 5 0.003312 0.002538 0.000335 -0.001997 0.029952 0.007744
# 6 0.000026 0.000561 -0.001207 0.010505 0.007744 0.030914
#
#
# Mechanical properties :
#
#
# Convention : Reuss Voigt Hill
#
# Bulk Modulus (GPa) = 49.49984 62.55765 56.02874
# Shear Modulus (GPa) = 31.96998 37.63444 34.80221
#
# Velocity S-wave (km/s) = 3.66917 3.98097 3.82824
# Velocity P-wave (km/s) = 6.22857 6.89016 6.56770
#
# Compressibility (1/GPa) = 0.02020209
#
# Stress axis : x y z
#
# Youngs Moduli (GPa) = 64.82624 93.49429 123.65876
#
# Poissons Ratio (x) = 0.07153 0.42756
# Poissons Ratio (y) = 0.04960 0.34383
# Poissons Ratio (z) = 0.22414 0.25996
#
# Static dielectric constant tensor:
#      x y z
#    x 1.944320 -0.010320 0.051970 
#    y -0.010320 1.900520 0.017150 
#    z 0.051970 0.017150 1.980070 
# 
# From -- ./inp_files/46937.got.cif
#   From: 2010.05.17/outbox.cif.g08.bks.cpg/sg2_24_cif.got.tgz:46937.got - 2010.06.03 11:33:40.
