data_PCOD9048241
_publ_section_title
;
Structure prediction by ZEFSAII (Michael W. Deem and Ramdas Pophale) SiO2 
 PCOD9048241
Probable space group: P -1
;
_chemical_formula_sum "Si O2"
_cell_formula_units_Z 13
_cell_length_a 7.974162
_cell_length_b 10.149724
_cell_length_c 9.095929
_cell_angle_alpha 131.009693
_cell_angle_beta 87.428187
_cell_angle_gamma 64.208894
_cell_volume 437.072200
_symmetry_space_group_name_H-M "P -1"
_symmetry_group_IT_number 2
_symmetry_cell_setting 'triclinic'
loop_
_space_group_symop_operation_xyz
x,y,z
-x,-y,-z
loop_
_atom_site_type_symbol
_atom_site_label
_atom_site_fract_x
_atom_site_fract_y
_atom_site_fract_z
Si Si1 0.511469 0.829122 0.527371
Si Si2 0.662109 0.170090 0.165942
Si Si3 0.242116 0.863335 0.344877
Si Si4 0.866079 0.761419 0.659960
Si Si5 0.185179 0.669372 0.942091
Si Si6 0.000000 0.500000 0.000000
Si Si7 0.754520 0.463878 0.722691
O O1 0.375189 0.816071 0.649183
O O2 0.357585 0.953832 0.483147
O O3 0.651094 0.868302 0.652203
O O4 0.698051 0.592105 0.274660
O O5 0.791287 0.256671 0.165497
O O6 0.425873 0.336822 0.226653
O O7 0.785828 0.921406 0.919510
O O8 0.348263 0.632535 0.259093
O O9 0.262033 0.788148 0.122034
O O10 0.000000 0.000000 0.500000
O O11 0.000000 0.500000 0.500000
O O12 0.041243 0.731044 0.521757
O O13 0.997798 0.704053 0.072112
O O14 0.845307 0.528684 0.894220
#
# Coordination Sequence:
#
# PCOD9048241 Si02
#       7
#     2   2   2   2   2   1   2
#     4  12  25  47  79 112 160 214 260 328 412 466
#     4  12  27  47  80 116 159 211 262 336 398 475
#     4  11  26  47  74 114 155 207 268 329 387 482
#     4  12  27  48  74 116 163 204 263 329 397 479
#     4  11  24  48  78 110 157 203 269 324 396 475
#     4  10  24  44  80 112 148 218 250 334 386 476
#     4  11  24  46  74 110 159 198 271 321 396 464
#
# _framework density 29.743368
#
# number of rings (size 3 to 8) (size 9 to 14) (size 15 to 20)
#    0.000    0.615    4.615    2.308    2.154    3.692 
#    0.000    4.615    0.000    0.000    0.000    0.000 
#    0.000    0.000    0.000    0.000    0.000    0.000 
#
# Total GULP energy -72543.183454 kJ/mol
# GULP energy per Si atom -5580.244881 kJ/mol
# Density = 2.967567 g / cm^3
# Si number density = 29.743368 Si / 1000 Ang^3
#
#
#
# Elastic Constant Matrix: (Units=GPa)
#
#
# Indices 1 2 3 4 5 6 
#
# 1 142.6787 1.6275 4.2802 -2.4180 28.0705 -35.2366
# 2 1.6275 122.9281 3.5074 -20.1783 -3.7670 -6.1986
# 3 4.2802 3.5074 163.5792 2.5668 8.5496 -22.9293
# 4 -2.4180 -20.1783 2.5668 55.8516 -10.3340 8.9630
# 5 28.0705 -3.7670 8.5496 -10.3340 43.2373 -11.6565
# 6 -35.2366 -6.1986 -22.9293 8.9630 -11.6565 50.0623
#
#
#
# Elastic Compliance Matrix: (Units=1/GPa)
#
#
# Indices 1 2 3 4 5 6 
#
# 1 0.009483 -0.000269 0.000915 -0.001662 -0.005094 0.006172
# 2 -0.000269 0.008804 -0.000251 0.003447 0.001985 0.000631
# 3 0.000915 -0.000251 0.006682 -0.001165 -0.001247 0.003591
# 4 -0.001662 0.003447 -0.001165 0.020756 0.005574 -0.003695
# 5 -0.005094 0.001985 -0.001247 0.005574 0.028663 0.001765
# 6 0.006172 0.000631 0.003591 -0.003695 0.001765 0.027114
#
#
# Mechanical properties :
#
#
# Convention : Reuss Voigt Hill
#
# Bulk Modulus (GPa) = 38.82406 49.77957 44.30182
# Shear Modulus (GPa) = 45.74646 57.81496 51.78071
#
# Velocity S-wave (km/s) = 3.92604 4.41363 4.17696
# Velocity P-wave (km/s) = 5.79940 6.53806 6.17978
#
# Compressibility (1/GPa) = 0.02575722
#
# Stress axis : x y z
#
# Youngs Moduli (GPa) = 105.45680 113.58492 149.66494
#
# Poissons Ratio (x) = 0.03059 -0.13695
# Poissons Ratio (y) = 0.02840 0.03759
# Poissons Ratio (z) = -0.09650 0.02853
#
# Static dielectric constant tensor:
#      x y z
#    x 4.297220 0.426200 -2.385420 
#    y 0.426200 2.704280 -0.409830 
#    z -2.385420 -0.409830 5.155760 
# 
# From -- ./inp_files/183200.got.cif
#   From: 2010.05.17/outbox.cif.g08.bks.cpg/sg2_92_cif.got.tgz:183200.got - 2010.06.03 11:33:40.
