data_PCOD9048601
_publ_section_title
;
Structure prediction by ZEFSAII (Michael W. Deem and Ramdas Pophale) SiO2 
 PCOD9048601
Probable space group: P -1
;
_chemical_formula_sum "Si O2"
_cell_formula_units_Z 16
_cell_length_a 8.711943
_cell_length_b 12.542420
_cell_length_c 15.294169
_cell_angle_alpha 44.721077
_cell_angle_beta 141.193753
_cell_angle_gamma 129.023972
_cell_volume 725.933729
_symmetry_space_group_name_H-M "P -1"
_symmetry_group_IT_number 2
_symmetry_cell_setting 'triclinic'
loop_
_space_group_symop_operation_xyz
x,y,z
-x,-y,-z
loop_
_atom_site_type_symbol
_atom_site_label
_atom_site_fract_x
_atom_site_fract_y
_atom_site_fract_z
Si Si1 0.937953 0.265442 0.596925
Si Si2 0.406738 0.880378 0.949653
Si Si3 0.701800 0.501716 0.469748
Si Si4 0.798694 0.104409 0.330476
Si Si5 0.129922 0.439988 0.288729
Si Si6 0.482391 0.856466 0.642615
Si Si7 0.086694 0.033105 0.921951
Si Si8 0.986209 0.723488 0.964221
O O1 0.841117 0.377997 0.557159
O O2 0.757252 0.252757 0.440817
O O3 0.206712 0.339293 0.634573
O O4 0.926984 0.104707 0.736652
O O5 0.304202 0.953933 0.776042
O O6 0.660730 0.842764 0.044286
O O7 0.186158 0.747797 0.960044
O O8 0.500000 0.000000 0.000000
O O9 0.405318 0.448704 0.364143
O O10 0.798628 0.522038 0.600351
O O11 0.591026 0.098539 0.317927
O O12 0.950875 0.277527 0.294265
O O13 0.000000 0.000000 0.500000
O O14 0.993333 0.566124 0.108350
O O15 0.500000 0.000000 0.500000
O O16 0.718110 0.767585 0.796611
O O17 0.105779 0.862616 0.999180
O O18 0.000000 0.000000 0.000000
#
# Coordination Sequence:
#
# PCOD9048601 Si02
#       8
#     2   2   2   2   2   2   2   2
#     4  11  23  44  72 102 140 192 239 289 360 424
#     4  10  25  44  67 103 140 185 233 295 353 426
#     4  10  24  45  70 103 142 190 232 299 354 427
#     4  12  28  46  74 106 141 188 241 294 365 433
#     4  11  25  46  70 104 144 184 241 292 361 424
#     4  12  25  46  73 105 143 186 240 301 356 432
#     4  11  22  41  71 101 139 184 240 293 356 421
#     4  11  24  43  68 100 143 183 232 293 356 420
#
# _framework density 22.040578
#
# number of rings (size 3 to 8) (size 9 to 14) (size 15 to 20)
#    0.000    1.000    2.500    3.000    5.250    5.000 
#    4.500    0.000    0.000    0.000    0.000    0.000 
#    0.000    0.000    0.000    0.000    0.000    0.000 
#
# Total GULP energy -89275.977423 kJ/mol
# GULP energy per Si atom -5579.748589 kJ/mol
# Density = 2.199041 g / cm^3
# Si number density = 22.040578 Si / 1000 Ang^3
#
#
#
# Elastic Constant Matrix: (Units=GPa)
#
#
# Indices 1 2 3 4 5 6 
#
# 1 129.7217 32.1843 48.9345 -7.4781 -11.5119 26.2385
# 2 32.1843 62.4694 32.3275 -18.9249 -5.1798 12.9780
# 3 48.9345 32.3275 153.6237 -11.9493 -9.4984 15.5182
# 4 -7.4781 -18.9249 -11.9493 42.8055 0.7590 -6.6675
# 5 -11.5119 -5.1798 -9.4984 0.7590 35.8121 9.1656
# 6 26.2385 12.9780 15.5182 -6.6675 9.1656 36.5588
#
#
#
# Elastic Compliance Matrix: (Units=1/GPa)
#
#
# Indices 1 2 3 4 5 6 
#
# 1 0.011028 -0.003166 -0.001926 -0.001230 0.004476 -0.007320
# 2 -0.003166 0.022343 -0.002555 0.007995 0.002313 -0.003697
# 3 -0.001926 -0.002555 0.007926 0.000511 0.001447 -0.001344
# 4 -0.001230 0.007995 0.000511 0.027285 -0.000427 0.002911
# 5 0.004476 0.002313 0.001447 -0.000427 0.033445 -0.013110
# 6 -0.007320 -0.003697 -0.001344 0.002911 -0.013110 0.038307
#
#
# Mechanical properties :
#
#
# Convention : Reuss Voigt Hill
#
# Bulk Modulus (GPa) = 38.45772 63.63414 51.04593
# Shear Modulus (GPa) = 30.43331 38.52653 34.47992
#
# Velocity S-wave (km/s) = 3.71992 4.18542 3.95952
# Velocity P-wave (km/s) = 5.99474 7.23126 6.64184
#
# Compressibility (1/GPa) = 0.02600258
#
# Stress axis : x y z
#
# Youngs Moduli (GPa) = 90.68183 44.75715 126.17343
#
# Poissons Ratio (x) = 0.14168 0.24302
# Poissons Ratio (y) = 0.28706 0.32237
# Poissons Ratio (z) = 0.17466 0.11435
#
# Static dielectric constant tensor:
#      x y z
#    x 1.871350 0.000730 0.058050 
#    y 0.000730 1.787850 0.099870 
#    z 0.058050 0.099870 1.874210 
# 
# From -- ./inp_files/500123.got.cif
#   From: 2010.05.17/outbox.cif.g08.bks.cpg/sg2_251_cif.got.tgz:500123.got - 2010.06.03 11:33:40.
