data_PCOD9048961
_publ_section_title
;
Structure prediction by ZEFSAII (Michael W. Deem and Ramdas Pophale) SiO2 
 PCOD9048961
Probable space group: P -1
;
_chemical_formula_sum "Si O2"
_cell_formula_units_Z 16
_cell_length_a 10.355477
_cell_length_b 11.541712
_cell_length_c 10.480537
_cell_angle_alpha 58.899935
_cell_angle_beta 38.122762
_cell_angle_gamma 52.771247
_cell_volume 613.628087
_symmetry_space_group_name_H-M "P -1"
_symmetry_group_IT_number 2
_symmetry_cell_setting 'triclinic'
loop_
_space_group_symop_operation_xyz
x,y,z
-x,-y,-z
loop_
_atom_site_type_symbol
_atom_site_label
_atom_site_fract_x
_atom_site_fract_y
_atom_site_fract_z
Si Si1 0.344709 0.967994 0.072944
Si Si2 0.765086 0.570622 0.491732
Si Si3 0.106985 0.104000 0.916316
Si Si4 0.192496 0.974135 0.434694
Si Si5 0.362637 0.664496 0.164420
Si Si6 0.140254 0.199090 0.581219
Si Si7 0.353652 0.645233 0.605075
Si Si8 0.172559 0.575812 0.011972
O O1 0.096408 0.987738 0.341658
O O2 0.413973 0.991010 0.161955
O O3 0.437133 0.793399 0.078088
O O4 0.224276 0.050750 0.989932
O O5 0.753045 0.412597 0.605215
O O6 0.802793 0.653279 0.542675
O O7 0.524873 0.663963 0.566169
O O8 0.965481 0.549475 0.250395
O O9 0.248265 0.127822 0.673346
O O10 0.899212 0.252710 0.015830
O O11 0.000000 0.000000 0.000000
O O12 0.271162 0.799784 0.508271
O O13 0.202576 0.087624 0.477532
O O14 0.598469 0.527828 0.036629
O O15 0.133235 0.744802 0.217486
O O16 0.500000 0.500000 0.500000
O O17 0.191043 0.577940 0.843624
#
# Coordination Sequence:
#
# PCOD9048961 Si02
#       8
#     2   2   2   2   2   2   2   2
#     4  12  28  49  76 113 157 199 262 323 392 473
#     4  10  25  46  74 112 154 199 266 318 385 469
#     4  11  22  49  76 110 151 204 257 324 385 463
#     4  12  24  47  78 108 152 207 250 324 402 447
#     4  11  23  51  75 114 157 202 258 326 383 466
#     4  11  24  45  80 112 157 203 264 324 383 472
#     4  11  25  47  73 109 154 204 261 323 388 470
#     4  10  24  45  77 110 150 204 255 316 394 454
#
# _framework density 26.074424
#
# number of rings (size 3 to 8) (size 9 to 14) (size 15 to 20)
#    0.000    1.000    2.500    3.375    3.500    4.000 
#    6.750    0.000    0.000    0.000    0.000    0.000 
#    0.000    0.000    0.000    0.000    0.000    0.000 
#
# Total GULP energy -89108.148731 kJ/mol
# GULP energy per Si atom -5569.259296 kJ/mol
# Density = 2.601508 g / cm^3
# Si number density = 26.074424 Si / 1000 Ang^3
#
#
#
# Elastic Constant Matrix: (Units=GPa)
#
#
# Indices 1 2 3 4 5 6 
#
# 1 178.2337 91.5655 69.8871 -4.0206 10.1704 1.1289
# 2 91.5655 196.4300 59.1854 -7.5153 5.4921 -6.6571
# 3 69.8871 59.1854 184.1856 -6.7743 11.7823 -14.1205
# 4 -4.0206 -7.5153 -6.7743 47.6435 7.9585 0.7880
# 5 10.1704 5.4921 11.7823 7.9585 55.7831 -10.9562
# 6 1.1289 -6.6571 -14.1205 0.7880 -10.9562 47.2017
#
#
#
# Elastic Compliance Matrix: (Units=1/GPa)
#
#
# Indices 1 2 3 4 5 6 
#
# 1 0.008143 -0.003178 -0.002116 0.000083 -0.001035 -0.001517
# 2 -0.003178 0.006902 -0.000938 0.000647 0.000162 0.000796
# 3 -0.002116 -0.000938 0.006740 0.000720 -0.000703 0.001759
# 4 0.000083 0.000647 0.000720 0.021802 -0.003513 -0.000875
# 5 -0.001035 0.000162 -0.000703 -0.003513 0.019623 0.004451
# 6 -0.001517 0.000796 0.001759 -0.000875 0.004451 0.022908
#
#
# Mechanical properties :
#
#
# Convention : Reuss Voigt Hill
#
# Bulk Modulus (GPa) = 107.26743 111.12502 109.19622
# Shear Modulus (GPa) = 49.16981 52.67306 50.92144
#
# Velocity S-wave (km/s) = 4.34723 4.49943 4.42399
# Velocity P-wave (km/s) = 8.15022 8.34890 8.25016
#
# Compressibility (1/GPa) = 0.00932249
#
# Stress axis : x y z
#
# Youngs Moduli (GPa) = 122.79958 144.88760 148.37355
#
# Poissons Ratio (x) = 0.46043 0.31394
# Poissons Ratio (y) = 0.39023 0.13911
# Poissons Ratio (z) = 0.25982 0.13585
#
# Static dielectric constant tensor:
#      x y z
#    x 2.174690 0.158840 -0.095320 
#    y 0.158840 1.374140 0.682840 
#    z -0.095320 0.682840 1.605220 
# 
# From -- ./inp_files/425402.got.cif
#   From: 2010.05.17/outbox.cif.g08.bks.cpg/sg2_213_cif.got.tgz:425402.got - 2010.06.03 11:33:40.
