data_PCOD9048044
_publ_section_title
;
Structure prediction by ZEFSAII (Michael W. Deem and Ramdas Pophale) SiO2 
 PCOD9048044
Probable space group: P -1
;
_chemical_formula_sum "Si O2"
_cell_formula_units_Z 14
_cell_length_a 19.704654
_cell_length_b 13.934855
_cell_length_c 7.479843
_cell_angle_alpha 136.037423
_cell_angle_beta 49.133826
_cell_angle_gamma 156.644836
_cell_volume 565.047728
_symmetry_space_group_name_H-M "P -1"
_symmetry_group_IT_number 2
_symmetry_cell_setting 'triclinic'
loop_
_space_group_symop_operation_xyz
x,y,z
-x,-y,-z
loop_
_atom_site_type_symbol
_atom_site_label
_atom_site_fract_x
_atom_site_fract_y
_atom_site_fract_z
Si Si1 0.143839 0.002604 0.639443
Si Si2 0.483496 0.134525 0.864349
Si Si3 0.346167 0.738771 0.792580
Si Si4 0.985412 0.204344 0.819475
Si Si5 0.483412 0.306545 0.456706
Si Si6 0.613847 0.733596 0.968083
Si Si7 0.153634 0.325975 0.020967
O O1 0.083379 0.905906 0.410233
O O2 0.289304 0.084957 0.555497
O O3 0.212776 0.250224 0.873028
O O4 0.981477 0.792187 0.765924
O O5 0.456336 0.200876 0.169971
O O6 0.448372 0.190485 0.837411
O O7 0.682700 0.362124 0.842955
O O8 0.369666 0.851295 0.717304
O O9 0.393023 0.637833 0.575311
O O10 0.158624 0.520948 0.905707
O O11 0.500000 0.000000 0.000000
O O12 0.071448 0.203365 0.801179
O O13 0.819619 0.022851 0.982827
O O14 0.576686 0.576275 0.659285
O O15 0.500000 0.500000 0.000000
#
# Coordination Sequence:
#
# PCOD9048044 Si02
#       7
#     2   2   2   2   2   2   2
#     4  11  24  40  68 108 136 184 229 289 354 413
#     4  11  22  47  69  93 144 188 218 287 356 402
#     4  10  24  44  72  95 140 192 228 280 354 412
#     4  12  24  41  70 104 136 184 238 282 343 424
#     4  11  21  45  67  97 138 182 226 282 348 413
#     4  12  26  41  71 107 137 174 235 294 346 409
#     4  11  23  41  67 101 149 173 228 296 351 402
#
# _framework density 24.776668000000001
#
# number of rings (size 3 to 8) (size 9 to 14) (size 15 to 20)
#    0.000    0.857    5.714    2.571    4.000    0.571 
#    0.000    3.571    0.000    0.000    0.000    0.000 
#    0.000    0.000    0.000    0.000    0.000    0.000 
#
# Total GULP energy -78054.805794 kJ/mol
# GULP energy per Si atom -5575.343271 kJ/mol
# Density = 2.472027 g / cm^3
# Si number density = 24.776668 Si / 1000 Ang^3
#
#
#
# Elastic Constant Matrix: (Units=GPa)
#
#
# Indices 1 2 3 4 5 6 
#
# 1 129.1476 53.4525 21.0388 -13.0670 -9.5355 -15.3967
# 2 53.4525 200.6811 34.3311 -35.9004 2.4947 -3.0974
# 3 21.0388 34.3311 70.9107 -19.9920 12.0490 3.6801
# 4 -13.0670 -35.9004 -19.9920 31.9924 -5.9773 3.1096
# 5 -9.5355 2.4947 12.0490 -5.9773 29.4051 0.8591
# 6 -15.3967 -3.0974 3.6801 3.1096 0.8591 36.1981
#
#
#
# Elastic Compliance Matrix: (Units=1/GPa)
#
#
# Indices 1 2 3 4 5 6 
#
# 1 0.009937 -0.002087 -0.002810 0.000396 0.004509 0.004193
# 2 -0.002087 0.006821 -0.000918 0.006385 0.000441 -0.000770
# 3 -0.002810 -0.000918 0.019261 0.008962 -0.006792 -0.003841
# 4 0.000396 0.006385 0.008962 0.045588 0.005305 -0.004238
# 5 0.004509 0.000441 -0.006792 0.005305 0.039257 0.001259
# 6 0.004193 -0.000770 -0.003841 -0.004238 0.001259 0.030068
#
#
# Mechanical properties :
#
#
# Convention : Reuss Voigt Hill
#
# Bulk Modulus (GPa) = 41.00190 68.70934 54.85562
# Shear Modulus (GPa) = 29.29262 38.98025 34.13643
#
# Velocity S-wave (km/s) = 3.44214 3.97074 3.71585
# Velocity P-wave (km/s) = 5.69054 6.98671 6.37167
#
# Compressibility (1/GPa) = 0.02438911
#
# Stress axis : x y z
#
# Youngs Moduli (GPa) = 100.63022 146.61099 51.91946
#
# Poissons Ratio (x) = 0.30592 0.14591
# Poissons Ratio (y) = 0.20997 0.04766
# Poissons Ratio (z) = 0.28280 0.13459
#
# Static dielectric constant tensor:
#      x y z
#    x 2.094480 -0.035300 0.091390 
#    y -0.035300 1.980550 -0.029400 
#    z 0.091390 -0.029400 2.029160 
# 
# From -- ./inp_files/182200.got.cif
#   From: 2010.05.17/outbox.cif.g08.bks.cpg/sg2_92_cif.got.tgz:182200.got - 2010.06.03 11:33:40.
