data_PCOD9048770
_publ_section_title
;
Structure prediction by ZEFSAII (Michael W. Deem and Ramdas Pophale) SiO2 
 PCOD9048770
Probable space group: P -1
;
_chemical_formula_sum "Si O2"
_cell_formula_units_Z 16
_cell_length_a 9.909063
_cell_length_b 4.993641
_cell_length_c 12.883867
_cell_angle_alpha 100.002484
_cell_angle_beta 71.541448
_cell_angle_gamma 83.207175
_cell_volume 585.198165
_symmetry_space_group_name_H-M "P -1"
_symmetry_group_IT_number 2
_symmetry_cell_setting 'triclinic'
loop_
_space_group_symop_operation_xyz
x,y,z
-x,-y,-z
loop_
_atom_site_type_symbol
_atom_site_label
_atom_site_fract_x
_atom_site_fract_y
_atom_site_fract_z
Si Si1 0.780742 0.498537 0.344047
Si Si2 0.963152 0.751851 0.603858
Si Si3 0.707456 0.014833 0.548474
Si Si4 0.789500 0.785413 0.035160
Si Si5 0.012216 0.290128 0.849968
Si Si6 0.522948 0.614126 0.667028
Si Si7 0.784961 0.975131 0.819002
Si Si8 0.497012 0.609685 0.126100
O O1 0.741295 0.799440 0.429624
O O2 0.882908 0.546350 0.226042
O O3 0.636167 0.397729 0.337871
O O4 0.880904 0.278263 0.379979
O O5 0.857442 0.983806 0.576492
O O6 0.847944 0.703378 0.719540
O O7 0.000000 0.500000 0.500000
O O8 0.588495 0.869224 0.627168
O O9 0.628852 0.333522 0.582407
O O10 0.886506 0.901659 0.104620
O O11 0.641483 0.731607 0.114960
O O12 0.759334 0.940667 0.944356
O O13 0.888118 0.496242 0.955962
O O14 0.922807 0.125123 0.786986
O O15 0.513371 0.604034 0.793957
O O16 0.645596 0.160409 0.819322
O O17 0.500000 0.500000 0.000000
#
# Coordination Sequence:
#
# PCOD9048770 Si02
#       8
#     2   2   2   2   2   2   2   2
#     4  11  24  48  73 109 147 196 249 315 383 451
#     4  10  24  45  72 109 143 194 246 315 376 451
#     4  11  27  49  79 108 152 196 255 314 381 456
#     4  11  24  46  65 104 143 184 246 299 372 441
#     4  11  24  43  70 102 144 183 242 302 374 449
#     4  12  27  50  76 112 151 199 255 313 379 454
#     4  12  24  43  75  99 145 198 244 307 381 449
#     4  12  26  45  72 105 143 198 250 311 370 452
#
# _framework density 27.341166999999999
#
# number of rings (size 3 to 8) (size 9 to 14) (size 15 to 20)
#    0.000    0.750    5.000    1.500    3.500    4.000 
#    2.250    4.375    0.000    0.000    0.000    0.000 
#    0.000    0.000    0.000    0.000    0.000    0.000 
#
# Total GULP energy -89746.036461 kJ/mol
# GULP energy per Si atom -5609.127279 kJ/mol
# Density = 2.727894 g / cm^3
# Si number density = 27.341167 Si / 1000 Ang^3
#
#
#
# Elastic Constant Matrix: (Units=GPa)
#
#
# Indices 1 2 3 4 5 6 
#
# 1 186.3667 23.5985 46.6224 -0.0584 -17.2922 -4.5859
# 2 23.5985 71.2311 19.6265 3.1153 -6.9748 6.6013
# 3 46.6224 19.6265 119.4260 14.5607 -17.0528 -1.0443
# 4 -0.0584 3.1153 14.5607 40.8725 -6.2675 -5.8765
# 5 -17.2922 -6.9748 -17.0528 -6.2675 51.9498 -6.7353
# 6 -4.5859 6.6013 -1.0443 -5.8765 -6.7353 38.2357
#
#
#
# Elastic Compliance Matrix: (Units=1/GPa)
#
#
# Indices 1 2 3 4 5 6 
#
# 1 0.006269 -0.001532 -0.002126 0.001323 0.001528 0.001431
# 2 -0.001532 0.015396 -0.001780 -0.000890 0.000484 -0.002942
# 3 -0.002126 -0.001780 0.010173 -0.003149 0.002039 0.000205
# 4 0.001323 -0.000890 -0.003149 0.026849 0.003163 0.004910
# 5 0.001528 0.000484 0.002039 0.003163 0.021447 0.004419
# 6 0.001431 -0.002942 0.000205 0.004910 0.004419 0.028372
#
#
# Mechanical properties :
#
#
# Convention : Reuss Voigt Hill
#
# Bulk Modulus (GPa) = 47.70728 61.85762 54.78245
# Shear Modulus (GPa) = 39.56660 45.35671 42.46166
#
# Velocity S-wave (km/s) = 3.80826 4.07740 3.94513
# Velocity P-wave (km/s) = 6.06827 6.69630 6.39000
#
# Compressibility (1/GPa) = 0.02096116
#
# Stress axis : x y z
#
# Youngs Moduli (GPa) = 159.51331 64.95282 98.30016
#
# Poissons Ratio (x) = 0.09950 0.20901
# Poissons Ratio (y) = 0.24436 0.17499
# Poissons Ratio (z) = 0.33916 0.11563
#
# Static dielectric constant tensor:
#      x y z
#    x 2.103810 0.025130 0.080840 
#    y 0.025130 2.116420 -0.020220 
#    z 0.080840 -0.020220 2.250230 
# 
# From -- ./inp_files/488531.got.cif
#   From: 2010.05.17/outbox.cif.g08.bks.cpg/sg2_245_cif.got.tgz:488531.got - 2010.06.03 11:33:40.
