data_PCOD9048718
_publ_section_title
;
Structure prediction by ZEFSAII (Michael W. Deem and Ramdas Pophale) SiO2 
 PCOD9048718
Probable space group: P -1
;
_chemical_formula_sum "Si O2"
_cell_formula_units_Z 16
_cell_length_a 8.815340
_cell_length_b 18.853145
_cell_length_c 22.003127
_cell_angle_alpha 159.861767
_cell_angle_beta 36.251819
_cell_angle_gamma 144.013676
_cell_volume 719.767697
_symmetry_space_group_name_H-M "P -1"
_symmetry_group_IT_number 2
_symmetry_cell_setting 'triclinic'
loop_
_space_group_symop_operation_xyz
x,y,z
-x,-y,-z
loop_
_atom_site_type_symbol
_atom_site_label
_atom_site_fract_x
_atom_site_fract_y
_atom_site_fract_z
Si Si1 0.574461 0.252774 0.750004
Si Si2 0.156104 0.190947 0.058513
Si Si3 0.117743 0.526971 0.803133
Si Si4 0.578559 0.616848 0.308045
Si Si5 0.741104 0.028920 0.278301
Si Si6 0.157158 0.115381 0.674786
Si Si7 0.314631 0.639642 0.697991
Si Si8 0.793310 0.003051 0.806688
O O1 0.336468 0.247211 0.776754
O O2 0.802099 0.464931 0.848853
O O3 0.472810 0.165039 0.777531
O O4 0.722210 0.081449 0.538269
O O5 0.412743 0.374040 0.147998
O O6 0.957396 0.339890 0.227280
O O7 0.205273 0.060042 0.876706
O O8 0.000000 0.000000 0.000000
O O9 0.233328 0.380976 0.693142
O O10 0.244652 0.548690 0.713927
O O11 0.196930 0.757029 0.990728
O O12 0.378826 0.764583 0.509584
O O13 0.775188 0.730439 0.281214
O O14 0.994712 0.065082 0.271385
O O15 0.879359 0.006778 0.710863
O O16 0.500000 0.500000 0.500000
O O17 0.506467 0.872415 0.814983
#
# Coordination Sequence:
#
# PCOD9048718 Si02
#       8
#     2   2   2   2   2   2   2   2
#     4   9  20  42  68  99 127 181 221 271 338 396
#     4  12  27  46  70 100 133 182 229 275 334 407
#     4  12  25  41  68 101 139 171 220 282 339 394
#     4  11  26  45  67 105 137 175 220 284 340 395
#     4  10  24  45  71  94 138 178 223 279 332 408
#     4   9  20  41  70  96 133 171 228 270 331 410
#     4  12  26  46  70  96 134 181 228 275 331 406
#     4  11  23  42  69  99 129 178 224 282 328 398
#
# _framework density 22.229395
#
# number of rings (size 3 to 8) (size 9 to 14) (size 15 to 20)
#    0.000    1.250    1.250    4.125    5.250    4.000 
#    4.500    0.000    0.000    0.000    0.000    0.000 
#    0.000    0.000    0.000    0.000    0.000    0.000 
#
# Total GULP energy -89303.577113 kJ/mol
# GULP energy per Si atom -5581.473570 kJ/mol
# Density = 2.217880 g / cm^3
# Si number density = 22.229395 Si / 1000 Ang^3
#
#
#
# Elastic Constant Matrix: (Units=GPa)
#
#
# Indices 1 2 3 4 5 6 
#
# 1 74.4290 43.2548 24.9822 -16.9540 -16.3418 -17.0988
# 2 43.2548 196.5673 46.0419 -49.9426 -3.4244 -21.1378
# 3 24.9822 46.0419 98.3693 -23.4616 -7.8874 -18.3201
# 4 -16.9540 -49.9426 -23.4616 60.0411 10.4822 10.6201
# 5 -16.3418 -3.4244 -7.8874 10.4822 34.5237 2.4819
# 6 -17.0988 -21.1378 -18.3201 10.6201 2.4819 43.7617
#
#
#
# Elastic Compliance Matrix: (Units=1/GPa)
#
#
# Indices 1 2 3 4 5 6 
#
# 1 0.018563 -0.003076 -0.001843 -0.000212 0.007794 0.004605
# 2 -0.003076 0.007444 -0.001590 0.005051 -0.002662 0.000653
# 3 -0.001843 -0.001590 0.012603 0.002365 0.000904 0.003163
# 4 -0.000212 0.005051 0.002365 0.023097 -0.005934 -0.001922
# 5 0.007794 -0.002662 0.000904 -0.005934 0.034282 0.001634
# 6 0.004605 0.000653 0.003163 -0.001922 0.001634 0.026664
#
#
# Mechanical properties :
#
#
# Convention : Reuss Voigt Hill
#
# Bulk Modulus (GPa) = 39.07338 66.43592 52.75465
# Shear Modulus (GPa) = 34.67397 44.67106 39.67252
#
# Velocity S-wave (km/s) = 3.95375 4.48766 4.22914
# Velocity P-wave (km/s) = 6.20148 7.53681 6.90152
#
# Compressibility (1/GPa) = 0.02559287
#
# Stress axis : x y z
#
# Youngs Moduli (GPa) = 53.87167 134.33908 79.34310
#
# Poissons Ratio (x) = 0.41324 0.14619
# Poissons Ratio (y) = 0.16572 0.12615
# Poissons Ratio (z) = 0.09926 0.21359
#
# Static dielectric constant tensor:
#      x y z
#    x 1.836840 0.032680 -0.000670 
#    y 0.032680 1.720640 0.017220 
#    z -0.000670 0.017220 1.914470 
# 
# From -- ./inp_files/428192.got.cif
#   From: 2010.05.17/outbox.cif.g08.bks.cpg/sg2_215_cif.got.tgz:428192.got - 2010.06.03 11:33:40.
