data_PCOD9048146
_publ_section_title
;
Structure prediction by ZEFSAII (Michael W. Deem and Ramdas Pophale) SiO2 
 PCOD9048146
Probable space group: P -1
;
_chemical_formula_sum "Si O2"
_cell_formula_units_Z 13
_cell_length_a 15.165241
_cell_length_b 7.982106
_cell_length_c 9.995195
_cell_angle_alpha 101.597392
_cell_angle_beta 153.628859
_cell_angle_gamma 82.265208
_cell_volume 523.567434
_symmetry_space_group_name_H-M "P -1"
_symmetry_group_IT_number 2
_symmetry_cell_setting 'triclinic'
loop_
_space_group_symop_operation_xyz
x,y,z
-x,-y,-z
loop_
_atom_site_type_symbol
_atom_site_label
_atom_site_fract_x
_atom_site_fract_y
_atom_site_fract_z
Si Si1 0.581828 0.752309 0.919314
Si Si2 0.193378 0.893853 0.726942
Si Si3 0.704964 0.360241 0.726888
Si Si4 0.500000 0.500000 0.000000
Si Si5 0.531044 0.273943 0.744711
Si Si6 0.089375 0.292397 0.857883
Si Si7 0.820690 0.994320 0.857486
O O1 0.394445 0.698762 0.558530
O O2 0.576901 0.668951 0.043640
O O3 0.768081 0.693004 0.076370
O O4 0.629836 0.957251 0.033574
O O5 0.134508 0.754538 0.507991
O O6 0.261756 0.782469 0.924436
O O7 0.000000 0.000000 0.500000
O O8 0.547344 0.368773 0.637554
O O9 0.801206 0.193113 0.883155
O O10 0.859743 0.530762 0.965150
O O11 0.540635 0.606926 0.217149
O O12 0.383172 0.102394 0.493309
O O13 0.137077 0.126498 0.980029
O O14 0.000000 0.000000 0.000000
#
# Coordination Sequence:
#
# PCOD9048146 Si02
#       7
#     2   2   2   1   2   2   2
#     4  11  22  47  73 110 149 201 250 313 380 454
#     4  10  24  44  74 109 149 195 250 318 374 450
#     4  12  23  49  86 103 149 212 254 307 387 464
#     4  12  28  40  76 116 152 194 260 318 378 448
#     4  12  25  50  77 112 151 204 258 311 391 459
#     4  11  24  46  75 112 151 195 256 310 381 454
#     4  12  28  46  79 117 152 198 262 319 378 465
#
# _framework density 24.829656
#
# number of rings (size 3 to 8) (size 9 to 14) (size 15 to 20)
#    0.000    0.615    4.615    3.692    2.154    4.308 
#    0.000    0.000    0.000    0.000    0.000    0.000 
#    0.000    0.000    0.000    0.000    0.000    0.000 
#
# Total GULP energy -72470.048179 kJ/mol
# GULP energy per Si atom -5574.619091 kJ/mol
# Density = 2.477314 g / cm^3
# Si number density = 24.829656 Si / 1000 Ang^3
#
#
#
# Elastic Constant Matrix: (Units=GPa)
#
#
# Indices 1 2 3 4 5 6 
#
# 1 115.3624 24.4445 29.8899 -8.1625 -35.6957 27.1822
# 2 24.4445 121.6911 50.3919 28.8144 -15.7754 25.0157
# 3 29.8899 50.3919 145.6028 16.2386 -25.8463 11.8528
# 4 -8.1625 28.8144 16.2386 47.4910 2.7850 -17.6066
# 5 -35.6957 -15.7754 -25.8463 2.7850 27.5364 -8.4116
# 6 27.1822 25.0157 11.8528 -17.6066 -8.4116 39.1462
#
#
#
# Elastic Compliance Matrix: (Units=1/GPa)
#
#
# Indices 1 2 3 4 5 6 
#
# 1 0.016567 0.001956 0.000812 -0.003605 0.020611 -0.010192
# 2 0.001956 0.016828 -0.001813 -0.016078 0.006806 -0.017332
# 3 0.000812 -0.001813 0.009341 -0.003123 0.008547 -0.001802
# 4 -0.003605 -0.016078 -0.003123 0.043323 -0.011829 0.030667
# 5 0.020611 0.006806 0.008547 -0.011829 0.072815 -0.010923
# 6 -0.010192 -0.017332 -0.001802 0.030667 -0.010923 0.055690
#
#
# Mechanical properties :
#
#
# Convention : Reuss Voigt Hill
#
# Bulk Modulus (GPa) = 22.39808 65.78988 44.09398
# Shear Modulus (GPa) = 21.97459 41.36339 31.66899
#
# Velocity S-wave (km/s) = 2.97815 4.08596 3.57522
# Velocity P-wave (km/s) = 4.56794 6.98671 5.90255
#
# Compressibility (1/GPa) = 0.04464668
#
# Stress axis : x y z
#
# Youngs Moduli (GPa) = 60.36003 59.42585 107.05356
#
# Poissons Ratio (x) = -0.11625 -0.08696
# Poissons Ratio (y) = -0.11808 0.19412
# Poissons Ratio (z) = -0.04903 0.10776
#
# Static dielectric constant tensor:
#      x y z
#    x 1.585430 -0.162950 0.130230 
#    y -0.162950 2.125620 -0.045110 
#    z 0.130230 -0.045110 2.001170 
# 
# From -- ./inp_files/295910.got.cif
#   From: 2010.05.17/outbox.cif.g08.bks.cpg/sg2_148_cif.got.tgz:295910.got - 2010.06.03 11:33:40.
