data_PCOD9048590
_publ_section_title
;
Structure prediction by ZEFSAII (Michael W. Deem and Ramdas Pophale) SiO2 
 PCOD9048590
Probable space group: P -1
;
_chemical_formula_sum "Si O2"
_cell_formula_units_Z 12
_cell_length_a 9.614116
_cell_length_b 8.661364
_cell_length_c 10.130722
_cell_angle_alpha 86.443309
_cell_angle_beta 138.165253
_cell_angle_gamma 99.989183
_cell_volume 551.229762
_symmetry_space_group_name_H-M "P -1"
_symmetry_group_IT_number 2
_symmetry_cell_setting 'triclinic'
loop_
_space_group_symop_operation_xyz
x,y,z
-x,-y,-z
loop_
_atom_site_type_symbol
_atom_site_label
_atom_site_fract_x
_atom_site_fract_y
_atom_site_fract_z
Si Si1 0.280014 0.337988 0.148009
Si Si2 0.150521 0.501197 0.801725
Si Si3 0.911836 0.218412 0.086719
Si Si4 0.291670 0.455363 0.618398
Si Si5 0.439885 0.013103 0.304669
Si Si6 0.146986 0.085468 0.485394
O O1 0.488766 0.473588 0.301045
O O2 0.104250 0.327723 0.138130
O O3 0.360416 0.174318 0.215326
O O4 0.181972 0.371333 0.936650
O O5 0.193978 0.669601 0.898204
O O6 0.290272 0.498832 0.769790
O O7 0.905273 0.477583 0.585024
O O8 0.014993 0.098395 0.256663
O O9 0.744841 0.126049 0.870654
O O10 0.235968 0.267793 0.574279
O O11 0.656860 0.001879 0.385376
O O12 0.500000 0.000000 0.500000
O O13 0.000000 0.000000 0.500000
#
# Coordination Sequence:
#
# PCOD9048590 Si02
#       6
#     2   2   2   2   2   2
#     4  12  25  42  75 102 142 184 234 293 342 418
#     4  10  24  45  70 102 141 183 232 289 345 416
#     4  11  26  47  70 107 139 187 238 287 351 418
#     4  10  25  46  72 103 141 183 238 283 355 410
#     4  12  28  46  70 104 145 187 234 290 356 412
#     4  11  27  48  73 103 145 185 233 291 351 425
#
# _framework density 21.769507999999998
#
# number of rings (size 3 to 8) (size 9 to 14) (size 15 to 20)
#    0.000    1.000    1.667    2.500   11.667    3.333 
#    0.000    0.000    0.000    0.000    0.000    0.000 
#    0.000    0.000    0.000    0.000    0.000    0.000 
#
# Total GULP energy -67185.422244 kJ/mol
# GULP energy per Si atom -5598.785187 kJ/mol
# Density = 2.171996 g / cm^3
# Si number density = 21.769508 Si / 1000 Ang^3
#
#
#
# Elastic Constant Matrix: (Units=GPa)
#
#
# Indices 1 2 3 4 5 6 
#
# 1 73.5251 12.0508 15.5948 20.5783 -3.5087 12.1462
# 2 12.0508 64.3240 42.2961 -4.1777 -13.2488 0.1823
# 3 15.5948 42.2961 130.6378 1.2174 -12.0294 5.3658
# 4 20.5783 -4.1777 1.2174 46.4289 -0.2463 8.1790
# 5 -3.5087 -13.2488 -12.0294 -0.2463 18.6788 -2.8406
# 6 12.1462 0.1823 5.3658 8.1790 -2.8406 49.0221
#
#
#
# Elastic Compliance Matrix: (Units=1/GPa)
#
#
# Indices 1 2 3 4 5 6 
#
# 1 0.016757 -0.003071 -0.000831 -0.007179 -0.000095 -0.002857
# 2 -0.003071 0.022735 -0.005984 0.003370 0.011962 0.001462
# 3 -0.000831 -0.005984 0.009894 -0.000297 0.001861 -0.000698
# 4 -0.007179 0.003370 -0.000297 0.025458 0.000821 -0.002401
# 5 -0.000095 0.011962 0.001861 0.000821 0.063720 0.003331
# 6 -0.002857 0.001462 -0.000698 -0.002401 0.003331 0.021771
#
#
# Mechanical properties :
#
#
# Convention : Reuss Voigt Hill
#
# Bulk Modulus (GPa) = 33.76672 45.37448 39.57060
# Shear Modulus (GPa) = 26.31877 36.06230 31.19053
#
# Velocity S-wave (km/s) = 3.48080 4.07449 3.78929
# Velocity P-wave (km/s) = 5.63022 6.55924 6.11241
#
# Compressibility (1/GPa) = 0.02961496
#
# Stress axis : x y z
#
# Youngs Moduli (GPa) = 59.67669 43.98504 101.06912
#
# Poissons Ratio (x) = 0.13507 0.08395
# Poissons Ratio (y) = 0.18325 0.60482
# Poissons Ratio (z) = 0.04957 0.26322
#
# Static dielectric constant tensor:
#      x y z
#    x 1.785950 -0.017570 0.007410 
#    y -0.017570 1.759530 0.014820 
#    z 0.007410 0.014820 1.812940 
# 
# From -- ./inp_files/157556.got.cif
#   From: 2010.05.17/outbox.cif.g08.bks.cpg/sg2_79_cif.got.tgz:157556.got - 2010.06.03 11:33:40.
