data_PCOD9048631
_publ_section_title
;
Structure prediction by ZEFSAII (Michael W. Deem and Ramdas Pophale) SiO2 
 PCOD9048631
Probable space group: P -1
;
_chemical_formula_sum "Si O2"
_cell_formula_units_Z 16
_cell_length_a 16.503456
_cell_length_b 12.139780
_cell_length_c 8.286865
_cell_angle_alpha 35.953595
_cell_angle_beta 112.687864
_cell_angle_gamma 127.865381
_cell_volume 747.092431
_symmetry_space_group_name_H-M "P -1"
_symmetry_group_IT_number 2
_symmetry_cell_setting 'triclinic'
loop_
_space_group_symop_operation_xyz
x,y,z
-x,-y,-z
loop_
_atom_site_type_symbol
_atom_site_label
_atom_site_fract_x
_atom_site_fract_y
_atom_site_fract_z
Si Si1 0.837904 0.749709 0.747366
Si Si2 0.452545 0.573065 0.735411
Si Si3 0.592100 0.085857 0.597817
Si Si4 0.313839 0.106094 0.585352
Si Si5 0.948666 0.918139 0.288719
Si Si6 0.406973 0.265846 0.788323
Si Si7 0.786981 0.253116 0.328201
Si Si8 0.967957 0.277934 0.637422
O O1 0.735004 0.757924 0.680699
O O2 0.877933 0.825230 0.504524
O O3 0.814546 0.504037 0.042871
O O4 0.931796 0.919061 0.740518
O O5 0.387863 0.680671 0.602380
O O6 0.562810 0.775363 0.501261
O O7 0.384902 0.362502 0.814762
O O8 0.500000 0.500000 0.000000
O O9 0.691255 0.121339 0.536946
O O10 0.500000 0.000000 0.500000
O O11 0.557371 0.896088 0.931398
O O12 0.314423 0.122629 0.759249
O O13 0.248376 0.867118 0.730168
O O14 0.945292 0.730223 0.394532
O O15 0.928231 0.073757 0.975629
O O16 0.500000 0.500000 0.500000
O O17 0.882256 0.247849 0.479735
O O18 0.000000 0.500000 0.500000
#
# Coordination Sequence:
#
# PCOD9048631 Si02
#       8
#     2   2   2   2   2   2   2   2
#     4  11  24  43  68  99 127 177 216 274 334 400
#     4  11  21  43  69  90 131 179 218 273 328 381
#     4  12  24  43  68  99 132 178 229 266 328 399
#     4  11  24  41  64  95 137 167 222 271 323 395
#     4  10  24  45  70  94 132 169 219 273 340 397
#     4  10  25  42  65  94 129 180 217 278 327 378
#     4  12  25  42  69  97 135 175 222 273 332 388
#     4  11  23  46  69  99 130 170 217 278 332 396
#
# _framework density 21.416359
#
# number of rings (size 3 to 8) (size 9 to 14) (size 15 to 20)
#    0.000    1.000    5.000    0.750    3.500    4.500 
#    2.250    0.000    0.000    0.000    0.000    0.000 
#    0.000    0.000    0.000    0.000    0.000    0.000 
#
# Total GULP energy -89368.293113 kJ/mol
# GULP energy per Si atom -5585.518320 kJ/mol
# Density = 2.136761 g / cm^3
# Si number density = 21.416359 Si / 1000 Ang^3
#
#
#
# Elastic Constant Matrix: (Units=GPa)
#
#
# Indices 1 2 3 4 5 6 
#
# 1 38.6726 17.4348 18.5796 -15.5806 18.9075 -6.9437
# 2 17.4348 127.3102 24.5395 -11.9833 13.7880 -27.2304
# 3 18.5796 24.5395 114.4576 -1.3279 22.0965 -10.9029
# 4 -15.5806 -11.9833 -1.3279 30.9568 -7.3927 12.3825
# 5 18.9075 13.7880 22.0965 -7.3927 33.3279 -4.8261
# 6 -6.9437 -27.2304 -10.9029 12.3825 -4.8261 33.2419
#
#
#
# Elastic Compliance Matrix: (Units=1/GPa)
#
#
# Indices 1 2 3 4 5 6 
#
# 1 0.044180 -0.002428 -0.003194 0.018045 -0.018403 -0.003201
# 2 -0.002428 0.010024 -0.000795 -0.000693 -0.001309 0.007511
# 3 -0.003194 -0.000795 0.010695 -0.003887 -0.005399 0.002854
# 4 0.018045 -0.000693 -0.003887 0.047401 0.000882 -0.015602
# 5 -0.018403 -0.001309 -0.005399 0.000882 0.044685 -0.000528
# 6 -0.003201 0.007511 0.002854 -0.015602 -0.000528 0.042238
#
#
# Mechanical properties :
#
#
# Convention : Reuss Voigt Hill
#
# Bulk Modulus (GPa) = 19.20681 44.61645 31.91163
# Shear Modulus (GPa) = 21.79501 34.16441 27.97971
#
# Velocity S-wave (km/s) = 3.19357 3.99839 3.61843
# Velocity P-wave (km/s) = 4.75250 6.49571 5.69125
#
# Compressibility (1/GPa) = 0.05206487
#
# Stress axis : x y z
#
# Youngs Moduli (GPa) = 22.63486 99.76458 93.50393
#
# Poissons Ratio (x) = 0.24221 0.29864
# Poissons Ratio (y) = 0.05495 0.07432
# Poissons Ratio (z) = 0.07229 0.07930
#
# Static dielectric constant tensor:
#      x y z
#    x 1.789450 -0.055930 -0.034200 
#    y -0.055930 1.796060 -0.008090 
#    z -0.034200 -0.008090 1.777350 
# 
# From -- ./inp_files/273534.got.cif
#   From: 2010.05.17/outbox.cif.g08.bks.cpg/sg2_137_cif.got.tgz:273534.got - 2010.06.03 11:33:40.
