data_PCOD9048535
_publ_section_title
;
Structure prediction by ZEFSAII (Michael W. Deem and Ramdas Pophale) SiO2 
 PCOD9048535
Probable space group: P -1
;
_chemical_formula_sum "Si O2"
_cell_formula_units_Z 16
_cell_length_a 9.135580
_cell_length_b 11.926263
_cell_length_c 15.188737
_cell_angle_alpha 152.694600
_cell_angle_beta 89.823582
_cell_angle_gamma 79.852404
_cell_volume 699.014231
_symmetry_space_group_name_H-M "P -1"
_symmetry_group_IT_number 2
_symmetry_cell_setting 'triclinic'
loop_
_space_group_symop_operation_xyz
x,y,z
-x,-y,-z
loop_
_atom_site_type_symbol
_atom_site_label
_atom_site_fract_x
_atom_site_fract_y
_atom_site_fract_z
Si Si1 0.885142 0.300929 0.229849
Si Si2 0.447509 0.764935 0.125357
Si Si3 0.767251 0.659848 0.969932
Si Si4 0.317616 0.738721 0.433949
Si Si5 0.099593 0.260814 0.706879
Si Si6 0.105601 0.160278 0.441842
Si Si7 0.661742 0.499714 0.210894
Si Si8 0.157740 0.849018 0.687423
O O1 0.948565 0.528679 0.363969
O O2 0.738994 0.368034 0.210242
O O3 0.843173 0.322798 0.347973
O O4 0.000000 0.000000 0.000000
O O5 0.296667 0.009683 0.332726
O O6 0.500000 0.500000 0.000000
O O7 0.612167 0.791493 0.122838
O O8 0.377601 0.701869 0.991456
O O9 0.721117 0.484011 0.775819
O O10 0.927081 0.461338 0.878799
O O11 0.813885 0.895385 0.099196
O O12 0.489227 0.719253 0.388054
O O13 0.290704 0.704266 0.512822
O O14 0.194558 0.029863 0.611341
O O15 0.069139 0.139729 0.529761
O O16 0.216918 0.403525 0.774306
O O17 0.008750 0.060935 0.303232
#
# Coordination Sequence:
#
# PCOD9048535 Si02
#       8
#     2   2   2   2   2   2   2   2
#     4  11  25  47  74  98 135 186 246 292 344 410
#     4  11  25  43  69 107 148 181 230 285 356 431
#     4  11  25  44  63 109 142 178 233 292 350 413
#     4  11  25  43  66 106 141 182 230 292 361 414
#     4  11  22  43  72  98 146 180 230 295 349 424
#     4  11  23  45  73 104 134 189 238 279 356 426
#     4  10  24  45  69  97 140 185 230 289 359 408
#     4  12  26  42  74  98 141 182 243 287 344 412
#
# _framework density 22.889377
#
# number of rings (size 3 to 8) (size 9 to 14) (size 15 to 20)
#    0.000    1.000    1.250    5.625    7.000    1.000 
#    0.000    1.250    0.000    0.000    0.000    0.000 
#    0.000    0.000    0.000    0.000    0.000    0.000 
#
# Total GULP energy -89504.794048 kJ/mol
# GULP energy per Si atom -5594.049628 kJ/mol
# Density = 2.283728 g / cm^3
# Si number density = 22.889377 Si / 1000 Ang^3
#
#
#
# Elastic Constant Matrix: (Units=GPa)
#
#
# Indices 1 2 3 4 5 6 
#
# 1 149.4505 17.3266 38.9905 -1.3963 -10.8444 -4.9202
# 2 17.3266 100.5486 6.6508 -8.9640 11.8152 2.6397
# 3 38.9905 6.6508 76.9763 6.4375 -6.0344 1.1785
# 4 -1.3963 -8.9640 6.4375 29.6003 -7.2711 0.4453
# 5 -10.8444 11.8152 -6.0344 -7.2711 41.8923 -7.1778
# 6 -4.9202 2.6397 1.1785 0.4453 -7.1778 29.8529
#
#
#
# Elastic Compliance Matrix: (Units=1/GPa)
#
#
# Indices 1 2 3 4 5 6 
#
# 1 0.008157 -0.001375 -0.003966 0.001425 0.002555 0.002216
# 2 -0.001375 0.010916 -0.000701 0.002580 -0.003435 -0.002028
# 3 -0.003966 -0.000701 0.015423 -0.003592 0.000597 -0.001003
# 4 0.001425 0.002580 -0.003592 0.036793 0.005675 0.000964
# 5 0.002555 -0.003435 0.000597 0.005675 0.027824 0.007307
# 6 0.002216 -0.002028 -0.001003 0.000964 0.007307 0.035824
#
#
# Mechanical properties :
#
#
# Convention : Reuss Voigt Hill
#
# Bulk Modulus (GPa) = 44.61698 50.32345 47.47021
# Shear Modulus (GPa) = 32.36474 37.86960 35.11717
#
# Velocity S-wave (km/s) = 3.76435 4.07192 3.92115
# Velocity P-wave (km/s) = 6.19907 6.64384 6.42531
#
# Compressibility (1/GPa) = 0.02241299
#
# Stress axis : x y z
#
# Youngs Moduli (GPa) = 122.59703 91.61221 64.83883
#
# Poissons Ratio (x) = 0.12593 0.25713
# Poissons Ratio (y) = 0.16852 0.04544
# Poissons Ratio (z) = 0.48618 0.06420
#
# Static dielectric constant tensor:
#      x y z
#    x 1.906880 0.010660 0.003780 
#    y 0.010660 1.807620 -0.026300 
#    z 0.003780 -0.026300 1.900450 
# 
# From -- ./inp_files/501178.got.cif
#   From: 2010.05.17/outbox.cif.g08.bks.cpg/sg2_251_cif.got.tgz:501178.got - 2010.06.03 11:33:40.
