data_PCOD9048769
_publ_section_title
;
Structure prediction by ZEFSAII (Michael W. Deem and Ramdas Pophale) SiO2 
 PCOD9048769
Probable space group: P -1
;
_chemical_formula_sum "Si O2"
_cell_formula_units_Z 12
_cell_length_a 11.384497
_cell_length_b 9.705401
_cell_length_c 9.572234
_cell_angle_alpha 28.979432
_cell_angle_beta 88.679180
_cell_angle_gamma 80.401538
_cell_volume 488.268948
_symmetry_space_group_name_H-M "P -1"
_symmetry_group_IT_number 2
_symmetry_cell_setting 'triclinic'
loop_
_space_group_symop_operation_xyz
x,y,z
-x,-y,-z
loop_
_atom_site_type_symbol
_atom_site_label
_atom_site_fract_x
_atom_site_fract_y
_atom_site_fract_z
Si Si1 0.245390 0.850613 0.624643
Si Si2 0.279347 0.238852 0.039639
Si Si3 0.475888 0.289794 0.566179
Si Si4 0.666053 0.145478 0.087945
Si Si5 0.047141 0.549664 0.606489
Si Si6 0.921556 0.186563 0.098085
O O1 0.328998 0.908375 0.697522
O O2 0.126769 0.811498 0.744826
O O3 0.219240 0.115528 0.280945
O O4 0.307052 0.537123 0.825701
O O5 0.400004 0.972693 0.236044
O O6 0.182515 0.345322 0.822959
O O7 0.500000 0.500000 0.500000
O O8 0.377847 0.109917 0.757922
O O9 0.420820 0.525904 0.236081
O O10 0.804782 0.147091 0.048935
O O11 0.000000 0.500000 0.500000
O O12 0.033912 0.895176 0.320398
O O13 0.955089 0.471719 0.790650
#
# Coordination Sequence:
#
# PCOD9048769 Si02
#       6
#     2   2   2   2   2   2
#     4  10  24  45  72 109 138 182 240 292 358 420
#     4  12  26  43  70 111 138 186 242 294 350 414
#     4  12  26  45  71 101 149 188 233 292 347 434
#     4  10  24  47  71 102 136 193 230 287 365 410
#     4  12  26  45  71 101 149 188 233 292 347 434
#     4  10  24  47  71 102 136 193 230 287 365 410
#
# _framework density 24.576619000000001
#
# number of rings (size 3 to 8) (size 9 to 14) (size 15 to 20)
#    1.000    0.000    0.000    6.000    2.333    8.000 
#    6.000    0.000    0.000    0.000    0.000    0.000 
#    0.000    0.000    0.000    0.000    0.000    0.000 
#
# Total GULP energy -67186.377737 kJ/mol
# GULP energy per Si atom -5598.864811 kJ/mol
# Density = 2.452068 g / cm^3
# Si number density = 24.576619 Si / 1000 Ang^3
#
#
#
# Elastic Constant Matrix: (Units=GPa)
#
#
# Indices 1 2 3 4 5 6 
#
# 1 80.0514 20.5264 19.9405 -0.8804 8.1727 18.2327
# 2 20.5264 67.0733 44.7495 -5.9042 12.7034 12.8037
# 3 19.9405 44.7495 133.1233 -6.1108 24.0979 13.5191
# 4 -0.8804 -5.9042 -6.1108 45.7340 11.8087 -5.0959
# 5 8.1727 12.7034 24.0979 11.8087 47.6964 -3.3062
# 6 18.2327 12.8037 13.5191 -5.0959 -3.3062 34.7707
#
#
#
# Elastic Compliance Matrix: (Units=1/GPa)
#
#
# Indices 1 2 3 4 5 6 
#
# 1 0.015075 -0.002720 -0.000255 -0.000329 -0.002137 -0.007055
# 2 -0.002720 0.021047 -0.005569 0.002281 -0.003177 -0.004126
# 3 -0.000255 -0.005569 0.010482 0.001556 -0.004298 -0.002072
# 4 -0.000329 0.002281 0.001556 0.024419 -0.007271 0.001615
# 5 -0.002137 -0.003177 -0.004298 -0.007271 0.026525 0.005418
# 6 -0.007055 -0.004126 -0.002072 0.001615 0.005418 0.035536
#
#
# Mechanical properties :
#
#
# Convention : Reuss Voigt Hill
#
# Bulk Modulus (GPa) = 33.88183 50.07564 41.97873
# Shear Modulus (GPa) = 31.24798 38.64233 34.94516
#
# Velocity S-wave (km/s) = 3.56961 3.96955 3.77488
# Velocity P-wave (km/s) = 5.55028 6.43656 6.00978
#
# Compressibility (1/GPa) = 0.02951435
#
# Stress axis : x y z
#
# Youngs Moduli (GPa) = 66.33698 47.51270 95.40423
#
# Poissons Ratio (x) = 0.12925 0.02436
# Poissons Ratio (y) = 0.18046 0.53127
# Poissons Ratio (z) = 0.01694 0.26458
#
# Static dielectric constant tensor:
#      x y z
#    x 2.005850 -0.006610 0.019820 
#    y -0.006610 1.942750 0.039250 
#    z 0.019820 0.039250 1.867220 
# 
# From -- ./inp_files/422583.got.cif
#   From: 2010.05.17/outbox.cif.g08.bks.cpg/sg2_212_cif.got.tgz:422583.got - 2010.06.03 11:33:40.
