data_PCOD9048821
_publ_section_title
;
Structure prediction by ZEFSAII (Michael W. Deem and Ramdas Pophale) SiO2 
 PCOD9048821
Probable space group: P -1
;
_chemical_formula_sum "Si O2"
_cell_formula_units_Z 12
_cell_length_a 9.083886
_cell_length_b 12.844838
_cell_length_c 16.504620
_cell_angle_alpha 156.974634
_cell_angle_beta 44.146966
_cell_angle_gamma 127.870831
_cell_volume 516.935568
_symmetry_space_group_name_H-M "P -1"
_symmetry_group_IT_number 2
_symmetry_cell_setting 'triclinic'
loop_
_space_group_symop_operation_xyz
x,y,z
-x,-y,-z
loop_
_atom_site_type_symbol
_atom_site_label
_atom_site_fract_x
_atom_site_fract_y
_atom_site_fract_z
Si Si1 0.263244 0.469049 0.551133
Si Si2 0.657716 0.268335 0.826014
Si Si3 0.014924 0.592430 0.900295
Si Si4 0.590542 0.035780 0.401887
Si Si5 0.249160 0.494264 0.400402
Si Si6 0.348878 0.833329 0.052662
O O1 0.500000 0.500000 0.500000
O O2 0.111586 0.583358 0.765906
O O3 0.249214 0.618918 0.578622
O O4 0.249480 0.152169 0.316763
O O5 0.621123 0.248448 0.922651
O O6 0.899571 0.329201 0.766962
O O7 0.590357 0.006893 0.622810
O O8 0.500000 0.500000 0.000000
O O9 0.190973 0.659174 0.943486
O O10 0.810137 0.827695 0.155729
O O11 0.662929 0.319727 0.566028
O O12 0.500000 0.000000 0.500000
O O13 0.000000 0.500000 0.500000
O O14 0.419615 0.221266 0.123361
#
# Coordination Sequence:
#
# PCOD9048821 Si02
#       6
#     2   2   2   2   2   2
#     4  12  27  47  71 108 151 191 251 298 371 443
#     4  10  24  45  73 104 144 188 249 301 362 433
#     4  11  26  47  76 105 149 198 242 306 368 436
#     4  11  26  49  76 109 148 195 251 305 367 435
#     4  12  27  44  76 108 148 197 243 305 368 434
#     4  12  26  49  72 107 149 192 248 306 367 439
#
# _framework density 23.213723999999999
#
# number of rings (size 3 to 8) (size 9 to 14) (size 15 to 20)
#    0.000    0.667    1.667    5.000   11.667    1.333 
#    0.000    0.000    0.000    0.000    0.000    0.000 
#    0.000    0.000    0.000    0.000    0.000    0.000 
#
# Total GULP energy -66997.894246 kJ/mol
# GULP energy per Si atom -5583.157854 kJ/mol
# Density = 2.316089 g / cm^3
# Si number density = 23.213724 Si / 1000 Ang^3
#
#
#
# Elastic Constant Matrix: (Units=GPa)
#
#
# Indices 1 2 3 4 5 6 
#
# 1 110.9383 11.1957 10.8238 -31.9896 6.7434 14.7376
# 2 11.1957 109.2828 36.9758 -34.5105 5.6226 -8.0857
# 3 10.8238 36.9758 121.7590 -41.6467 0.5647 -2.2182
# 4 -31.9896 -34.5105 -41.6467 57.1788 -9.0393 9.1352
# 5 6.7434 5.6226 0.5647 -9.0393 26.6542 -8.9992
# 6 14.7376 -8.0857 -2.2182 9.1352 -8.9992 48.2023
#
#
#
# Elastic Compliance Matrix: (Units=1/GPa)
#
#
# Indices 1 2 3 4 5 6 
#
# 1 0.012294 0.000736 0.001719 0.009147 -0.002119 -0.005686
# 2 0.000736 0.011578 -0.001442 0.006230 -0.000348 0.000405
# 3 0.001719 -0.001442 0.011579 0.009120 0.002192 -0.001554
# 4 0.009147 0.006230 0.009120 0.035017 0.005724 -0.006900
# 5 -0.002119 -0.000348 0.002192 0.005724 0.042572 0.007554
# 6 -0.005686 0.000405 -0.001554 -0.006900 0.007554 0.025199
#
#
# Mechanical properties :
#
#
# Convention : Reuss Voigt Hill
#
# Bulk Modulus (GPa) = 26.68290 51.10783 38.89537
# Shear Modulus (GPa) = 33.62376 45.27271 39.44824
#
# Velocity S-wave (km/s) = 3.80997 4.42096 4.12679
# Velocity P-wave (km/s) = 5.55643 6.93714 6.28481
#
# Compressibility (1/GPa) = 0.03747718
#
# Stress axis : x y z
#
# Youngs Moduli (GPa) = 81.34141 86.36897 86.36472
#
# Poissons Ratio (x) = -0.06357 -0.14843
# Poissons Ratio (y) = -0.05987 0.12450
# Poissons Ratio (z) = -0.13980 0.12451
#
# Static dielectric constant tensor:
#      x y z
#    x 1.918940 -0.351500 -0.365310 
#    y -0.351500 3.129010 1.414020 
#    z -0.365310 1.414020 3.293150 
# 
# From -- ./inp_files/236463.got.cif
#   From: 2010.05.17/outbox.cif.g08.bks.cpg/sg2_119_cif.got.tgz:236463.got - 2010.06.03 11:33:40.
