data_PCOD9048753
_publ_section_title
;
Structure prediction by ZEFSAII (Michael W. Deem and Ramdas Pophale) SiO2 
 PCOD9048753
Probable space group: P -1
;
_chemical_formula_sum "Si O2"
_cell_formula_units_Z 16
_cell_length_a 8.885881
_cell_length_b 22.665349
_cell_length_c 5.643284
_cell_angle_alpha 132.884477
_cell_angle_beta 78.281743
_cell_angle_gamma 123.276983
_cell_volume 668.794306
_symmetry_space_group_name_H-M "P -1"
_symmetry_group_IT_number 2
_symmetry_cell_setting 'triclinic'
loop_
_space_group_symop_operation_xyz
x,y,z
-x,-y,-z
loop_
_atom_site_type_symbol
_atom_site_label
_atom_site_fract_x
_atom_site_fract_y
_atom_site_fract_z
Si Si1 0.709569 0.104350 0.716587
Si Si2 0.249460 0.585806 0.580385
Si Si3 0.519022 0.210826 0.136763
Si Si4 0.919053 0.790721 0.416846
Si Si5 0.097845 0.468535 0.701365
Si Si6 0.318878 0.149607 0.530708
Si Si7 0.936642 0.054070 0.837679
Si Si8 0.276197 0.423947 0.888256
O O1 0.819118 0.085039 0.821585
O O2 0.862604 0.151884 0.579382
O O3 0.500000 0.000000 0.500000
O O4 0.672371 0.185608 0.016762
O O5 0.414054 0.680613 0.660288
O O6 0.263871 0.571326 0.813393
O O7 0.068838 0.587474 0.589951
O O8 0.228804 0.490861 0.226176
O O9 0.454590 0.196472 0.390384
O O10 0.399336 0.154395 0.780257
O O11 0.801965 0.804447 0.293681
O O12 0.813381 0.678842 0.230613
O O13 0.912560 0.851916 0.804862
O O14 0.174251 0.410181 0.630796
O O15 0.000000 0.500000 0.000000
O O16 0.194387 0.034878 0.185014
O O17 0.000000 0.000000 0.500000
O O18 0.500000 0.500000 0.000000
#
# Coordination Sequence:
#
# PCOD9048753 Si02
#       8
#     2   2   2   2   2   2   2   2
#     4  12  28  48  75 120 155 201 263 333 385 471
#     4  10  24  45  72 104 151 205 250 321 385 464
#     4  12  29  46  83 116 159 207 267 322 395 469
#     4  12  29  46  81 107 157 212 261 320 405 465
#     4   9  22  43  70  96 147 197 254 310 389 442
#     4  12  27  52  76 114 157 210 262 320 399 474
#     4  12  26  51  78 110 158 205 262 323 400 475
#     4  11  26  47  70 112 150 200 261 326 372 468
#
# _framework density 23.923649000000001
#
# number of rings (size 3 to 8) (size 9 to 14) (size 15 to 20)
#    0.000    0.750    2.500    2.625   14.000    1.500 
#    0.000    0.000    0.000    0.000    0.000    0.000 
#    0.000    0.000    0.000    0.000    0.000    0.000 
#
# Total GULP energy -89217.523243 kJ/mol
# GULP energy per Si atom -5576.095203 kJ/mol
# Density = 2.386920 g / cm^3
# Si number density = 23.923649 Si / 1000 Ang^3
#
#
#
# Elastic Constant Matrix: (Units=GPa)
#
#
# Indices 1 2 3 4 5 6 
#
# 1 117.6787 29.1202 13.0833 -1.9747 -4.6933 -16.1633
# 2 29.1202 160.9392 31.6923 24.1235 -12.8586 -3.5582
# 3 13.0833 31.6923 65.0656 19.7548 -12.4614 4.8245
# 4 -1.9747 24.1235 19.7548 47.8900 -3.0121 -14.9955
# 5 -4.6933 -12.8586 -12.4614 -3.0121 26.9848 -6.0416
# 6 -16.1633 -3.5582 4.8245 -14.9955 -6.0416 49.0783
#
#
#
# Elastic Compliance Matrix: (Units=1/GPa)
#
#
# Indices 1 2 3 4 5 6 
#
# 1 0.009951 -0.001686 -0.002447 0.003828 0.001282 0.004723
# 2 -0.001686 0.007511 -0.001980 -0.003079 0.001911 -0.000522
# 3 -0.002447 -0.001980 0.021125 -0.008990 0.006263 -0.005002
# 4 0.003828 -0.003079 -0.008990 0.029844 0.000874 0.011148
# 5 0.001282 0.001911 0.006263 0.000874 0.042398 0.005431
# 6 0.004723 -0.000522 -0.005002 0.011148 0.005431 0.026460
#
#
# Mechanical properties :
#
#
# Convention : Reuss Voigt Hill
#
# Bulk Modulus (GPa) = 37.93230 54.60836 46.27033
# Shear Modulus (GPa) = 31.58528 42.77644 37.18086
#
# Velocity S-wave (km/s) = 3.63747 4.23311 3.94654
# Velocity P-wave (km/s) = 5.79065 6.83871 6.33638
#
# Compressibility (1/GPa) = 0.02636275
#
# Stress axis : x y z
#
# Youngs Moduli (GPa) = 100.49252 133.13494 47.33629
#
# Poissons Ratio (x) = 0.22442 0.11582
# Poissons Ratio (y) = 0.16940 0.09372
# Poissons Ratio (z) = 0.24589 0.26360
#
# Static dielectric constant tensor:
#      x y z
#    x 1.999870 0.083710 0.115960 
#    y 0.083710 2.042700 -0.050610 
#    z 0.115960 -0.050610 2.008160 
# 
# From -- ./inp_files/53944.got.cif
#   From: 2010.05.17/outbox.cif.g08.bks.cpg/sg2_27_cif.got.tgz:53944.got - 2010.06.03 11:33:40.
