data_PCOD9048520
_publ_section_title
;
Structure prediction by ZEFSAII (Michael W. Deem and Ramdas Pophale) SiO2 
 PCOD9048520
Probable space group: P -1
;
_chemical_formula_sum "Si O2"
_cell_formula_units_Z 16
_cell_length_a 9.481348
_cell_length_b 22.756799
_cell_length_c 19.434211
_cell_angle_alpha 161.993590
_cell_angle_beta 37.595705
_cell_angle_gamma 142.930122
_cell_volume 768.607196
_symmetry_space_group_name_H-M "P -1"
_symmetry_group_IT_number 2
_symmetry_cell_setting 'triclinic'
loop_
_space_group_symop_operation_xyz
x,y,z
-x,-y,-z
loop_
_atom_site_type_symbol
_atom_site_label
_atom_site_fract_x
_atom_site_fract_y
_atom_site_fract_z
Si Si1 0.925778 0.473803 0.675016
Si Si2 0.342605 0.223340 0.422868
Si Si3 0.608961 0.538150 0.576688
Si Si4 0.234840 0.775609 0.995886
Si Si5 0.821836 0.185804 0.521030
Si Si6 0.138806 0.156882 0.675027
Si Si7 0.576520 0.536216 0.200179
Si Si8 0.585701 0.146744 0.710219
O O1 0.823395 0.322177 0.606802
O O2 0.705345 0.507277 0.754043
O O3 0.110311 0.390964 0.464200
O O4 0.086277 0.661667 0.861907
O O5 0.547924 0.341405 0.425685
O O6 0.354544 0.339849 0.619533
O O7 0.091704 0.216400 0.475223
O O8 0.347287 0.000726 0.186136
O O9 0.500000 0.500000 0.500000
O O10 0.449047 0.676320 0.823412
O O11 0.043414 0.769918 0.123652
O O12 0.673305 0.228989 0.692700
O O13 0.691728 0.962324 0.304693
O O14 0.297247 0.332591 0.766061
O O15 0.286584 0.028299 0.517582
O O16 0.000000 0.000000 0.500000
O O17 0.646018 0.327767 0.940242
#
# Coordination Sequence:
#
# PCOD9048520 Si02
#       8
#     2   2   2   2   2   2   2   2
#     4  11  24  46  68  98 135 173 229 277 326 387
#     4  12  24  43  67 100 131 173 228 267 330 401
#     4  10  24  45  69  96 129 174 230 280 322 381
#     4  11  23  42  72  98 130 179 224 272 327 393
#     4  11  21  43  68  95 134 172 229 268 316 404
#     4  12  24  41  67 104 141 170 218 269 340 402
#     4  12  27  41  67 101 141 175 209 278 343 390
#     4  11  25  40  67 100 138 178 217 268 334 400
#
# _framework density 20.816873999999999
#
# number of rings (size 3 to 8) (size 9 to 14) (size 15 to 20)
#    0.000    0.750    6.250    1.500    3.500    4.500 
#    2.250    0.625    0.000    0.000    0.000    0.000 
#    0.000    0.000    0.000    0.000    0.000    0.000 
#
# Total GULP energy -89432.478250 kJ/mol
# GULP energy per Si atom -5589.529891 kJ/mol
# Density = 2.076949 g / cm^3
# Si number density = 20.816874 Si / 1000 Ang^3
#
#
#
# Elastic Constant Matrix: (Units=GPa)
#
#
# Indices 1 2 3 4 5 6 
#
# 1 36.6495 9.9214 10.8396 -12.4374 8.9787 -3.0976
# 2 9.9214 93.6736 36.3127 -1.5154 11.8814 -34.0701
# 3 10.8396 36.3127 86.4706 -0.8749 1.8854 11.1678
# 4 -12.4374 -1.5154 -0.8749 32.4496 9.4165 -4.8940
# 5 8.9787 11.8814 1.8854 9.4165 1.8759 20.7022
# 6 -3.0976 -34.0701 11.1678 -4.8940 20.7022 8.4275
#
#
#
# Elastic Compliance Matrix: (Units=1/GPa)
#
#
# Indices 1 2 3 4 5 6 
#
# 1 0.032027 -0.008526 0.001484 0.010432 -0.001999 -0.013696
# 2 -0.008526 0.010784 -0.003888 -0.007760 0.016787 -0.000129
# 3 0.001484 -0.003888 0.013378 0.004225 -0.012213 -0.000446
# 4 0.010432 -0.007760 0.004225 0.032203 0.000283 -0.015129
# 5 -0.001999 0.016787 -0.012213 0.000283 0.018157 0.038875
# 6 -0.013696 -0.000129 -0.000446 -0.015129 0.038875 0.009413
#
#
# Mechanical properties :
#
#
# Convention : Reuss Voigt Hill
#
# Bulk Modulus (GPa) = 29.13052 36.77124 32.95088
# Shear Modulus (GPa) = 33.49725 19.19859 26.34792
#
# Velocity S-wave (km/s) = 4.01576 3.04017 3.56153
# Velocity P-wave (km/s) = 5.96036 5.47960 5.72503
#
# Compressibility (1/GPa) = 0.03432826
#
# Stress axis : x y z
#
# Youngs Moduli (GPa) = 31.22353 92.72995 74.75039
#
# Poissons Ratio (x) = 0.79065 -0.11091
# Poissons Ratio (y) = 0.26622 0.29061
# Poissons Ratio (z) = -0.04633 0.36051
#
# Static dielectric constant tensor:
#      x y z
#    x 1.746420 -0.010570 -0.005380 
#    y -0.010570 1.673390 0.020740 
#    z -0.005380 0.020740 1.756900 
# 
# From -- ./inp_files/562971.got.cif
#   From: 2010.05.17/outbox.cif.g08.bks.cpg/sg2_282_cif.got.tgz:562971.got - 2010.06.03 11:33:40.
