data_PCOD9048423
_publ_section_title
;
Structure prediction by ZEFSAII (Michael W. Deem and Ramdas Pophale) SiO2 
 PCOD9048423
Probable space group: P -1
;
_chemical_formula_sum "Si O2"
_cell_formula_units_Z 16
_cell_length_a 11.776328
_cell_length_b 11.940238
_cell_length_c 20.861342
_cell_angle_alpha 139.496370
_cell_angle_beta 154.019389
_cell_angle_gamma 57.557712
_cell_volume 714.454300
_symmetry_space_group_name_H-M "P -1"
_symmetry_group_IT_number 2
_symmetry_cell_setting 'triclinic'
loop_
_space_group_symop_operation_xyz
x,y,z
-x,-y,-z
loop_
_atom_site_type_symbol
_atom_site_label
_atom_site_fract_x
_atom_site_fract_y
_atom_site_fract_z
Si Si1 0.669686 0.806066 0.744660
Si Si2 0.622832 0.682230 0.189920
Si Si3 0.595255 0.704109 0.426034
Si Si4 0.811267 0.601226 0.823346
Si Si5 0.752767 0.533782 0.974252
Si Si6 0.306831 0.961029 0.685904
Si Si7 0.586601 0.976307 0.649541
Si Si8 0.987480 0.981117 0.314213
O O1 0.720716 0.631170 0.719713
O O2 0.484144 0.844462 0.721995
O O3 0.549124 0.827103 0.623915
O O4 0.000000 0.000000 0.000000
O O5 0.515576 0.588302 0.164344
O O6 0.982882 0.812169 0.425093
O O7 0.520486 0.836933 0.181969
O O8 0.500000 0.500000 0.000000
O O9 0.497674 0.518552 0.344063
O O10 0.339688 0.590260 0.192348
O O11 0.593472 0.876640 0.542631
O O12 0.904799 0.833049 0.599242
O O13 0.966007 0.467674 0.851263
O O14 0.088107 0.817263 0.084089
O O15 0.828224 0.761117 0.105057
O O16 0.225265 0.016707 0.737002
O O17 0.299045 0.006874 0.513783
#
# Coordination Sequence:
#
# PCOD9048423 Si02
#       8
#     2   2   2   2   2   2   2   2
#     4  10  24  45  68  94 133 173 219 268 321 396
#     4  11  21  37  66 100 131 163 215 276 336 378
#     4  12  24  39  65  99 133 169 216 271 327 390
#     4  11  23  41  63  94 133 172 217 264 318 389
#     4  12  23  38  64 103 129 163 215 278 329 381
#     4  11  22  42  65  95 134 170 210 275 331 381
#     4  11  22  40  66 100 129 169 215 271 336 376
#     4  12  23  38  65 100 132 165 212 273 334 380
#
# _framework density 22.394714
#
# number of rings (size 3 to 8) (size 9 to 14) (size 15 to 20)
#    0.000    0.750    5.000    4.500    0.000    0.500 
#    0.000    3.125    0.000    3.750    0.000    0.000 
#    0.000    0.000    0.000    0.000    0.000    0.000 
#
# Total GULP energy -89326.842515 kJ/mol
# GULP energy per Si atom -5582.927657 kJ/mol
# Density = 2.234374 g / cm^3
# Si number density = 22.394714 Si / 1000 Ang^3
#
#
#
# Elastic Constant Matrix: (Units=GPa)
#
#
# Indices 1 2 3 4 5 6 
#
# 1 98.3986 9.9987 29.9702 2.5474 -3.9712 9.4847
# 2 9.9987 39.0426 13.9460 13.2423 6.3171 13.9505
# 3 29.9702 13.9460 103.8760 24.9994 -8.2864 1.7948
# 4 2.5474 13.2423 24.9994 33.3244 8.1132 8.4014
# 5 -3.9712 6.3171 -8.2864 8.1132 43.1490 11.4132
# 6 9.4847 13.9505 1.7948 8.4014 11.4132 41.2117
#
#
#
# Elastic Compliance Matrix: (Units=1/GPa)
#
#
# Indices 1 2 3 4 5 6 
#
# 1 0.011722 -0.001869 -0.003795 0.003207 0.000751 -0.002762
# 2 -0.001869 0.033058 -0.001614 -0.009335 -0.001340 -0.008416
# 3 -0.003795 -0.001614 0.013869 -0.010954 0.004104 0.001912
# 4 0.003207 -0.009335 -0.010954 0.044598 -0.007758 -0.004045
# 5 0.000751 -0.001340 0.004104 -0.007758 0.027238 -0.005860
# 6 -0.002762 -0.008416 0.001912 -0.004045 -0.005860 0.030113
#
#
# Mechanical properties :
#
#
# Convention : Reuss Voigt Hill
#
# Bulk Modulus (GPa) = 22.67916 38.79412 30.73664
# Shear Modulus (GPa) = 26.33608 36.03051 31.18330
#
# Velocity S-wave (km/s) = 3.43300 4.01544 3.73559
# Velocity P-wave (km/s) = 5.08557 6.23369 5.68867
#
# Compressibility (1/GPa) = 0.04409334
#
# Stress axis : x y z
#
# Youngs Moduli (GPa) = 85.30879 30.24948 72.10160
#
# Poissons Ratio (x) = 0.05653 0.27365
# Poissons Ratio (y) = 0.15943 0.11637
# Poissons Ratio (z) = 0.32378 0.04882
#
# Static dielectric constant tensor:
#      x y z
#    x 1.889540 0.018140 0.012320 
#    y 0.018140 1.878910 0.042660 
#    z 0.012320 0.042660 1.857290 
# 
# From -- ./inp_files/434270.got.cif
#   From: 2010.05.17/outbox.cif.g08.bks.cpg/sg2_218_cif.got.tgz:434270.got - 2010.06.03 11:33:40.
