data_PCOD9048600
_publ_section_title
;
Structure prediction by ZEFSAII (Michael W. Deem and Ramdas Pophale) SiO2 
 PCOD9048600
Probable space group: P -1
;
_chemical_formula_sum "Si O2"
_cell_formula_units_Z 8
_cell_length_a 8.516757
_cell_length_b 9.561713
_cell_length_c 4.626741
_cell_angle_alpha 98.129399
_cell_angle_beta 117.604810
_cell_angle_gamma 57.244434
_cell_volume 277.758169
_symmetry_space_group_name_H-M "P -1"
_symmetry_group_IT_number 2
_symmetry_cell_setting 'triclinic'
loop_
_space_group_symop_operation_xyz
x,y,z
-x,-y,-z
loop_
_atom_site_type_symbol
_atom_site_label
_atom_site_fract_x
_atom_site_fract_y
_atom_site_fract_z
Si Si1 0.604501 0.233587 0.140173
Si Si2 0.837598 0.260738 0.848543
Si Si3 0.317024 0.090855 0.138971
Si Si4 0.205720 0.431817 0.449152
O O1 0.668252 0.241204 0.521594
O O2 0.778830 0.251463 0.123642
O O3 0.393204 0.364042 0.824498
O O4 0.608151 0.061675 0.076792
O O5 0.805712 0.427565 0.726148
O O6 0.083750 0.121040 0.990423
O O7 0.245336 0.283984 0.217123
O O8 0.500000 0.000000 0.500000
O O9 0.000000 0.500000 0.500000
#
# Coordination Sequence:
#
# PCOD9048600 Si02
#       4
#     2   2   2   2
#     4  11  26  47  73 103 140 184 233 285 345 413
#     4  12  24  46  73 105 138 183 233 288 343 411
#     4  10  24  45  70 103 141 183 231 286 347 411
#     4  11  25  46  72 105 142 184 231 287 348 413
#
# _framework density 28.802032000000001
#
# number of rings (size 3 to 8) (size 9 to 14) (size 15 to 20)
#    0.000    1.000    0.000    5.250    0.000    8.000 
#    0.000   12.500    0.000    0.000    0.000    0.000 
#    0.000    0.000    0.000    0.000    0.000    0.000 
#
# Total GULP energy -44720.533831 kJ/mol
# GULP energy per Si atom -5590.066729 kJ/mol
# Density = 2.873648 g / cm^3
# Si number density = 28.802032 Si / 1000 Ang^3
#
#
#
# Elastic Constant Matrix: (Units=GPa)
#
#
# Indices 1 2 3 4 5 6 
#
# 1 431.8823 22.4718 2.2047 4.8556 73.6083 -132.2752
# 2 22.4718 206.2397 37.5154 25.5581 -16.0723 43.2586
# 3 2.2047 37.5154 169.4961 3.2741 6.5739 0.0800
# 4 4.8556 25.5581 3.2741 62.5650 -5.6288 -5.9677
# 5 73.6083 -16.0723 6.5739 -5.6288 96.1647 -41.2646
# 6 -132.2752 43.2586 0.0800 -5.9677 -41.2646 129.8330
#
#
#
# Elastic Compliance Matrix: (Units=1/GPa)
#
#
# Indices 1 2 3 4 5 6 
#
# 1 0.003859 -0.001498 0.000327 0.000542 -0.001486 0.003983
# 2 -0.001498 0.006397 -0.001366 -0.002712 0.000611 -0.003587
# 3 0.000327 -0.001366 0.006218 0.000206 -0.000638 0.000591
# 4 0.000542 -0.002712 0.000206 0.017408 0.001279 0.002662
# 5 -0.001486 0.000611 -0.000638 0.001279 0.012789 0.002407
# 6 0.003983 -0.003587 0.000591 0.002662 0.002407 0.013842
#
#
# Mechanical properties :
#
#
# Convention : Reuss Voigt Hill
#
# Bulk Modulus (GPa) = 87.72806 103.55576 95.64191
# Shear Modulus (GPa) = 72.05884 107.40760 89.73322
#
# Velocity S-wave (km/s) = 5.00729 6.11332 5.58774
# Velocity P-wave (km/s) = 7.99723 9.26620 8.65501
#
# Compressibility (1/GPa) = 0.01139886
#
# Stress axis : x y z
#
# Youngs Moduli (GPa) = 259.15104 156.33221 160.81321
#
# Poissons Ratio (x) = 0.23422 -0.05254
# Poissons Ratio (y) = 0.38827 0.21966
# Poissons Ratio (z) = -0.08466 0.21354
#
# Static dielectric constant tensor:
#      x y z
#    x 2.399490 -0.069680 0.019240 
#    y -0.069680 2.366980 0.048550 
#    z 0.019240 0.048550 2.015320 
# 
# From -- ./inp_files/15842.got.cif
#   From: 2010.05.17/outbox.cif.g08.bks.cpg/sg2_8_cif.got.tgz:15842.got - 2010.06.03 11:33:40.
