data_PCOD9048051
_publ_section_title
;
Structure prediction by ZEFSAII (Michael W. Deem and Ramdas Pophale) SiO2 
 PCOD9048051
Probable space group: P -1
;
_chemical_formula_sum "Si O2"
_cell_formula_units_Z 16
_cell_length_a 7.815418
_cell_length_b 15.713984
_cell_length_c 11.603912
_cell_angle_alpha 146.581721
_cell_angle_beta 77.944574
_cell_angle_gamma 116.447433
_cell_volume 663.278203
_symmetry_space_group_name_H-M "P -1"
_symmetry_group_IT_number 2
_symmetry_cell_setting 'triclinic'
loop_
_space_group_symop_operation_xyz
x,y,z
-x,-y,-z
loop_
_atom_site_type_symbol
_atom_site_label
_atom_site_fract_x
_atom_site_fract_y
_atom_site_fract_z
Si Si1 0.214144 0.117977 0.420093
Si Si2 0.541751 0.701848 0.205563
Si Si3 0.952665 0.295838 0.062206
Si Si4 0.306487 0.352139 0.479408
Si Si5 0.940024 0.268874 0.298852
Si Si6 0.390403 0.089723 0.048672
Si Si7 0.434472 0.715394 0.980792
Si Si8 0.687937 0.340382 0.605799
O O1 0.249958 0.173256 0.611913
O O2 0.149974 0.217009 0.447500
O O3 0.453676 0.225107 0.470652
O O4 0.103484 0.907755 0.179487
O O5 0.358365 0.708264 0.307420
O O6 0.500000 0.500000 0.000000
O O7 0.531267 0.754292 0.136540
O O8 0.915555 0.318959 0.228870
O O9 0.797869 0.327669 0.042679
O O10 0.183130 0.443770 0.171113
O O11 0.425858 0.270981 0.304834
O O12 0.433826 0.540597 0.736417
O O13 0.169071 0.366084 0.415467
O O14 0.814007 0.294509 0.447196
O O15 0.843574 0.055658 0.067566
O O16 0.453551 0.127125 0.949522
O O17 0.500000 0.000000 0.000000
#
# Coordination Sequence:
#
# PCOD9048051 Si02
#       8
#     2   2   2   2   2   2   2   2
#     4  10  24  47  71  99 146 186 237 295 351 415
#     4  10  24  48  70  97 144 189 249 296 335 432
#     4  12  24  44  73 108 142 185 235 299 361 425
#     4  12  24  43  69 105 147 180 235 300 358 425
#     4  12  24  43  66 109 148 175 239 300 353 435
#     4  12  25  44  70 105 147 187 232 298 362 426
#     4  12  24  43  74 101 139 196 240 285 371 414
#     4  10  24  44  72  97 140 189 233 289 357 417
#
# _framework density 24.122606999999999
#
# number of rings (size 3 to 8) (size 9 to 14) (size 15 to 20)
#    0.750    0.000    5.000    2.625    0.000    3.000 
#    0.000    0.625    0.000    0.000    0.000    0.000 
#    0.000    0.000    0.000    0.000    0.000    0.000 
#
# Total GULP energy -89312.907259 kJ/mol
# GULP energy per Si atom -5582.056704 kJ/mol
# Density = 2.406770 g / cm^3
# Si number density = 24.122607 Si / 1000 Ang^3
#
#
#
# Elastic Constant Matrix: (Units=GPa)
#
#
# Indices 1 2 3 4 5 6 
#
# 1 47.6400 12.9067 3.4511 -3.9905 3.7528 -14.3033
# 2 12.9067 135.2068 44.4742 -19.0328 5.8448 -22.6636
# 3 3.4511 44.4742 112.2533 -0.2706 7.0460 -14.4363
# 4 -3.9905 -19.0328 -0.2706 53.6526 -1.9921 12.7770
# 5 3.7528 5.8448 7.0460 -1.9921 27.3144 1.0651
# 6 -14.3033 -22.6636 -14.4363 12.7770 1.0651 38.7538
#
#
#
# Elastic Compliance Matrix: (Units=1/GPa)
#
#
# Indices 1 2 3 4 5 6 
#
# 1 0.024160 -0.001108 0.001099 -0.000893 -0.003785 0.009077
# 2 -0.001108 0.009490 -0.003255 0.002485 -0.000980 0.003136
# 3 0.001099 -0.003255 0.010725 -0.001869 -0.002481 0.003181
# 4 -0.000893 0.002485 -0.001869 0.021079 0.001867 -0.006574
# 5 -0.003785 -0.000980 -0.002481 0.001867 0.038294 -0.004562
# 6 0.009077 0.003136 0.003181 -0.006574 -0.004562 0.034466
#
#
# Mechanical properties :
#
#
# Convention : Reuss Voigt Hill
#
# Bulk Modulus (GPa) = 26.42289 46.30714 36.36501
# Shear Modulus (GPa) = 31.77463 39.56206 35.66834
#
# Velocity S-wave (km/s) = 3.63328 4.05414 3.84946
# Velocity P-wave (km/s) = 5.34587 6.41505 5.90471
#
# Compressibility (1/GPa) = 0.03784598
#
# Stress axis : x y z
#
# Youngs Moduli (GPa) = 41.39088 105.36953 93.24278
#
# Poissons Ratio (x) = 0.11680 -0.10248
# Poissons Ratio (y) = 0.04588 0.30352
# Poissons Ratio (z) = -0.04549 0.34299
#
# Static dielectric constant tensor:
#      x y z
#    x 2.027130 -0.043870 -0.002260 
#    y -0.043870 1.998060 -0.021900 
#    z -0.002260 -0.021900 1.981500 
# 
# From -- ./inp_files/399807.got.cif
#   From: 2010.05.17/outbox.cif.g08.bks.cpg/sg2_200_cif.got.tgz:399807.got - 2010.06.03 11:33:40.
