data_PCOD9048245
_publ_section_title
;
Structure prediction by ZEFSAII (Michael W. Deem and Ramdas Pophale) SiO2 
 PCOD9048245
Probable space group: P -1
;
_chemical_formula_sum "Si O2"
_cell_formula_units_Z 14
_cell_length_a 11.942407
_cell_length_b 8.267488
_cell_length_c 9.141150
_cell_angle_alpha 126.312975
_cell_angle_beta 89.735114
_cell_angle_gamma 112.761803
_cell_volume 639.281685
_symmetry_space_group_name_H-M "P -1"
_symmetry_group_IT_number 2
_symmetry_cell_setting 'triclinic'
loop_
_space_group_symop_operation_xyz
x,y,z
-x,-y,-z
loop_
_atom_site_type_symbol
_atom_site_label
_atom_site_fract_x
_atom_site_fract_y
_atom_site_fract_z
Si Si1 0.365356 0.880785 0.845520
Si Si2 0.834043 0.883377 0.522910
Si Si3 0.858564 0.352230 0.811542
Si Si4 0.895392 0.508867 0.218486
Si Si5 0.345663 0.204921 0.788458
Si Si6 0.377753 0.601124 0.199980
Si Si7 0.632851 0.515059 0.543552
O O1 0.236366 0.704367 0.838273
O O2 0.377606 0.722872 0.635911
O O3 0.340125 0.064383 0.857545
O O4 0.500000 0.000000 0.000000
O O5 0.911795 0.746719 0.411985
O O6 0.770328 0.894611 0.375726
O O7 0.733574 0.711981 0.547587
O O8 0.876120 0.130655 0.721876
O O9 0.714115 0.285784 0.737713
O O10 0.969092 0.491652 0.765694
O O11 0.880689 0.494310 0.035592
O O12 0.470986 0.239444 0.718392
O O13 0.358832 0.445141 0.973776
O O14 0.341167 0.452784 0.267980
O O15 0.500000 0.500000 0.500000
#
# Coordination Sequence:
#
# PCOD9048245 Si02
#       7
#     2   2   2   2   2   2   2
#     4  11  24  39  65  93 131 167 206 275 329 367
#     4  11  23  42  66  97 128 169 212 271 319 374
#     4  11  23  42  71  87 132 179 211 262 319 390
#     4  10  24  45  61 101 128 167 222 260 320 387
#     4  11  23  39  64  96 133 163 213 273 319 375
#     4  11  23  40  63  98 130 169 214 265 321 381
#     4  11  23  38  60 100 129 161 218 263 318 393
#
# _framework density 21.899578000000002
#
# number of rings (size 3 to 8) (size 9 to 14) (size 15 to 20)
#    0.000    1.143    2.857    3.000   10.000    1.143 
#    0.000    8.571    0.000    0.000    0.000    0.000 
#    0.000    0.000    0.000    0.000    0.000    0.000 
#
# Total GULP energy -78082.916216 kJ/mol
# GULP energy per Si atom -5577.351158 kJ/mol
# Density = 2.184973 g / cm^3
# Si number density = 21.899578 Si / 1000 Ang^3
#
#
#
# Elastic Constant Matrix: (Units=GPa)
#
#
# Indices 1 2 3 4 5 6 
#
# 1 121.7664 33.0436 15.3247 -3.1311 -32.8414 25.1056
# 2 33.0436 65.3810 14.6489 0.7625 -16.1729 -1.2494
# 3 15.3247 14.6489 76.1190 3.6023 -9.9886 7.1872
# 4 -3.1311 0.7625 3.6023 31.6577 2.5272 -2.6546
# 5 -32.8414 -16.1729 -9.9886 2.5272 32.7805 -10.8392
# 6 25.1056 -1.2494 7.1872 -2.6546 -10.8392 23.4226
#
#
#
# Elastic Compliance Matrix: (Units=1/GPa)
#
#
# Indices 1 2 3 4 5 6 
#
# 1 0.014255 -0.005642 0.000369 -0.000125 0.007587 -0.012196
# 2 -0.005642 0.020919 -0.002965 -0.000363 0.007614 0.011555
# 3 0.000369 -0.002965 0.014401 -0.002051 0.002045 -0.004259
# 4 -0.000125 -0.000363 -0.002051 0.032282 -0.002317 0.003330
# 5 0.007587 0.007614 0.002045 -0.002317 0.047009 0.013139
# 6 -0.012196 0.011555 -0.004259 0.003330 0.013139 0.064147
#
#
# Mechanical properties :
#
#
# Convention : Reuss Voigt Hill
#
# Bulk Modulus (GPa) = 30.21180 43.25566 36.73373
# Shear Modulus (GPa) = 22.67348 30.92210 26.79779
#
# Velocity S-wave (km/s) = 3.22116 3.76173 3.50189
# Velocity P-wave (km/s) = 5.25928 6.21789 5.75857
#
# Compressibility (1/GPa) = 0.03309965
#
# Stress axis : x y z
#
# Youngs Moduli (GPa) = 70.15242 47.80320 69.43896
#
# Poissons Ratio (x) = 0.26970 -0.02562
# Poissons Ratio (y) = 0.39579 0.20587
# Poissons Ratio (z) = -0.02588 0.14172
#
# Static dielectric constant tensor:
#      x y z
#    x 1.870620 0.033980 0.031600 
#    y 0.033980 1.829060 0.071770 
#    z 0.031600 0.071770 1.815240 
# 
# From -- ./inp_files/175705.got.cif
#   From: 2010.05.17/outbox.cif.g08.bks.cpg/sg2_88_cif.got.tgz:175705.got - 2010.06.03 11:33:40.
