data_PCOD9048176
_publ_section_title
;
Structure prediction by ZEFSAII (Michael W. Deem and Ramdas Pophale) SiO2 
 PCOD9048176
Probable space group: P -1
;
_chemical_formula_sum "Si O2"
_cell_formula_units_Z 14
_cell_length_a 5.468768
_cell_length_b 7.640223
_cell_length_c 20.682028
_cell_angle_alpha 42.055706
_cell_angle_beta 96.419512
_cell_angle_gamma 110.206652
_cell_volume 528.647826
_symmetry_space_group_name_H-M "P -1"
_symmetry_group_IT_number 2
_symmetry_cell_setting 'triclinic'
loop_
_space_group_symop_operation_xyz
x,y,z
-x,-y,-z
loop_
_atom_site_type_symbol
_atom_site_label
_atom_site_fract_x
_atom_site_fract_y
_atom_site_fract_z
Si Si1 0.593332 0.656611 0.053046
Si Si2 0.419845 0.097236 0.872832
Si Si3 0.870489 0.756380 0.498812
Si Si4 0.067511 0.095661 0.174105
Si Si5 0.379064 0.870657 0.400330
Si Si6 0.181732 0.698105 0.782065
Si Si7 0.851843 0.465217 0.706457
O O1 0.575712 0.763505 0.096081
O O2 0.826109 0.542371 0.100885
O O3 0.333066 0.382056 0.101420
O O4 0.599152 0.911642 0.937920
O O5 0.546667 0.339515 0.756402
O O6 0.132218 0.906377 0.889035
O O7 0.633561 0.864685 0.449503
O O8 0.748553 0.433760 0.554650
O O9 0.914413 0.705381 0.588975
O O10 0.148978 0.905553 0.427141
O O11 0.925991 0.100924 0.236958
O O12 0.104052 0.801843 0.249066
O O13 0.518459 0.119062 0.284209
O O14 0.016206 0.559830 0.751626
#
# Coordination Sequence:
#
# PCOD9048176 Si02
#       7
#     2   2   2   2   2   2   2
#     4  11  25  46  74 108 146 193 249 306 375 451
#     4  11  25  46  74 108 146 193 249 306 375 451
#     4  10  24  44  75 108 148 197 251 310 379 450
#     4  12  25  46  74 104 146 202 236 310 375 444
#     4  10  24  44  75 108 148 197 251 310 379 450
#     4  12  27  46  73 106 149 192 249 309 373 451
#     4  12  27  46  73 106 149 192 249 309 373 451
#
# _framework density 26.482655000000001
#
# number of rings (size 3 to 8) (size 9 to 14) (size 15 to 20)
#    0.000    0.857    2.857    3.000   10.000    5.143 
#    0.000    0.000    0.000    0.000    0.000    0.000 
#    0.000    0.000    0.000    0.000    0.000    0.000 
#
# Total GULP energy -78561.953856 kJ/mol
# GULP energy per Si atom -5611.568133 kJ/mol
# Density = 2.642238 g / cm^3
# Si number density = 26.482655 Si / 1000 Ang^3
#
#
#
# Elastic Constant Matrix: (Units=GPa)
#
#
# Indices 1 2 3 4 5 6 
#
# 1 99.8118 48.5786 32.6481 14.4100 -4.3627 -3.4888
# 2 48.5786 175.4349 17.3879 11.5067 -0.3635 -1.2085
# 3 32.6481 17.3879 136.0129 1.3492 -1.2791 -0.9936
# 4 14.4100 11.5067 1.3492 31.2136 2.8320 1.6570
# 5 -4.3627 -0.3635 -1.2791 2.8320 44.1652 2.4421
# 6 -3.4888 -1.2085 -0.9936 1.6570 2.4421 42.6959
#
#
#
# Elastic Compliance Matrix: (Units=1/GPa)
#
#
# Indices 1 2 3 4 5 6 
#
# 1 0.013220 -0.003051 -0.002712 -0.005050 0.001468 0.001043
# 2 -0.003051 0.006621 -0.000106 -0.001010 -0.000184 -0.000015
# 3 -0.002712 -0.000106 0.008006 0.000957 -0.000094 -0.000070
# 4 -0.005050 -0.001010 0.000957 0.035025 -0.002635 -0.001628
# 5 0.001468 -0.000184 -0.000094 -0.002635 0.023013 -0.001101
# 6 0.001043 -0.000015 -0.000070 -0.001628 -0.001101 0.023631
#
#
# Mechanical properties :
#
#
# Convention : Reuss Voigt Hill
#
# Bulk Modulus (GPa) = 62.07140 67.60986 64.84063
# Shear Modulus (GPa) = 39.48717 44.45792 41.97255
#
# Velocity S-wave (km/s) = 3.86561 4.10171 3.98541
# Velocity P-wave (km/s) = 6.58888 6.92945 6.76131
#
# Compressibility (1/GPa) = 0.01611048
#
# Stress axis : x y z
#
# Youngs Moduli (GPa) = 75.64122 151.03176 124.90867
#
# Poissons Ratio (x) = 0.46072 0.33873
# Poissons Ratio (y) = 0.23074 0.01324
# Poissons Ratio (z) = 0.20513 0.01601
#
# Static dielectric constant tensor:
#      x y z
#    x 2.060380 0.007260 0.006550 
#    y 0.007260 2.061800 -0.005300 
#    z 0.006550 -0.005300 2.050760 
# 
# From -- ./inp_files/98477.got.cif
#   From: 2010.05.17/outbox.cif.g08.bks.cpg/sg2_50_cif.got.tgz:98477.got - 2010.06.03 11:33:40.
