data_PCOD9048562
_publ_section_title
;
Structure prediction by ZEFSAII (Michael W. Deem and Ramdas Pophale) SiO2 
 PCOD9048562
Probable space group: P -1
;
_chemical_formula_sum "Si O2"
_cell_formula_units_Z 14
_cell_length_a 12.131392
_cell_length_b 12.062782
_cell_length_c 13.289167
_cell_angle_alpha 145.071069
_cell_angle_beta 144.302144
_cell_angle_gamma 39.334645
_cell_volume 615.072992
_symmetry_space_group_name_H-M "P -1"
_symmetry_group_IT_number 2
_symmetry_cell_setting 'triclinic'
loop_
_space_group_symop_operation_xyz
x,y,z
-x,-y,-z
loop_
_atom_site_type_symbol
_atom_site_label
_atom_site_fract_x
_atom_site_fract_y
_atom_site_fract_z
Si Si1 0.610086 0.798736 0.369017
Si Si2 0.568990 0.831136 0.011763
Si Si3 0.020956 0.142383 0.711149
Si Si4 0.421213 0.568470 0.380851
Si Si5 0.293715 0.911780 0.058755
Si Si6 0.967946 0.198180 0.377018
Si Si7 0.744034 0.658626 0.574180
O O1 0.438584 0.774723 0.150450
O O2 0.704087 0.645167 0.415444
O O3 0.797068 0.835016 0.479135
O O4 0.500000 0.000000 0.500000
O O5 0.452543 0.909694 0.086156
O O6 0.806817 0.773417 0.137638
O O7 0.522057 0.631018 0.794410
O O8 0.500000 0.000000 0.000000
O O9 0.813247 0.316898 0.705860
O O10 0.000000 0.000000 0.500000
O O11 0.071279 0.984619 0.724451
O O12 0.500000 0.500000 0.500000
O O13 0.539005 0.703526 0.517304
O O14 0.193461 0.142976 0.200952
O O15 0.131073 0.825442 0.821892
O O16 0.879216 0.427348 0.528055
#
# Coordination Sequence:
#
# PCOD9048562 Si02
#       7
#     2   2   2   2   2   2   2
#     4  10  24  45  70 100 140 177 231 284 341 406
#     4  12  22  43  65 101 135 175 229 277 338 412
#     4  12  24  41  67  96 138 180 224 283 344 405
#     4  12  25  43  69  98 136 179 223 284 346 405
#     4  11  24  45  71  99 141 180 228 286 338 405
#     4  12  24  46  70 101 136 181 231 280 345 410
#     4  11  23  45  70 100 136 181 227 284 344 405
#
# _framework density 22.761524999999999
#
# number of rings (size 3 to 8) (size 9 to 14) (size 15 to 20)
#    0.000    0.571    2.857    6.857    0.000    2.857 
#    5.143    0.000    0.000    0.000    0.000    0.000 
#    0.000    0.000    0.000    0.000    0.000    0.000 
#
# Total GULP energy -78197.611869 kJ/mol
# GULP energy per Si atom -5585.543705 kJ/mol
# Density = 2.270972 g / cm^3
# Si number density = 22.761525 Si / 1000 Ang^3
#
#
#
# Elastic Constant Matrix: (Units=GPa)
#
#
# Indices 1 2 3 4 5 6 
#
# 1 57.4050 10.8097 -10.1955 -3.3999 -9.3157 -10.1739
# 2 10.8097 103.7641 30.8786 11.4022 -9.1393 -18.3882
# 3 -10.1955 30.8786 106.6320 7.3145 -16.2171 -8.3523
# 4 -3.3999 11.4022 7.3145 38.1433 -1.7231 -3.6494
# 5 -9.3157 -9.1393 -16.2171 -1.7231 36.6229 -9.2020
# 6 -10.1739 -18.3882 -8.3523 -3.6494 -9.2020 41.7386
#
#
#
# Elastic Compliance Matrix: (Units=1/GPa)
#
#
# Indices 1 2 3 4 5 6 
#
# 1 0.021463 -0.001686 0.004312 0.002720 0.008978 0.007569
# 2 -0.001686 0.011936 -0.002714 -0.002651 0.002378 0.004597
# 3 0.004312 -0.002714 0.011893 -0.000439 0.006582 0.003648
# 4 0.002720 -0.002651 -0.000439 0.027622 0.001687 0.002195
# 5 0.008978 0.002378 0.006582 0.001687 0.036373 0.012720
# 6 0.007569 0.004597 0.003648 0.002195 0.012720 0.031555
#
#
# Mechanical properties :
#
#
# Convention : Reuss Voigt Hill
#
# Bulk Modulus (GPa) = 22.16497 36.75407 29.45952
# Shear Modulus (GPa) = 32.03977 39.05485 35.54731
#
# Velocity S-wave (km/s) = 3.75591 4.14675 3.95616
# Velocity P-wave (km/s) = 5.34492 6.25379 5.81713
#
# Compressibility (1/GPa) = 0.04511624
#
# Stress axis : x y z
#
# Youngs Moduli (GPa) = 46.59200 83.78087 84.08217
#
# Poissons Ratio (x) = 0.14125 -0.36257
# Poissons Ratio (y) = 0.07855 0.22820
# Poissons Ratio (z) = -0.20091 0.22738
#
# Static dielectric constant tensor:
#      x y z
#    x 2.115620 0.164910 0.128610 
#    y 0.164910 1.797400 0.055210 
#    z 0.128610 0.055210 1.896640 
# 
# From -- ./inp_files/293936.got.cif
#   From: 2010.05.17/outbox.cif.g08.bks.cpg/sg2_147_cif.got.tgz:293936.got - 2010.06.03 11:33:40.
