data_PCOD9048173
_publ_section_title
;
Structure prediction by ZEFSAII (Michael W. Deem and Ramdas Pophale) SiO2 
 PCOD9048173
Probable space group: P -1
;
_chemical_formula_sum "Si O2"
_cell_formula_units_Z 15
_cell_length_a 11.049760
_cell_length_b 12.068839
_cell_length_c 14.511867
_cell_angle_alpha 27.206882
_cell_angle_beta 41.616102
_cell_angle_gamma 45.563773
_cell_volume 583.671731
_symmetry_space_group_name_H-M "P -1"
_symmetry_group_IT_number 2
_symmetry_cell_setting 'triclinic'
loop_
_space_group_symop_operation_xyz
x,y,z
-x,-y,-z
loop_
_atom_site_type_symbol
_atom_site_label
_atom_site_fract_x
_atom_site_fract_y
_atom_site_fract_z
Si Si1 0.500000 0.500000 0.500000
Si Si2 0.886419 0.344969 0.454620
Si Si3 0.188264 0.614265 0.324422
Si Si4 0.896499 0.261824 0.024975
Si Si5 0.054160 0.826124 0.733131
Si Si6 0.721807 0.587365 0.019463
Si Si7 0.383908 0.093655 0.585702
Si Si8 0.412775 0.986750 0.855283
O O1 0.710816 0.353081 0.483212
O O2 0.589778 0.748366 0.295639
O O3 0.805262 0.317846 0.622331
O O4 0.985626 0.589343 0.217685
O O5 0.035165 0.113833 0.518041
O O6 0.000000 0.500000 0.500000
O O7 0.341310 0.384746 0.389141
O O8 0.229084 0.851094 0.068957
O O9 0.729801 0.461697 0.007817
O O10 0.807067 0.025987 0.221758
O O11 0.001312 0.205172 0.104233
O O12 0.906385 0.714393 0.837581
O O13 0.245462 0.647216 0.756890
O O14 0.557349 0.796044 0.968477
O O15 0.462260 0.008956 0.703263
O O16 0.500000 0.000000 0.500000
#
# Coordination Sequence:
#
# PCOD9048173 Si02
#       8
#     1   2   2   2   2   2   2   2
#     4  12  28  48  76 116 154 206 256 324 386 462
#     4  12  25  46  73 115 151 205 255 318 386 462
#     4  12  29  48  79 114 152 212 254 315 388 468
#     4  10  24  44  75 106 151 201 256 320 377 464
#     4   9  21  44  69 106 148 203 257 312 384 454
#     4   9  21  46  71 109 144 207 250 324 377 451
#     4  12  28  52  78 114 152 206 261 320 392 457
#     4  12  27  52  78 115 157 198 261 324 386 461
#
# _framework density 25.699377999999999
#
# number of rings (size 3 to 8) (size 9 to 14) (size 15 to 20)
#    0.800    0.267    2.667    2.400    3.733    7.467 
#    4.800    0.000    0.000    0.000    0.000    0.000 
#    0.000    0.000    0.000    0.000    0.000    0.000 
#
# Total GULP energy -83634.707507 kJ/mol
# GULP energy per Si atom -5575.647167 kJ/mol
# Density = 2.564089 g / cm^3
# Si number density = 25.699378 Si / 1000 Ang^3
#
#
#
# Elastic Constant Matrix: (Units=GPa)
#
#
# Indices 1 2 3 4 5 6 
#
# 1 66.4707 45.1644 45.5500 -3.3295 0.0673 -7.3246
# 2 45.1644 110.1203 62.5842 -36.4060 13.8086 -13.2197
# 3 45.5500 62.5842 191.0139 -22.4581 -4.3284 10.9427
# 4 -3.3295 -36.4060 -22.4581 53.3693 7.0235 0.6134
# 5 0.0673 13.8086 -4.3284 7.0235 38.5811 4.1138
# 6 -7.3246 -13.2197 10.9427 0.6134 4.1138 37.2574
#
#
#
# Elastic Compliance Matrix: (Units=1/GPa)
#
#
# Indices 1 2 3 4 5 6 
#
# 1 0.024803 -0.011796 -0.002990 -0.008463 0.005264 0.001127
# 2 -0.011796 0.023901 -0.003973 0.015471 -0.012700 0.008476
# 3 -0.002990 -0.003973 0.007569 -0.000023 0.002763 -0.004525
# 4 -0.008463 0.015471 -0.000023 0.030216 -0.011517 0.004606
# 5 0.005264 -0.012700 0.002763 -0.011517 0.033695 -0.007814
# 6 0.001127 0.008476 -0.004525 0.004606 -0.007814 0.032185
#
#
# Mechanical properties :
#
#
# Convention : Reuss Voigt Hill
#
# Bulk Modulus (GPa) = 53.31627 74.91133 64.11380
# Shear Modulus (GPa) = 25.49210 40.12867 32.81039
#
# Velocity S-wave (km/s) = 3.15292 3.95582 3.57697
# Velocity P-wave (km/s) = 5.83487 7.07652 6.48547
#
# Compressibility (1/GPa) = 0.01875600
#
# Stress axis : x y z
#
# Youngs Moduli (GPa) = 40.31746 41.83867 132.11827
#
# Poissons Ratio (x) = 0.49353 0.39505
# Poissons Ratio (y) = 0.47559 0.52485
# Poissons Ratio (z) = 0.12055 0.16621
#
# Static dielectric constant tensor:
#      x y z
#    x 2.050410 -0.062060 0.012500 
#    y -0.062060 2.045880 0.016400 
#    z 0.012500 0.016400 2.000400 
# 
# From -- ./inp_files/518518.got.cif
#   From: 2010.05.17/outbox.cif.g08.bks.cpg/sg2_260_cif.got.tgz:518518.got - 2010.06.03 11:33:40.
