data_PCOD9048346
_publ_section_title
;
Structure prediction by ZEFSAII (Michael W. Deem and Ramdas Pophale) SiO2 
 PCOD9048346
Probable space group: P -1
;
_chemical_formula_sum "Si O2"
_cell_formula_units_Z 16
_cell_length_a 16.527857
_cell_length_b 7.266907
_cell_length_c 13.335634
_cell_angle_alpha 110.710685
_cell_angle_beta 147.761290
_cell_angle_gamma 83.974631
_cell_volume 736.219950
_symmetry_space_group_name_H-M "P -1"
_symmetry_group_IT_number 2
_symmetry_cell_setting 'triclinic'
loop_
_space_group_symop_operation_xyz
x,y,z
-x,-y,-z
loop_
_atom_site_type_symbol
_atom_site_label
_atom_site_fract_x
_atom_site_fract_y
_atom_site_fract_z
Si Si1 0.214083 0.187195 0.358905
Si Si2 0.487050 0.518378 0.151718
Si Si3 0.925196 0.188848 0.322445
Si Si4 0.722678 0.413552 0.235610
Si Si5 0.153428 0.720246 0.178953
Si Si6 0.923087 0.328562 0.134698
Si Si7 0.169233 0.285296 0.904371
Si Si8 0.308539 0.423030 0.298107
O O1 0.388009 0.287332 0.615589
O O2 0.240104 0.254353 0.282907
O O3 0.090970 0.292297 0.289695
O O4 0.142870 0.933335 0.250171
O O5 0.605884 0.413377 0.206059
O O6 0.394298 0.593038 0.982203
O O7 0.342572 0.371106 0.043834
O O8 0.803378 0.237409 0.281326
O O9 0.852087 0.213746 0.141629
O O10 0.111348 0.367574 0.557099
O O11 0.925621 0.955466 0.276836
O O12 0.292274 0.646953 0.351174
O O13 0.172907 0.752229 0.085497
O O14 0.000000 0.500000 0.000000
O O15 0.931915 0.568227 0.199217
O O16 0.215056 0.323236 0.077497
O O17 0.500000 0.500000 0.500000
#
# Coordination Sequence:
#
# PCOD9048346 Si02
#       8
#     2   2   2   2   2   2   2   2
#     4  12  24  43  68  94 140 179 208 277 329 381
#     4  11  23  45  66  97 133 172 219 273 334 393
#     4  11  23  44  71  94 129 175 218 280 328 384
#     4  10  24  45  67  96 131 169 226 273 334 385
#     4  11  25  40  66 101 131 173 224 258 318 405
#     4  11  23  42  67  97 131 170 221 266 326 390
#     4  11  25  42  70 101 129 169 226 268 324 399
#     4  11  24  42  63 102 139 169 219 261 328 406
#
# _framework density 21.732635999999999
#
# number of rings (size 3 to 8) (size 9 to 14) (size 15 to 20)
#    0.000    1.000    5.000    1.125    3.500    2.500 
#    0.000    1.250    0.000    0.000    0.000    0.000 
#    0.000    0.000    0.000    0.000    0.000    0.000 
#
# Total GULP energy -89355.404533 kJ/mol
# GULP energy per Si atom -5584.712783 kJ/mol
# Density = 2.168317 g / cm^3
# Si number density = 21.732636 Si / 1000 Ang^3
#
#
#
# Elastic Constant Matrix: (Units=GPa)
#
#
# Indices 1 2 3 4 5 6 
#
# 1 99.7992 43.3622 33.4488 -10.0722 11.4991 -14.7552
# 2 43.3622 155.6744 45.0885 10.0829 15.3975 -39.5073
# 3 33.4488 45.0885 50.6988 9.3838 9.5179 -12.1452
# 4 -10.0722 10.0829 9.3838 18.1690 -6.9513 0.3066
# 5 11.4991 15.3975 9.5179 -6.9513 31.1583 -14.3801
# 6 -14.7552 -39.5073 -12.1452 0.3066 -14.3801 37.6423
#
#
#
# Elastic Compliance Matrix: (Units=1/GPa)
#
#
# Indices 1 2 3 4 5 6 
#
# 1 0.017060 -0.002161 -0.013164 0.018826 0.003644 0.001411
# 2 -0.002161 0.011278 -0.005538 -0.004691 0.000163 0.009304
# 3 -0.013164 -0.005538 0.040689 -0.030042 -0.012661 -0.002437
# 4 0.018826 -0.004691 -0.030042 0.093662 0.026406 0.002088
# 5 0.003644 0.000163 -0.012661 0.026406 0.047568 0.015471
# 6 0.001411 0.009304 -0.002437 0.002088 0.015471 0.041991
#
#
# Mechanical properties :
#
#
# Convention : Reuss Voigt Hill
#
# Bulk Modulus (GPa) = 36.63015 61.10792 48.86903
# Shear Modulus (GPa) = 16.49761 29.67877 23.08819
#
# Velocity S-wave (km/s) = 2.75820 3.69945 3.26294
# Velocity P-wave (km/s) = 5.19952 6.81374 6.06061
#
# Compressibility (1/GPa) = 0.02729992
#
# Stress axis : x y z
#
# Youngs Moduli (GPa) = 58.61709 88.66430 24.57697
#
# Poissons Ratio (x) = 0.19160 0.32354
# Poissons Ratio (y) = 0.12667 0.13611
# Poissons Ratio (z) = 0.77165 0.49105
#
# Static dielectric constant tensor:
#      x y z
#    x 1.839990 0.007260 -0.095880 
#    y 0.007260 1.761710 0.046670 
#    z -0.095880 0.046670 1.673180 
# 
# From -- ./inp_files/536428.got.cif
#   From: 2010.05.17/outbox.cif.g08.bks.cpg/sg2_269_cif.got.tgz:536428.got - 2010.06.03 11:33:40.
