data_PCOD9048011
_publ_section_title
;
Structure prediction by ZEFSAII (Michael W. Deem and Ramdas Pophale) SiO2 
 PCOD9048011
Probable space group: P -1
;
_chemical_formula_sum "Si O2"
_cell_formula_units_Z 12
_cell_length_a 13.051261
_cell_length_b 17.043119
_cell_length_c 9.391016
_cell_angle_alpha 139.239819
_cell_angle_beta 145.216608
_cell_angle_gamma 22.754660
_cell_volume 460.916057
_symmetry_space_group_name_H-M "P -1"
_symmetry_group_IT_number 2
_symmetry_cell_setting 'triclinic'
loop_
_space_group_symop_operation_xyz
x,y,z
-x,-y,-z
loop_
_atom_site_type_symbol
_atom_site_label
_atom_site_fract_x
_atom_site_fract_y
_atom_site_fract_z
Si Si1 0.159675 0.144814 0.265541
Si Si2 0.114358 0.169146 0.701571
Si Si3 0.355969 0.839991 0.694427
Si Si4 0.901194 0.449021 0.617961
Si Si5 0.258205 0.828398 0.881755
Si Si6 0.881143 0.408087 0.036364
O O1 0.934151 0.338195 0.375827
O O2 0.084188 0.229304 0.136713
O O3 0.500000 0.000000 0.500000
O O4 0.131430 0.016599 0.067705
O O5 0.126876 0.279452 0.767084
O O6 0.979828 0.141552 0.402016
O O7 0.374402 0.956735 0.791563
O O8 0.886005 0.330111 0.788643
O O9 0.575033 0.634087 0.574452
O O10 0.408708 0.798144 0.864593
O O11 0.000000 0.000000 0.500000
O O12 0.980319 0.536375 0.765390
O O13 0.542175 0.614176 0.988605
#
# Coordination Sequence:
#
# PCOD9048011 Si02
#       6
#     2   2   2   2   2   2
#     4  12  28  48  71 107 154 192 236 298 371 434
#     4  11  25  44  77 108 142 187 251 300 353 425
#     4  10  24  44  72 107 143 188 239 299 356 418
#     4  12  27  43  74 113 142 189 248 295 362 432
#     4  11  24  46  76 104 147 194 237 299 366 421
#     4  12  25  45  78 104 148 193 239 301 360 434
#
# _framework density 26.035111000000001
#
# number of rings (size 3 to 8) (size 9 to 14) (size 15 to 20)
#    0.000    0.667    5.000    1.500    4.667    1.333 
#    0.000    5.833    0.000    0.000    0.000    0.000 
#    0.000    0.000    0.000    0.000    0.000    0.000 
#
# Total GULP energy -67233.340582 kJ/mol
# GULP energy per Si atom -5602.778382 kJ/mol
# Density = 2.597585 g / cm^3
# Si number density = 26.035111 Si / 1000 Ang^3
#
#
#
# Elastic Constant Matrix: (Units=GPa)
#
#
# Indices 1 2 3 4 5 6 
#
# 1 82.4758 11.9915 20.2271 2.8216 7.6816 23.8553
# 2 11.9915 135.1143 48.3862 18.0118 -5.7261 14.4208
# 3 20.2271 48.3862 96.5557 29.4457 3.2849 0.7006
# 4 2.8216 18.0118 29.4457 63.2518 6.8258 -15.5488
# 5 7.6816 -5.7261 3.2849 6.8258 35.4605 6.5893
# 6 23.8553 14.4208 0.7006 -15.5488 6.5893 56.1704
#
#
#
# Elastic Compliance Matrix: (Units=1/GPa)
#
#
# Indices 1 2 3 4 5 6 
#
# 1 0.014818 0.000493 -0.003002 -0.000824 -0.001498 -0.006435
# 2 0.000493 0.009703 -0.004466 -0.001879 0.002886 -0.003504
# 3 -0.003002 -0.004466 0.014830 -0.005222 -0.000599 0.000861
# 4 -0.000824 -0.001879 -0.005222 0.021169 -0.005082 0.007354
# 5 -0.001498 0.002886 -0.000599 -0.005082 0.030980 -0.005139
# 6 -0.006435 -0.003504 0.000861 0.007354 -0.005139 0.024063
#
#
# Mechanical properties :
#
#
# Convention : Reuss Voigt Hill
#
# Bulk Modulus (GPa) = 39.36697 52.81727 46.09212
# Shear Modulus (GPa) = 36.23708 46.54593 41.39151
#
# Velocity S-wave (km/s) = 3.73480 4.23284 3.99160
# Velocity P-wave (km/s) = 5.80964 6.64983 6.24388
#
# Compressibility (1/GPa) = 0.02540201
#
# Stress axis : x y z
#
# Youngs Moduli (GPa) = 67.48415 103.05731 67.43029
#
# Poissons Ratio (x) = -0.05083 0.20246
# Poissons Ratio (y) = -0.03329 0.30112
# Poissons Ratio (z) = 0.20262 0.46022
#
# Static dielectric constant tensor:
#      x y z
#    x 2.086290 0.028120 0.042220 
#    y 0.028120 2.041310 -0.006020 
#    z 0.042220 -0.006020 2.034600 
# 
# From -- ./inp_files/317458.got.cif
#   From: 2010.05.17/outbox.cif.g08.bks.cpg/sg2_159_cif.got.tgz:317458.got - 2010.06.03 11:33:40.
