data_PCOD9048280
_publ_section_title
;
Structure prediction by ZEFSAII (Michael W. Deem and Ramdas Pophale) SiO2 
 PCOD9048280
Probable space group: P -1
;
_chemical_formula_sum "Si O2"
_cell_formula_units_Z 12
_cell_length_a 8.280966
_cell_length_b 15.336124
_cell_length_c 17.295728
_cell_angle_alpha 160.656708
_cell_angle_beta 134.787387
_cell_angle_gamma 54.986425
_cell_volume 476.157861
_symmetry_space_group_name_H-M "P -1"
_symmetry_group_IT_number 2
_symmetry_cell_setting 'triclinic'
loop_
_space_group_symop_operation_xyz
x,y,z
-x,-y,-z
loop_
_atom_site_type_symbol
_atom_site_label
_atom_site_fract_x
_atom_site_fract_y
_atom_site_fract_z
Si Si1 0.758348 0.906215 0.161443
Si Si2 0.210625 0.945277 0.865614
Si Si3 0.155695 0.221692 0.675023
Si Si4 0.637255 0.154037 0.752986
Si Si5 0.688662 0.652514 0.449846
Si Si6 0.414167 0.255859 0.332567
O O1 0.801496 0.859192 0.046580
O O2 0.627582 0.133455 0.313434
O O3 0.552044 0.617532 0.883849
O O4 0.024060 0.057123 0.415453
O O5 0.963247 0.660358 0.530964
O O6 0.500000 0.000000 0.000000
O O7 0.196082 0.022352 0.014228
O O8 0.431417 0.244148 0.800162
O O9 0.153138 0.537458 0.939152
O O10 0.000000 0.000000 0.500000
O O11 0.500000 0.000000 0.500000
O O12 0.684860 0.933578 0.641870
O O13 0.657735 0.665516 0.542850
O O14 0.500000 0.500000 0.500000
#
# Coordination Sequence:
#
# PCOD9048280 Si02
#       6
#     2   2   2   2   2   2
#     4  11  25  44  69 101 144 185 238 292 354 416
#     4  10  24  45  66 100 141 185 236 294 341 414
#     4  11  25  46  71 104 146 181 230 297 350 422
#     4  11  26  45  72 109 140 181 239 286 355 428
#     4  12  25  44  74 103 140 193 237 291 358 419
#     4  11  24  44  68 103 140 187 244 287 349 417
#
# _framework density 25.201726000000001
#
# number of rings (size 3 to 8) (size 9 to 14) (size 15 to 20)
#    0.000    1.000    1.667    3.500    2.333   12.000 
#    3.000    0.000    0.000    0.000    0.000    0.000 
#    0.000    0.000    0.000    0.000    0.000    0.000 
#
# Total GULP energy -66963.986907 kJ/mol
# GULP energy per Si atom -5580.332242 kJ/mol
# Density = 2.514437 g / cm^3
# Si number density = 25.201726 Si / 1000 Ang^3
#
#
#
# Elastic Constant Matrix: (Units=GPa)
#
#
# Indices 1 2 3 4 5 6 
#
# 1 82.5132 32.9041 27.6044 11.7668 17.1641 12.1153
# 2 32.9041 130.4102 59.9073 21.1092 11.0532 15.6901
# 3 27.6044 59.9073 148.7246 11.6540 27.0495 1.7656
# 4 11.7668 21.1092 11.6540 52.4780 10.2720 -3.4796
# 5 17.1641 11.0532 27.0495 10.2720 40.9607 -10.5979
# 6 12.1153 15.6901 1.7656 -3.4796 -10.5979 48.5901
#
#
#
# Elastic Compliance Matrix: (Units=1/GPa)
#
#
# Indices 1 2 3 4 5 6 
#
# 1 0.015418 -0.002281 -0.000640 -0.001480 -0.006228 -0.004549
# 2 -0.002281 0.010794 -0.003739 -0.003308 0.000595 -0.002888
# 3 -0.000640 -0.003739 0.009203 0.000571 -0.004945 -0.000005
# 4 -0.001480 -0.003308 0.000571 0.021456 -0.003689 0.002148
# 5 -0.006228 0.000595 -0.004945 -0.003689 0.033261 0.008531
# 6 -0.004549 -0.002888 -0.000005 0.002148 0.008531 0.024662
#
#
# Mechanical properties :
#
#
# Convention : Reuss Voigt Hill
#
# Bulk Modulus (GPa) = 45.26127 66.94216 56.10172
# Shear Modulus (GPa) = 36.90612 44.48789 40.69701
#
# Velocity S-wave (km/s) = 3.83094 4.20607 4.02288
# Velocity P-wave (km/s) = 6.12917 7.08578 6.62476
#
# Compressibility (1/GPa) = 0.02209395
#
# Stress axis : x y z
#
# Youngs Moduli (GPa) = 64.86112 92.64538 108.65471
#
# Poissons Ratio (x) = 0.21136 0.06953
# Poissons Ratio (y) = 0.14798 0.40627
# Poissons Ratio (z) = 0.04151 0.34641
#
# Static dielectric constant tensor:
#      x y z
#    x 1.707710 -0.191970 0.663450 
#    y -0.191970 1.970370 0.269310 
#    z 0.663450 0.269310 0.686100 
# 
# From -- ./inp_files/106033.got.cif
#   From: 2010.05.17/outbox.cif.g08.bks.cpg/sg2_54_cif.got.tgz:106033.got - 2010.06.03 11:33:40.
