data_PCOD9048972
_publ_section_title
;
Structure prediction by ZEFSAII (Michael W. Deem and Ramdas Pophale) SiO2 
 PCOD9048972
Probable space group: P -1
;
_chemical_formula_sum "Si O2"
_cell_formula_units_Z 12
_cell_length_a 5.828620
_cell_length_b 17.524676
_cell_length_c 13.594150
_cell_angle_alpha 155.331646
_cell_angle_beta 98.291105
_cell_angle_gamma 73.019381
_cell_volume 528.110692
_symmetry_space_group_name_H-M "P -1"
_symmetry_group_IT_number 2
_symmetry_cell_setting 'triclinic'
loop_
_space_group_symop_operation_xyz
x,y,z
-x,-y,-z
loop_
_atom_site_type_symbol
_atom_site_label
_atom_site_fract_x
_atom_site_fract_y
_atom_site_fract_z
Si Si1 0.102728 0.953073 0.841122
Si Si2 0.963480 0.618150 0.736635
Si Si3 0.369889 0.305994 0.020979
Si Si4 0.449012 0.367717 0.598414
Si Si5 0.768069 0.867017 0.562711
Si Si6 0.813224 0.884884 0.373730
O O1 0.385810 0.794651 0.661290
O O2 0.948919 0.856438 0.652195
O O3 0.000000 0.000000 0.000000
O O4 0.074842 0.158027 0.028404
O O5 0.199588 0.507012 0.690384
O O6 0.000000 0.500000 0.500000
O O7 0.728554 0.625240 0.795069
O O8 0.428014 0.481478 0.182233
O O9 0.172202 0.254745 0.881982
O O10 0.608733 0.100933 0.809463
O O11 0.404168 0.245100 0.542248
O O12 0.890171 0.788008 0.372434
O O13 0.500000 0.000000 0.500000
O O14 0.000000 0.000000 0.500000
#
# Coordination Sequence:
#
# PCOD9048972 Si02
#       6
#     2   2   2   2   2   2
#     4  12  26  45  72 105 148 195 248 313 375 451
#     4  12  26  45  72 105 148 195 248 313 375 451
#     4  11  24  46  74 105 148 194 250 311 376 451
#     4  12  26  45  72 108 146 193 252 306 382 448
#     4  11  24  46  74 105 148 194 250 311 376 451
#     4  10  24  45  79 111 149 203 254 314 381 447
#
# _framework density 22.722508999999999
#
# number of rings (size 3 to 8) (size 9 to 14) (size 15 to 20)
#    0.000    0.667    3.333    4.000    7.000    3.333 
#    0.000    3.333    0.000    0.000    0.000    0.000 
#    0.000    0.000    0.000    0.000    0.000    0.000 
#
# Total GULP energy -67078.384046 kJ/mol
# GULP energy per Si atom -5589.865337 kJ/mol
# Density = 2.267079 g / cm^3
# Si number density = 22.722509 Si / 1000 Ang^3
#
#
#
# Elastic Constant Matrix: (Units=GPa)
#
#
# Indices 1 2 3 4 5 6 
#
# 1 58.8796 15.1030 20.0383 8.7177 11.4327 20.6490
# 2 15.1030 89.9315 27.1515 -7.0284 -1.4005 24.5783
# 3 20.0383 27.1515 82.8091 15.4921 7.4276 10.4478
# 4 8.7177 -7.0284 15.4921 57.8741 -0.3194 5.4878
# 5 11.4327 -1.4005 7.4276 -0.3194 47.0535 9.3988
# 6 20.6490 24.5783 10.4478 5.4878 9.3988 47.0438
#
#
#
# Elastic Compliance Matrix: (Units=1/GPa)
#
#
# Indices 1 2 3 4 5 6 
#
# 1 0.021923 -0.000744 -0.003478 -0.001759 -0.003294 -0.007598
# 2 -0.000744 0.015123 -0.004832 0.003974 0.002929 -0.007550
# 3 -0.003478 -0.004832 0.015296 -0.004318 -0.002056 0.001568
# 4 -0.001759 0.003974 -0.004318 0.019478 0.001961 -0.003009
# 5 -0.003294 0.002929 -0.002056 0.001961 0.023382 -0.004528
# 6 -0.007598 -0.007550 0.001568 -0.003009 -0.004528 0.029444
#
#
# Mechanical properties :
#
#
# Convention : Reuss Voigt Hill
#
# Bulk Modulus (GPa) = 29.21028 39.57842 34.39435
# Shear Modulus (GPa) = 32.43255 41.68277 37.05766
#
# Velocity S-wave (km/s) = 3.78210 4.28767 4.04280
# Velocity P-wave (km/s) = 5.65292 6.47828 6.07962
#
# Compressibility (1/GPa) = 0.03423452
#
# Stress axis : x y z
#
# Youngs Moduli (GPa) = 45.61409 66.12421 65.37583
#
# Poissons Ratio (x) = 0.04919 0.22736
# Poissons Ratio (y) = 0.03393 0.31591
# Poissons Ratio (z) = 0.15864 0.31952
#
# Static dielectric constant tensor:
#      x y z
#    x 1.960550 -0.013040 -0.019230 
#    y -0.013040 1.818790 0.001690 
#    z -0.019230 0.001690 1.841100 
# 
# From -- ./inp_files/33096.got.cif
#   From: 2010.05.17/outbox.cif.g08.bks.cpg/sg2_17_cif.got.tgz:33096.got - 2010.06.03 11:33:40.
