data_PCOD9048294
_publ_section_title
;
Structure prediction by ZEFSAII (Michael W. Deem and Ramdas Pophale) SiO2 
 PCOD9048294
Probable space group: P -1
;
_chemical_formula_sum "Si O2"
_cell_formula_units_Z 16
_cell_length_a 7.609677
_cell_length_b 11.144074
_cell_length_c 12.823219
_cell_angle_alpha 64.376776
_cell_angle_beta 136.442929
_cell_angle_gamma 107.496231
_cell_volume 675.499341
_symmetry_space_group_name_H-M "P -1"
_symmetry_group_IT_number 2
_symmetry_cell_setting 'triclinic'
loop_
_space_group_symop_operation_xyz
x,y,z
-x,-y,-z
loop_
_atom_site_type_symbol
_atom_site_label
_atom_site_fract_x
_atom_site_fract_y
_atom_site_fract_z
Si Si1 0.736071 0.384361 0.452721
Si Si2 0.606780 0.855569 0.633028
Si Si3 0.866792 0.249586 0.199142
Si Si4 0.089377 0.424889 0.400054
Si Si5 0.457508 0.756930 0.298005
Si Si6 0.259330 0.580399 0.108955
Si Si7 0.861720 0.019357 0.822813
Si Si8 0.274099 0.030333 0.811680
O O1 0.618010 0.243579 0.437036
O O2 0.837100 0.424165 0.596343
O O3 0.505809 0.485814 0.276127
O O4 0.971508 0.386902 0.474457
O O5 0.847017 0.789951 0.700926
O O6 0.500000 0.000000 0.500000
O O7 0.714214 0.884540 0.783434
O O8 0.899553 0.363978 0.257074
O O9 0.760328 0.101378 0.226261
O O10 0.708862 0.320998 0.011970
O O11 0.354577 0.347784 0.526710
O O12 0.254219 0.678006 0.170101
O O13 0.329778 0.858950 0.283878
O O14 0.638162 0.846038 0.266470
O O15 0.000000 0.500000 0.000000
O O16 0.038287 0.043684 0.787443
O O17 0.000000 0.000000 0.000000
O O18 0.500000 0.000000 0.000000
#
# Coordination Sequence:
#
# PCOD9048294 Si02
#       8
#     2   2   2   2   2   2   2   2
#     4  10  24  45  66  90 134 175 217 273 337 392
#     4  11  24  42  63  96 133 168 213 275 333 399
#     4  11  23  42  67  98 127 171 230 269 335 392
#     4  10  25  44  65  97 128 177 225 270 334 402
#     4  11  23  45  68  97 140 178 219 278 340 392
#     4  11  22  45  69  94 133 177 221 282 327 397
#     4  11  23  39  65 101 131 175 223 270 334 398
#     4  11  22  40  66 101 141 169 220 283 331 397
#
# _framework density 23.686181000000001
#
# number of rings (size 3 to 8) (size 9 to 14) (size 15 to 20)
#    0.000    1.250    3.750    1.500    5.250    1.500 
#    2.250    0.000    0.000    0.000    0.000    0.000 
#    0.000    0.000    0.000    0.000    0.000    0.000 
#
# Total GULP energy -89334.137332 kJ/mol
# GULP energy per Si atom -5583.383583 kJ/mol
# Density = 2.363227 g / cm^3
# Si number density = 23.686181 Si / 1000 Ang^3
#
#
#
# Elastic Constant Matrix: (Units=GPa)
#
#
# Indices 1 2 3 4 5 6 
#
# 1 89.2803 39.3209 4.8830 7.2932 5.3258 -14.1749
# 2 39.3209 165.4277 29.5182 44.0735 -4.4391 -13.1168
# 3 4.8830 29.5182 76.5982 24.1418 -8.6884 -15.8663
# 4 7.2932 44.0735 24.1418 60.4736 -8.3808 -4.6808
# 5 5.3258 -4.4391 -8.6884 -8.3808 32.2245 7.7302
# 6 -14.1749 -13.1168 -15.8663 -4.6808 7.7302 42.8182
#
#
#
# Elastic Compliance Matrix: (Units=1/GPa)
#
#
# Indices 1 2 3 4 5 6 
#
# 1 0.013428 -0.003132 0.000814 0.000205 -0.003441 0.004431
# 2 -0.003132 0.008458 -0.001318 -0.005243 -0.000161 0.000522
# 3 0.000814 -0.001318 0.016332 -0.005049 0.001554 0.005085
# 4 0.000205 -0.005243 -0.005049 0.022802 0.004215 -0.001677
# 5 -0.003441 -0.000161 0.001554 0.004215 0.034630 -0.006404
# 6 0.004431 0.000522 0.005085 -0.001677 -0.006404 0.027838
#
#
# Mechanical properties :
#
#
# Convention : Reuss Voigt Hill
#
# Bulk Modulus (GPa) = 32.31432 53.19449 42.75440
# Shear Modulus (GPa) = 35.44179 44.27553 39.85866
#
# Velocity S-wave (km/s) = 3.87241 4.32818 4.10662
# Velocity P-wave (km/s) = 5.80227 6.89089 6.36988
#
# Compressibility (1/GPa) = 0.03094603
#
# Stress axis : x y z
#
# Youngs Moduli (GPa) = 74.47239 118.22514 61.22992
#
# Poissons Ratio (x) = 0.37034 -0.04985
# Poissons Ratio (y) = 0.23328 0.08068
# Poissons Ratio (z) = -0.06063 0.15579
#
# Static dielectric constant tensor:
#      x y z
#    x 1.941420 0.063960 -0.026410 
#    y 0.063960 2.008150 0.020880 
#    z -0.026410 0.020880 1.931470 
# 
# From -- ./inp_files/494780.got.cif
#   From: 2010.05.17/outbox.cif.g08.bks.cpg/sg2_248_cif.got.tgz:494780.got - 2010.06.03 11:33:40.
