data_PCOD9048811
_publ_section_title
;
Structure prediction by ZEFSAII (Michael W. Deem and Ramdas Pophale) SiO2 
 PCOD9048811
Probable space group: P -1
;
_chemical_formula_sum "Si O2"
_cell_formula_units_Z 12
_cell_length_a 7.154106
_cell_length_b 11.848053
_cell_length_c 9.256354
_cell_angle_alpha 136.813147
_cell_angle_beta 77.475806
_cell_angle_gamma 117.368248
_cell_volume 467.730113
_symmetry_space_group_name_H-M "P -1"
_symmetry_group_IT_number 2
_symmetry_cell_setting 'triclinic'
loop_
_space_group_symop_operation_xyz
x,y,z
-x,-y,-z
loop_
_atom_site_type_symbol
_atom_site_label
_atom_site_fract_x
_atom_site_fract_y
_atom_site_fract_z
Si Si1 0.443051 0.623522 0.270180
Si Si2 0.985144 0.662687 0.066471
Si Si3 0.157777 0.923199 0.053206
Si Si4 0.163715 0.779392 0.605222
Si Si5 0.311485 0.354779 0.491209
Si Si6 0.797836 0.892955 0.268403
O O1 0.320175 0.690387 0.467313
O O2 0.614801 0.590611 0.305208
O O3 0.567140 0.770886 0.263072
O O4 0.250595 0.448947 0.069586
O O5 0.956801 0.840530 0.292997
O O6 0.175081 0.775249 0.024163
O O7 0.000000 0.500000 0.000000
O O8 0.905489 0.873271 0.076760
O O9 0.270519 0.140952 0.275327
O O10 0.207101 0.878373 0.844857
O O11 0.910918 0.642752 0.510121
O O12 0.198179 0.913488 0.588278
O O13 0.500000 0.500000 0.500000
#
# Coordination Sequence:
#
# PCOD9048811 Si02
#       6
#     2   2   2   2   2   2
#     4  12  26  42  70 113 136 189 240 288 350 426
#     4  10  24  45  73 103 145 188 235 287 355 424
#     4   9  23  46  72 101 144 192 227 291 358 415
#     4  11  24  47  74 104 149 182 237 295 352 421
#     4  11  25  44  73 105 144 185 241 295 349 418
#     4   9  22  45  72  96 147 188 230 285 357 413
#
# _framework density 25.655819000000001
#
# number of rings (size 3 to 8) (size 9 to 14) (size 15 to 20)
#    1.000    0.667    0.000    4.000    4.667    8.667 
#    0.000    0.000    0.000    0.000    0.000    0.000 
#    0.000    0.000    0.000    0.000    0.000    0.000 
#
# Total GULP energy -66857.286459 kJ/mol
# GULP energy per Si atom -5571.440538 kJ/mol
# Density = 2.559743 g / cm^3
# Si number density = 25.655819 Si / 1000 Ang^3
#
#
#
# Elastic Constant Matrix: (Units=GPa)
#
#
# Indices 1 2 3 4 5 6 
#
# 1 73.9391 25.4760 40.3905 1.3906 -9.3643 1.9757
# 2 25.4760 206.6286 43.7234 18.9674 1.0052 13.4842
# 3 40.3905 43.7234 86.9602 -15.0407 7.1098 6.5920
# 4 1.3906 18.9674 -15.0407 23.1574 3.0301 -1.2483
# 5 -9.3643 1.0052 7.1098 3.0301 32.2495 0.1940
# 6 1.9757 13.4842 6.5920 -1.2483 0.1940 56.5505
#
#
#
# Elastic Compliance Matrix: (Units=1/GPa)
#
#
# Indices 1 2 3 4 5 6 
#
# 1 0.022510 0.001414 -0.014368 -0.013257 0.010904 0.000221
# 2 0.001414 0.006918 -0.005977 -0.010022 0.002462 -0.001232
# 3 -0.014368 -0.005977 0.026448 0.024490 -0.012114 -0.000574
# 4 -0.013257 -0.010022 0.024490 0.070214 -0.015543 0.001601
# 5 0.010904 0.002462 -0.012114 -0.015543 0.038229 -0.000030
# 6 0.000221 -0.001232 -0.000574 0.001601 -0.000030 0.018072
#
#
# Mechanical properties :
#
#
# Convention : Reuss Voigt Hill
#
# Bulk Modulus (GPa) = 55.50557 65.18975 60.34766
# Shear Modulus (GPa) = 22.09884 39.58734 30.84309
#
# Velocity S-wave (km/s) = 2.93807 3.93239 3.47102
# Velocity P-wave (km/s) = 5.76119 6.78842 6.29580
#
# Compressibility (1/GPa) = 0.01801621
#
# Stress axis : x y z
#
# Youngs Moduli (GPa) = 44.42401 144.54453 37.81050
#
# Poissons Ratio (x) = -0.20443 0.54325
# Poissons Ratio (y) = -0.06283 0.22598
# Poissons Ratio (z) = 0.63827 0.86389
#
# Static dielectric constant tensor:
#      x y z
#    x 2.035830 -0.069780 -0.022380 
#    y -0.069780 2.155030 0.066850 
#    z -0.022380 0.066850 2.277070 
# 
# From -- ./inp_files/190723.got.cif
#   From: 2010.05.17/outbox.cif.g08.bks.cpg/sg2_96_cif.got.tgz:190723.got - 2010.06.03 11:33:40.
