data_PCOD9048809
_publ_section_title
;
Structure prediction by ZEFSAII (Michael W. Deem and Ramdas Pophale) SiO2 
 PCOD9048809
Probable space group: P -1
;
_chemical_formula_sum "Si O2"
_cell_formula_units_Z 14
_cell_length_a 8.439076
_cell_length_b 22.968672
_cell_length_c 10.091039
_cell_angle_alpha 32.223369
_cell_angle_beta 45.028873
_cell_angle_gamma 34.065364
_cell_volume 584.094952
_symmetry_space_group_name_H-M "P -1"
_symmetry_group_IT_number 2
_symmetry_cell_setting 'triclinic'
loop_
_space_group_symop_operation_xyz
x,y,z
-x,-y,-z
loop_
_atom_site_type_symbol
_atom_site_label
_atom_site_fract_x
_atom_site_fract_y
_atom_site_fract_z
Si Si1 0.149068 0.387141 0.010150
Si Si2 0.308861 0.662150 0.288683
Si Si3 0.341507 0.429308 0.247564
Si Si4 0.569557 0.924729 0.892374
Si Si5 0.671112 0.801592 0.361251
Si Si6 0.331581 0.778408 0.317162
Si Si7 0.818120 0.866797 0.598703
O O1 0.480279 0.318246 0.947902
O O2 0.979278 0.463369 0.825101
O O3 0.127288 0.263391 0.258150
O O4 0.000000 0.500000 0.000000
O O5 0.500000 0.500000 0.500000
O O6 0.254128 0.726990 0.339510
O O7 0.007471 0.714405 0.315121
O O8 0.427920 0.293393 0.376215
O O9 0.419273 0.360382 0.481219
O O10 0.500000 0.500000 0.000000
O O11 0.579670 0.872715 0.134423
O O12 0.397134 0.875870 0.026245
O O13 0.834763 0.851745 0.777796
O O14 0.440570 0.082210 0.685807
O O15 0.066483 0.869635 0.395694
O O16 0.500000 0.000000 0.500000
#
# Coordination Sequence:
#
# PCOD9048809 Si02
#       7
#     2   2   2   2   2   2   2
#     4  12  27  46  68 106 143 183 238 297 355 423
#     4  12  24  42  70 104 138 183 230 291 356 416
#     4  11  24  45  72  98 143 185 234 294 350 421
#     4  10  24  48  70 103 144 189 237 286 359 424
#     4  10  24  45  73 103 144 187 235 295 352 427
#     4  11  25  45  72 104 141 189 234 291 356 423
#     4  12  26  43  72 107 141 186 237 293 356 423
#
# _framework density 23.968705
#
# number of rings (size 3 to 8) (size 9 to 14) (size 15 to 20)
#    0.000    0.857    4.286    1.714    4.000    4.000 
#    0.000    6.429    0.000    0.000    0.000    0.000 
#    0.000    0.000    0.000    0.000    0.000    0.000 
#
# Total GULP energy -78073.974673 kJ/mol
# GULP energy per Si atom -5576.712477 kJ/mol
# Density = 2.391415 g / cm^3
# Si number density = 23.968705 Si / 1000 Ang^3
#
#
#
# Elastic Constant Matrix: (Units=GPa)
#
#
# Indices 1 2 3 4 5 6 
#
# 1 58.1119 15.5334 27.9740 -8.5770 -7.6180 -11.0302
# 2 15.5334 109.7337 30.9522 12.7105 -13.1998 12.4036
# 3 27.9740 30.9522 114.5381 -4.6888 -25.2510 10.6983
# 4 -8.5770 12.7105 -4.6888 46.2068 4.9599 -2.0604
# 5 -7.6180 -13.1998 -25.2510 4.9599 39.4968 0.5409
# 6 -11.0302 12.4036 10.6983 -2.0604 0.5409 35.3171
#
#
#
# Elastic Compliance Matrix: (Units=1/GPa)
#
#
# Indices 1 2 3 4 5 6 
#
# 1 0.023709 -0.003708 -0.005848 0.005442 -0.001237 0.010815
# 2 -0.003708 0.011443 -0.001244 -0.004507 0.002950 -0.005108
# 3 -0.005848 -0.001244 0.012406 -0.000419 0.006513 -0.005272
# 4 0.005442 -0.004507 -0.000419 0.024483 -0.003866 0.004897
# 5 -0.001237 0.002950 0.006513 -0.003866 0.030771 -0.004092
# 6 0.010815 -0.005108 -0.005272 0.004897 -0.004092 0.035432
#
#
# Mechanical properties :
#
#
# Convention : Reuss Voigt Hill
#
# Bulk Modulus (GPa) = 38.52476 47.92256 43.22366
# Shear Modulus (GPa) = 29.67425 38.06574 33.86999
#
# Velocity S-wave (km/s) = 3.52240 3.98947 3.76319
# Velocity P-wave (km/s) = 5.71410 6.42327 6.07903
#
# Compressibility (1/GPa) = 0.02595733
#
# Stress axis : x y z
#
# Youngs Moduli (GPa) = 42.17876 87.39030 80.60445
#
# Poissons Ratio (x) = 0.32405 0.47141
# Poissons Ratio (y) = 0.15640 0.10025
# Poissons Ratio (z) = 0.24668 0.10869
#
# Static dielectric constant tensor:
#      x y z
#    x 2.164310 -0.189250 -0.149320 
#    y -0.189250 2.061610 0.191830 
#    z -0.149320 0.191830 2.062630 
# 
# From -- ./inp_files/406869.got.cif
#   From: 2010.05.17/outbox.cif.g08.bks.cpg/sg2_204_cif.got.tgz:406869.got - 2010.06.03 11:33:40.
