data_PCOD9048776
_publ_section_title
;
Structure prediction by ZEFSAII (Michael W. Deem and Ramdas Pophale) SiO2 
 PCOD9048776
Probable space group: P -1
;
_chemical_formula_sum "Si O2"
_cell_formula_units_Z 14
_cell_length_a 11.955561
_cell_length_b 9.011964
_cell_length_c 8.708309
_cell_angle_alpha 96.155038
_cell_angle_beta 57.562861
_cell_angle_gamma 131.564619
_cell_volume 544.621968
_symmetry_space_group_name_H-M "P -1"
_symmetry_group_IT_number 2
_symmetry_cell_setting 'triclinic'
loop_
_space_group_symop_operation_xyz
x,y,z
-x,-y,-z
loop_
_atom_site_type_symbol
_atom_site_label
_atom_site_fract_x
_atom_site_fract_y
_atom_site_fract_z
Si Si1 0.140749 0.461866 0.404168
Si Si2 0.330874 0.988220 0.000255
Si Si3 0.482189 0.061077 0.357287
Si Si4 0.192561 0.559435 0.038267
Si Si5 0.975235 0.145496 0.977190
Si Si6 0.680343 0.582088 0.484497
Si Si7 0.218876 0.033156 0.396698
O O1 0.237385 0.533741 0.171672
O O2 0.293470 0.546076 0.438892
O O3 0.000000 0.500000 0.500000
O O4 0.992246 0.201834 0.495978
O O5 0.176124 0.724604 0.093580
O O6 0.335569 0.073161 0.166171
O O7 0.238809 0.018867 0.946302
O O8 0.512117 0.053272 0.800532
O O9 0.500000 0.000000 0.500000
O O10 0.292119 0.000323 0.485206
O O11 0.650358 0.308565 0.201165
O O12 0.020346 0.320195 0.075540
O O13 0.135065 0.283532 0.743860
O O14 0.000000 0.000000 0.000000
O O15 0.500000 0.500000 0.500000
O O16 0.723586 0.753518 0.586984
#
# Coordination Sequence:
#
# PCOD9048776 Si02
#       7
#     2   2   2   2   2   2   2
#     4  12  24  48  80 113 153 200 259 318 384 471
#     4  10  24  45  73 107 151 195 263 312 384 451
#     4  10  25  45  75 110 151 200 259 324 381 454
#     4  10  24  45  72 111 145 196 259 312 384 455
#     4  12  25  46  71 110 155 203 253 316 383 469
#     4  12  29  50  74 116 159 205 254 321 396 464
#     4  12  24  48  75 111 153 199 259 318 393 463
#
# _framework density 25.705901999999998
#
# number of rings (size 3 to 8) (size 9 to 14) (size 15 to 20)
#    0.857    0.000    2.857    3.000    6.000    2.286 
#    2.571    1.429    0.000    0.000    0.000    0.000 
#    0.000    0.000    0.000    0.000    0.000    0.000 
#
# Total GULP energy -78039.392455 kJ/mol
# GULP energy per Si atom -5574.242318 kJ/mol
# Density = 2.564739 g / cm^3
# Si number density = 25.705902 Si / 1000 Ang^3
#
#
#
# Elastic Constant Matrix: (Units=GPa)
#
#
# Indices 1 2 3 4 5 6 
#
# 1 206.6723 27.0279 25.5697 -1.6410 14.8838 1.3006
# 2 27.0279 115.1640 27.2579 19.5861 3.4600 -13.4370
# 3 25.5697 27.2579 119.3890 -7.0963 20.5436 -5.0555
# 4 -1.6410 19.5861 -7.0963 43.1268 -4.9879 -7.1788
# 5 14.8838 3.4600 20.5436 -4.9879 46.8963 0.3102
# 6 1.3006 -13.4370 -5.0555 -7.1788 0.3102 27.9952
#
#
#
# Elastic Compliance Matrix: (Units=1/GPa)
#
#
# Indices 1 2 3 4 5 6 
#
# 1 0.005169 -0.001179 -0.000640 0.000348 -0.001231 -0.000819
# 2 -0.001179 0.010727 -0.002339 -0.004696 0.000084 0.003576
# 3 -0.000640 -0.002339 0.009888 0.002464 -0.003703 0.001366
# 4 0.000348 -0.004696 0.002464 0.026804 0.001974 0.005026
# 5 -0.001231 0.000084 -0.003703 0.001974 0.023542 -0.000326
# 6 -0.000819 0.003576 0.001366 0.005026 -0.000326 0.039014
#
#
# Mechanical properties :
#
#
# Convention : Reuss Voigt Hill
#
# Bulk Modulus (GPa) = 57.24742 66.77069 62.00906
# Shear Modulus (GPa) = 38.67489 47.69497 43.18493
#
# Velocity S-wave (km/s) = 3.88301 4.31212 4.10318
# Velocity P-wave (km/s) = 6.51323 7.12908 6.82810
#
# Compressibility (1/GPa) = 0.01746804
#
# Stress axis : x y z
#
# Youngs Moduli (GPa) = 193.47903 93.22250 101.12769
#
# Poissons Ratio (x) = 0.10994 0.06471
# Poissons Ratio (y) = 0.22818 0.23651
# Poissons Ratio (z) = 0.12381 0.21802
#
# Static dielectric constant tensor:
#      x y z
#    x 2.119760 0.060020 -0.019570 
#    y 0.060020 2.166480 -0.067350 
#    z -0.019570 -0.067350 2.067140 
# 
# From -- ./inp_files/244462.got.cif
#   From: 2010.05.17/outbox.cif.g08.bks.cpg/sg2_123_cif.got.tgz:244462.got - 2010.06.03 11:33:40.
