data_PCOD9048017
_publ_section_title
;
Structure prediction by ZEFSAII (Michael W. Deem and Ramdas Pophale) SiO2 
 PCOD9048017
Probable space group: P -1
;
_chemical_formula_sum "Si O2"
_cell_formula_units_Z 13
_cell_length_a 9.036264
_cell_length_b 14.896040
_cell_length_c 8.392787
_cell_angle_alpha 37.552748
_cell_angle_beta 54.702405
_cell_angle_gamma 67.517706
_cell_volume 555.421354
_symmetry_space_group_name_H-M "P -1"
_symmetry_group_IT_number 2
_symmetry_cell_setting 'triclinic'
loop_
_space_group_symop_operation_xyz
x,y,z
-x,-y,-z
loop_
_atom_site_type_symbol
_atom_site_label
_atom_site_fract_x
_atom_site_fract_y
_atom_site_fract_z
Si Si1 0.686328 0.599249 0.185761
Si Si2 0.188634 0.964046 0.013164
Si Si3 0.098287 0.628504 0.470984
Si Si4 0.205416 0.739352 0.919087
Si Si5 0.500000 0.000000 0.500000
Si Si6 0.862645 0.879172 0.855959
Si Si7 0.303676 0.481071 0.065331
O O1 0.500000 0.500000 0.500000
O O2 0.845247 0.507358 0.273325
O O3 0.720182 0.767557 0.995393
O O4 0.682919 0.597185 0.001128
O O5 0.163219 0.784960 0.296840
O O6 0.218831 0.042218 0.055682
O O7 0.350744 0.011351 0.722022
O O8 0.000000 0.000000 0.000000
O O9 0.202508 0.638749 0.222317
O O10 0.878948 0.608349 0.615044
O O11 0.258171 0.649658 0.859929
O O12 0.002219 0.776313 0.983635
O O13 0.343885 0.886797 0.659254
O O14 0.000000 0.000000 0.500000
O O15 0.500000 0.500000 0.000000
#
# Coordination Sequence:
#
# PCOD9048017 Si02
#       7
#     2   2   2   2   1   2   2
#     4  12  29  49  73 113 151 200 261 322 386 460
#     4  11  24  46  78 109 156 202 255 317 387 469
#     4  11  24  49  76 108 147 194 258 316 383 459
#     4  11  25  43  76 108 149 200 253 319 382 467
#     4  10  24  44  72 108 146 192 264 298 386 464
#     4  12  27  48  74 112 160 207 256 324 397 459
#     4  12  27  43  77 105 150 201 256 314 385 465
#
# _framework density 23.405653999999998
#
# number of rings (size 3 to 8) (size 9 to 14) (size 15 to 20)
#    0.000    0.615    4.615    2.769    8.615    3.692 
#    0.000    1.538    0.000    0.000    0.000    0.000 
#    0.000    0.000    0.000    0.000    0.000    0.000 
#
# Total GULP energy -72492.981187 kJ/mol
# GULP energy per Si atom -5576.383168 kJ/mol
# Density = 2.335238 g / cm^3
# Si number density = 23.405654 Si / 1000 Ang^3
#
#
#
# Elastic Constant Matrix: (Units=GPa)
#
#
# Indices 1 2 3 4 5 6 
#
# 1 75.3989 39.2365 47.8539 4.0948 -22.5508 17.0671
# 2 39.2365 205.4043 63.8061 1.4465 -24.8187 50.6367
# 3 47.8539 63.8061 91.7376 14.1429 -33.0231 12.7686
# 4 4.0948 1.4465 14.1429 36.3927 -3.4049 -17.0956
# 5 -22.5508 -24.8187 -33.0231 -3.4049 46.2393 -6.9560
# 6 17.0671 50.6367 12.7686 -17.0956 -6.9560 43.8357
#
#
#
# Elastic Compliance Matrix: (Units=1/GPa)
#
#
# Indices 1 2 3 4 5 6 
#
# 1 0.021321 0.000913 -0.009493 -0.001644 0.002970 -0.006761
# 2 0.000913 0.008718 -0.004488 -0.003645 0.000067 -0.010529
# 3 -0.009493 -0.004488 0.023088 -0.006335 0.009155 0.001138
# 4 -0.001644 -0.003645 -0.006335 0.040723 -0.000909 0.022433
# 5 0.002970 0.000067 0.009155 -0.000909 0.029650 0.000450
# 6 -0.006761 -0.010529 0.001138 0.022433 0.000450 0.046097
#
#
# Mechanical properties :
#
#
# Convention : Reuss Voigt Hill
#
# Bulk Modulus (GPa) = 37.05057 74.92598 55.98827
# Shear Modulus (GPa) = 24.42248 40.06982 32.24615
#
# Velocity S-wave (km/s) = 3.23374 4.14209 3.71578
# Velocity P-wave (km/s) = 5.45957 7.41332 6.51015
#
# Compressibility (1/GPa) = 0.02699014
#
# Stress axis : x y z
#
# Youngs Moduli (GPa) = 46.90284 114.70949 43.31190
#
# Poissons Ratio (x) = -0.10478 0.41118
# Poissons Ratio (y) = -0.04284 0.19440
# Poissons Ratio (z) = 0.44527 0.51486
#
# Static dielectric constant tensor:
#      x y z
#    x 1.995470 -0.068100 0.032060 
#    y -0.068100 1.954040 -0.017590 
#    z 0.032060 -0.017590 1.912240 
# 
# From -- ./inp_files/198896.got.cif
#   From: 2010.05.17/outbox.cif.g08.bks.cpg/sg2_100_cif.got.tgz:198896.got - 2010.06.03 11:33:40.
