data_PCOD9048799
_publ_section_title
;
Structure prediction by ZEFSAII (Michael W. Deem and Ramdas Pophale) SiO2 
 PCOD9048799
Probable space group: P -1
;
_chemical_formula_sum "Si O2"
_cell_formula_units_Z 14
_cell_length_a 8.415581
_cell_length_b 16.597517
_cell_length_c 5.202051
_cell_angle_alpha 67.202486
_cell_angle_beta 87.572962
_cell_angle_gamma 62.298218
_cell_volume 584.558826
_symmetry_space_group_name_H-M "P -1"
_symmetry_group_IT_number 2
_symmetry_cell_setting 'triclinic'
loop_
_space_group_symop_operation_xyz
x,y,z
-x,-y,-z
loop_
_atom_site_type_symbol
_atom_site_label
_atom_site_fract_x
_atom_site_fract_y
_atom_site_fract_z
Si Si1 0.207760 0.642230 0.851392
Si Si2 0.108401 0.941505 0.816993
Si Si3 0.712616 0.278223 0.777565
Si Si4 0.207603 0.446768 0.956028
Si Si5 0.407483 0.259838 0.532754
Si Si6 0.485398 0.901571 0.662960
Si Si7 0.835063 0.710992 0.104932
O O1 0.215996 0.701323 0.524127
O O2 0.328542 0.643669 0.083354
O O3 0.258258 0.534275 0.863252
O O4 0.016272 0.684375 0.970464
O O5 0.306472 0.932432 0.802382
O O6 0.144185 0.828316 0.978298
O O7 0.000000 0.000000 0.500000
O O8 0.000000 0.000000 0.000000
O O9 0.534762 0.270720 0.723247
O O10 0.343883 0.354035 0.235191
O O11 0.189632 0.388404 0.783297
O O12 0.000000 0.500000 0.000000
O O13 0.532233 0.153517 0.521517
O O14 0.216497 0.263986 0.623763
O O15 0.500000 0.000000 0.500000
O O16 0.671139 0.811651 0.874311
#
# Coordination Sequence:
#
# PCOD9048799 Si02
#       7
#     2   2   2   2   2   2   2
#     4  11  27  44  75 108 147 191 252 298 352 446
#     4  12  27  49  74 102 146 193 234 300 369 430
#     4  12  27  48  70 108 151 189 242 301 373 430
#     4   9  23  44  70 107 146 193 245 299 369 416
#     4  11  24  47  74 100 153 194 235 308 371 428
#     4  11  26  46  71 107 140 185 250 299 363 437
#     4  10  24  45  73 101 146 193 239 307 360 427
#
# _framework density 23.949687999999998
#
# number of rings (size 3 to 8) (size 9 to 14) (size 15 to 20)
#    0.000    1.143    1.429    2.571   14.000    2.857 
#    0.000    0.000    0.000    0.000    0.000    0.000 
#    0.000    0.000    0.000    0.000    0.000    0.000 
#
# Total GULP energy -78136.593514 kJ/mol
# GULP energy per Si atom -5581.185251 kJ/mol
# Density = 2.389518 g / cm^3
# Si number density = 23.949688 Si / 1000 Ang^3
#
#
#
# Elastic Constant Matrix: (Units=GPa)
#
#
# Indices 1 2 3 4 5 6 
#
# 1 100.0510 64.2465 47.9378 2.3584 -21.0751 -6.4129
# 2 64.2465 130.3146 38.3040 -11.1816 -26.0097 -9.8397
# 3 47.9378 38.3040 121.7255 8.7425 -23.8411 -1.9993
# 4 2.3584 -11.1816 8.7425 37.2781 -3.4959 -12.0483
# 5 -21.0751 -26.0097 -23.8411 -3.4959 46.0646 7.2121
# 6 -6.4129 -9.8397 -1.9993 -12.0483 7.2121 47.1678
#
#
#
# Elastic Compliance Matrix: (Units=1/GPa)
#
#
# Indices 1 2 3 4 5 6 
#
# 1 0.016726 -0.006973 -0.003942 -0.002121 0.001533 -0.000124
# 2 -0.006973 0.012781 -0.000942 0.005664 0.003565 0.002580
# 3 -0.003942 -0.000942 0.010888 -0.002754 0.003323 -0.001483
# 4 -0.002121 0.005664 -0.002754 0.032306 0.001885 0.008740
# 5 0.001533 0.003565 0.003323 0.001885 0.026678 -0.002505
# 6 -0.000124 0.002580 -0.001483 0.008740 -0.002505 0.024275
#
#
# Mechanical properties :
#
#
# Convention : Reuss Voigt Hill
#
# Bulk Modulus (GPa) = 59.94761 72.56307 66.25534
# Shear Modulus (GPa) = 32.69497 39.54229 36.11863
#
# Velocity S-wave (km/s) = 3.69880 4.06773 3.88764
# Velocity P-wave (km/s) = 6.58229 7.24057 6.91926
#
# Compressibility (1/GPa) = 0.01668123
#
# Stress axis : x y z
#
# Youngs Moduli (GPa) = 59.78577 78.24420 91.84025
#
# Poissons Ratio (x) = 0.54558 0.36206
# Poissons Ratio (y) = 0.41688 0.08651
# Poissons Ratio (z) = 0.23570 0.07370
#
# Static dielectric constant tensor:
#      x y z
#    x 1.972260 0.036390 0.020630 
#    y 0.036390 1.951120 0.079210 
#    z 0.020630 0.079210 2.002130 
# 
# From -- ./inp_files/43243.got.cif
#   From: 2010.05.17/outbox.cif.g08.bks.cpg/sg2_22_cif.got.tgz:43243.got - 2010.06.03 11:33:40.
