data_PCOD9048243
_publ_section_title
;
Structure prediction by ZEFSAII (Michael W. Deem and Ramdas Pophale) SiO2 
 PCOD9048243
Probable space group: P -1
;
_chemical_formula_sum "Si O2"
_cell_formula_units_Z 14
_cell_length_a 11.491803
_cell_length_b 12.929265
_cell_length_c 5.158212
_cell_angle_alpha 92.209663
_cell_angle_beta 93.614825
_cell_angle_gamma 135.161382
_cell_volume 535.541394
_symmetry_space_group_name_H-M "P -1"
_symmetry_group_IT_number 2
_symmetry_cell_setting 'triclinic'
loop_
_space_group_symop_operation_xyz
x,y,z
-x,-y,-z
loop_
_atom_site_type_symbol
_atom_site_label
_atom_site_fract_x
_atom_site_fract_y
_atom_site_fract_z
Si Si1 0.195699 0.178535 0.586634
Si Si2 0.884781 0.432339 0.230384
Si Si3 0.500000 0.500000 0.500000
Si Si4 0.899987 0.765728 0.926428
Si Si5 0.419363 0.140376 0.691365
Si Si6 0.500000 0.000000 0.500000
Si Si7 0.365091 0.557793 0.934908
Si Si8 0.755613 0.139860 0.006060
O O1 0.367054 0.350267 0.629430
O O2 0.106784 0.158108 0.832178
O O3 0.104582 0.170851 0.329054
O O4 0.744352 0.901197 0.423144
O O5 0.785210 0.476272 0.224716
O O6 0.000000 0.500000 0.500000
O O7 0.774990 0.260841 0.162909
O O8 0.000000 0.500000 0.000000
O O9 0.478548 0.581792 0.728361
O O10 0.730826 0.585726 0.899871
O O11 0.064580 0.800946 0.974733
O O12 0.514175 0.138547 0.485084
O O13 0.534847 0.292269 0.877244
O O14 0.363767 0.005088 0.840985
O O15 0.329770 0.896617 0.284147
#
# Coordination Sequence:
#
# PCOD9048243 Si02
#       8
#     2   2   1   2   2   1   2   2
#     4  11  26  49  78 118 161 215 273 340 412 491
#     4  12  29  50  85 123 163 218 280 353 427 491
#     4  10  24  44  82 114 166 212 282 342 412 496
#     4  11  27  50  82 117 159 212 283 342 406 496
#     4  12  29  49  81 117 171 218 276 345 429 501
#     4  12  30  52  78 118 168 222 274 344 422 524
#     4  11  25  51  82 125 162 224 281 355 417 505
#     4  12  30  52  82 122 167 218 281 348 421 514
#
# _framework density 26.141769
#
# number of rings (size 3 to 8) (size 9 to 14) (size 15 to 20)
#    0.000    0.571    2.857    2.143   12.000    4.571 
#    0.000    0.000    0.000    0.000    0.000    0.000 
#    0.000    0.000    0.000    0.000    0.000    0.000 
#
# Total GULP energy -78104.637072 kJ/mol
# GULP energy per Si atom -5578.902648 kJ/mol
# Density = 2.608227 g / cm^3
# Si number density = 26.141769 Si / 1000 Ang^3
#
#
#
# Elastic Constant Matrix: (Units=GPa)
#
#
# Indices 1 2 3 4 5 6 
#
# 1 163.2863 10.1970 36.8164 5.3405 5.7357 -7.3963
# 2 10.1970 114.3618 26.3418 21.8810 -1.8195 -4.0169
# 3 36.8164 26.3418 148.4922 14.0392 3.5161 -7.8210
# 4 5.3405 21.8810 14.0392 39.1200 -1.8299 -10.0567
# 5 5.7357 -1.8195 3.5161 -1.8299 51.5723 -0.1383
# 6 -7.3963 -4.0169 -7.8210 -10.0567 -0.1383 44.0438
#
#
#
# Elastic Compliance Matrix: (Units=1/GPa)
#
#
# Indices 1 2 3 4 5 6 
#
# 1 0.006540 -0.000203 -0.001523 -0.000058 -0.000631 0.000794
# 2 -0.000203 0.010047 -0.001269 -0.005263 0.000275 -0.000544
# 3 -0.001523 -0.001269 0.007535 -0.001656 -0.000446 0.000587
# 4 -0.000058 -0.005263 -0.001656 0.030762 0.001042 0.006244
# 5 -0.000631 0.000275 -0.000446 0.001042 0.019538 0.000139
# 6 0.000794 -0.000544 0.000587 0.006244 0.000139 0.024319
#
#
# Mechanical properties :
#
#
# Convention : Reuss Voigt Hill
#
# Bulk Modulus (GPa) = 55.15570 63.65007 59.40288
# Shear Modulus (GPa) = 45.13559 50.46622 47.80091
#
# Velocity S-wave (km/s) = 4.15971 4.39849 4.28077
# Velocity P-wave (km/s) = 6.64947 7.08495 6.87066
#
# Compressibility (1/GPa) = 0.01813049
#
# Stress axis : x y z
#
# Youngs Moduli (GPa) = 152.89617 99.53203 132.70875
#
# Poissons Ratio (x) = 0.02024 0.20215
# Poissons Ratio (y) = 0.03110 0.16846
# Poissons Ratio (z) = 0.23291 0.12635
#
# Static dielectric constant tensor:
#      x y z
#    x 1.724870 -0.145740 -0.017700 
#    y -0.145740 1.996960 -0.015360 
#    z -0.017700 -0.015360 2.428940 
# 
# From -- ./inp_files/77290.got.cif
#   From: 2010.05.17/outbox.cif.g08.bks.cpg/sg2_39_cif.got.tgz:77290.got - 2010.06.03 11:33:40.
