data_PCOD9048554
_publ_section_title
;
Structure prediction by ZEFSAII (Michael W. Deem and Ramdas Pophale) SiO2 
 PCOD9048554
Probable space group: P -1
;
_chemical_formula_sum "Si O2"
_cell_formula_units_Z 16
_cell_length_a 11.698640
_cell_length_b 15.177588
_cell_length_c 8.155178
_cell_angle_alpha 115.179344
_cell_angle_beta 74.370330
_cell_angle_gamma 149.157563
_cell_volume 657.327174
_symmetry_space_group_name_H-M "P -1"
_symmetry_group_IT_number 2
_symmetry_cell_setting 'triclinic'
loop_
_space_group_symop_operation_xyz
x,y,z
-x,-y,-z
loop_
_atom_site_type_symbol
_atom_site_label
_atom_site_fract_x
_atom_site_fract_y
_atom_site_fract_z
Si Si1 0.539160 0.391473 0.589473
Si Si2 0.598708 0.992181 0.324766
Si Si3 0.154860 0.022142 0.636943
Si Si4 0.968949 0.178767 0.789747
Si Si5 0.513490 0.447662 0.118955
Si Si6 0.998020 0.396398 0.325086
Si Si7 0.714534 0.185775 0.957029
Si Si8 0.755599 0.866117 0.813293
O O1 0.555926 0.519980 0.691210
O O2 0.443651 0.284657 0.367866
O O3 0.766200 0.495402 0.644963
O O4 0.343206 0.229328 0.667633
O O5 0.713385 0.977537 0.342532
O O6 0.799947 0.190420 0.312368
O O7 0.500000 0.000000 0.500000
O O8 0.396095 0.822350 0.142128
O O9 0.041580 0.904970 0.419323
O O10 0.957187 0.931785 0.747114
O O11 0.802682 0.151674 0.803475
O O12 0.223009 0.396526 0.861816
O O13 0.875486 0.055160 0.888279
O O14 0.357679 0.245912 0.061418
O O15 0.500000 0.500000 0.000000
O O16 0.000000 0.500000 0.500000
O O17 0.915955 0.357398 0.138357
O O18 0.500000 0.000000 0.000000
#
# Coordination Sequence:
#
# PCOD9048554 Si02
#       8
#     2   2   2   2   2   2   2   2
#     4  11  22  43  67 100 138 181 239 296 350 427
#     4  11  22  41  70  97 138 192 235 290 360 422
#     4  11  21  42  71 104 136 188 242 284 356 434
#     4  11  22  44  70 101 144 180 242 294 354 427
#     4  12  25  42  65 104 146 179 233 297 358 423
#     4  11  25  43  68  99 135 185 244 300 359 421
#     4  10  24  45  69  99 140 189 239 295 358 430
#     4  11  24  42  74 102 136 194 234 286 363 429
#
# _framework density 24.340996000000001
#
# number of rings (size 3 to 8) (size 9 to 14) (size 15 to 20)
#    0.000    1.000    3.750    3.375    7.000    1.500 
#    4.500    2.500    0.000    0.000    0.000    0.000 
#    0.000    0.000    0.000    0.000    0.000    0.000 
#
# Total GULP energy -89548.754328 kJ/mol
# GULP energy per Si atom -5596.797145 kJ/mol
# Density = 2.428560 g / cm^3
# Si number density = 24.340996 Si / 1000 Ang^3
#
#
#
# Elastic Constant Matrix: (Units=GPa)
#
#
# Indices 1 2 3 4 5 6 
#
# 1 143.9519 46.4773 28.8873 6.9233 24.7255 22.0106
# 2 46.4773 138.0553 26.0165 0.4188 17.9614 11.1257
# 3 28.8873 26.0165 91.7152 8.1543 19.9242 8.3459
# 4 6.9233 0.4188 8.1543 24.1088 -3.5203 5.4756
# 5 24.7255 17.9614 19.9242 -3.5203 43.0179 5.0017
# 6 22.0106 11.1257 8.3459 5.4756 5.0017 50.8328
#
#
#
# Elastic Compliance Matrix: (Units=1/GPa)
#
#
# Indices 1 2 3 4 5 6 
#
# 1 0.008977 -0.002136 -0.000991 -0.002137 -0.003674 -0.002665
# 2 -0.002136 0.008476 -0.001424 0.000874 -0.001506 -0.000642
# 3 -0.000991 -0.001424 0.013243 -0.004859 -0.005322 -0.000386
# 4 -0.002137 0.000874 -0.004859 0.045726 0.007334 -0.004115
# 5 -0.003674 -0.001506 -0.005322 0.007334 0.029152 -0.000864
# 6 -0.002665 -0.000642 -0.000386 -0.004115 -0.000864 0.021559
#
#
# Mechanical properties :
#
#
# Convention : Reuss Voigt Hill
#
# Bulk Modulus (GPa) = 46.30948 64.05383 55.18166
# Shear Modulus (GPa) = 34.85997 41.74799 38.30398
#
# Velocity S-wave (km/s) = 3.78848 4.14591 3.97122
# Velocity P-wave (km/s) = 6.18089 7.02071 6.61414
#
# Compressibility (1/GPa) = 0.02159385
#
# Stress axis : x y z
#
# Youngs Moduli (GPa) = 111.40184 117.98162 75.51372
#
# Poissons Ratio (x) = 0.25202 0.07482
# Poissons Ratio (y) = 0.23796 0.10751
# Poissons Ratio (z) = 0.11038 0.16797
#
# Static dielectric constant tensor:
#      x y z
#    x 1.904970 -0.010310 0.052690 
#    y -0.010310 1.937480 0.042180 
#    z 0.052690 0.042180 2.087700 
# 
# From -- ./inp_files/273713.got.cif
#   From: 2010.05.17/outbox.cif.g08.bks.cpg/sg2_137_cif.got.tgz:273713.got - 2010.06.03 11:33:40.
