data_PCOD9048134
_publ_section_title
;
Structure prediction by ZEFSAII (Michael W. Deem and Ramdas Pophale) SiO2 
 PCOD9048134
Probable space group: P -1
;
_chemical_formula_sum "Si O2"
_cell_formula_units_Z 14
_cell_length_a 30.968568
_cell_length_b 14.996832
_cell_length_c 25.141370
_cell_angle_alpha 20.493040
_cell_angle_beta 171.567845
_cell_angle_gamma 160.752019
_cell_volume 563.481225
_symmetry_space_group_name_H-M "P -1"
_symmetry_group_IT_number 2
_symmetry_cell_setting 'triclinic'
loop_
_space_group_symop_operation_xyz
x,y,z
-x,-y,-z
loop_
_atom_site_type_symbol
_atom_site_label
_atom_site_fract_x
_atom_site_fract_y
_atom_site_fract_z
Si Si1 0.343536 0.611943 0.882906
Si Si2 0.413511 0.436570 0.242388
Si Si3 0.692185 0.285186 0.767269
Si Si4 0.875249 0.869190 0.043079
Si Si5 0.730466 0.132471 0.106308
Si Si6 0.061448 0.494279 0.950207
Si Si7 0.533652 0.779434 0.910084
O O1 0.364324 0.355631 0.084418
O O2 0.580154 0.736153 0.052975
O O3 0.000000 0.500000 0.500000
O O4 0.411878 0.871182 0.859626
O O5 0.446821 0.277851 0.425957
O O6 0.757453 0.559694 0.565331
O O7 0.215920 0.229082 0.073127
O O8 0.286201 0.676362 0.971275
O O9 0.747724 0.008548 0.004161
O O10 0.000000 0.500000 0.000000
O O11 0.686348 0.410993 0.747758
O O12 0.214508 0.846886 0.479039
O O13 0.917385 0.175223 0.938923
O O14 0.786601 0.333088 0.012311
O O15 0.000000 0.000000 0.500000
O O16 0.500000 0.500000 0.000000
#
# Coordination Sequence:
#
# PCOD9048134 Si02
#       7
#     2   2   2   2   2   2   2
#     4  10  25  46  71 104 151 195 244 310 375 440
#     4  11  27  46  75 110 151 192 250 308 382 443
#     4  10  24  44  74 105 141 194 247 304 363 443
#     4  11  26  47  72 108 150 195 241 309 378 447
#     4  12  27  46  77 110 150 197 253 314 381 448
#     4  11  25  48  76 106 149 198 252 307 372 449
#     4  11  25  43  73 107 143 190 252 302 370 446
#
# _framework density 24.845548999999998
#
# number of rings (size 3 to 8) (size 9 to 14) (size 15 to 20)
#    0.000    1.143    1.429    2.143   10.000    9.143 
#    0.000    0.000    0.000    0.000    0.000    0.000 
#    0.000    0.000    0.000    0.000    0.000    0.000 
#
# Total GULP energy -78199.817506 kJ/mol
# GULP energy per Si atom -5585.701250 kJ/mol
# Density = 2.478900 g / cm^3
# Si number density = 24.845549 Si / 1000 Ang^3
#
#
#
# Elastic Constant Matrix: (Units=GPa)
#
#
# Indices 1 2 3 4 5 6 
#
# 1 101.7714 51.9119 37.1402 -19.7069 -37.0261 -22.6159
# 2 51.9119 208.2448 40.3092 -26.0398 -24.5494 -9.5826
# 3 37.1402 40.3092 80.5963 -12.6866 -4.4388 -22.3934
# 4 -19.7069 -26.0398 -12.6866 38.6135 -10.3054 0.1323
# 5 -37.0261 -24.5494 -4.4388 -10.3054 43.4755 0.8852
# 6 -22.6159 -9.5826 -22.3934 0.1323 0.8852 57.6066
#
#
#
# Elastic Compliance Matrix: (Units=1/GPa)
#
#
# Indices 1 2 3 4 5 6 
#
# 1 0.027298 0.000374 -0.005976 0.019481 0.027305 0.007992
# 2 0.000374 0.006355 -0.002217 0.005048 0.004872 0.000256
# 3 -0.005976 -0.002217 0.017089 -0.000205 -0.004727 0.004001
# 4 0.019481 0.005048 -0.000205 0.047281 0.030468 0.007831
# 5 0.027305 0.004872 -0.004727 0.030468 0.055568 0.008769
# 6 0.007992 0.000256 0.004001 0.007831 0.008769 0.021942
#
#
# Mechanical properties :
#
#
# Convention : Reuss Voigt Hill
#
# Bulk Modulus (GPa) = 28.48557 72.14834 50.31695
# Shear Modulus (GPa) = 24.64606 45.35588 35.00097
#
# Velocity S-wave (km/s) = 3.15297 4.27724 3.75739
# Velocity P-wave (km/s) = 4.97443 7.31401 6.25459
#
# Compressibility (1/GPa) = 0.03510550
#
# Stress axis : x y z
#
# Youngs Moduli (GPa) = 36.63291 157.35048 58.51652
#
# Poissons Ratio (x) = -0.05891 0.34968
# Poissons Ratio (y) = -0.01372 0.12973
# Poissons Ratio (z) = 0.21891 0.34884
#
# Static dielectric constant tensor:
#      x y z
#    x 2.297320 0.243930 -0.146090 
#    y 0.243930 2.175160 -0.035260 
#    z -0.146090 -0.035260 2.115410 
# 
# From -- ./inp_files/614534.got.cif
#   From: 2010.05.17/outbox.cif.g08.bks.cpg/sg2_308_cif.got.tgz:614534.got - 2010.06.03 11:33:40.
