data_PCOD9048790
_publ_section_title
;
Structure prediction by ZEFSAII (Michael W. Deem and Ramdas Pophale) SiO2 
 PCOD9048790
Probable space group: P -1
;
_chemical_formula_sum "Si O2"
_cell_formula_units_Z 15
_cell_length_a 11.489052
_cell_length_b 18.810973
_cell_length_c 9.151502
_cell_angle_alpha 135.999582
_cell_angle_beta 141.436467
_cell_angle_gamma 30.494727
_cell_volume 619.139536
_symmetry_space_group_name_H-M "P -1"
_symmetry_group_IT_number 2
_symmetry_cell_setting 'triclinic'
loop_
_space_group_symop_operation_xyz
x,y,z
-x,-y,-z
loop_
_atom_site_type_symbol
_atom_site_label
_atom_site_fract_x
_atom_site_fract_y
_atom_site_fract_z
Si Si1 0.386852 0.217067 0.314328
Si Si2 0.752485 0.861912 0.465298
Si Si3 0.926639 0.268161 0.847689
Si Si4 0.489360 0.795191 0.906846
Si Si5 0.500000 0.500000 0.000000
Si Si6 0.953949 0.949305 0.580822
Si Si7 0.814154 0.525829 0.980635
Si Si8 0.016105 0.391738 0.474194
O O1 0.416707 0.257300 0.244332
O O2 0.205097 0.330042 0.429761
O O3 0.672458 0.095020 0.476705
O O4 0.221515 0.177851 0.054386
O O5 0.909536 0.893456 0.593202
O O6 0.911202 0.736908 0.552405
O O7 0.500000 0.000000 0.500000
O O8 0.655225 0.821825 0.183491
O O9 0.732693 0.351431 0.915698
O O10 0.936276 0.162084 0.607543
O O11 0.836814 0.397394 0.845421
O O12 0.187377 0.938060 0.823748
O O13 0.540586 0.673959 0.875396
O O14 0.277541 0.514832 0.721847
O O15 0.898588 0.550006 0.247187
O O16 0.000000 0.500000 0.000000
#
# Coordination Sequence:
#
# PCOD9048790 Si02
#       8
#     2   2   2   2   1   2   2   2
#     4  11  22  47  68 101 139 186 231 291 359 399
#     4  11  23  47  70  99 143 184 229 290 351 414
#     4  11  24  42  69 100 139 184 227 291 351 407
#     4  11  26  42  70 106 134 188 234 285 351 416
#     4  10  26  40  66 106 134 178 238 286 344 412
#     4  12  25  43  75 101 139 183 240 286 346 423
#     4  11  23  46  67  96 142 187 232 277 351 423
#     4  10  24  45  72  99 142 185 231 292 356 412
#
# _framework density 24.227173000000001
#
# number of rings (size 3 to 8) (size 9 to 14) (size 15 to 20)
#    0.000    1.067    4.000    1.600    3.733    4.267 
#    0.000    1.333    0.000    0.000    0.000    0.000 
#    0.000    0.000    0.000    0.000    0.000    0.000 
#
# Total GULP energy -83714.298541 kJ/mol
# GULP energy per Si atom -5580.953236 kJ/mol
# Density = 2.417203 g / cm^3
# Si number density = 24.227173 Si / 1000 Ang^3
#
#
#
# Elastic Constant Matrix: (Units=GPa)
#
#
# Indices 1 2 3 4 5 6 
#
# 1 101.0901 33.4802 52.0617 -28.2711 -14.5623 -9.8990
# 2 33.4802 81.4227 30.0818 -37.7183 3.7968 -12.5305
# 3 52.0617 30.0818 95.6956 -28.1385 -6.9206 -9.8325
# 4 -28.2711 -37.7183 -28.1385 45.2347 -10.8088 -1.2642
# 5 -14.5623 3.7968 -6.9206 -10.8088 35.4531 -2.7130
# 6 -9.8990 -12.5305 -9.8325 -1.2642 -2.7130 49.1966
#
#
#
# Elastic Compliance Matrix: (Units=1/GPa)
#
#
# Indices 1 2 3 4 5 6 
#
# 1 0.016985 -0.000961 -0.005487 0.008592 0.008841 0.002785
# 2 -0.000961 0.022236 -0.000021 0.018926 0.003460 0.006143
# 3 -0.005487 -0.000021 0.016136 0.007465 0.003365 0.002493
# 4 0.008592 0.018926 0.007465 0.052952 0.019907 0.010500
# 5 0.008841 0.003460 0.003365 0.019907 0.038650 0.005976
# 6 0.002785 0.006143 0.002493 0.010500 0.005976 0.023549
#
#
# Mechanical properties :
#
#
# Convention : Reuss Voigt Hill
#
# Bulk Modulus (GPa) = 23.57341 56.60619 40.08980
# Shear Modulus (GPa) = 25.30575 36.81586 31.06080
#
# Velocity S-wave (km/s) = 3.23541 3.90245 3.58448
# Velocity P-wave (km/s) = 4.86913 6.61218 5.80643
#
# Compressibility (1/GPa) = 0.04242068
#
# Stress axis : x y z
#
# Youngs Moduli (GPa) = 58.87542 44.97278 61.97466
#
# Poissons Ratio (x) = 0.04320 0.34003
# Poissons Ratio (y) = 0.05656 0.00127
# Poissons Ratio (z) = 0.32303 0.00092
#
# Static dielectric constant tensor:
#      x y z
#    x 1.931780 0.056110 0.001300 
#    y 0.056110 2.014170 0.022210 
#    z 0.001300 0.022210 1.927910 
# 
# From -- ./inp_files/277389.got.cif
#   From: 2010.05.17/outbox.cif.g08.bks.cpg/sg2_139_cif.got.tgz:277389.got - 2010.06.03 11:33:40.
