data_PCOD9048170
_publ_section_title
;
Structure prediction by ZEFSAII (Michael W. Deem and Ramdas Pophale) SiO2 
 PCOD9048170
Probable space group: P -1
;
_chemical_formula_sum "Si O2"
_cell_formula_units_Z 12
_cell_length_a 4.803802
_cell_length_b 9.318106
_cell_length_c 14.550467
_cell_angle_alpha 70.247364
_cell_angle_beta 75.687423
_cell_angle_gamma 46.481222
_cell_volume 444.408618
_symmetry_space_group_name_H-M "P -1"
_symmetry_group_IT_number 2
_symmetry_cell_setting 'triclinic'
loop_
_space_group_symop_operation_xyz
x,y,z
-x,-y,-z
loop_
_atom_site_type_symbol
_atom_site_label
_atom_site_fract_x
_atom_site_fract_y
_atom_site_fract_z
Si Si1 0.100261 0.999278 0.767903
Si Si2 0.052514 0.854285 0.448836
Si Si3 0.577620 0.445225 0.742326
Si Si4 0.864652 0.420560 0.926111
Si Si5 0.089967 0.532876 0.608920
Si Si6 0.786426 0.795710 0.887981
O O1 0.396550 0.953544 0.829524
O O2 0.053777 0.837220 0.822416
O O3 0.176261 0.013106 0.652925
O O4 0.703841 0.224081 0.771159
O O5 0.932024 0.728823 0.519868
O O6 0.502147 0.669547 0.422720
O O7 0.000000 0.000000 0.500000
O O8 0.741688 0.423420 0.833994
O O9 0.176218 0.580186 0.691457
O O10 0.816630 0.484291 0.653745
O O11 0.931753 0.577153 0.894079
O O12 0.500000 0.500000 0.000000
O O13 0.205848 0.218707 0.998620
#
# Coordination Sequence:
#
# PCOD9048170 Si02
#       6
#     2   2   2   2   2   2
#     4  11  24  45  66 104 133 179 231 285 342 419
#     4  10  24  44  75 104 143 185 237 284 355 414
#     4  11  26  45  73  96 146 184 226 289 356 401
#     4  11  26  46  70 102 136 187 230 281 359 414
#     4  10  25  48  67 107 145 186 231 290 346 425
#     4  11  25  44  68  98 141 168 238 281 338 425
#
# _framework density 27.002178000000001
#
# number of rings (size 3 to 8) (size 9 to 14) (size 15 to 20)
#    0.000    1.333    1.667    2.000    9.333    8.667 
#    0.000    8.333    0.000    0.000    0.000    0.000 
#    0.000    0.000    0.000    0.000    0.000    0.000 
#
# Total GULP energy -67199.419157 kJ/mol
# GULP energy per Si atom -5599.951596 kJ/mol
# Density = 2.694072 g / cm^3
# Si number density = 27.002178 Si / 1000 Ang^3
#
#
#
# Elastic Constant Matrix: (Units=GPa)
#
#
# Indices 1 2 3 4 5 6 
#
# 1 111.0090 18.9363 61.8829 -6.1158 15.6938 23.5870
# 2 18.9363 99.5228 28.7882 -36.9429 -19.7694 44.2484
# 3 61.8829 28.7882 142.4585 -84.0965 -39.1720 86.6300
# 4 -6.1158 -36.9429 -84.0965 11.7448 -28.7450 43.4101
# 5 15.6938 -19.7694 -39.1720 -28.7450 16.1386 36.3271
# 6 23.5870 44.2484 86.6300 43.4101 36.3271 0.9559
#
#
#
# Elastic Compliance Matrix: (Units=1/GPa)
#
#
# Indices 1 2 3 4 5 6 
#
# 1 0.011969 0.000451 -0.002465 0.000977 -0.003472 -0.005268
# 2 0.000451 0.009976 -0.003844 -0.001520 -0.001475 0.000541
# 3 -0.002465 -0.003844 0.004663 -0.001700 -0.002909 0.003948
# 4 0.000977 -0.001520 -0.001700 0.011417 -0.008628 0.009784
# 5 -0.003472 -0.001475 -0.002909 -0.008628 0.021064 0.008903
# 6 -0.005268 0.000541 0.003948 0.009784 0.008903 0.010615
#
#
# Mechanical properties :
#
#
# Convention : Reuss Voigt Hill
#
# Bulk Modulus (GPa) = 67.14904 63.57832 65.36368
# Shear Modulus (GPa) = 57.88120 21.99339 39.93730
#
# Velocity S-wave (km/s) = 4.63490 2.85705 3.85000
# Velocity P-wave (km/s) = 7.31881 5.87200 6.63496
#
# Compressibility (1/GPa) = 0.01489225
#
# Stress axis : x y z
#
# Youngs Moduli (GPa) = 83.54638 100.23945 214.46467
#
# Poissons Ratio (x) = -0.04519 0.52862
# Poissons Ratio (y) = -0.03766 0.82441
# Poissons Ratio (z) = 0.20593 0.38532
#
# Static dielectric constant tensor:
#      x y z
#    x 2.123410 -0.161870 -0.005640 
#    y -0.161870 2.244280 0.118270 
#    z -0.005640 0.118270 2.156740 
# 
# From -- ./inp_files/313381.got.cif
#   From: 2010.05.17/outbox.cif.g08.bks.cpg/sg2_157_cif.got.tgz:313381.got - 2010.06.03 11:33:40.
