data_PCOD9048224
_publ_section_title
;
Structure prediction by ZEFSAII (Michael W. Deem and Ramdas Pophale) SiO2 
 PCOD9048224
Probable space group: P -1
;
_chemical_formula_sum "Si O2"
_cell_formula_units_Z 15
_cell_length_a 12.813603
_cell_length_b 5.068623
_cell_length_c 10.138309
_cell_angle_alpha 67.255153
_cell_angle_beta 108.258962
_cell_angle_gamma 85.369455
_cell_volume 561.149106
_symmetry_space_group_name_H-M "P -1"
_symmetry_group_IT_number 2
_symmetry_cell_setting 'triclinic'
loop_
_space_group_symop_operation_xyz
x,y,z
-x,-y,-z
loop_
_atom_site_type_symbol
_atom_site_label
_atom_site_fract_x
_atom_site_fract_y
_atom_site_fract_z
Si Si1 0.286451 0.703183 0.691018
Si Si2 0.575004 0.743850 0.988263
Si Si3 0.086143 0.052484 0.851280
Si Si4 0.842663 0.683057 0.419057
Si Si5 0.503168 0.667686 0.605560
Si Si6 0.700361 0.159639 0.844858
Si Si7 0.000000 0.500000 0.000000
Si Si8 0.129328 0.530837 0.243697
O O1 0.314238 0.453979 0.860790
O O2 0.186570 0.614836 0.586257
O O3 0.392765 0.666913 0.645734
O O4 0.260997 0.029137 0.676300
O O5 0.500000 0.500000 0.000000
O O6 0.500000 0.000000 0.000000
O O7 0.619918 0.928668 0.855236
O O8 0.077914 0.218270 0.676888
O O9 0.001135 0.275965 0.875356
O O10 0.210366 0.955097 0.980039
O O11 0.036913 0.769018 0.877242
O O12 0.871977 0.646781 0.591131
O O13 0.500000 0.500000 0.500000
O O14 0.609319 0.470106 0.762990
O O15 0.500000 0.000000 0.500000
O O16 0.783066 0.262501 0.750215
O O17 0.137247 0.380656 0.134881
#
# Coordination Sequence:
#
# PCOD9048224 Si02
#       8
#     2   2   2   2   2   2   1   2
#     4  12  26  48  73 116 155 198 269 309 391 482
#     4  12  26  47  78 112 153 204 260 320 390 468
#     4  11  26  50  76 115 155 203 271 324 391 467
#     4  12  28  49  82 111 162 211 253 328 399 465
#     4  12  27  48  74 111 155 200 255 319 391 471
#     4  11  24  49  78 111 155 211 254 330 392 462
#     4  10  24  44  78 106 148 196 268 318 384 454
#     4  11  26  51  75 115 158 203 273 322 396 464
#
# _framework density 26.730861000000001
#
# number of rings (size 3 to 8) (size 9 to 14) (size 15 to 20)
#    0.000    0.533    2.667    5.200    5.600    1.600 
#   16.800    0.000    0.000    0.000    0.000    0.000 
#    0.000    0.000    0.000    0.000    0.000    0.000 
#
# Total GULP energy -83724.780956 kJ/mol
# GULP energy per Si atom -5581.652064 kJ/mol
# Density = 2.667002 g / cm^3
# Si number density = 26.730861 Si / 1000 Ang^3
#
#
#
# Elastic Constant Matrix: (Units=GPa)
#
#
# Indices 1 2 3 4 5 6 
#
# 1 130.6486 49.2967 43.0347 -23.6717 -24.2978 16.9093
# 2 49.2967 164.6209 22.6493 -32.5620 -11.5719 23.7589
# 3 43.0347 22.6493 163.4559 -29.7390 -36.9096 24.2529
# 4 -23.6717 -32.5620 -29.7390 42.3258 5.6680 -9.8779
# 5 -24.2978 -11.5719 -36.9096 5.6680 53.1002 -8.6277
# 6 16.9093 23.7589 24.2529 -9.8779 -8.6277 49.4952
#
#
#
# Elastic Compliance Matrix: (Units=1/GPa)
#
#
# Indices 1 2 3 4 5 6 
#
# 1 0.009883 -0.001949 -0.001048 0.002693 0.002939 -0.000877
# 2 -0.001949 0.007907 0.000775 0.004905 0.000448 -0.002452
# 3 -0.001048 0.000775 0.008604 0.004851 0.004757 -0.002433
# 4 0.002693 0.004905 0.004851 0.032272 0.002425 0.001212
# 5 0.002939 0.000448 0.004757 0.002425 0.023489 0.001029
# 6 -0.000877 -0.002452 -0.002433 0.001212 0.001029 0.023294
#
#
# Mechanical properties :
#
#
# Convention : Reuss Voigt Hill
#
# Bulk Modulus (GPa) = 45.55960 76.52076 61.04018
# Shear Modulus (GPa) = 42.65779 51.90054 47.27917
#
# Velocity S-wave (km/s) = 3.99911 4.41114 4.21017
# Velocity P-wave (km/s) = 6.19715 7.39139 6.82046
#
# Compressibility (1/GPa) = 0.02194927
#
# Stress axis : x y z
#
# Youngs Moduli (GPa) = 101.18416 126.46377 116.22440
#
# Poissons Ratio (x) = 0.24654 0.12182
# Poissons Ratio (y) = 0.19726 -0.09008
# Poissons Ratio (z) = 0.10605 -0.09801
#
# Static dielectric constant tensor:
#      x y z
#    x 2.140950 -0.106250 0.061550 
#    y -0.106250 2.713300 0.325820 
#    z 0.061550 0.325820 2.259570 
# 
# From -- ./inp_files/408978.got.cif
#   From: 2010.05.17/outbox.cif.g08.bks.cpg/sg2_205_cif.got.tgz:408978.got - 2010.06.03 11:33:40.
