data_PCOD9048071
_publ_section_title
;
Structure prediction by ZEFSAII (Michael W. Deem and Ramdas Pophale) SiO2 
 PCOD9048071
Probable space group: P -1
;
_chemical_formula_sum "Si O2"
_cell_formula_units_Z 12
_cell_length_a 9.672074
_cell_length_b 10.015163
_cell_length_c 8.336793
_cell_angle_alpha 85.799178
_cell_angle_beta 74.467735
_cell_angle_gamma 40.866894
_cell_volume 498.279741
_symmetry_space_group_name_H-M "P -1"
_symmetry_group_IT_number 2
_symmetry_cell_setting 'triclinic'
loop_
_space_group_symop_operation_xyz
x,y,z
-x,-y,-z
loop_
_atom_site_type_symbol
_atom_site_label
_atom_site_fract_x
_atom_site_fract_y
_atom_site_fract_z
Si Si1 0.749918 0.320964 0.871703
Si Si2 0.779698 0.711286 0.466333
Si Si3 0.072977 0.306564 0.922847
Si Si4 0.818651 0.975976 0.834314
Si Si5 0.383989 0.886086 0.423855
Si Si6 0.758027 0.295559 0.490492
O O1 0.878804 0.344080 0.924641
O O2 0.768386 0.329426 0.671910
O O3 0.843737 0.104439 0.891028
O O4 0.500000 0.500000 0.000000
O O5 0.589945 0.735305 0.496227
O O6 0.000000 0.500000 0.500000
O O7 0.808743 0.740735 0.273956
O O8 0.700955 0.901440 0.561043
O O9 0.000000 0.500000 0.000000
O O10 0.212198 0.120542 0.022814
O O11 0.046526 0.784354 0.676050
O O12 0.603645 0.144905 0.768359
O O13 0.218702 0.883320 0.519401
O O14 0.500000 0.500000 0.500000
#
# Coordination Sequence:
#
# PCOD9048071 Si02
#       6
#     2   2   2   2   2   2
#     4  11  25  45  71 106 146 191 248 296 363 431
#     4  11  25  46  70 102 147 187 242 293 375 431
#     4  12  27  42  71 104 149 188 233 305 362 429
#     4  11  24  48  71 104 149 187 248 299 361 438
#     4  10  24  44  73 103 135 193 240 301 356 437
#     4  11  24  43  79 103 139 192 250 296 362 431
#
# _framework density 24.082858999999999
#
# number of rings (size 3 to 8) (size 9 to 14) (size 15 to 20)
#    0.000    1.000    0.000    6.500   11.667    2.000 
#    3.000    0.000    0.000    0.000    0.000    0.000 
#    0.000    0.000    0.000    0.000    0.000    0.000 
#
# Total GULP energy -67080.397455 kJ/mol
# GULP energy per Si atom -5590.033121 kJ/mol
# Density = 2.402805 g / cm^3
# Si number density = 24.082859 Si / 1000 Ang^3
#
#
#
# Elastic Constant Matrix: (Units=GPa)
#
#
# Indices 1 2 3 4 5 6 
#
# 1 149.2859 36.8043 6.2745 5.2671 33.2121 15.6880
# 2 36.8043 110.1789 30.2364 -5.7375 14.4529 0.5314
# 3 6.2745 30.2364 84.7535 -2.9543 4.9072 6.7818
# 4 5.2671 -5.7375 -2.9543 45.3874 -2.9429 0.6009
# 5 33.2121 14.4529 4.9072 -2.9429 33.5620 -3.8133
# 6 15.6880 0.5314 6.7818 0.6009 -3.8133 47.3147
#
#
#
# Elastic Compliance Matrix: (Units=1/GPa)
#
#
# Indices 1 2 3 4 5 6 
#
# 1 0.009865 -0.002385 0.000933 -0.001948 -0.009510 -0.004119
# 2 -0.002385 0.011187 -0.003756 0.001324 -0.001672 0.001052
# 3 0.000933 -0.003756 0.013349 0.000219 -0.001500 -0.002304
# 4 -0.001948 0.001324 0.000219 0.022651 0.003378 0.000584
# 5 -0.009510 -0.001672 -0.001500 0.003378 0.041199 0.006665
# 6 -0.004119 0.001052 -0.002304 0.000584 0.006665 0.023349
#
#
# Mechanical properties :
#
#
# Convention : Reuss Voigt Hill
#
# Bulk Modulus (GPa) = 41.69391 54.53875 48.11633
# Shear Modulus (GPa) = 35.71158 43.31303 39.51231
#
# Velocity S-wave (km/s) = 3.85497 4.24547 4.05493
# Velocity P-wave (km/s) = 6.09629 6.83575 6.47658
#
# Compressibility (1/GPa) = 0.02398432
#
# Stress axis : x y z
#
# Youngs Moduli (GPa) = 101.37107 89.39077 74.91442
#
# Poissons Ratio (x) = 0.21323 -0.06990
# Poissons Ratio (y) = 0.24181 0.28135
# Poissons Ratio (z) = -0.09458 0.33572
#
# Static dielectric constant tensor:
#      x y z
#    x 1.936790 -0.083830 -0.138300 
#    y -0.083830 1.954720 -0.052000 
#    z -0.138300 -0.052000 1.872640 
# 
# From -- ./inp_files/149824.got.cif
#   From: 2010.05.17/outbox.cif.g08.bks.cpg/sg2_75_cif.got.tgz:149824.got - 2010.06.03 11:33:40.
