data_PCOD9048458
_publ_section_title
;
Structure prediction by ZEFSAII (Michael W. Deem and Ramdas Pophale) SiO2 
 PCOD9048458
Probable space group: P -1
;
_chemical_formula_sum "Si O2"
_cell_formula_units_Z 16
_cell_length_a 14.894212
_cell_length_b 22.876351
_cell_length_c 6.291732
_cell_angle_alpha 77.554279
_cell_angle_beta 104.369305
_cell_angle_gamma 159.967921
_cell_volume 710.355220
_symmetry_space_group_name_H-M "P -1"
_symmetry_group_IT_number 2
_symmetry_cell_setting 'triclinic'
loop_
_space_group_symop_operation_xyz
x,y,z
-x,-y,-z
loop_
_atom_site_type_symbol
_atom_site_label
_atom_site_fract_x
_atom_site_fract_y
_atom_site_fract_z
Si Si1 0.235840 0.703081 0.190444
Si Si2 0.829196 0.512120 0.398304
Si Si3 0.291186 0.828362 0.744269
Si Si4 0.696369 0.032231 0.479397
Si Si5 0.463880 0.340786 0.007525
Si Si6 0.265745 0.315501 0.581461
Si Si7 0.049971 0.087312 0.312581
Si Si8 0.532901 0.274359 0.778249
O O1 0.262547 0.655558 0.130331
O O2 0.977189 0.555197 0.297841
O O3 0.487816 0.862578 0.372476
O O4 0.248929 0.764614 0.980352
O O5 0.599719 0.341817 0.532819
O O6 0.047397 0.667317 0.568664
O O7 0.705178 0.489481 0.199253
O O8 0.292592 0.900759 0.709666
O O9 0.557028 0.968296 0.667866
O O10 0.986410 0.179901 0.563796
O O11 0.378002 0.347084 0.824146
O O12 0.540539 0.334624 0.894682
O O13 0.212433 0.170249 0.134003
O O14 0.500000 0.500000 0.500000
O O15 0.201959 0.228748 0.427590
O O16 0.000000 0.000000 0.500000
O O17 0.755069 0.928779 0.205977
#
# Coordination Sequence:
#
# PCOD9048458 Si02
#       8
#     2   2   2   2   2   2   2   2
#     4  11  24  43  74 102 136 188 231 291 361 417
#     4  11  25  44  69 105 146 178 233 294 359 428
#     4  10  24  46  70 100 139 185 232 290 352 425
#     4  10  24  45  69 100 138 179 237 292 346 426
#     4  12  27  45  74 104 143 198 230 297 363 423
#     4  12  29  47  74 108 146 187 243 301 356 429
#     4  12  25  48  72 106 145 192 242 291 356 432
#     4  12  25  44  70 105 143 179 242 293 354 429
#
# _framework density 22.523942999999999
#
# number of rings (size 3 to 8) (size 9 to 14) (size 15 to 20)
#    0.000    0.750    3.750    1.875    7.000    4.500 
#    0.000    0.000    0.000    0.000    0.000    0.000 
#    0.000    0.000    0.000    0.000    0.000    0.000 
#
# Total GULP energy -89545.857564 kJ/mol
# GULP energy per Si atom -5596.616098 kJ/mol
# Density = 2.247268 g / cm^3
# Si number density = 22.523943 Si / 1000 Ang^3
#
#
#
# Elastic Constant Matrix: (Units=GPa)
#
#
# Indices 1 2 3 4 5 6 
#
# 1 118.0062 54.3817 37.5506 -10.3551 1.3550 18.3182
# 2 54.3817 129.6954 61.3607 0.4046 5.9137 28.7568
# 3 37.5506 61.3607 78.3678 -14.8021 3.7239 5.5457
# 4 -10.3551 0.4046 -14.8021 45.4159 8.5315 3.3220
# 5 1.3550 5.9137 3.7239 8.5315 25.3631 -6.2756
# 6 18.3182 28.7568 5.5457 3.3220 -6.2756 39.6951
#
#
#
# Elastic Compliance Matrix: (Units=1/GPa)
#
#
# Indices 1 2 3 4 5 6 
#
# 1 0.011259 -0.002773 -0.002527 0.002212 -0.001119 -0.003196
# 2 -0.002773 0.016468 -0.011353 -0.003186 -0.003257 -0.009312
# 3 -0.002527 -0.011353 0.023974 0.007328 -0.001935 0.005122
# 4 0.002212 -0.003186 0.007328 0.027181 -0.010503 -0.003672
# 5 -0.001119 -0.003257 -0.001935 -0.010503 0.046894 0.011439
# 6 -0.003196 -0.009312 0.005122 -0.003672 0.011439 0.034813
#
#
# Mechanical properties :
#
#
# Convention : Reuss Voigt Hill
#
# Bulk Modulus (GPa) = 54.36201 70.29504 62.32853
# Shear Modulus (GPa) = 24.99666 33.61323 29.30495
#
# Velocity S-wave (km/s) = 3.33495 3.86726 3.61093
# Velocity P-wave (km/s) = 6.24634 7.15666 6.71694
#
# Compressibility (1/GPa) = 0.01839520
#
# Stress axis : x y z
#
# Youngs Moduli (GPa) = 88.81750 60.72481 41.71183
#
# Poissons Ratio (x) = 0.16838 0.10539
# Poissons Ratio (y) = 0.24627 0.47357
# Poissons Ratio (z) = 0.22440 0.68943
#
# Static dielectric constant tensor:
#      x y z
#    x 1.925170 0.104850 0.104500 
#    y 0.104850 1.937360 0.133500 
#    z 0.104500 0.133500 1.927810 
# 
# From -- ./inp_files/101095.got.cif
#   From: 2010.05.17/outbox.cif.g08.bks.cpg/sg2_51_cif.got.tgz:101095.got - 2010.06.03 11:33:40.
