data_PCOD9048491
_publ_section_title
;
Structure prediction by ZEFSAII (Michael W. Deem and Ramdas Pophale) SiO2 
 PCOD9048491
Probable space group: P -1
;
_chemical_formula_sum "Si O2"
_cell_formula_units_Z 12
_cell_length_a 9.644607
_cell_length_b 14.342368
_cell_length_c 8.927265
_cell_angle_alpha 86.261768
_cell_angle_beta 58.842582
_cell_angle_gamma 38.256807
_cell_volume 500.735674
_symmetry_space_group_name_H-M "P -1"
_symmetry_group_IT_number 2
_symmetry_cell_setting 'triclinic'
loop_
_space_group_symop_operation_xyz
x,y,z
-x,-y,-z
loop_
_atom_site_type_symbol
_atom_site_label
_atom_site_fract_x
_atom_site_fract_y
_atom_site_fract_z
Si Si1 0.354959 0.821618 0.912653
Si Si2 0.817518 0.232042 0.453521
Si Si3 0.321263 0.040998 0.958115
Si Si4 0.337315 0.515550 0.282088
Si Si5 0.922382 0.804309 0.227715
Si Si6 0.845117 0.020532 0.418843
O O1 0.611779 0.620160 0.711563
O O2 0.213578 0.862302 0.152721
O O3 0.497871 0.853290 0.840139
O O4 0.000000 0.000000 0.000000
O O5 0.690663 0.392551 0.582194
O O6 0.969391 0.184578 0.214738
O O7 0.083361 0.060523 0.450578
O O8 0.634426 0.224285 0.527536
O O9 0.255868 0.132427 0.834925
O O10 0.500000 0.000000 0.000000
O O11 0.024341 0.689217 0.323104
O O12 0.700747 0.355579 0.019328
O O13 0.730632 0.993384 0.379964
#
# Coordination Sequence:
#
# PCOD9048491 Si02
#       6
#     2   2   2   2   2   2
#     4  10  17  34  59  77 102 141 179 213 266 316
#     4   9  18  30  53  84 108 130 176 230 261 292
#     4  11  22  36  52  77 113 147 175 206 267 332
#     4   9  17  32  56  81 102 129 184 232 253 303
#     4   9  17  33  54  77 106 142 172 213 274 310
#     4   8  15  31  52  78 106 130 177 216 258 310
#
# _framework density 23.964739000000002
#
# number of rings (size 3 to 8) (size 9 to 14) (size 15 to 20)
#    0.000    2.667    3.333    1.000    0.000    0.667 
#    0.000    5.000    0.000    0.000    0.000    0.000 
#    0.000    0.000    0.000    0.000    0.000    0.000 
#
# Total GULP energy -66803.767143 kJ/mol
# GULP energy per Si atom -5566.980595 kJ/mol
# Density = 2.391019 g / cm^3
# Si number density = 23.964739 Si / 1000 Ang^3
#
#
#
# Elastic Constant Matrix: (Units=GPa)
#
#
# Indices 1 2 3 4 5 6 
#
# 1 110.2789 79.8729 27.8622 12.8730 52.6760 3.7321
# 2 79.8729 120.7701 40.8207 2.6365 34.7696 11.9673
# 3 27.8622 40.8207 94.4257 -4.5224 27.3677 11.8150
# 4 12.8730 2.6365 -4.5224 36.0715 9.9917 23.2122
# 5 52.6760 34.7696 27.3677 9.9917 55.9741 10.1429
# 6 3.7321 11.9673 11.8150 23.2122 10.1429 42.3972
#
#
#
# Elastic Compliance Matrix: (Units=1/GPa)
#
#
# Indices 1 2 3 4 5 6 
#
# 1 0.031106 -0.016338 0.001400 -0.012711 -0.019934 0.013212
# 2 -0.016338 0.019516 -0.003623 0.008161 0.005155 -0.008762
# 3 0.001400 -0.003623 0.014617 0.006848 -0.006462 -0.005377
# 4 -0.012711 0.008161 0.006848 0.053308 -0.000127 -0.032248
# 5 -0.019934 0.005155 -0.006462 -0.000127 0.037853 -0.006886
# 6 0.013212 -0.008762 -0.005377 -0.032248 -0.006886 0.045698
#
#
# Mechanical properties :
#
#
# Convention : Reuss Voigt Hill
#
# Bulk Modulus (GPa) = 35.56518 69.17626 52.37072
# Shear Modulus (GPa) = 20.11317 38.68316 29.39816
#
# Velocity S-wave (km/s) = 2.90018 4.02203 3.50626
# Velocity P-wave (km/s) = 5.10760 7.10616 6.18810
#
# Compressibility (1/GPa) = 0.02811739
#
# Stress axis : x y z
#
# Youngs Moduli (GPa) = 32.14801 51.23907 68.41294
#
# Poissons Ratio (x) = 0.83717 -0.09580
# Poissons Ratio (y) = 0.52525 0.24786
# Poissons Ratio (z) = -0.04502 0.18564
#
# Static dielectric constant tensor:
#      x y z
#    x 2.062290 0.054040 -0.008710 
#    y 0.054040 1.988760 0.011680 
#    z -0.008710 0.011680 1.985810 
# 
# From -- ./inp_files/194879.got.cif
#   From: 2010.05.17/outbox.cif.g08.bks.cpg/sg2_98_cif.got.tgz:194879.got - 2010.06.03 11:33:40.
