data_PCOD9048681
_publ_section_title
;
Structure prediction by ZEFSAII (Michael W. Deem and Ramdas Pophale) SiO2 
 PCOD9048681
Probable space group: P -1
;
_chemical_formula_sum "Si O2"
_cell_formula_units_Z 14
_cell_length_a 13.588687
_cell_length_b 7.231253
_cell_length_c 12.978021
_cell_angle_alpha 127.488939
_cell_angle_beta 40.384586
_cell_angle_gamma 141.462958
_cell_volume 514.519317
_symmetry_space_group_name_H-M "P -1"
_symmetry_group_IT_number 2
_symmetry_cell_setting 'triclinic'
loop_
_space_group_symop_operation_xyz
x,y,z
-x,-y,-z
loop_
_atom_site_type_symbol
_atom_site_label
_atom_site_fract_x
_atom_site_fract_y
_atom_site_fract_z
Si Si1 0.067301 0.756983 0.755508
Si Si2 0.437792 0.324757 0.694487
Si Si3 0.131839 0.281519 0.567961
Si Si4 0.235735 0.578267 0.967471
Si Si5 0.188254 0.541094 0.324989
Si Si6 0.404555 0.993463 0.803869
Si Si7 0.778887 0.924176 0.848375
O O1 0.122318 0.539410 0.626550
O O2 0.884661 0.619409 0.780846
O O3 0.249122 0.088053 0.695940
O O4 0.978778 0.701847 0.922086
O O5 0.641582 0.552974 0.554421
O O6 0.382474 0.514772 0.857175
O O7 0.422306 0.087489 0.703999
O O8 0.011289 0.148017 0.724596
O O9 0.000000 0.000000 0.500000
O O10 0.264162 0.665200 0.853191
O O11 0.272332 0.868809 0.088834
O O12 0.380651 0.874806 0.285546
O O13 0.000000 0.500000 0.500000
O O14 0.264132 0.373829 0.262071
O O15 0.326465 0.140650 0.981159
#
# Coordination Sequence:
#
# PCOD9048681 Si02
#       7
#     2   2   2   2   2   2   2
#     4  11  25  45  70 104 145 182 231 291 354 412
#     4  12  24  47  75 101 141 187 230 289 354 413
#     4  11  24  43  69 103 138 185 235 286 341 414
#     4   9  24  43  71 104 136 182 237 287 346 418
#     4  12  24  42  71 106 144 182 235 291 347 415
#     4  10  24  45  71 103 140 183 236 286 348 416
#     4   9  22  42  64 103 137 178 231 291 338 410
#
# _framework density 27.209862999999999
#
# number of rings (size 3 to 8) (size 9 to 14) (size 15 to 20)
#    0.857    0.571    0.000    4.714    4.000    2.286 
#    5.143    0.714    0.000    0.000    0.000    0.000 
#    0.000    0.000    0.000    0.000    0.000    0.000 
#
# Total GULP energy -78123.821274 kJ/mol
# GULP energy per Si atom -5580.272948 kJ/mol
# Density = 2.714793 g / cm^3
# Si number density = 27.209863 Si / 1000 Ang^3
#
#
#
# Elastic Constant Matrix: (Units=GPa)
#
#
# Indices 1 2 3 4 5 6 
#
# 1 67.8487 28.5223 19.3078 -6.9179 -8.8100 -0.8268
# 2 28.5223 133.3915 58.5905 -3.5067 -12.2669 0.7777
# 3 19.3078 58.5905 164.6527 -31.4698 -27.9172 -2.1893
# 4 -6.9179 -3.5067 -31.4698 48.4119 -9.7620 -6.0338
# 5 -8.8100 -12.2669 -27.9172 -9.7620 37.0680 2.6179
# 6 -0.8268 0.7777 -2.1893 -6.0338 2.6179 38.9530
#
#
#
# Elastic Compliance Matrix: (Units=1/GPa)
#
#
# Indices 1 2 3 4 5 6 
#
# 1 0.016914 -0.003417 0.000637 0.003530 0.004248 0.000724
# 2 -0.003417 0.009704 -0.003709 -0.002496 -0.000995 -0.000794
# 3 0.000637 -0.003709 0.010524 0.008660 0.009031 0.001414
# 4 0.003530 -0.002496 0.008660 0.029996 0.014131 0.004308
# 5 0.004248 -0.000995 0.009031 0.014131 0.038163 0.000242
# 6 0.000724 -0.000794 0.001414 0.004308 0.000242 0.026434
#
#
# Mechanical properties :
#
#
# Convention : Reuss Voigt Hill
#
# Bulk Modulus (GPa) = 41.38361 64.30377 52.84369
# Shear Modulus (GPa) = 32.72959 42.18474 37.45716
#
# Velocity S-wave (km/s) = 3.47199 3.94172 3.71428
# Velocity P-wave (km/s) = 5.59598 6.66333 6.15284
#
# Compressibility (1/GPa) = 0.02416416
#
# Stress axis : x y z
#
# Youngs Moduli (GPa) = 59.12163 103.05101 95.02455
#
# Poissons Ratio (x) = 0.35216 -0.06055
# Poissons Ratio (y) = 0.20204 0.35242
# Poissons Ratio (z) = -0.03767 0.38218
#
# Static dielectric constant tensor:
#      x y z
#    x 2.279180 0.005800 0.056050 
#    y 0.005800 2.169230 0.020440 
#    z 0.056050 0.020440 2.117530 
# 
# From -- ./inp_files/575588.got.cif
#   From: 2010.05.17/outbox.cif.g08.bks.cpg/sg2_288_cif.got.tgz:575588.got - 2010.06.03 11:33:40.
