data_PCOD9048813
_publ_section_title
;
Structure prediction by ZEFSAII (Michael W. Deem and Ramdas Pophale) SiO2 
 PCOD9048813
Probable space group: P -1
;
_chemical_formula_sum "Si O2"
_cell_formula_units_Z 13
_cell_length_a 8.785584
_cell_length_b 6.699521
_cell_length_c 19.001572
_cell_angle_alpha 126.303150
_cell_angle_beta 37.482193
_cell_angle_gamma 117.525672
_cell_volume 548.404142
_symmetry_space_group_name_H-M "P -1"
_symmetry_group_IT_number 2
_symmetry_cell_setting 'triclinic'
loop_
_space_group_symop_operation_xyz
x,y,z
-x,-y,-z
loop_
_atom_site_type_symbol
_atom_site_label
_atom_site_fract_x
_atom_site_fract_y
_atom_site_fract_z
Si Si1 0.399758 0.309760 0.937089
Si Si2 0.678530 0.779639 0.560444
Si Si3 0.388048 0.645397 0.281218
Si Si4 0.918857 0.602397 0.146366
Si Si5 0.144544 0.520221 0.700549
Si Si6 0.000000 0.500000 0.500000
Si Si7 0.248849 0.033914 0.054310
O O1 0.580236 0.327136 0.808225
O O2 0.500000 0.500000 0.000000
O O3 0.354117 0.053638 0.940433
O O4 0.125031 0.384388 0.025247
O O5 0.394897 0.683345 0.646621
O O6 0.816056 0.655373 0.417189
O O7 0.810470 0.683229 0.562386
O O8 0.673754 0.073486 0.612743
O O9 0.656697 0.565823 0.197594
O O10 0.182090 0.478236 0.357900
O O11 0.873548 0.639365 0.254377
O O12 0.061780 0.822811 0.101833
O O13 0.914233 0.714658 0.821427
O O14 0.500000 0.000000 0.000000
#
# Coordination Sequence:
#
# PCOD9048813 Si02
#       7
#     2   2   2   2   2   1   2
#     4  11  26  46  70 107 142 186 241 305 355 428
#     4  11  25  47  69 105 141 199 231 300 352 435
#     4  12  27  48  70 104 148 187 247 291 367 425
#     4  11  23  46  72 105 141 190 231 303 363 426
#     4  10  24  45  73 103 148 180 249 286 360 435
#     4  12  28  46  68 104 146 194 238 304 350 412
#     4  11  23  42  74 107 136 189 237 298 362 420
#
# _framework density 23.705147
#
# number of rings (size 3 to 8) (size 9 to 14) (size 15 to 20)
#    0.000    0.923    4.615    0.923    4.308    4.923 
#    0.000    0.000    0.000    0.000    0.000    0.000 
#    0.000    0.000    0.000    0.000    0.000    0.000 
#
# Total GULP energy -72479.119973 kJ/mol
# GULP energy per Si atom -5575.316921 kJ/mol
# Density = 2.365119 g / cm^3
# Si number density = 23.705147 Si / 1000 Ang^3
#
#
#
# Elastic Constant Matrix: (Units=GPa)
#
#
# Indices 1 2 3 4 5 6 
#
# 1 84.2226 37.8685 55.1177 -2.7893 -5.7794 -23.9387
# 2 37.8685 85.7417 42.3580 -28.1090 19.8434 -29.2066
# 3 55.1177 42.3580 140.9930 -40.5867 -0.7488 -18.5649
# 4 -2.7893 -28.1090 -40.5867 60.3415 -16.7901 1.7700
# 5 -5.7794 19.8434 -0.7488 -16.7901 51.6958 -8.1148
# 6 -23.9387 -29.2066 -18.5649 1.7700 -8.1148 35.8944
#
#
#
# Elastic Compliance Matrix: (Units=1/GPa)
#
#
# Indices 1 2 3 4 5 6 
#
# 1 0.021510 -0.006620 -0.007332 -0.006138 0.003841 0.006337
# 2 -0.006620 0.022873 -0.000200 0.008515 -0.004781 0.012592
# 3 -0.007332 -0.000200 0.012807 0.008852 0.002587 0.001720
# 4 -0.006138 0.008515 0.008852 0.027760 0.006364 0.007483
# 5 0.003841 -0.004781 0.002587 0.006364 0.024536 0.005243
# 6 0.006337 0.012592 0.001720 0.007483 0.005243 0.044037
#
#
# Mechanical properties :
#
#
# Convention : Reuss Voigt Hill
#
# Bulk Modulus (GPa) = 34.61983 64.62733 49.62358
# Shear Modulus (GPa) = 26.11569 41.29389 33.70479
#
# Velocity S-wave (km/s) = 3.32277 4.17823 3.77481
# Velocity P-wave (km/s) = 5.41822 7.11330 6.32282
#
# Compressibility (1/GPa) = 0.02888518
#
# Stress axis : x y z
#
# Youngs Moduli (GPa) = 46.49053 43.72047 78.08143
#
# Poissons Ratio (x) = 0.28945 0.57249
# Poissons Ratio (y) = 0.30779 0.01560
# Poissons Ratio (z) = 0.34087 0.00873
#
# Static dielectric constant tensor:
#      x y z
#    x 1.927230 0.049060 0.019950 
#    y 0.049060 1.889240 0.007150 
#    z 0.019950 0.007150 1.908210 
# 
# From -- ./inp_files/24396.got.cif
#   From: 2010.05.17/outbox.cif.g08.bks.cpg/sg2_13_cif.got.tgz:24396.got - 2010.06.03 11:33:40.
