data_PCOD9048772
_publ_section_title
;
Structure prediction by ZEFSAII (Michael W. Deem and Ramdas Pophale) SiO2 
 PCOD9048772
Probable space group: P -1
;
_chemical_formula_sum "Si O2"
_cell_formula_units_Z 12
_cell_length_a 5.485720
_cell_length_b 9.008150
_cell_length_c 9.782371
_cell_angle_alpha 90.560883
_cell_angle_beta 108.435569
_cell_angle_gamma 103.844685
_cell_volume 443.355057
_symmetry_space_group_name_H-M "P -1"
_symmetry_group_IT_number 2
_symmetry_cell_setting 'triclinic'
loop_
_space_group_symop_operation_xyz
x,y,z
-x,-y,-z
loop_
_atom_site_type_symbol
_atom_site_label
_atom_site_fract_x
_atom_site_fract_y
_atom_site_fract_z
Si Si1 0.107166 0.375357 0.767758
Si Si2 0.388040 0.158214 0.949493
Si Si3 0.949617 0.926606 0.345079
Si Si4 0.335771 0.166014 0.253993
Si Si5 0.925703 0.358962 0.094305
Si Si6 0.714418 0.403286 0.512592
O O1 0.223653 0.288895 0.906204
O O2 0.148239 0.257606 0.655650
O O3 0.217017 0.555524 0.814934
O O4 0.799123 0.361085 0.679593
O O5 0.260080 0.044662 0.803950
O O6 0.355132 0.116150 0.100603
O O7 0.696578 0.230532 0.982866
O O8 0.000000 0.000000 0.500000
O O9 0.216299 0.007837 0.312175
O O10 0.581117 0.260415 0.390336
O O11 0.138341 0.282454 0.203248
O O12 0.000000 0.500000 0.000000
O O13 0.500000 0.500000 0.500000
O O14 0.000000 0.500000 0.500000
#
# Coordination Sequence:
#
# PCOD9048772 Si02
#       6
#     2   2   2   2   2   2
#     4  10  24  45  72 109 155 199 262 317 403 461
#     4  10  25  47  76 107 156 199 268 317 405 469
#     4  10  26  48  75 111 157 211 262 326 400 479
#     4  12  26  46  76 114 156 202 266 327 402 475
#     4  12  23  42  79 114 148 201 261 333 391 470
#     4  12  28  46  79 119 161 205 265 335 402 476
#
# _framework density 27.06634
#
# number of rings (size 3 to 8) (size 9 to 14) (size 15 to 20)
#    1.000    0.000    3.333    2.000    4.667    2.667 
#    0.000    0.000    0.000    0.000    0.000    0.000 
#    0.000    0.000    0.000    0.000    0.000    0.000 
#
# Total GULP energy -66860.495051 kJ/mol
# GULP energy per Si atom -5571.707921 kJ/mol
# Density = 2.700474 g / cm^3
# Si number density = 27.066340 Si / 1000 Ang^3
#
#
#
# Elastic Constant Matrix: (Units=GPa)
#
#
# Indices 1 2 3 4 5 6 
#
# 1 94.0072 32.6477 18.0441 -6.9904 31.1599 -0.6137
# 2 32.6477 98.2918 40.7648 10.5092 6.7156 -7.0758
# 3 18.0441 40.7648 149.4914 32.6105 27.0718 18.1827
# 4 -6.9904 10.5092 32.6105 66.0660 5.8152 13.2780
# 5 31.1599 6.7156 27.0718 5.8152 44.0980 -2.9622
# 6 -0.6137 -7.0758 18.1827 13.2780 -2.9622 61.7567
#
#
#
# Elastic Compliance Matrix: (Units=1/GPa)
#
#
# Indices 1 2 3 4 5 6 
#
# 1 0.016761 -0.005802 0.001288 0.003601 -0.012376 -0.002245
# 2 -0.005802 0.013853 -0.003940 -0.001977 0.004895 0.003349
# 3 0.001288 -0.003940 0.009702 -0.002895 -0.006083 -0.002965
# 4 0.003601 -0.001977 -0.002895 0.018217 -0.003098 -0.003404
# 5 -0.012376 0.004895 -0.006083 -0.003098 0.035127 0.004580
# 6 -0.002245 0.003349 -0.002965 -0.003404 0.004580 0.018378
#
#
# Mechanical properties :
#
#
# Convention : Reuss Voigt Hill
#
# Bulk Modulus (GPa) = 42.72189 58.30039 50.51114
# Shear Modulus (GPa) = 36.56330 51.07308 43.81819
#
# Velocity S-wave (km/s) = 3.67942 4.34863 4.02794
# Velocity P-wave (km/s) = 5.81973 6.84110 6.35098
#
# Compressibility (1/GPa) = 0.02340720
#
# Stress axis : x y z
#
# Youngs Moduli (GPa) = 59.66358 72.18647 103.07244
#
# Poissons Ratio (x) = 0.41885 -0.13274
# Poissons Ratio (y) = 0.34619 0.40608
# Poissons Ratio (z) = -0.07684 0.28440
#
# Static dielectric constant tensor:
#      x y z
#    x 2.224170 -0.036380 -0.169380 
#    y -0.036380 2.212150 -0.098950 
#    z -0.169380 -0.098950 2.344730 
# 
# From -- ./inp_files/360267.got.cif
#   From: 2010.05.17/outbox.cif.g08.bks.cpg/sg2_181_cif.got.tgz:360267.got - 2010.06.03 11:33:40.
