data_PCOD9048389
_publ_section_title
;
Structure prediction by ZEFSAII (Michael W. Deem and Ramdas Pophale) SiO2 
 PCOD9048389
Probable space group: P -1
;
_chemical_formula_sum "Si O2"
_cell_formula_units_Z 16
_cell_length_a 5.928433
_cell_length_b 21.886299
_cell_length_c 10.528666
_cell_angle_alpha 140.804686
_cell_angle_beta 81.263025
_cell_angle_gamma 73.551604
_cell_volume 654.403799
_symmetry_space_group_name_H-M "P -1"
_symmetry_group_IT_number 2
_symmetry_cell_setting 'triclinic'
loop_
_space_group_symop_operation_xyz
x,y,z
-x,-y,-z
loop_
_atom_site_type_symbol
_atom_site_label
_atom_site_fract_x
_atom_site_fract_y
_atom_site_fract_z
Si Si1 0.681352 0.409811 0.488141
Si Si2 0.035077 0.875639 0.782087
Si Si3 0.819046 0.846517 0.021269
Si Si4 0.762764 0.472264 0.850998
Si Si5 0.122986 0.858836 0.257134
Si Si6 0.346341 0.293646 0.682638
Si Si7 0.765483 0.892486 0.568723
Si Si8 0.648696 0.614415 0.705461
O O1 0.749597 0.413527 0.632222
O O2 0.523137 0.550972 0.683462
O O3 0.476152 0.374503 0.408090
O O4 0.013486 0.301509 0.229536
O O5 0.363570 0.767700 0.526002
O O6 0.956710 0.854971 0.893321
O O7 0.829790 0.891332 0.710257
O O8 0.000000 0.000000 0.000000
O O9 0.927784 0.864256 0.170612
O O10 0.473500 0.962225 0.219984
O O11 0.065885 0.373614 0.741415
O O12 0.500000 0.500000 0.000000
O O13 0.708786 0.601892 0.049023
O O14 0.050097 0.830914 0.354886
O O15 0.462625 0.749794 0.006763
O O16 0.000000 0.000000 0.500000
O O17 0.357645 0.182790 0.561177
O O18 0.000000 0.500000 0.500000
#
# Coordination Sequence:
#
# PCOD9048389 Si02
#       8
#     2   2   2   2   2   2   2   2
#     4  10  24  45  68 102 137 183 243 297 352 448
#     4  12  25  45  71 110 146 190 251 299 371 448
#     4  11  24  47  73 102 147 193 241 305 370 444
#     4  11  25  46  71 106 143 187 246 302 367 448
#     4  11  27  48  74 109 148 193 251 309 369 448
#     4  11  26  44  72 109 147 196 233 313 379 434
#     4  12  26  46  74 109 151 190 247 311 375 445
#     4  10  25  48  72 102 139 194 241 302 370 439
#
# _framework density 24.449736999999999
#
# number of rings (size 3 to 8) (size 9 to 14) (size 15 to 20)
#    0.000    1.000    1.250    3.750    7.000    4.000 
#    6.750    0.000    0.000    0.000    0.000    0.000 
#    0.000    0.000    0.000    0.000    0.000    0.000 
#
# Total GULP energy -89473.869739 kJ/mol
# GULP energy per Si atom -5592.116859 kJ/mol
# Density = 2.439409 g / cm^3
# Si number density = 24.449737 Si / 1000 Ang^3
#
#
#
# Elastic Constant Matrix: (Units=GPa)
#
#
# Indices 1 2 3 4 5 6 
#
# 1 52.4532 12.3272 46.0813 7.2684 -6.8715 -3.0950
# 2 12.3272 74.4618 25.5870 6.6544 3.2907 -11.5493
# 3 46.0813 25.5870 176.9206 16.1238 11.6642 -11.0759
# 4 7.2684 6.6544 16.1238 53.0731 -6.1321 1.4797
# 5 -6.8715 3.2907 11.6642 -6.1321 52.6564 15.9095
# 6 -3.0950 -11.5493 -11.0759 1.4797 15.9095 47.4161
#
#
#
# Elastic Compliance Matrix: (Units=1/GPa)
#
#
# Indices 1 2 3 4 5 6 
#
# 1 0.026547 -0.002585 -0.007048 -0.000419 0.005896 -0.002508
# 2 -0.002585 0.015087 -0.000927 -0.001666 -0.002535 0.004192
# 3 -0.007048 -0.000927 0.008194 -0.001901 -0.003658 0.002515
# 4 -0.000419 -0.001666 -0.001901 0.020183 0.003646 -0.002730
# 5 0.005896 -0.002535 -0.003658 0.003646 0.023944 -0.009235
# 6 -0.002508 0.004192 0.002515 -0.002730 -0.009235 0.025718
#
#
# Mechanical properties :
#
#
# Convention : Reuss Voigt Hill
#
# Bulk Modulus (GPa) = 34.83468 52.42517 43.62992
# Shear Modulus (GPa) = 33.25281 45.28513 39.26897
#
# Velocity S-wave (km/s) = 3.69188 4.30836 4.01198
# Velocity P-wave (km/s) = 5.69664 6.79984 6.27254
#
# Compressibility (1/GPa) = 0.02870703
#
# Stress axis : x y z
#
# Youngs Moduli (GPa) = 37.66971 66.28026 122.04121
#
# Poissons Ratio (x) = 0.17134 0.86016
# Poissons Ratio (y) = 0.09738 0.11317
# Poissons Ratio (z) = 0.26550 0.06146
#
# Static dielectric constant tensor:
#      x y z
#    x 2.014710 0.028160 0.027190 
#    y 0.028160 2.039580 0.053190 
#    z 0.027190 0.053190 1.903770 
# 
# From -- ./inp_files/371608.got.cif
#   From: 2010.05.17/outbox.cif.g08.bks.cpg/sg2_186_cif.got.tgz:371608.got - 2010.06.03 11:33:40.
