data_PCOD9048903
_publ_section_title
;
Structure prediction by ZEFSAII (Michael W. Deem and Ramdas Pophale) SiO2 
 PCOD9048903
Probable space group: P -1
;
_chemical_formula_sum "Si O2"
_cell_formula_units_Z 13
_cell_length_a 14.635870
_cell_length_b 16.573058
_cell_length_c 8.984527
_cell_angle_alpha 29.823235
_cell_angle_beta 137.905971
_cell_angle_gamma 147.484632
_cell_volume 582.134156
_symmetry_space_group_name_H-M "P -1"
_symmetry_group_IT_number 2
_symmetry_cell_setting 'triclinic'
loop_
_space_group_symop_operation_xyz
x,y,z
-x,-y,-z
loop_
_atom_site_type_symbol
_atom_site_label
_atom_site_fract_x
_atom_site_fract_y
_atom_site_fract_z
Si Si1 0.457381 0.759674 0.687928
Si Si2 0.615610 0.609821 0.610828
Si Si3 0.551977 0.222137 0.687348
Si Si4 0.000000 0.000000 0.500000
Si Si5 0.078019 0.436744 0.316205
Si Si6 0.230575 0.870420 0.354744
Si Si7 0.941401 0.929998 0.216944
O O1 0.483769 0.738964 0.582489
O O2 0.303682 0.779358 0.487892
O O3 0.622547 0.974492 0.600878
O O4 0.424090 0.575864 0.037849
O O5 0.500000 0.500000 0.500000
O O6 0.543801 0.727638 0.397975
O O7 0.820721 0.780193 0.586926
O O8 0.752332 0.372442 0.715978
O O9 0.500000 0.000000 0.000000
O O10 0.064301 0.027904 0.352952
O O11 0.935616 0.307762 0.475317
O O12 0.124196 0.299030 0.515214
O O13 0.000000 0.500000 0.000000
O O14 0.182526 0.005756 0.003329
O O15 0.000000 0.000000 0.000000
#
# Coordination Sequence:
#
# PCOD9048903 Si02
#       7
#     2   2   2   1   2   2   2
#     4  11  26  46  74 109 147 199 250 321 386 456
#     4  12  30  52  77 115 158 197 263 321 391 467
#     4  12  29  46  74 111 154 195 258 319 379 470
#     4  12  28  46  88 106 150 212 254 312 404 454
#     4  11  25  44  74 106 150 201 250 316 382 452
#     4  10  24  45  75 102 151 193 253 315 381 454
#     4  10  25  46  74 110 148 197 258 318 376 465
#
# _framework density 22.331620999999998
#
# number of rings (size 3 to 8) (size 9 to 14) (size 15 to 20)
#    0.000    0.923    0.000    4.154   21.538    0.615 
#    0.000    0.000    0.000    0.000    0.000    0.000 
#    0.000    0.000    0.000    0.000    0.000    0.000 
#
# Total GULP energy -72383.047477 kJ/mol
# GULP energy per Si atom -5567.926729 kJ/mol
# Density = 2.228079 g / cm^3
# Si number density = 22.331621 Si / 1000 Ang^3
#
#
#
# Elastic Constant Matrix: (Units=GPa)
#
#
# Indices 1 2 3 4 5 6 
#
# 1 96.3187 48.9322 37.4361 -21.0678 1.8451 -10.3801
# 2 48.9322 138.6111 37.3362 -27.5096 -21.7966 -4.5250
# 3 37.4361 37.3362 139.0113 -14.1406 7.3969 -11.9456
# 4 -21.0678 -27.5096 -14.1406 25.8663 -9.0924 -8.7520
# 5 1.8451 -21.7966 7.3969 -9.0924 40.2636 3.4766
# 6 -10.3801 -4.5250 -11.9456 -8.7520 3.4766 52.8615
#
#
#
# Elastic Compliance Matrix: (Units=1/GPa)
#
#
# Indices 1 2 3 4 5 6 
#
# 1 0.015068 -0.002753 -0.002017 0.009548 0.000014 0.003847
# 2 -0.002753 0.013685 -0.001714 0.016077 0.011293 0.002163
# 3 -0.002017 -0.001714 0.008567 0.000974 -0.002337 0.001708
# 4 0.009548 0.016077 0.000974 0.077604 0.024340 0.014719
# 5 0.000014 0.011293 -0.002337 0.024340 0.036697 0.002058
# 6 0.003847 0.002163 0.001708 0.014719 0.002058 0.022546
#
#
# Mechanical properties :
#
#
# Convention : Reuss Voigt Hill
#
# Bulk Modulus (GPa) = 41.06448 69.03890 55.05169
# Shear Modulus (GPa) = 25.60778 40.48071 33.04424
#
# Velocity S-wave (km/s) = 3.38998 4.26221 3.85087
# Velocity P-wave (km/s) = 5.80956 7.42996 6.66916
#
# Compressibility (1/GPa) = 0.02435195
#
# Stress axis : x y z
#
# Youngs Moduli (GPa) = 66.36715 73.07233 116.72022
#
# Poissons Ratio (x) = 0.20117 0.23545
# Poissons Ratio (y) = 0.18271 0.20005
# Poissons Ratio (z) = 0.13388 0.12524
#
# Static dielectric constant tensor:
#      x y z
#    x 2.018160 0.006340 -0.062800 
#    y 0.006340 1.773720 0.039610 
#    z -0.062800 0.039610 1.839890 
# 
# From -- ./inp_files/155019.got.cif
#   From: 2010.05.17/outbox.cif.g08.bks.cpg/sg2_78_cif.got.tgz:155019.got - 2010.06.03 11:33:40.
