data_PCOD9048402
_publ_section_title
;
Structure prediction by ZEFSAII (Michael W. Deem and Ramdas Pophale) SiO2 
 PCOD9048402
Probable space group: P -1
;
_chemical_formula_sum "Si O2"
_cell_formula_units_Z 16
_cell_length_a 14.660818
_cell_length_b 7.047790
_cell_length_c 14.702984
_cell_angle_alpha 80.877350
_cell_angle_beta 35.642009
_cell_angle_gamma 103.355616
_cell_volume 682.018726
_symmetry_space_group_name_H-M "P -1"
_symmetry_group_IT_number 2
_symmetry_cell_setting 'triclinic'
loop_
_space_group_symop_operation_xyz
x,y,z
-x,-y,-z
loop_
_atom_site_type_symbol
_atom_site_label
_atom_site_fract_x
_atom_site_fract_y
_atom_site_fract_z
Si Si1 0.222705 0.629275 0.271155
Si Si2 0.064348 0.974548 0.064234
Si Si3 0.796420 0.770937 0.444812
Si Si4 0.515566 0.908417 0.639399
Si Si5 0.774209 0.782177 0.672322
Si Si6 0.499490 0.326268 0.590521
Si Si7 0.871720 0.589587 0.095589
Si Si8 0.515294 0.076028 0.121402
O O1 0.267619 0.443807 0.223615
O O2 0.000000 0.500000 0.500000
O O3 0.372981 0.801868 0.217419
O O4 0.288134 0.783145 0.112625
O O5 0.014804 0.902651 0.214290
O O6 0.910040 0.721761 0.152306
O O7 0.026170 0.171900 0.068298
O O8 0.278789 0.129744 0.829665
O O9 0.708970 0.918636 0.486038
O O10 0.786267 0.733388 0.561379
O O11 0.643895 0.512028 0.537926
O O12 0.455141 0.903086 0.795084
O O13 0.341669 0.645310 0.752944
O O14 0.550938 0.140944 0.542962
O O15 0.619090 0.837351 0.799427
O O16 0.000000 0.000000 0.500000
O O17 0.500000 0.500000 0.500000
O O18 0.000000 0.500000 0.000000
#
# Coordination Sequence:
#
# PCOD9048402 Si02
#       8
#     2   2   2   2   2   2   2   2
#     4  11  22  43  72 100 140 178 227 285 347 411
#     4  11  25  44  66 100 133 174 233 280 345 399
#     4  11  27  45  68 102 141 178 232 292 339 412
#     4  11  25  46  69 100 139 182 234 281 348 412
#     4  11  23  46  69 103 141 184 230 281 351 414
#     4  12  25  47  70  97 139 183 228 289 347 409
#     4  11  22  43  67  94 131 178 229 280 336 408
#     4  10  24  45  68 103 139 182 228 286 345 414
#
# _framework density 23.459768
#
# number of rings (size 3 to 8) (size 9 to 14) (size 15 to 20)
#    0.000    1.000    3.750    2.625    0.000    4.500 
#    2.250    0.000    0.000    0.000    0.000    0.000 
#    0.000    0.000    0.000    0.000    0.000    0.000 
#
# Total GULP energy -89261.648027 kJ/mol
# GULP energy per Si atom -5578.853002 kJ/mol
# Density = 2.340637 g / cm^3
# Si number density = 23.459768 Si / 1000 Ang^3
#
#
#
# Elastic Constant Matrix: (Units=GPa)
#
#
# Indices 1 2 3 4 5 6 
#
# 1 79.3892 38.7345 46.5240 -11.8391 -1.8507 -4.1532
# 2 38.7345 138.3078 28.4121 -29.2964 6.7836 -3.9546
# 3 46.5240 28.4121 116.3898 5.6112 9.9398 13.5106
# 4 -11.8391 -29.2964 5.6112 21.2635 -2.2372 1.7472
# 5 -1.8507 6.7836 9.9398 -2.2372 10.8283 7.3030
# 6 -4.1532 -3.9546 13.5106 1.7472 7.3030 50.2156
#
#
#
# Elastic Compliance Matrix: (Units=1/GPa)
#
#
# Indices 1 2 3 4 5 6 
#
# 1 0.022504 -0.001734 -0.010914 0.014652 0.016829 0.001704
# 2 -0.001734 0.011792 -0.002866 0.015629 -0.002779 0.001417
# 3 -0.010914 -0.002866 0.016111 -0.015797 -0.016419 -0.002526
# 4 0.014652 0.015629 -0.015797 0.083421 0.024274 0.000260
# 5 0.016829 -0.002779 -0.016419 0.024274 0.126235 -0.013613
# 6 0.001704 0.001417 -0.002526 0.000260 -0.013613 0.022817
#
#
# Mechanical properties :
#
#
# Convention : Reuss Voigt Hill
#
# Bulk Modulus (GPa) = 51.59947 62.38091 56.99019
# Shear Modulus (GPa) = 15.60707 31.15588 23.38148
#
# Velocity S-wave (km/s) = 2.58208 3.64820 3.16042
# Velocity P-wave (km/s) = 5.56167 6.66289 6.13703
#
# Compressibility (1/GPa) = 0.01938004
#
# Stress axis : x y z
#
# Youngs Moduli (GPa) = 44.43631 84.80389 62.06976
#
# Poissons Ratio (x) = 0.14702 0.67741
# Poissons Ratio (y) = 0.07704 0.17790
# Poissons Ratio (z) = 0.48496 0.24306
#
# Static dielectric constant tensor:
#      x y z
#    x 1.902500 -0.058590 0.023770 
#    y -0.058590 1.910350 0.025230 
#    z 0.023770 0.025230 1.972650 
# 
# From -- ./inp_files/528480.got.cif
#   From: 2010.05.17/outbox.cif.g08.bks.cpg/sg2_265_cif.got.tgz:528480.got - 2010.06.03 11:33:40.
