data_PCOD9048019
_publ_section_title
;
Structure prediction by ZEFSAII (Michael W. Deem and Ramdas Pophale) SiO2 
 PCOD9048019
Probable space group: P -1
;
_chemical_formula_sum "Si O2"
_cell_formula_units_Z 15
_cell_length_a 13.534720
_cell_length_b 25.791214
_cell_length_c 28.198833
_cell_angle_alpha 10.166211
_cell_angle_beta 158.735708
_cell_angle_gamma 159.248567
_cell_volume 605.149323
_symmetry_space_group_name_H-M "P -1"
_symmetry_group_IT_number 2
_symmetry_cell_setting 'triclinic'
loop_
_space_group_symop_operation_xyz
x,y,z
-x,-y,-z
loop_
_atom_site_type_symbol
_atom_site_label
_atom_site_fract_x
_atom_site_fract_y
_atom_site_fract_z
Si Si1 0.068669 0.104688 0.294070
Si Si2 0.335387 0.678684 0.482527
Si Si3 0.500000 0.000000 0.000000
Si Si4 0.455603 0.409803 0.875327
Si Si5 0.493577 0.772701 0.095638
Si Si6 0.482585 0.764498 0.791243
Si Si7 0.062066 0.900981 0.367725
Si Si8 0.050516 0.304359 0.866356
O O1 0.182823 0.820398 0.619975
O O2 0.108629 0.061024 0.294804
O O3 0.272483 0.403330 0.140918
O O4 0.748026 0.123149 0.135365
O O5 0.472232 0.548842 0.616326
O O6 0.000000 0.500000 0.500000
O O7 0.404411 0.044388 0.179764
O O8 0.475021 0.573940 0.685865
O O9 0.441495 0.806870 0.097184
O O10 0.835599 0.013254 0.135969
O O11 0.172162 0.440231 0.747823
O O12 0.796057 0.012044 0.005842
O O13 0.650382 0.047979 0.578429
O O14 0.500000 0.500000 0.000000
O O15 0.681130 0.755400 0.932614
O O16 0.936456 0.534412 0.641830
#
# Coordination Sequence:
#
# PCOD9048019 Si02
#       8
#     2   2   1   2   2   2   2   2
#     4  11  25  46  72 115 155 200 255 327 397 467
#     4  12  28  52  82 117 146 211 271 332 373 475
#     4  10  24  44  72 108 152 192 238 324 384 468
#     4  12  27  49  83 110 153 203 275 319 393 449
#     4  11  27  48  77 115 156 200 260 322 402 460
#     4  12  22  40  69 102 151 206 253 312 383 468
#     4  11  23  41  67 107 150 193 257 303 391 459
#     4  12  24  43  78 107 147 210 255 324 377 482
#
# _framework density 24.787272000000002
#
# number of rings (size 3 to 8) (size 9 to 14) (size 15 to 20)
#    0.000    0.533    5.333    2.400    1.867    4.267 
#    0.000    4.000    0.000    0.000    0.000    0.000 
#    0.000    0.000    0.000    0.000    0.000    0.000 
#
# Total GULP energy -83628.872966 kJ/mol
# GULP energy per Si atom -5575.258198 kJ/mol
# Density = 2.473085 g / cm^3
# Si number density = 24.787272 Si / 1000 Ang^3
#
#
#
# Elastic Constant Matrix: (Units=GPa)
#
#
# Indices 1 2 3 4 5 6 
#
# 1 61.9361 29.4729 50.9643 6.8628 21.0613 -24.3491
# 2 29.4729 129.7017 43.3955 -0.5334 17.9922 -14.8821
# 3 50.9643 43.3955 112.9300 -37.5987 22.6117 -0.7071
# 4 6.8628 -0.5334 -37.5987 39.5757 -5.6974 20.1644
# 5 21.0613 17.9922 22.6117 -5.6974 41.6802 3.2420
# 6 -24.3491 -14.8821 -0.7071 20.1644 3.2420 15.4423
#
#
#
# Elastic Compliance Matrix: (Units=1/GPa)
#
#
# Indices 1 2 3 4 5 6 
#
# 1 0.002830 -0.005272 0.005735 0.016417 0.001701 -0.022149
# 2 -0.005272 0.008690 -0.000106 0.002327 -0.000488 -0.002878
# 3 0.005735 -0.000106 0.006198 -0.005754 -0.008441 0.018510
# 4 0.016417 0.002327 -0.005754 0.002409 -0.007901 0.026377
# 5 0.001701 -0.000488 -0.008441 -0.007901 0.026328 0.006615
# 6 -0.022149 -0.002878 0.018510 0.026377 0.006615 -0.007925
#
#
# Mechanical properties :
#
#
# Convention : Reuss Voigt Hill
#
# Bulk Modulus (GPa) = 54.24981 61.35926 57.80453
# Shear Modulus (GPa) = 113.73876 31.38864 72.56370
#
# Velocity S-wave (km/s) = 6.78127 3.56240 5.41647
# Velocity P-wave (km/s) = 9.12402 6.45980 7.90496
#
# Compressibility (1/GPa) = 0.01843324
#
# Stress axis : x y z
#
# Youngs Moduli (GPa) = 353.31479 115.07014 161.34249
#
# Poissons Ratio (x) = 0.60662 -0.92528
# Poissons Ratio (y) = 1.86260 0.01708
# Poissons Ratio (z) = -2.02622 0.01218
#
# Static dielectric constant tensor:
#      x y z
#    x 1.967780 0.002510 -0.045250 
#    y 0.002510 1.979370 -0.042010 
#    z -0.045250 -0.042010 2.072820 
# 
# From -- ./inp_files/623723.got.cif
#   From: 2010.05.17/outbox.cif.g08.bks.cpg/sg2_312_cif.got.tgz:623723.got - 2010.06.03 11:33:40.
