data_PCOD9048486
_publ_section_title
;
Structure prediction by ZEFSAII (Michael W. Deem and Ramdas Pophale) SiO2 
 PCOD9048486
Probable space group: P -1
;
_chemical_formula_sum "Si O2"
_cell_formula_units_Z 14
_cell_length_a 11.641933
_cell_length_b 11.761421
_cell_length_c 5.554397
_cell_angle_alpha 93.017578
_cell_angle_beta 65.728967
_cell_angle_gamma 62.106812
_cell_volume 583.764252
_symmetry_space_group_name_H-M "P -1"
_symmetry_group_IT_number 2
_symmetry_cell_setting 'triclinic'
loop_
_space_group_symop_operation_xyz
x,y,z
-x,-y,-z
loop_
_atom_site_type_symbol
_atom_site_label
_atom_site_fract_x
_atom_site_fract_y
_atom_site_fract_z
Si Si1 0.644622 0.200334 0.999931
Si Si2 0.749333 0.827764 0.290553
Si Si3 0.078821 0.066493 0.079402
Si Si4 0.020148 0.422220 0.721386
Si Si5 0.150054 0.702015 0.351125
Si Si6 0.565772 0.519904 0.689438
Si Si7 0.493118 0.909004 0.206309
O O1 0.751591 0.255519 0.874514
O O2 0.582954 0.171531 0.811500
O O3 0.755310 0.055876 0.005992
O O4 0.493796 0.321632 0.261019
O O5 0.813705 0.711368 0.418328
O O6 0.658349 0.809757 0.156348
O O7 0.626642 0.975137 0.503951
O O8 0.889116 0.835076 0.086484
O O9 0.980003 0.159079 0.397982
O O10 0.000000 0.000000 0.000000
O O11 0.000000 0.500000 0.500000
O O12 0.907944 0.371038 0.773247
O O13 0.000000 0.500000 0.000000
O O14 0.259184 0.592409 0.445569
O O15 0.500000 0.500000 0.500000
O O16 0.500000 0.500000 0.000000
O O17 0.500000 0.000000 0.000000
#
# Coordination Sequence:
#
# PCOD9048486 Si02
#       7
#     2   2   2   2   2   2   2
#     4  11  23  43  75 107 147 196 251 307 387 444
#     4  11  26  46  73 108 150 192 260 309 383 451
#     4  12  22  41  77 113 152 195 252 317 386 456
#     4  12  29  49  76 107 152 206 255 311 385 458
#     4  11  25  47  72 112 155 195 255 319 378 461
#     4  10  24  45  69 103 148 192 246 304 375 447
#     4  11  24  46  73 107 148 195 248 319 375 460
#
# _framework density 23.982285999999998
#
# number of rings (size 3 to 8) (size 9 to 14) (size 15 to 20)
#    0.000    0.857    1.429    4.714    4.000    4.571 
#    2.571    0.000    0.000    0.000    0.000    0.000 
#    0.000    0.000    0.000    0.000    0.000    0.000 
#
# Total GULP energy -78212.445613 kJ/mol
# GULP energy per Si atom -5586.603258 kJ/mol
# Density = 2.392770 g / cm^3
# Si number density = 23.982286 Si / 1000 Ang^3
#
#
#
# Elastic Constant Matrix: (Units=GPa)
#
#
# Indices 1 2 3 4 5 6 
#
# 1 173.3077 60.4835 32.4771 -14.0152 33.1963 4.8167
# 2 60.4835 137.5615 24.4691 8.1187 10.2256 -37.9184
# 3 32.4771 24.4691 70.7525 1.7447 18.5611 6.6105
# 4 -14.0152 8.1187 1.7447 43.7766 9.0876 1.3136
# 5 33.1963 10.2256 18.5611 9.0876 41.4870 -2.4203
# 6 4.8167 -37.9184 6.6105 1.3136 -2.4203 52.6679
#
#
#
# Elastic Compliance Matrix: (Units=1/GPa)
#
#
# Indices 1 2 3 4 5 6 
#
# 1 0.009970 -0.005622 -0.000122 0.006105 -0.008194 -0.005473
# 2 -0.005622 0.013544 -0.004309 -0.005502 0.004944 0.011170
# 3 -0.000122 -0.004309 0.018199 0.001810 -0.007716 -0.005775
# 4 0.006105 -0.005502 0.001810 0.028178 -0.010858 -0.005948
# 5 -0.008194 0.004944 -0.007716 -0.010858 0.035692 0.007189
# 6 -0.005473 0.011170 -0.005775 -0.005948 0.007189 0.028733
#
#
# Mechanical properties :
#
#
# Convention : Reuss Voigt Hill
#
# Bulk Modulus (GPa) = 46.27829 68.49792 57.38811
# Shear Modulus (GPa) = 30.93613 45.19911 38.06762
#
# Velocity S-wave (km/s) = 3.59549 4.34601 3.98844
# Velocity P-wave (km/s) = 6.04777 7.33537 6.72247
#
# Compressibility (1/GPa) = 0.02160840
#
# Stress axis : x y z
#
# Youngs Moduli (GPa) = 100.29868 73.83408 54.94829
#
# Poissons Ratio (x) = 0.41508 0.00670
# Poissons Ratio (y) = 0.56386 0.23675
# Poissons Ratio (z) = 0.01223 0.31812
#
# Static dielectric constant tensor:
#      x y z
#    x 2.028950 -0.050860 0.074910 
#    y -0.050860 1.917610 0.032380 
#    z 0.074910 0.032380 1.958140 
# 
# From -- ./inp_files/71078.got.cif
#   From: 2010.05.17/outbox.cif.g08.bks.cpg/sg2_36_cif.got.tgz:71078.got - 2010.06.03 11:33:40.
