data_PCOD9048521
_publ_section_title
;
Structure prediction by ZEFSAII (Michael W. Deem and Ramdas Pophale) SiO2 
 PCOD9048521
Probable space group: P -1
;
_chemical_formula_sum "Si O2"
_cell_formula_units_Z 12
_cell_length_a 5.309832
_cell_length_b 12.300935
_cell_length_c 11.542364
_cell_angle_alpha 42.090152
_cell_angle_beta 106.157799
_cell_angle_gamma 107.732455
_cell_volume 479.713934
_symmetry_space_group_name_H-M "P -1"
_symmetry_group_IT_number 2
_symmetry_cell_setting 'triclinic'
loop_
_space_group_symop_operation_xyz
x,y,z
-x,-y,-z
loop_
_atom_site_type_symbol
_atom_site_label
_atom_site_fract_x
_atom_site_fract_y
_atom_site_fract_z
Si Si1 0.539288 0.244912 0.247139
Si Si2 0.296303 0.878805 0.848166
Si Si3 0.535528 0.555032 0.706554
Si Si4 0.302206 0.817224 0.313037
Si Si5 0.042168 0.650902 0.181831
Si Si6 0.096694 0.923834 0.428588
O O1 0.612133 0.263412 0.106735
O O2 0.423568 0.371130 0.216274
O O3 0.808916 0.214269 0.370848
O O4 0.327645 0.079373 0.346049
O O5 0.529489 0.005009 0.835876
O O6 0.082278 0.796133 0.977136
O O7 0.166033 0.997451 0.649578
O O8 0.477395 0.701072 0.496876
O O9 0.774874 0.475829 0.745512
O O10 0.258663 0.430046 0.772542
O O11 0.169401 0.724680 0.258938
O O12 0.090890 0.855518 0.351524
#
# Coordination Sequence:
#
# PCOD9048521 Si02
#       6
#     2   2   2   2   2   2
#     4   9  21  41  65  97 129 173 228 267 330 396
#     4  11  24  40  73  96 134 171 225 282 330 384
#     4  11  27  45  69  96 137 182 219 268 335 402
#     4  10  24  45  69  96 129 180 231 267 322 402
#     4  12  28  44  66 103 139 176 215 278 339 390
#     4   9  20  39  69  97 125 173 227 279 319 388
#
# _framework density 25.014907999999998
#
# number of rings (size 3 to 8) (size 9 to 14) (size 15 to 20)
#    0.000    1.667    0.000    3.000   14.000    2.000 
#    0.000    0.000    0.000    0.000    0.000    0.000 
#    0.000    0.000    0.000    0.000    0.000    0.000 
#
# Total GULP energy -67148.281864 kJ/mol
# GULP energy per Si atom -5595.690155 kJ/mol
# Density = 2.495797 g / cm^3
# Si number density = 25.014908 Si / 1000 Ang^3
#
#
#
# Elastic Constant Matrix: (Units=GPa)
#
#
# Indices 1 2 3 4 5 6 
#
# 1 89.3490 56.6141 23.5669 -0.6736 0.8851 -3.2392
# 2 56.6141 175.3602 33.6573 6.0346 -1.6041 -10.1659
# 3 23.5669 33.6573 86.9986 -6.5526 -10.4530 8.7885
# 4 -0.6736 6.0346 -6.5526 25.0012 -3.0504 -0.4249
# 5 0.8851 -1.6041 -10.4530 -3.0504 41.1256 -20.0173
# 6 -3.2392 -10.1659 8.7885 -0.4249 -20.0173 33.7407
#
#
#
# Elastic Compliance Matrix: (Units=1/GPa)
#
#
# Indices 1 2 3 4 5 6 
#
# 1 0.014538 -0.004261 -0.002369 0.000687 -0.000944 0.000178
# 2 -0.004261 0.007781 -0.002212 -0.002370 0.001216 0.003203
# 3 -0.002369 -0.002212 0.013910 0.004347 0.002321 -0.003086
# 4 0.000687 -0.002370 0.004347 0.042363 0.004967 0.001700
# 5 -0.000944 0.001216 0.002321 0.004967 0.035449 0.020765
# 6 0.000178 0.003203 -0.003086 0.001700 0.020765 0.043764
#
#
# Mechanical properties :
#
#
# Convention : Reuss Voigt Hill
#
# Bulk Modulus (GPa) = 53.92423 64.37605 59.15014
# Shear Modulus (GPa) = 27.52248 35.83145 31.67696
#
# Velocity S-wave (km/s) = 3.32059 3.78882 3.56240
# Velocity P-wave (km/s) = 6.02540 6.70307 6.37325
#
# Compressibility (1/GPa) = 0.01854454
#
# Stress axis : x y z
#
# Youngs Moduli (GPa) = 68.78699 128.51817 71.89083
#
# Poissons Ratio (x) = 0.54756 0.17034
# Poissons Ratio (y) = 0.29307 0.15903
# Poissons Ratio (z) = 0.16298 0.28429
#
# Static dielectric constant tensor:
#      x y z
#    x 1.949990 -0.017830 0.025380 
#    y -0.017830 1.939460 -0.028720 
#    z 0.025380 -0.028720 2.023630 
# 
# From -- ./inp_files/91690.got.cif
#   From: 2010.05.17/outbox.cif.g08.bks.cpg/sg2_46_cif.got.tgz:91690.got - 2010.06.03 11:33:40.
