data_PCOD9048457
_publ_section_title
;
Structure prediction by ZEFSAII (Michael W. Deem and Ramdas Pophale) SiO2 
 PCOD9048457
Probable space group: P -1
;
_chemical_formula_sum "Si O2"
_cell_formula_units_Z 10
_cell_length_a 13.655941
_cell_length_b 8.530782
_cell_length_c 17.977103
_cell_angle_alpha 146.771764
_cell_angle_beta 157.972029
_cell_angle_gamma 34.930484
_cell_volume 420.247171
_symmetry_space_group_name_H-M "P -1"
_symmetry_group_IT_number 2
_symmetry_cell_setting 'triclinic'
loop_
_space_group_symop_operation_xyz
x,y,z
-x,-y,-z
loop_
_atom_site_type_symbol
_atom_site_label
_atom_site_fract_x
_atom_site_fract_y
_atom_site_fract_z
Si Si1 0.087912 0.710409 0.520504
Si Si2 0.080567 0.148035 0.042203
Si Si3 0.103083 0.175023 0.840923
Si Si4 0.551013 0.069096 0.241229
Si Si5 0.232823 0.076518 0.390243
O O1 0.180711 0.410983 0.511542
O O2 0.780420 0.781948 0.306004
O O3 0.131083 0.975496 0.708574
O O4 0.273188 0.705552 0.576003
O O5 0.990262 0.947473 0.836394
O O6 0.919813 0.483616 0.055770
O O7 0.381980 0.148891 0.229265
O O8 0.000000 0.000000 0.000000
O O9 0.830139 0.133280 0.672779
O O10 0.344527 0.067934 0.027067
O O11 0.500000 0.000000 0.500000
#
# Coordination Sequence:
#
# PCOD9048457 Si02
#       5
#     2   2   2   2   2
#     4  11  24  43  74 102 133 177 229 284 337 399
#     4  11  26  44  69  98 139 184 224 277 342 401
#     4  11  24  46  69  99 138 181 226 279 340 402
#     4  10  24  45  68  99 143 173 228 278 340 400
#     4  11  24  45  70 100 138 177 228 280 339 408
#
# _framework density 23.795521000000001
#
# number of rings (size 3 to 8) (size 9 to 14) (size 15 to 20)
#    0.000    1.200    0.000    6.000    8.400    4.000 
#    3.600    0.000    0.000    0.000    0.000    0.000 
#    0.000    0.000    0.000    0.000    0.000    0.000 
#
# Total GULP energy -55851.962566 kJ/mol
# GULP energy per Si atom -5585.196257 kJ/mol
# Density = 2.374136 g / cm^3
# Si number density = 23.795521 Si / 1000 Ang^3
#
#
#
# Elastic Constant Matrix: (Units=GPa)
#
#
# Indices 1 2 3 4 5 6 
#
# 1 146.9410 38.1516 41.2621 -9.8061 37.6620 8.3777
# 2 38.1516 104.9116 47.4228 -8.1939 15.3083 1.6438
# 3 41.2621 47.4228 74.2519 -25.4153 13.5720 -2.8038
# 4 -9.8061 -8.1939 -25.4153 30.1931 -1.5000 1.6376
# 5 37.6620 15.3083 13.5720 -1.5000 45.5827 0.7002
# 6 8.3777 1.6438 -2.8038 1.6376 0.7002 31.1297
#
#
#
# Elastic Compliance Matrix: (Units=1/GPa)
#
#
# Indices 1 2 3 4 5 6 
#
# 1 0.010031 -0.000784 -0.004165 -0.000642 -0.006762 -0.002847
# 2 -0.000784 0.014222 -0.010154 -0.004941 -0.001250 -0.001167
# 3 -0.004165 -0.010154 0.029711 0.020655 -0.001365 0.003277
# 4 -0.000642 -0.004941 0.020655 0.048853 -0.002349 -0.000223
# 5 -0.006762 -0.001250 -0.001365 -0.002349 0.028255 0.001251
# 6 -0.002847 -0.001167 0.003277 -0.000223 0.001251 0.033230
#
#
# Mechanical properties :
#
#
# Convention : Reuss Voigt Hill
#
# Bulk Modulus (GPa) = 42.09300 64.41972 53.25636
# Shear Modulus (GPa) = 24.70019 34.66562 29.68290
#
# Velocity S-wave (km/s) = 3.22532 3.82096 3.53571
# Velocity P-wave (km/s) = 5.62122 6.82622 6.25282
#
# Compressibility (1/GPa) = 0.02375692
#
# Stress axis : x y z
#
# Youngs Moduli (GPa) = 99.68830 70.31525 33.65777
#
# Poissons Ratio (x) = 0.05513 0.14019
# Poissons Ratio (y) = 0.07816 0.34177
# Poissons Ratio (z) = 0.41521 0.71400
#
# Static dielectric constant tensor:
#      x y z
#    x 2.001240 -0.001600 0.076430 
#    y -0.001600 1.885500 -0.063030 
#    z 0.076430 -0.063030 2.078060 
# 
# From -- ./inp_files/144173.got.cif
#   From: 2010.05.17/outbox.cif.g08.bks.cpg/sg2_73_cif.got.tgz:144173.got - 2010.06.03 11:33:40.
