data_PCOD9048650
_publ_section_title
;
Structure prediction by ZEFSAII (Michael W. Deem and Ramdas Pophale) SiO2 
 PCOD9048650
Probable space group: P -1
;
_chemical_formula_sum "Si O2"
_cell_formula_units_Z 14
_cell_length_a 12.379229
_cell_length_b 17.937059
_cell_length_c 17.913549
_cell_angle_alpha 148.394703
_cell_angle_beta 147.617628
_cell_angle_gamma 19.602998
_cell_volume 678.946096
_symmetry_space_group_name_H-M "P -1"
_symmetry_group_IT_number 2
_symmetry_cell_setting 'triclinic'
loop_
_space_group_symop_operation_xyz
x,y,z
-x,-y,-z
loop_
_atom_site_type_symbol
_atom_site_label
_atom_site_fract_x
_atom_site_fract_y
_atom_site_fract_z
Si Si1 0.123982 0.218732 0.995076
Si Si2 0.163993 0.278605 0.362711
Si Si3 0.896998 0.495782 0.855740
Si Si4 0.209381 0.552380 0.859311
Si Si5 0.651627 0.036755 0.670824
Si Si6 0.119643 0.911826 0.713555
Si Si7 0.896635 0.933059 0.441153
O O1 0.976271 0.152298 0.824189
O O2 0.971482 0.451023 0.075316
O O3 0.087907 0.245770 0.085665
O O4 0.500000 0.000000 0.000000
O O5 0.000000 0.500000 0.500000
O O6 0.922542 0.366558 0.231431
O O7 0.222297 0.113229 0.310217
O O8 0.507048 0.145704 0.414968
O O9 0.502271 0.706646 0.787995
O O10 0.026185 0.265440 0.717692
O O11 0.000000 0.500000 0.000000
O O12 0.369231 0.308626 0.756793
O O13 0.500000 0.500000 0.000000
O O14 0.500000 0.000000 0.500000
O O15 0.923227 0.955717 0.706065
O O16 0.076803 0.856576 0.561881
O O17 0.000000 0.000000 0.500000
#
# Coordination Sequence:
#
# PCOD9048650 Si02
#       7
#     2   2   2   2   2   2   2
#     4  10  24  45  70  98 147 180 233 294 357 416
#     4  12  28  46  75 105 144 192 241 296 358 428
#     4  11  26  43  70 106 141 183 233 294 359 422
#     4  12  26  46  73 106 141 190 237 295 361 418
#     4  12  24  48  73 104 148 187 243 294 357 429
#     4  11  24  46  72 102 143 187 233 298 356 421
#     4  12  27  44  73 107 140 187 243 289 360 428
#
# _framework density 20.620194000000001
#
# number of rings (size 3 to 8) (size 9 to 14) (size 15 to 20)
#    0.000    0.571    4.286    2.143   10.000    1.714 
#    0.000    0.000    0.000    0.000    0.000    0.000 
#    0.000    0.000    0.000    0.000    0.000    0.000 
#
# Total GULP energy -78200.014094 kJ/mol
# GULP energy per Si atom -5585.715292 kJ/mol
# Density = 2.057326 g / cm^3
# Si number density = 20.620194 Si / 1000 Ang^3
#
#
#
# Elastic Constant Matrix: (Units=GPa)
#
#
# Indices 1 2 3 4 5 6 
#
# 1 152.8665 58.2868 67.7052 1.8655 -2.1857 5.6889
# 2 58.2868 105.8304 67.9065 4.9592 -6.6162 -1.2338
# 3 67.7052 67.9065 175.1097 11.6358 -14.4690 9.4134
# 4 1.8655 4.9592 11.6358 51.2736 9.4427 -3.1894
# 5 -2.1857 -6.6162 -14.4690 9.4427 51.6137 -1.8028
# 6 5.6889 -1.2338 9.4134 -3.1894 -1.8028 42.6870
#
#
#
# Elastic Compliance Matrix: (Units=1/GPa)
#
#
# Indices 1 2 3 4 5 6 
#
# 1 0.008860 -0.003634 -0.002079 0.000600 -0.000812 -0.000817
# 2 -0.003634 0.014164 -0.004112 -0.000308 0.000628 0.001804
# 3 -0.002079 -0.004112 0.008505 -0.001947 0.002063 -0.001776
# 4 0.000600 -0.000308 -0.001947 0.020855 -0.004315 0.001716
# 5 -0.000812 0.000628 0.002063 -0.004315 0.020797 0.000227
# 6 -0.000817 0.001804 -0.001776 0.001716 0.000227 0.024117
#
#
# Mechanical properties :
#
#
# Convention : Reuss Voigt Hill
#
# Bulk Modulus (GPa) = 84.19361 91.28929 87.74145
# Shear Modulus (GPa) = 41.35456 45.10873 43.23165
#
# Velocity S-wave (km/s) = 4.48318 4.68225 4.58380
# Velocity P-wave (km/s) = 8.22909 8.57900 8.40586
#
# Compressibility (1/GPa) = 0.01187739
#
# Stress axis : x y z
#
# Youngs Moduli (GPa) = 112.87245 70.60305 117.58140
#
# Poissons Ratio (x) = 0.25654 0.24451
# Poissons Ratio (y) = 0.41013 0.48353
# Poissons Ratio (z) = 0.23471 0.29034
#
# Static dielectric constant tensor:
#      x y z
#    x 1.631460 0.057600 -0.002030 
#    y 0.057600 1.664520 0.019770 
#    z -0.002030 0.019770 1.723110 
# 
# From -- ./inp_files/389195.got.cif
#   From: 2010.05.17/outbox.cif.g08.bks.cpg/sg2_195_cif.got.tgz:389195.got - 2010.06.03 11:33:40.
