data_PCOD9048172
_publ_section_title
;
Structure prediction by ZEFSAII (Michael W. Deem and Ramdas Pophale) SiO2 
 PCOD9048172
Probable space group: P -1
;
_chemical_formula_sum "Si O2"
_cell_formula_units_Z 14
_cell_length_a 8.609173
_cell_length_b 26.508730
_cell_length_c 18.918462
_cell_angle_alpha 13.182175
_cell_angle_beta 145.906043
_cell_angle_gamma 142.087055
_cell_volume 546.813429
_symmetry_space_group_name_H-M "P -1"
_symmetry_group_IT_number 2
_symmetry_cell_setting 'triclinic'
loop_
_space_group_symop_operation_xyz
x,y,z
-x,-y,-z
loop_
_atom_site_type_symbol
_atom_site_label
_atom_site_fract_x
_atom_site_fract_y
_atom_site_fract_z
Si Si1 0.348903 0.286605 0.779862
Si Si2 0.105184 0.281425 0.291365
Si Si3 0.586094 0.121147 0.239481
Si Si4 0.389345 0.796080 0.512803
Si Si5 0.786982 0.740355 0.389469
Si Si6 0.491847 0.213990 0.639396
Si Si7 0.859509 0.568717 0.277714
O O1 0.379335 0.305555 0.681277
O O2 0.114541 0.496756 0.420545
O O3 0.559162 0.253149 0.972480
O O4 0.267257 0.031819 0.105395
O O5 0.350510 0.316976 0.280558
O O6 0.262478 0.125728 0.624018
O O7 0.872400 0.162201 0.327540
O O8 0.000000 0.500000 0.000000
O O9 0.529904 0.877219 0.526486
O O10 0.335564 0.205040 0.085325
O O11 0.116627 0.679826 0.583338
O O12 0.655385 0.658734 0.522438
O O13 0.725971 0.005497 0.025298
O O14 0.645014 0.399000 0.407524
O O15 0.000000 0.500000 0.500000
#
# Coordination Sequence:
#
# PCOD9048172 Si02
#       7
#     2   2   2   2   2   2   2
#     4   9  18  32  60  83 106 141 193 231 274 328
#     4  12  22  36  59  81 114 151 199 228 267 340
#     4   9  20  33  59  83 110 143 194 235 266 329
#     4  10  20  35  59  85 107 150 195 228 277 331
#     4  11  20  35  57  86 117 142 181 244 290 333
#     4  11  21  34  56  87 114 147 183 233 293 331
#     4  10  17  34  58  84 106 140 195 232 278 323
#
# _framework density 25.602882999999999
#
# number of rings (size 3 to 8) (size 9 to 14) (size 15 to 20)
#    0.857    0.857    4.286    1.714    0.000    0.000 
#    0.000    4.286    0.000    1.714    0.000    0.000 
#    0.000    0.000    0.000    0.000    0.000    0.000 
#
# Total GULP energy -78028.394034 kJ/mol
# GULP energy per Si atom -5573.456717 kJ/mol
# Density = 2.554461 g / cm^3
# Si number density = 25.602883 Si / 1000 Ang^3
#
#
#
# Elastic Constant Matrix: (Units=GPa)
#
#
# Indices 1 2 3 4 5 6 
#
# 1 95.9869 51.2080 36.0436 12.5240 37.6264 -8.6438
# 2 51.2080 180.0734 33.0536 28.2778 23.3614 -23.8620
# 3 36.0436 33.0536 75.8323 -0.6315 39.7471 -1.3070
# 4 12.5240 28.2778 -0.6315 32.9958 -4.7283 5.8230
# 5 37.6264 23.3614 39.7471 -4.7283 51.8795 5.7203
# 6 -8.6438 -23.8620 -1.3070 5.8230 5.7203 35.4323
#
#
#
# Elastic Compliance Matrix: (Units=1/GPa)
#
#
# Indices 1 2 3 4 5 6 
#
# 1 0.018849 -0.000629 -0.001102 -0.010127 -0.014361 0.008117
# 2 -0.000629 0.009191 -0.001281 -0.009778 -0.004510 0.008324
# 3 -0.001102 -0.001281 0.023016 -0.000873 -0.016617 0.002543
# 4 -0.010127 -0.009778 -0.000873 0.048813 0.019092 -0.020192
# 5 -0.014361 -0.004510 -0.016617 0.019092 0.048185 -0.018070
# 6 0.008117 0.008324 0.002543 -0.020192 -0.018070 0.042138
#
#
# Mechanical properties :
#
#
# Convention : Reuss Voigt Hill
#
# Bulk Modulus (GPa) = 22.20715 65.83367 44.02041
# Shear Modulus (GPa) = 23.67128 39.50069 31.58598
#
# Velocity S-wave (km/s) = 3.04395 3.93214 3.51620
# Velocity P-wave (km/s) = 4.58767 6.81064 5.80653
#
# Compressibility (1/GPa) = 0.04503053
#
# Stress axis : x y z
#
# Youngs Moduli (GPa) = 53.05275 108.80382 43.44890
#
# Poissons Ratio (x) = 0.06843 0.04789
# Poissons Ratio (y) = 0.03337 0.05567
# Poissons Ratio (z) = 0.05848 0.13941
#
# Static dielectric constant tensor:
#      x y z
#    x 2.106280 -0.011240 -0.081710 
#    y -0.011240 2.076180 -0.014670 
#    z -0.081710 -0.014670 2.148560 
# 
# From -- ./inp_files/386074.got.cif
#   From: 2010.05.17/outbox.cif.g08.bks.cpg/sg2_194_cif.got.tgz:386074.got - 2010.06.03 11:33:40.
