data_PCOD9048955
_publ_section_title
;
Structure prediction by ZEFSAII (Michael W. Deem and Ramdas Pophale) SiO2 
 PCOD9048955
Probable space group: P -1
;
_chemical_formula_sum "Si O2"
_cell_formula_units_Z 11
_cell_length_a 16.329835
_cell_length_b 9.809661
_cell_length_c 8.744619
_cell_angle_alpha 52.124854
_cell_angle_beta 136.779828
_cell_angle_gamma 152.877510
_cell_volume 434.625880
_symmetry_space_group_name_H-M "P -1"
_symmetry_group_IT_number 2
_symmetry_cell_setting 'triclinic'
loop_
_space_group_symop_operation_xyz
x,y,z
-x,-y,-z
loop_
_atom_site_type_symbol
_atom_site_label
_atom_site_fract_x
_atom_site_fract_y
_atom_site_fract_z
Si Si1 0.424669 0.018630 0.027146
Si Si2 0.386721 0.405274 0.073713
Si Si3 0.006513 0.642835 0.549650
Si Si4 0.500000 0.500000 0.500000
Si Si5 0.173183 0.570976 0.250502
Si Si6 0.073248 0.125907 0.249291
O O1 0.589109 0.360075 0.050228
O O2 0.215193 0.856974 0.785368
O O3 0.500000 0.000000 0.000000
O O4 0.366734 0.842372 0.219219
O O5 0.501848 0.469196 0.336859
O O6 0.500000 0.500000 0.000000
O O7 0.145152 0.062141 0.986602
O O8 0.000000 0.500000 0.500000
O O9 0.818601 0.388939 0.586048
O O10 0.031249 0.872318 0.384437
O O11 0.290057 0.377042 0.278802
O O12 0.104779 0.292628 0.319389
O O13 0.000000 0.500000 0.000000
#
# Coordination Sequence:
#
# PCOD9048955 Si02
#       6
#     2   2   2   1   2   2
#     4  11  23  48  69 111 157 196 261 328 385 482
#     4  12  27  48  80 114 157 205 262 328 402 464
#     4  11  24  44  75 114 154 202 264 327 395 469
#     4  12  28  48  78 122 152 208 272 322 392 480
#     4  10  24  45  77 107 155 206 259 326 392 473
#     4  12  26  50  81 113 159 208 266 328 396 478
#
# _framework density 25.309124000000001
#
# number of rings (size 3 to 8) (size 9 to 14) (size 15 to 20)
#    0.000    0.727    1.818    5.455    2.545    5.818 
#    0.000    1.818    0.000    0.000    0.000    0.000 
#    0.000    0.000    0.000    0.000    0.000    0.000 
#
# Total GULP energy -61248.999942 kJ/mol
# GULP energy per Si atom -5568.090904 kJ/mol
# Density = 2.525152 g / cm^3
# Si number density = 25.309124 Si / 1000 Ang^3
#
#
#
# Elastic Constant Matrix: (Units=GPa)
#
#
# Indices 1 2 3 4 5 6 
#
# 1 214.0961 61.9120 46.8412 -10.5421 -26.6955 -6.5546
# 2 61.9120 92.1875 35.0981 0.9070 -3.8774 -8.3670
# 3 46.8412 35.0981 97.0034 2.6312 -13.4017 6.4996
# 4 -10.5421 0.9070 2.6312 44.0859 7.0154 9.9608
# 5 -26.6955 -3.8774 -13.4017 7.0154 48.0929 -1.7200
# 6 -6.5546 -8.3670 6.4996 9.9608 -1.7200 41.1026
#
#
#
# Elastic Compliance Matrix: (Units=1/GPa)
#
#
# Indices 1 2 3 4 5 6 
#
# 1 0.006455 -0.003637 -0.001482 0.001196 0.002715 0.000347
# 2 -0.003637 0.015120 -0.004128 -0.001453 -0.001615 0.003435
# 3 -0.001482 -0.004128 0.013077 -0.000806 0.002505 -0.002844
# 4 0.001196 -0.001453 -0.000806 0.025009 -0.003547 -0.006187
# 5 0.002715 -0.001615 0.002505 -0.003547 0.023440 0.001549
# 6 0.000347 0.003435 -0.002844 -0.006187 0.001549 0.027098
#
#
# Mechanical properties :
#
#
# Convention : Reuss Voigt Hill
#
# Bulk Modulus (GPa) = 61.89165 76.77664 69.33414
# Shear Modulus (GPa) = 37.29155 43.95199 40.62177
#
# Velocity S-wave (km/s) = 3.84271 4.17178 4.01062
# Velocity P-wave (km/s) = 6.64800 7.32164 6.99294
#
# Compressibility (1/GPa) = 0.01615727
#
# Stress axis : x y z
#
# Youngs Moduli (GPa) = 154.92612 66.13783 76.47263
#
# Poissons Ratio (x) = 0.24054 0.11330
# Poissons Ratio (y) = 0.56345 0.31572
# Poissons Ratio (z) = 0.22953 0.27305
#
# Static dielectric constant tensor:
#      x y z
#    x 2.722990 0.933460 0.838620 
#    y 0.933460 3.145240 1.034140 
#    z 0.838620 1.034140 2.967310 
# 
# From -- ./inp_files/152634.got.cif
#   From: 2010.05.17/outbox.cif.g08.bks.cpg/sg2_77_cif.got.tgz:152634.got - 2010.06.03 11:33:40.
