data_PCOD9048115
_publ_section_title
;
Structure prediction by ZEFSAII (Michael W. Deem and Ramdas Pophale) SiO2 
 PCOD9048115
Probable space group: P -1
;
_chemical_formula_sum "Si O2"
_cell_formula_units_Z 13
_cell_length_a 13.884219
_cell_length_b 9.882828
_cell_length_c 9.523507
_cell_angle_alpha 138.306935
_cell_angle_beta 49.804851
_cell_angle_gamma 135.411514
_cell_volume 591.842206
_symmetry_space_group_name_H-M "P -1"
_symmetry_group_IT_number 2
_symmetry_cell_setting 'triclinic'
loop_
_space_group_symop_operation_xyz
x,y,z
-x,-y,-z
loop_
_atom_site_type_symbol
_atom_site_label
_atom_site_fract_x
_atom_site_fract_y
_atom_site_fract_z
Si Si1 0.232396 0.680032 0.735612
Si Si2 0.664240 0.608586 0.387390
Si Si3 0.000000 0.500000 0.000000
Si Si4 0.307532 0.410872 0.985927
Si Si5 0.901649 0.082552 0.569695
Si Si6 0.082275 0.367293 0.377189
Si Si7 0.538344 0.867241 0.242179
O O1 0.261787 0.522616 0.699620
O O2 0.198393 0.537625 0.512360
O O3 0.092559 0.681242 0.928860
O O4 0.356780 0.931667 0.801233
O O5 0.500000 0.500000 0.500000
O O6 0.692037 0.596938 0.187887
O O7 0.746132 0.875411 0.554697
O O8 0.917325 0.306873 0.806622
O O9 0.383510 0.264695 0.860344
O O10 0.161363 0.320076 0.137168
O O11 0.402702 0.674869 0.144343
O O12 0.971398 0.153838 0.405569
O O13 0.000000 0.000000 0.500000
O O14 0.000000 0.500000 0.500000
O O15 0.500000 0.000000 0.500000
#
# Coordination Sequence:
#
# PCOD9048115 Si02
#       7
#     2   2   1   2   2   2   2
#     4  11  25  45  73 104 147 189 248 307 365 439
#     4  12  28  47  72 115 149 192 248 306 371 451
#     4  10  24  44  74 100 136 200 240 292 374 408
#     4  11  28  45  76 109 145 197 246 300 389 425
#     4  11  25  48  74 103 153 188 250 304 362 443
#     4  11  26  46  74 107 145 190 255 303 363 441
#     4  11  24  48  75 102 148 193 242 310 366 448
#
# _framework density 21.965315
#
# number of rings (size 3 to 8) (size 9 to 14) (size 15 to 20)
#    0.000    0.923    4.615    0.923   12.923    2.462 
#    0.000    0.000    0.000    0.000    0.000    0.000 
#    0.000    0.000    0.000    0.000    0.000    0.000 
#
# Total GULP energy -72465.763180 kJ/mol
# GULP energy per Si atom -5574.289475 kJ/mol
# Density = 2.191532 g / cm^3
# Si number density = 21.965315 Si / 1000 Ang^3
#
#
#
# Elastic Constant Matrix: (Units=GPa)
#
#
# Indices 1 2 3 4 5 6 
#
# 1 62.0869 28.2958 20.7168 -5.1407 14.6773 -7.4060
# 2 28.2958 189.6828 43.8435 -6.4347 17.4554 19.7064
# 3 20.7168 43.8435 106.2769 -16.2880 18.5693 12.3420
# 4 -5.1407 -6.4347 -16.2880 41.2852 -3.6627 10.6919
# 5 14.6773 17.4554 18.5693 -3.6627 26.8085 2.7391
# 6 -7.4060 19.7064 12.3420 10.6919 2.7391 45.6698
#
#
#
# Elastic Compliance Matrix: (Units=1/GPa)
#
#
# Indices 1 2 3 4 5 6 
#
# 1 0.020664 -0.002360 -0.002322 -0.000992 -0.008893 0.005762
# 2 -0.002360 0.006423 -0.001494 0.000721 -0.001468 -0.002831
# 3 -0.002322 -0.001494 0.012663 0.005030 -0.005431 -0.004006
# 4 -0.000992 0.000721 0.005030 0.028542 0.001368 -0.008595
# 5 -0.008893 -0.001468 -0.005431 0.001368 0.047330 -0.002500
# 6 0.005762 -0.002831 -0.004006 -0.008595 -0.002500 0.027297
#
#
# Mechanical properties :
#
#
# Convention : Reuss Voigt Hill
#
# Bulk Modulus (GPa) = 36.49815 60.41763 48.45789
# Shear Modulus (GPa) = 30.41281 40.43208 35.42244
#
# Velocity S-wave (km/s) = 3.72504 4.29502 4.02014
# Velocity P-wave (km/s) = 5.92904 7.22232 6.60740
#
# Compressibility (1/GPa) = 0.02739865
#
# Stress axis : x y z
#
# Youngs Moduli (GPa) = 48.39292 155.69172 78.96808
#
# Poissons Ratio (x) = 0.36740 0.18337
# Poissons Ratio (y) = 0.11420 0.11798
# Poissons Ratio (z) = 0.11237 0.23261
#
# Static dielectric constant tensor:
#      x y z
#    x 2.416450 0.013290 -0.382610 
#    y 0.013290 1.775360 -0.024950 
#    z -0.382610 -0.024950 2.041870 
# 
# From -- ./inp_files/168179.got.cif
#   From: 2010.05.17/outbox.cif.g08.bks.cpg/sg2_85_cif.got.tgz:168179.got - 2010.06.03 11:33:40.
