data_PCOD9048801
_publ_section_title
;
Structure prediction by ZEFSAII (Michael W. Deem and Ramdas Pophale) SiO2 
 PCOD9048801
Probable space group: P -1
;
_chemical_formula_sum "Si O2"
_cell_formula_units_Z 12
_cell_length_a 12.183102
_cell_length_b 8.904761
_cell_length_c 6.743359
_cell_angle_alpha 79.402389
_cell_angle_beta 120.745635
_cell_angle_gamma 69.507223
_cell_volume 525.729253
_symmetry_space_group_name_H-M "P -1"
_symmetry_group_IT_number 2
_symmetry_cell_setting 'triclinic'
loop_
_space_group_symop_operation_xyz
x,y,z
-x,-y,-z
loop_
_atom_site_type_symbol
_atom_site_label
_atom_site_fract_x
_atom_site_fract_y
_atom_site_fract_z
Si Si1 0.176680 0.414114 0.720253
Si Si2 0.430243 0.882745 0.528658
Si Si3 0.825807 0.913791 0.062551
Si Si4 0.334947 0.525777 0.154222
Si Si5 0.688043 0.193858 0.201809
Si Si6 0.178267 0.667345 0.379440
O O1 0.229003 0.469303 0.558799
O O2 0.000000 0.500000 0.500000
O O3 0.002218 0.210396 0.815122
O O4 0.218743 0.502995 0.915108
O O5 0.766295 0.787582 0.118134
O O6 0.536776 0.674203 0.619887
O O7 0.405832 0.871369 0.744808
O O8 0.274925 0.974871 0.242933
O O9 0.500000 0.000000 0.500000
O O10 0.803177 0.041743 0.194841
O O11 0.247531 0.641358 0.234824
O O12 0.397149 0.627495 0.056100
O O13 0.766417 0.243394 0.433391
#
# Coordination Sequence:
#
# PCOD9048801 Si02
#       6
#     2   2   2   2   2   2
#     4   9  21  40  66 100 135 178 222 277 337 392
#     4  12  27  45  69 104 137 183 228 279 343 406
#     4  11  24  43  71 106 138 177 229 286 337 402
#     4  11  24  47  69 101 140 179 227 280 343 409
#     4  11  26  44  71 100 142 177 230 282 339 404
#     4  10  24  45  73 102 136 182 228 281 344 402
#
# _framework density 22.825436
#
# number of rings (size 3 to 8) (size 9 to 14) (size 15 to 20)
#    0.000    1.333    1.667    2.000    2.333   15.333 
#    0.000    0.000    0.000    0.000    0.000    0.000 
#    0.000    0.000    0.000    0.000    0.000    0.000 
#
# Total GULP energy -67110.212100 kJ/mol
# GULP energy per Si atom -5592.517675 kJ/mol
# Density = 2.277348 g / cm^3
# Si number density = 22.825436 Si / 1000 Ang^3
#
#
#
# Elastic Constant Matrix: (Units=GPa)
#
#
# Indices 1 2 3 4 5 6 
#
# 1 115.7619 57.3319 56.1279 -21.1046 -33.3942 7.9221
# 2 57.3319 124.8941 58.2308 -27.3969 -30.0510 5.2370
# 3 56.1279 58.2308 110.6944 -13.3155 -17.3781 6.0601
# 4 -21.1046 -27.3969 -13.3155 34.7290 0.1848 -14.0402
# 5 -33.3942 -30.0510 -17.3781 0.1848 41.0442 -5.1661
# 6 7.9221 5.2370 6.0601 -14.0402 -5.1661 45.0277
#
#
#
# Elastic Compliance Matrix: (Units=1/GPa)
#
#
# Indices 1 2 3 4 5 6 
#
# 1 0.015733 -0.000776 -0.005142 0.007544 0.010215 0.001539
# 2 -0.000776 0.014999 -0.005039 0.010762 0.008598 0.003413
# 3 -0.005142 -0.005039 0.013733 -0.002369 -0.002218 -0.001351
# 4 0.007544 0.010762 -0.002369 0.046508 0.014557 0.013912
# 5 0.010215 0.008598 -0.002218 0.014557 0.038782 0.006490
# 6 0.001539 0.003413 -0.001351 0.013912 0.006490 0.026805
#
#
# Mechanical properties :
#
#
# Convention : Reuss Voigt Hill
#
# Bulk Modulus (GPa) = 44.34662 77.19240 60.76951
# Shear Modulus (GPa) = 26.88302 36.13748 31.51025
#
# Velocity S-wave (km/s) = 3.43558 3.98327 3.71952
# Velocity P-wave (km/s) = 5.93367 7.41939 6.71773
#
# Compressibility (1/GPa) = 0.02254963
#
# Stress axis : x y z
#
# Youngs Moduli (GPa) = 63.56114 66.67094 72.81871
#
# Poissons Ratio (x) = 0.05177 0.37444
# Poissons Ratio (y) = 0.04935 0.36693
# Poissons Ratio (z) = 0.32683 0.33595
#
# Static dielectric constant tensor:
#      x y z
#    x 1.882550 0.046470 0.004730 
#    y 0.046470 1.855240 -0.032230 
#    z 0.004730 -0.032230 1.835550 
# 
# From -- ./inp_files/59749.got.cif
#   From: 2010.05.17/outbox.cif.g08.bks.cpg/sg2_30_cif.got.tgz:59749.got - 2010.06.03 11:33:40.
