data_PCOD9048262
_publ_section_title
;
Structure prediction by ZEFSAII (Michael W. Deem and Ramdas Pophale) SiO2 
 PCOD9048262
Probable space group: P -1
;
_chemical_formula_sum "Si O2"
_cell_formula_units_Z 12
_cell_length_a 14.753452
_cell_length_b 12.185116
_cell_length_c 15.416686
_cell_angle_alpha 29.933300
_cell_angle_beta 30.054915
_cell_angle_gamma 29.925650
_cell_volume 612.636919
_symmetry_space_group_name_H-M "P -1"
_symmetry_group_IT_number 2
_symmetry_cell_setting 'triclinic'
loop_
_space_group_symop_operation_xyz
x,y,z
-x,-y,-z
loop_
_atom_site_type_symbol
_atom_site_label
_atom_site_fract_x
_atom_site_fract_y
_atom_site_fract_z
Si Si1 0.266863 0.876535 0.563103
Si Si2 0.532488 0.762952 0.580944
Si Si3 0.424915 0.052829 0.161602
Si Si4 0.997425 0.571580 0.553344
Si Si5 0.609334 0.533805 0.973295
Si Si6 0.221091 0.383302 0.941369
O O1 0.445656 0.847085 0.500120
O O2 0.258747 0.621577 0.752890
O O3 0.314491 0.922555 0.394916
O O4 0.078061 0.134985 0.572937
O O5 0.771451 0.575404 0.505614
O O6 0.500000 0.000000 0.500000
O O7 0.408195 0.646970 0.816378
O O8 0.490162 0.200111 0.077317
O O9 0.616798 0.839655 0.099596
O O10 0.266210 0.253003 0.087963
O O11 0.833326 0.502505 0.783390
O O12 0.000000 0.500000 0.500000
O O13 0.500000 0.500000 0.000000
O O14 0.000000 0.500000 0.000000
#
# Coordination Sequence:
#
# PCOD9048262 Si02
#       6
#     2   2   2   2   2   2
#     4  11  24  44  66  96 139 175 226 281 338 402
#     4  12  23  42  66  99 139 180 223 276 341 406
#     4  10  24  45  64  98 138 171 226 284 332 398
#     4  11  23  40  64  98 135 182 225 272 337 406
#     4  11  22  41  69  98 141 178 219 285 336 401
#     4  11  25  42  71  99 128 179 231 274 339 404
#
# _framework density 19.587458999999999
#
# number of rings (size 3 to 8) (size 9 to 14) (size 15 to 20)
#    0.000    1.000    5.000    1.500    2.333    4.000 
#    0.000    0.000    0.000    0.000    0.000    0.000 
#    0.000    0.000    0.000    0.000    0.000    0.000 
#
# Total GULP energy -66962.177340 kJ/mol
# GULP energy per Si atom -5580.181445 kJ/mol
# Density = 1.954288 g / cm^3
# Si number density = 19.587459 Si / 1000 Ang^3
#
#
#
# Elastic Constant Matrix: (Units=GPa)
#
#
# Indices 1 2 3 4 5 6 
#
# 1 124.2027 68.9398 37.2061 -5.3643 10.4559 -9.1804
# 2 68.9398 136.6194 48.5957 -2.5396 2.3315 -18.9235
# 3 37.2061 48.5957 128.5749 -13.8795 21.7274 -2.9829
# 4 -5.3643 -2.5396 -13.8795 27.5040 1.2601 6.3048
# 5 10.4559 2.3315 21.7274 1.2601 33.1444 -3.5679
# 6 -9.1804 -18.9235 -2.9829 6.3048 -3.5679 34.0445
#
#
#
# Elastic Compliance Matrix: (Units=1/GPa)
#
#
# Indices 1 2 3 4 5 6 
#
# 1 0.011662 -0.005717 -0.000515 0.001796 -0.003086 -0.000734
# 2 -0.005717 0.012321 -0.003981 -0.003577 0.004336 0.006075
# 3 -0.000515 -0.003981 0.011321 0.006356 -0.007579 -0.003331
# 4 0.001796 -0.003577 0.006356 0.042085 -0.007102 -0.009486
# 5 -0.003086 0.004336 -0.007579 -0.007102 0.036732 0.006079
# 6 -0.000734 0.006075 -0.003331 -0.009486 0.006079 0.034654
#
#
# Mechanical properties :
#
#
# Convention : Reuss Voigt Hill
#
# Bulk Modulus (GPa) = 67.21368 77.65336 72.43352
# Shear Modulus (GPa) = 28.70889 34.58226 31.64557
#
# Velocity S-wave (km/s) = 3.83257 4.20638 4.02382
# Velocity P-wave (km/s) = 7.34669 7.95751 7.65820
#
# Compressibility (1/GPa) = 0.01487792
#
# Stress axis : x y z
#
# Youngs Moduli (GPa) = 85.74644 81.15899 88.33360
#
# Poissons Ratio (x) = 0.46400 0.04553
# Poissons Ratio (y) = 0.49023 0.35162
# Poissons Ratio (z) = 0.04420 0.32306
#
# Static dielectric constant tensor:
#      x y z
#    x 2.504200 -0.172510 -0.468080 
#    y -0.172510 1.704570 0.102410 
#    z -0.468080 0.102410 1.977960 
# 
# From -- ./inp_files/46082.got.cif
#   From: 2010.05.17/outbox.cif.g08.bks.cpg/sg2_24_cif.got.tgz:46082.got - 2010.06.03 11:33:40.
