data_PCOD9048032
_publ_section_title
;
Structure prediction by ZEFSAII (Michael W. Deem and Ramdas Pophale) SiO2 
 PCOD9048032
Probable space group: P -1
;
_chemical_formula_sum "Si O2"
_cell_formula_units_Z 13
_cell_length_a 9.651325
_cell_length_b 4.941076
_cell_length_c 11.355765
_cell_angle_alpha 74.977428
_cell_angle_beta 94.592833
_cell_angle_gamma 85.307103
_cell_volume 518.378518
_symmetry_space_group_name_H-M "P -1"
_symmetry_group_IT_number 2
_symmetry_cell_setting 'triclinic'
loop_
_space_group_symop_operation_xyz
x,y,z
-x,-y,-z
loop_
_atom_site_type_symbol
_atom_site_label
_atom_site_fract_x
_atom_site_fract_y
_atom_site_fract_z
Si Si1 0.762440 0.527695 0.033876
Si Si2 0.797839 0.279617 0.639860
Si Si3 0.482742 0.680583 0.255238
Si Si4 0.965719 0.270726 0.884350
Si Si5 0.144697 0.130292 0.506307
Si Si6 0.664983 0.160837 0.260344
Si Si7 0.500000 0.000000 0.000000
O O1 0.701099 0.257879 0.120622
O O2 0.889291 0.589114 0.125085
O O3 0.845328 0.466857 0.924458
O O4 0.643497 0.788424 0.994644
O O5 0.649560 0.385886 0.674789
O O6 0.905536 0.197142 0.762579
O O7 0.854201 0.538742 0.545995
O O8 0.773874 0.023230 0.581515
O O9 0.610550 0.437815 0.297835
O O10 0.538358 0.971903 0.263939
O O11 0.453059 0.741694 0.109530
O O12 0.000000 0.000000 0.000000
O O13 0.212442 0.020914 0.644890
O O14 0.000000 0.000000 0.500000
#
# Coordination Sequence:
#
# PCOD9048032 Si02
#       7
#     2   2   2   2   2   2   1
#     4  10  25  45  73 109 148 197 243 311 374 453
#     4  12  28  46  76 107 144 192 249 302 373 437
#     4  11  26  44  73 108 145 193 236 306 370 445
#     4  11  26  44  75 108 152 192 245 311 381 447
#     4  12  28  49  74 103 144 193 250 308 362 443
#     4  11  26  46  72 103 145 193 244 301 368 436
#     4  10  24  44  72 110 154 186 248 292 380 440
#
# _framework density 25.078195999999998
#
# number of rings (size 3 to 8) (size 9 to 14) (size 15 to 20)
#    0.000    0.923    0.000    4.154   17.231    4.923 
#    0.000    0.000    0.000    0.000    0.000    0.000 
#    0.000    0.000    0.000    0.000    0.000    0.000 
#
# Total GULP energy -72648.317467 kJ/mol
# GULP energy per Si atom -5588.332113 kJ/mol
# Density = 2.502112 g / cm^3
# Si number density = 25.078196 Si / 1000 Ang^3
#
#
#
# Elastic Constant Matrix: (Units=GPa)
#
#
# Indices 1 2 3 4 5 6 
#
# 1 100.9612 16.0911 5.6728 -19.2890 -17.7828 -30.3157
# 2 16.0911 105.0697 15.9929 -14.0319 -6.6270 -11.9692
# 3 5.6728 15.9929 91.4696 -20.9793 20.5561 -13.2732
# 4 -19.2890 -14.0319 -20.9793 41.3036 1.6875 -10.3202
# 5 -17.7828 -6.6270 20.5561 1.6875 35.5855 -1.7582
# 6 -30.3157 -11.9692 -13.2732 -10.3202 -1.7582 36.5536
#
#
#
# Elastic Compliance Matrix: (Units=1/GPa)
#
#
# Indices 1 2 3 4 5 6 
#
# 1 0.023515 0.002307 0.004863 0.020932 0.009782 0.028403
# 2 0.002307 0.011133 -0.000326 0.006405 0.003477 0.007416
# 3 0.004863 -0.000326 0.018112 0.015297 -0.008106 0.014432
# 4 0.020932 0.006405 0.015297 0.053920 0.002253 0.040344
# 5 0.009782 0.003477 -0.008106 0.002253 0.038648 0.008803
# 6 0.028403 0.007416 0.014432 0.040344 0.008803 0.070396
#
#
# Mechanical properties :
#
#
# Convention : Reuss Voigt Hill
#
# Bulk Modulus (GPa) = 15.04955 41.44602 28.24779
# Shear Modulus (GPa) = 22.30283 40.00478 31.15381
#
# Velocity S-wave (km/s) = 2.98540 3.99833 3.52840
# Velocity P-wave (km/s) = 4.23055 6.15452 5.28089
#
# Compressibility (1/GPa) = 0.06644715
#
# Stress axis : x y z
#
# Youngs Moduli (GPa) = 42.52632 89.82077 55.21109
#
# Poissons Ratio (x) = -0.20719 -0.26847
# Poissons Ratio (y) = -0.09810 0.01799
# Poissons Ratio (z) = -0.20679 0.02928
#
# Static dielectric constant tensor:
#      x y z
#    x 2.337560 0.398440 0.320790 
#    y 0.398440 2.522000 0.474190 
#    z 0.320790 0.474190 2.281270 
# 
# From -- ./inp_files/372401.got.cif
#   From: 2010.05.17/outbox.cif.g08.bks.cpg/sg2_187_cif.got.tgz:372401.got - 2010.06.03 11:33:40.
