data_PCOD9048136
_publ_section_title
;
Structure prediction by ZEFSAII (Michael W. Deem and Ramdas Pophale) SiO2 
 PCOD9048136
Probable space group: P -1
;
_chemical_formula_sum "Si O2"
_cell_formula_units_Z 15
_cell_length_a 14.775106
_cell_length_b 8.467111
_cell_length_c 5.824022
_cell_angle_alpha 90.909150
_cell_angle_beta 108.891332
_cell_angle_gamma 116.665343
_cell_volume 604.739878
_symmetry_space_group_name_H-M "P -1"
_symmetry_group_IT_number 2
_symmetry_cell_setting 'triclinic'
loop_
_space_group_symop_operation_xyz
x,y,z
-x,-y,-z
loop_
_atom_site_type_symbol
_atom_site_label
_atom_site_fract_x
_atom_site_fract_y
_atom_site_fract_z
Si Si1 0.059371 0.383848 0.599884
Si Si2 0.556344 0.524869 0.296190
Si Si3 0.500000 0.000000 0.000000
Si Si4 0.300334 0.831471 0.140547
Si Si5 0.253892 0.518458 0.446279
Si Si6 0.895563 0.813963 0.988386
Si Si7 0.858196 0.074809 0.259774
Si Si8 0.675221 0.936465 0.431835
O O1 0.180441 0.493355 0.605774
O O2 0.062425 0.310890 0.851640
O O3 0.000000 0.500000 0.500000
O O4 0.986463 0.201699 0.392596
O O5 0.500000 0.500000 0.500000
O O6 0.623028 0.415567 0.369034
O O7 0.642849 0.732602 0.369702
O O8 0.500000 0.500000 0.000000
O O9 0.594511 0.148839 0.906135
O O10 0.401810 0.024423 0.798435
O O11 0.257899 0.667069 0.278736
O O12 0.344228 0.013919 0.330722
O O13 0.198984 0.829109 0.924627
O O14 0.193882 0.324701 0.264332
O O15 0.837427 0.889148 0.121171
O O16 0.000000 0.000000 0.000000
O O17 0.800804 0.045989 0.459480
#
# Coordination Sequence:
#
# PCOD9048136 Si02
#       8
#     2   2   1   2   2   2   2   2
#     4  12  27  46  75 112 156 201 261 328 396 486
#     4  12  31  51  79 115 158 206 272 338 409 485
#     4  10  24  44  74 106 144 196 266 320 398 466
#     4  11  25  46  77 109 155 204 266 329 405 474
#     4  12  28  48  77 113 155 207 263 330 407 479
#     4  12  27  46  77 108 158 204 263 316 403 481
#     4  11  25  44  72 111 148 205 257 319 393 487
#     4  11  25  45  75 102 152 198 260 321 402 469
#
# _framework density 24.804054000000001
#
# number of rings (size 3 to 8) (size 9 to 14) (size 15 to 20)
#    0.000    0.533    1.333    4.800   14.933    2.133 
#    0.000    0.000    0.000    0.000    0.000    0.000 
#    0.000    0.000    0.000    0.000    0.000    0.000 
#
# Total GULP energy -83690.621353 kJ/mol
# GULP energy per Si atom -5579.374757 kJ/mol
# Density = 2.474760 g / cm^3
# Si number density = 24.804054 Si / 1000 Ang^3
#
#
#
# Elastic Constant Matrix: (Units=GPa)
#
#
# Indices 1 2 3 4 5 6 
#
# 1 104.1311 -0.9893 21.4667 -12.5798 7.3935 12.0465
# 2 -0.9893 68.5539 26.3447 -14.6990 -1.8188 4.8270
# 3 21.4667 26.3447 106.8459 -10.2787 17.3605 -7.0739
# 4 -12.5798 -14.6990 -10.2787 39.0590 -7.7521 -12.2939
# 5 7.3935 -1.8188 17.3605 -7.7521 36.5448 -1.9855
# 6 12.0465 4.8270 -7.0739 -12.2939 -1.9855 42.2510
#
#
#
# Elastic Compliance Matrix: (Units=1/GPa)
#
#
# Indices 1 2 3 4 5 6 
#
# 1 0.010823 0.001844 -0.002503 0.002459 -0.000551 -0.003026
# 2 0.001844 0.018134 -0.004987 0.006520 0.004209 -0.001337
# 3 -0.002503 -0.004987 0.012208 0.000501 -0.005260 0.003226
# 4 0.002459 0.006520 0.000501 0.033091 0.007075 0.008599
# 5 -0.000551 0.004209 -0.005260 0.007075 0.031812 0.002349
# 6 -0.003026 -0.001337 0.003226 0.008599 0.002349 0.027836
#
#
# Mechanical properties :
#
#
# Convention : Reuss Voigt Hill
#
# Bulk Modulus (GPa) = 33.47530 41.46388 37.46959
# Shear Modulus (GPa) = 32.22600 39.08489 35.65544
#
# Velocity S-wave (km/s) = 3.60838 3.97387 3.79553
# Velocity P-wave (km/s) = 5.55750 6.14886 5.86064
#
# Compressibility (1/GPa) = 0.02987277
#
# Stress axis : x y z
#
# Youngs Moduli (GPa) = 92.39441 55.14516 81.91193
#
# Poissons Ratio (x) = -0.10168 0.20505
# Poissons Ratio (y) = -0.17037 0.40848
# Poissons Ratio (z) = 0.23129 0.27500
#
# Static dielectric constant tensor:
#      x y z
#    x 2.026450 0.005600 -0.059270 
#    y 0.005600 1.957730 0.004020 
#    z -0.059270 0.004020 2.143790 
# 
# From -- ./inp_files/37368.got.cif
#   From: 2010.05.17/outbox.cif.g08.bks.cpg/sg2_19_cif.got.tgz:37368.got - 2010.06.03 11:33:40.
