data_PCOD9048729
_publ_section_title
;
Structure prediction by ZEFSAII (Michael W. Deem and Ramdas Pophale) SiO2 
 PCOD9048729
Probable space group: P -1
;
_chemical_formula_sum "Si O2"
_cell_formula_units_Z 13
_cell_length_a 11.875230
_cell_length_b 11.588522
_cell_length_c 8.663791
_cell_angle_alpha 77.462474
_cell_angle_beta 114.083563
_cell_angle_gamma 48.073935
_cell_volume 561.165780
_symmetry_space_group_name_H-M "P -1"
_symmetry_group_IT_number 2
_symmetry_cell_setting 'triclinic'
loop_
_space_group_symop_operation_xyz
x,y,z
-x,-y,-z
loop_
_atom_site_type_symbol
_atom_site_label
_atom_site_fract_x
_atom_site_fract_y
_atom_site_fract_z
Si Si1 0.334176 0.137559 0.217070
Si Si2 0.134080 0.647009 0.590920
Si Si3 0.637912 0.263727 0.645721
Si Si4 0.970956 0.418030 0.166484
Si Si5 0.676290 0.687146 0.447985
Si Si6 0.086999 0.958837 0.812947
Si Si7 0.500000 0.500000 0.000000
O O1 0.093585 0.283449 0.113320
O O2 0.500000 0.000000 0.500000
O O3 0.464321 0.951315 0.219823
O O4 0.276148 0.317136 0.078524
O O5 0.036477 0.679857 0.688454
O O6 0.204247 0.475970 0.579212
O O7 0.373931 0.519279 0.796046
O O8 0.963708 0.872111 0.338431
O O9 0.500000 0.500000 0.500000
O O10 0.449270 0.311953 0.519517
O O11 0.780703 0.135166 0.922527
O O12 0.833070 0.108281 0.666280
O O13 0.126817 0.395318 0.335271
O O14 0.239866 0.756707 0.841569
#
# Coordination Sequence:
#
# PCOD9048729 Si02
#       7
#     2   2   2   2   2   2   1
#     4   9  22  46  64 101 132 184 227 275 342 411
#     4  12  26  46  66 106 137 183 229 287 353 405
#     4  11  23  46  71 101 137 180 234 287 341 415
#     4  10  24  45  71  98 142 179 225 288 344 415
#     4  11  23  43  71 103 135 178 237 278 347 410
#     4  11  25  46  69  99 140 183 232 287 344 411
#     4  12  26  46  66 100 144 182 230 284 352 412
#
# _framework density 23.166058
#
# number of rings (size 3 to 8) (size 9 to 14) (size 15 to 20)
#    0.000    1.231    3.077    0.923    4.308    3.077 
#   13.846    0.000    0.000    0.000    0.000    0.000 
#    0.000    0.000    0.000    0.000    0.000    0.000 
#
# Total GULP energy -72410.772273 kJ/mol
# GULP energy per Si atom -5570.059406 kJ/mol
# Density = 2.311333 g / cm^3
# Si number density = 23.166058 Si / 1000 Ang^3
#
#
#
# Elastic Constant Matrix: (Units=GPa)
#
#
# Indices 1 2 3 4 5 6 
#
# 1 72.9985 2.9753 53.2294 -11.7130 -16.5207 -1.3187
# 2 2.9753 104.4959 6.1135 -28.8852 -0.4631 -14.7134
# 3 53.2294 6.1135 96.3717 -14.2038 -13.6906 9.0361
# 4 -11.7130 -28.8852 -14.2038 32.4204 2.3730 8.7955
# 5 -16.5207 -0.4631 -13.6906 2.3730 41.4973 8.3412
# 6 -1.3187 -14.7134 9.0361 8.7955 8.3412 33.6945
#
#
#
# Elastic Compliance Matrix: (Units=1/GPa)
#
#
# Indices 1 2 3 4 5 6 
#
# 1 0.024671 0.001428 -0.012801 0.003429 0.004829 0.002932
# 2 0.001428 0.013087 -0.000349 0.011232 -0.000665 0.003097
# 3 -0.012801 -0.000349 0.019393 0.005525 0.002577 -0.007934
# 4 0.003429 0.011232 0.005525 0.046849 0.002502 -0.009291
# 5 0.004829 -0.000665 0.002577 0.002502 0.028425 -0.008482
# 6 0.002932 0.003097 -0.007934 -0.009291 -0.008482 0.037799
#
#
# Mechanical properties :
#
#
# Convention : Reuss Voigt Hill
#
# Bulk Modulus (GPa) = 29.66481 44.27805 36.97143
# Shear Modulus (GPa) = 24.40185 35.62564 30.01374
#
# Velocity S-wave (km/s) = 3.24905 3.92578 3.60334
# Velocity P-wave (km/s) = 5.18731 6.30110 5.77114
#
# Compressibility (1/GPa) = 0.03370998
#
# Stress axis : x y z
#
# Youngs Moduli (GPa) = 40.53382 76.40910 51.56467
#
# Poissons Ratio (x) = -0.10915 0.66006
# Poissons Ratio (y) = -0.05790 0.01798
# Poissons Ratio (z) = 0.51885 0.02664
#
# Static dielectric constant tensor:
#      x y z
#    x 1.895070 -0.015050 0.005150 
#    y -0.015050 1.911190 -0.009900 
#    z 0.005150 -0.009900 1.916250 
# 
# From -- ./inp_files/130637.got.cif
#   From: 2010.05.17/outbox.cif.g08.bks.cpg/sg2_66_cif.got.tgz:130637.got - 2010.06.03 11:33:40.
