data_PCOD9048086
_publ_section_title
;
Structure prediction by ZEFSAII (Michael W. Deem and Ramdas Pophale) SiO2 
 PCOD9048086
Probable space group: P -1
;
_chemical_formula_sum "Si O2"
_cell_formula_units_Z 11
_cell_length_a 8.619573
_cell_length_b 9.515030
_cell_length_c 8.508965
_cell_angle_alpha 71.517590
_cell_angle_beta 116.772008
_cell_angle_gamma 68.275540
_cell_volume 470.161878
_symmetry_space_group_name_H-M "P -1"
_symmetry_group_IT_number 2
_symmetry_cell_setting 'triclinic'
loop_
_space_group_symop_operation_xyz
x,y,z
-x,-y,-z
loop_
_atom_site_type_symbol
_atom_site_label
_atom_site_fract_x
_atom_site_fract_y
_atom_site_fract_z
Si Si1 0.094144 0.869910 0.844761
Si Si2 0.500000 0.500000 0.000000
Si Si3 0.618605 0.753800 0.002773
Si Si4 0.029649 0.762042 0.192169
Si Si5 0.685874 0.923356 0.483021
Si Si6 0.229943 0.399357 0.552733
O O1 0.301337 0.711267 0.895229
O O2 0.881245 0.919211 0.640981
O O3 0.103081 0.791614 0.049892
O O4 0.053837 0.064250 0.793982
O O5 0.648338 0.574510 0.008542
O O6 0.424725 0.941336 0.764528
O O7 0.597453 0.734727 0.187776
O O8 0.831848 0.748428 0.078897
O O9 0.226980 0.569058 0.432446
O O10 0.760475 0.721620 0.539024
O O11 0.500000 0.000000 0.500000
O O12 0.000000 0.500000 0.500000
#
# Coordination Sequence:
#
# PCOD9048086 Si02
#       6
#     2   1   2   2   2   2
#     4  11  26  48  73 116 140 200 241 317 357 449
#     4  12  30  42  78 106 150 186 256 302 370 432
#     4  11  26  48  71 110 148 200 237 309 368 443
#     4  10  24  49  77 101 156 191 255 290 380 435
#     4  12  26  46  79 108 148 193 254 303 368 437
#     4  10  24  44  73 105 145 199 235 300 366 439
#
# _framework density 23.396197999999998
#
# number of rings (size 3 to 8) (size 9 to 14) (size 15 to 20)
#    0.000    1.091    1.818    2.727   12.727    2.182 
#    0.000    1.818    0.000    0.000    0.000    0.000 
#    0.000    0.000    0.000    0.000    0.000    0.000 
#
# Total GULP energy -61321.637451 kJ/mol
# GULP energy per Si atom -5574.694314 kJ/mol
# Density = 2.334295 g / cm^3
# Si number density = 23.396198 Si / 1000 Ang^3
#
#
#
# Elastic Constant Matrix: (Units=GPa)
#
#
# Indices 1 2 3 4 5 6 
#
# 1 92.7871 59.8083 42.6252 -12.1741 10.7209 3.6331
# 2 59.8083 188.1284 50.6429 -39.2545 5.8911 9.9648
# 3 42.6252 50.6429 125.1821 -7.7382 -14.4892 -6.7682
# 4 -12.1741 -39.2545 -7.7382 22.2793 12.4898 -4.3528
# 5 10.7209 5.8911 -14.4892 12.4898 38.2096 -9.5656
# 6 3.6331 9.9648 -6.7682 -4.3528 -9.5656 44.4458
#
#
#
# Elastic Compliance Matrix: (Units=1/GPa)
#
#
# Indices 1 2 3 4 5 6 
#
# 1 0.017304 -0.000663 -0.006473 0.012095 -0.012079 -0.003667
# 2 -0.000663 0.013868 -0.005487 0.029628 -0.014760 -0.004166
# 3 -0.006473 -0.005487 0.013380 -0.015428 0.014111 0.005323
# 4 0.012095 0.029628 -0.015428 0.129211 -0.058533 -0.009924
# 5 -0.012079 -0.014760 0.014111 -0.058533 0.059716 0.013565
# 6 -0.003667 -0.004166 0.005323 -0.009924 0.013565 0.026491
#
#
# Mechanical properties :
#
#
# Convention : Reuss Voigt Hill
#
# Bulk Modulus (GPa) = 51.79442 79.13892 65.46667
# Shear Modulus (GPa) = 17.14377 37.85501 27.49939
#
# Velocity S-wave (km/s) = 2.70989 4.02680 3.43210
# Velocity P-wave (km/s) = 5.65485 7.45112 6.61424
#
# Compressibility (1/GPa) = 0.01930710
#
# Stress axis : x y z
#
# Youngs Moduli (GPa) = 57.78983 72.10793 74.74086
#
# Poissons Ratio (x) = 0.04777 0.48378
# Poissons Ratio (y) = 0.03829 0.41010
# Poissons Ratio (z) = 0.37406 0.39566
#
# Static dielectric constant tensor:
#      x y z
#    x 1.833540 0.027560 -0.008930 
#    y 0.027560 1.844550 0.027600 
#    z -0.008930 0.027600 1.953860 
# 
# From -- ./inp_files/153514.got.cif
#   From: 2010.05.17/outbox.cif.g08.bks.cpg/sg2_77_cif.got.tgz:153514.got - 2010.06.03 11:33:40.
