data_PCOD9048295
_publ_section_title
;
Structure prediction by ZEFSAII (Michael W. Deem and Ramdas Pophale) SiO2 
 PCOD9048295
Probable space group: P -1
;
_chemical_formula_sum "Si O2"
_cell_formula_units_Z 12
_cell_length_a 5.301702
_cell_length_b 7.157401
_cell_length_c 13.713125
_cell_angle_alpha 116.721850
_cell_angle_beta 84.119512
_cell_angle_gamma 72.337433
_cell_volume 425.075643
_symmetry_space_group_name_H-M "P -1"
_symmetry_group_IT_number 2
_symmetry_cell_setting 'triclinic'
loop_
_space_group_symop_operation_xyz
x,y,z
-x,-y,-z
loop_
_atom_site_type_symbol
_atom_site_label
_atom_site_fract_x
_atom_site_fract_y
_atom_site_fract_z
Si Si1 0.431078 0.196965 0.910177
Si Si2 0.889284 0.829152 0.584317
Si Si3 0.034610 0.735582 0.333430
Si Si4 0.849388 0.319683 0.054938
Si Si5 0.502135 0.293880 0.232532
Si Si6 0.310873 0.415091 0.584694
O O1 0.287339 0.407958 0.892825
O O2 0.522701 0.943394 0.804242
O O3 0.682979 0.228169 0.962368
O O4 0.174213 0.226692 0.999471
O O5 0.622926 0.789230 0.543464
O O6 0.051551 0.780216 0.460892
O O7 0.038564 0.623731 0.604030
O O8 0.906551 0.063146 0.672151
O O9 0.250154 0.490417 0.233503
O O10 0.747919 0.701626 0.342997
O O11 0.770348 0.252513 0.146779
O O12 0.523708 0.436261 0.358082
#
# Coordination Sequence:
#
# PCOD9048295 Si02
#       6
#     2   2   2   2   2   2
#     4  10  24  45  66  92 129 167 204 260 329 382
#     4   8  18  42  55  80 128 170 193 254 316 368
#     4   9  20  37  57  85 122 161 205 250 308 366
#     4  10  24  45  66  92 129 167 204 260 329 382
#     4  12  24  34  65  98 114 162 213 266 304 376
#     4   9  20  37  57  85 122 161 205 250 308 366
#
# _framework density 28.230267999999999
#
# number of rings (size 3 to 8) (size 9 to 14) (size 15 to 20)
#    1.000    1.333    0.000    1.000    4.667    4.000 
#    3.000    0.000    0.000    0.000    0.000    0.000 
#    0.000    0.000    0.000    0.000    0.000    0.000 
#
# Total GULP energy -66974.838761 kJ/mol
# GULP energy per Si atom -5581.236563 kJ/mol
# Density = 2.816602 g / cm^3
# Si number density = 28.230268 Si / 1000 Ang^3
#
#
#
# Elastic Constant Matrix: (Units=GPa)
#
#
# Indices 1 2 3 4 5 6 
#
# 1 65.2215 28.5192 49.5777 9.3721 10.4451 29.2780
# 2 28.5192 180.9823 52.2968 56.6346 13.4597 58.2236
# 3 49.5777 52.2968 79.6369 39.9473 23.4253 18.4726
# 4 9.3721 56.6346 39.9473 66.2672 19.2077 7.6300
# 5 10.4451 13.4597 23.4253 19.2077 44.6435 6.1348
# 6 29.2780 58.2236 18.4726 7.6300 6.1348 49.5884
#
#
#
# Elastic Compliance Matrix: (Units=1/GPa)
#
#
# Indices 1 2 3 4 5 6 
#
# 1 0.048745 0.007871 -0.035338 0.009509 0.004365 -0.026861
# 2 0.007871 0.014465 -0.007172 -0.008087 0.003534 -0.018152
# 3 -0.035338 -0.007172 0.046343 -0.015949 -0.009170 0.015610
# 4 0.009509 -0.008087 -0.015949 0.031251 -0.005648 0.005712
# 5 0.004365 0.003534 -0.009170 -0.005648 0.028373 -0.005952
# 6 -0.026861 -0.018152 0.015610 0.005712 -0.005952 0.051381
#
#
# Mechanical properties :
#
#
# Convention : Reuss Voigt Hill
#
# Bulk Modulus (GPa) = 24.82904 65.18091 45.00497
# Shear Modulus (GPa) = 16.48745 45.12960 30.80852
#
# Velocity S-wave (km/s) = 2.41930 4.00262 3.30711
# Velocity P-wave (km/s) = 4.07656 6.67086 5.52805
#
# Compressibility (1/GPa) = 0.04027542
#
# Stress axis : x y z
#
# Youngs Moduli (GPa) = 20.51478 69.13294 21.57814
#
# Poissons Ratio (x) = -0.54416 0.76254
# Poissons Ratio (y) = -0.16147 0.15475
# Poissons Ratio (z) = 0.72496 0.49580
#
# Static dielectric constant tensor:
#      x y z
#    x 2.379900 -0.005660 0.021150 
#    y -0.005660 2.149930 -0.040750 
#    z 0.021150 -0.040750 2.243410 
# 
# From -- ./inp_files/546766.got.cif
#   From: 2010.05.17/outbox.cif.g08.bks.cpg/sg2_274_cif.got.tgz:546766.got - 2010.06.03 11:33:40.
