data_PCOD9048409
_publ_section_title
;
Structure prediction by ZEFSAII (Michael W. Deem and Ramdas Pophale) SiO2 
 PCOD9048409
Probable space group: P -1
;
_chemical_formula_sum "Si O2"
_cell_formula_units_Z 12
_cell_length_a 6.273130
_cell_length_b 25.747958
_cell_length_c 16.370080
_cell_angle_alpha 163.190353
_cell_angle_beta 53.197749
_cell_angle_gamma 134.029068
_cell_volume 521.105679
_symmetry_space_group_name_H-M "P -1"
_symmetry_group_IT_number 2
_symmetry_cell_setting 'triclinic'
loop_
_space_group_symop_operation_xyz
x,y,z
-x,-y,-z
loop_
_atom_site_type_symbol
_atom_site_label
_atom_site_fract_x
_atom_site_fract_y
_atom_site_fract_z
Si Si1 0.206645 0.820032 0.448346
Si Si2 0.160342 0.477208 0.055535
Si Si3 0.084510 0.823528 0.187143
Si Si4 0.162091 0.973620 0.138230
Si Si5 0.660100 0.881381 0.866132
Si Si6 0.805879 0.586518 0.721505
O O1 0.211305 0.699970 0.348319
O O2 0.539735 0.034683 0.688721
O O3 0.913522 0.852244 0.557752
O O4 0.130022 0.675934 0.168886
O O5 0.500000 0.500000 0.000000
O O6 0.045447 0.367567 0.005285
O O7 0.000000 0.000000 0.500000
O O8 0.941684 0.715261 0.968860
O O9 0.267170 0.025429 0.100336
O O10 0.435954 0.938628 0.054384
O O11 0.839091 0.757204 0.905784
O O12 0.514805 0.630883 0.517868
O O13 0.000000 0.000000 0.000000
O O14 0.000000 0.500000 0.500000
#
# Coordination Sequence:
#
# PCOD9048409 Si02
#       6
#     2   2   2   2   2   2
#     4  11  26  44  72 106 147 194 243 310 376 428
#     4  11  25  46  72 106 148 189 253 303 370 443
#     4  12  25  46  78 106 147 200 249 305 371 442
#     4  10  24  45  68 105 144 184 249 305 359 444
#     4  10  24  46  73 102 146 194 249 300 374 434
#     4  10  25  47  72 108 148 194 247 303 372 444
#
# _framework density 23.027956
#
# number of rings (size 3 to 8) (size 9 to 14) (size 15 to 20)
#    0.000    1.333    1.667    1.500    7.000    2.000 
#   12.000    0.000    0.000    0.000    0.000    0.000 
#    0.000    0.000    0.000    0.000    0.000    0.000 
#
# Total GULP energy -66821.368542 kJ/mol
# GULP energy per Si atom -5568.447378 kJ/mol
# Density = 2.297554 g / cm^3
# Si number density = 23.027956 Si / 1000 Ang^3
#
#
#
# Elastic Constant Matrix: (Units=GPa)
#
#
# Indices 1 2 3 4 5 6 
#
# 1 136.8778 58.0171 71.4347 2.7367 2.0410 -4.2242
# 2 58.0171 151.0809 70.5163 33.8229 3.3098 -22.2013
# 3 71.4347 70.5163 126.9470 11.3238 17.8178 0.5684
# 4 2.7367 33.8229 11.3238 50.7710 0.7441 -1.1645
# 5 2.0410 3.3098 17.8178 0.7441 49.0211 4.8448
# 6 -4.2242 -22.2013 0.5684 -1.1645 4.8448 51.1639
#
#
#
# Elastic Compliance Matrix: (Units=1/GPa)
#
#
# Indices 1 2 3 4 5 6 
#
# 1 0.010972 -0.002232 -0.005345 0.002061 0.001616 -0.000109
# 2 -0.002232 0.011951 -0.004909 -0.006645 0.000693 0.004839
# 3 -0.005345 -0.004909 0.014202 0.000402 -0.004386 -0.002305
# 4 0.002061 -0.006645 0.000402 0.023872 0.000070 -0.002181
# 5 0.001616 0.000693 -0.004386 0.000070 0.022037 -0.001602
# 6 -0.000109 0.004839 -0.002305 -0.002181 -0.001602 0.021764
#
#
# Mechanical properties :
#
#
# Convention : Reuss Voigt Hill
#
# Bulk Modulus (GPa) = 82.27526 90.53797 86.40661
# Shear Modulus (GPa) = 37.36392 44.52039 40.94216
#
# Velocity S-wave (km/s) = 4.03245 4.40172 4.22113
# Velocity P-wave (km/s) = 7.58201 8.07685 7.83334
#
# Compressibility (1/GPa) = 0.01215432
#
# Stress axis : x y z
#
# Youngs Moduli (GPa) = 91.13713 83.67647 70.41444
#
# Poissons Ratio (x) = 0.18675 0.37635
# Poissons Ratio (y) = 0.20340 0.34564
# Poissons Ratio (z) = 0.48711 0.41074
#
# Static dielectric constant tensor:
#      x y z
#    x 2.058960 0.045620 -0.188100 
#    y 0.045620 1.892180 -0.054390 
#    z -0.188100 -0.054390 2.103610 
# 
# From -- ./inp_files/287424.got.cif
#   From: 2010.05.17/outbox.cif.g08.bks.cpg/sg2_144_cif.got.tgz:287424.got - 2010.06.03 11:33:40.
