data_PCOD9048848
_publ_section_title
;
Structure prediction by ZEFSAII (Michael W. Deem and Ramdas Pophale) SiO2 
 PCOD9048848
Probable space group: P -1
;
_chemical_formula_sum "Si O2"
_cell_formula_units_Z 16
_cell_length_a 15.241916
_cell_length_b 5.111978
_cell_length_c 14.291301
_cell_angle_alpha 70.018356
_cell_angle_beta 140.184633
_cell_angle_gamma 104.575208
_cell_volume 669.978085
_symmetry_space_group_name_H-M "P -1"
_symmetry_group_IT_number 2
_symmetry_cell_setting 'triclinic'
loop_
_space_group_symop_operation_xyz
x,y,z
-x,-y,-z
loop_
_atom_site_type_symbol
_atom_site_label
_atom_site_fract_x
_atom_site_fract_y
_atom_site_fract_z
Si Si1 0.017665 0.791459 0.238990
Si Si2 0.839576 0.550818 0.436990
Si Si3 0.782282 0.157899 0.285127
Si Si4 0.526231 0.895264 0.637572
Si Si5 0.433423 0.716221 0.761965
Si Si6 0.906066 0.587550 0.824141
Si Si7 0.680702 0.377516 0.787723
Si Si8 0.257421 0.515650 0.966940
O O1 0.086425 0.635744 0.402209
O O2 0.078140 0.642252 0.214467
O O3 0.857491 0.714672 0.115562
O O4 0.054455 0.114345 0.221297
O O5 0.675051 0.520642 0.320959
O O6 0.142146 0.590277 0.632072
O O7 0.859788 0.875790 0.409729
O O8 0.632094 0.161051 0.211639
O O9 0.769989 0.231793 0.157961
O O10 0.424815 0.920929 0.639901
O O11 0.547633 0.564433 0.681478
O O12 0.500000 0.000000 0.500000
O O13 0.653051 0.076486 0.758717
O O14 0.590107 0.611429 0.911884
O O15 0.756795 0.564422 0.750668
O O16 0.000000 0.500000 0.000000
O O17 0.753598 0.377955 0.948245
#
# Coordination Sequence:
#
# PCOD9048848 Si02
#       8
#     2   2   2   2   2   2   2   2
#     4  12  27  45  74 104 141 187 231 297 349 417
#     4  10  25  45  68 102 136 187 234 284 353 426
#     4  10  24  45  73  98 139 189 233 290 352 415
#     4  11  25  42  67 100 138 179 227 283 343 411
#     4   9  25  43  68 100 141 181 234 286 348 418
#     4  12  26  46  71  99 144 186 232 282 363 419
#     4  11  26  42  66 101 135 177 232 286 338 419
#     4  11  25  46  71 105 140 185 240 298 342 410
#
# _framework density 23.881375999999999
#
# number of rings (size 3 to 8) (size 9 to 14) (size 15 to 20)
#    0.750    0.500    1.250    2.625   10.500    4.500 
#    0.000    0.000    0.000    0.000    0.000    0.000 
#    0.000    0.000    0.000    0.000    0.000    0.000 
#
# Total GULP energy -89378.717236 kJ/mol
# GULP energy per Si atom -5586.169827 kJ/mol
# Density = 2.382702 g / cm^3
# Si number density = 23.881376 Si / 1000 Ang^3
#
#
#
# Elastic Constant Matrix: (Units=GPa)
#
#
# Indices 1 2 3 4 5 6 
#
# 1 88.7246 10.5375 16.7010 -1.6927 1.4147 21.3739
# 2 10.5375 84.3400 2.8000 -4.5531 16.5291 11.9807
# 3 16.7010 2.8000 71.1337 -4.5229 -9.0354 8.1073
# 4 -1.6927 -4.5531 -4.5229 37.4100 11.8384 -3.2502
# 5 1.4147 16.5291 -9.0354 11.8384 41.9961 -3.8080
# 6 21.3739 11.9807 8.1073 -3.2502 -3.8080 41.3530
#
#
#
# Elastic Compliance Matrix: (Units=1/GPa)
#
#
# Indices 1 2 3 4 5 6 
#
# 1 0.013373 -0.000373 -0.002571 0.000160 -0.001485 -0.006424
# 2 -0.000373 0.014077 -0.000667 0.003481 -0.007027 -0.004128
# 3 -0.002571 -0.000667 0.015278 0.000476 0.003400 -0.001122
# 4 0.000160 0.003481 0.000476 0.030346 -0.009800 0.000298
# 5 -0.001485 -0.007027 0.003400 -0.009800 0.030500 0.004175
# 6 -0.006424 -0.004128 -0.001122 0.000298 0.004175 0.029326
#
#
# Mechanical properties :
#
#
# Convention : Reuss Voigt Hill
#
# Bulk Modulus (GPa) = 28.16526 33.80838 30.98682
# Shear Modulus (GPa) = 32.90327 38.42913 35.66620
#
# Velocity S-wave (km/s) = 3.71587 4.01579 3.86874
# Velocity P-wave (km/s) = 5.49815 5.97408 5.74105
#
# Compressibility (1/GPa) = 0.03550473
#
# Stress axis : x y z
#
# Youngs Moduli (GPa) = 74.77480 71.03760 65.45305
#
# Poissons Ratio (x) = 0.02652 0.16830
# Poissons Ratio (y) = 0.02792 0.04367
# Poissons Ratio (z) = 0.19227 0.04740
#
# Static dielectric constant tensor:
#      x y z
#    x 1.939830 0.032560 0.071630 
#    y 0.032560 1.878700 0.021870 
#    z 0.071630 0.021870 1.989320 
# 
# From -- ./inp_files/525571.got.cif
#   From: 2010.05.17/outbox.cif.g08.bks.cpg/sg2_263_cif.got.tgz:525571.got - 2010.06.03 11:33:40.
