data_PCOD9048235
_publ_section_title
;
Structure prediction by ZEFSAII (Michael W. Deem and Ramdas Pophale) SiO2 
 PCOD9048235
Probable space group: P -1
;
_chemical_formula_sum "Si O2"
_cell_formula_units_Z 14
_cell_length_a 9.252937
_cell_length_b 9.660813
_cell_length_c 9.078921
_cell_angle_alpha 114.091990
_cell_angle_beta 119.395737
_cell_angle_gamma 43.923395
_cell_volume 488.490101
_symmetry_space_group_name_H-M "P -1"
_symmetry_group_IT_number 2
_symmetry_cell_setting 'triclinic'
loop_
_space_group_symop_operation_xyz
x,y,z
-x,-y,-z
loop_
_atom_site_type_symbol
_atom_site_label
_atom_site_fract_x
_atom_site_fract_y
_atom_site_fract_z
Si Si1 0.273314 0.165803 0.760142
Si Si2 0.808247 0.486765 0.877190
Si Si3 0.303668 0.874689 0.827382
Si Si4 0.700853 0.279284 0.938513
Si Si5 0.110708 0.548845 0.687153
Si Si6 0.849523 0.306165 0.497979
Si Si7 0.338174 0.024191 0.308130
O O1 0.236555 0.087071 0.851698
O O2 0.112412 0.173450 0.568317
O O3 0.500000 0.000000 0.500000
O O4 0.528202 0.005960 0.782734
O O5 0.566896 0.702218 0.878194
O O6 0.795565 0.426075 0.675191
O O7 0.783289 0.624480 0.214689
O O8 0.000000 0.500000 0.000000
O O9 0.216577 0.825709 0.624541
O O10 0.215367 0.855529 0.927941
O O11 0.658591 0.159132 0.763129
O O12 0.500000 0.500000 0.000000
O O13 0.823479 0.331106 0.924273
O O14 0.252025 0.556479 0.641061
O O15 0.000000 0.500000 0.500000
O O16 0.092813 0.230910 0.264940
#
# Coordination Sequence:
#
# PCOD9048235 Si02
#       7
#     2   2   2   2   2   2   2
#     4  11  27  45  85 122 178 220 297 341 439 512
#     4  11  28  51  88 127 174 230 300 365 442 517
#     4  11  27  52  83 125 177 230 289 360 445 519
#     4  10  28  53  86 123 180 229 290 365 441 517
#     4  10  24  44  78 128 169 221 289 354 419 520
#     4  11  25  48  82 120 173 227 293 359 427 525
#     4  12  25  48  88 130 174 239 293 360 447 521
#
# _framework density 28.659742000000001
#
# number of rings (size 3 to 8) (size 9 to 14) (size 15 to 20)
#    0.000    1.143    2.857    0.857   14.000    4.000 
#    0.000    2.143    0.000    0.000    0.000    0.000 
#    0.000    0.000    0.000    0.000    0.000    0.000 
#
# Total GULP energy -78292.802126 kJ/mol
# GULP energy per Si atom -5592.343009 kJ/mol
# Density = 2.859451 g / cm^3
# Si number density = 28.659742 Si / 1000 Ang^3
#
#
#
# Elastic Constant Matrix: (Units=GPa)
#
#
# Indices 1 2 3 4 5 6 
#
# 1 215.0211 102.3285 80.5413 -4.0863 -18.9354 36.5248
# 2 102.3285 218.2100 93.0343 -7.8195 -18.8202 45.8278
# 3 80.5413 93.0343 216.8120 4.6306 21.4949 25.4462
# 4 -4.0863 -7.8195 4.6306 55.4799 14.8107 1.8398
# 5 -18.9354 -18.8202 21.4949 14.8107 67.3418 3.8007
# 6 36.5248 45.8278 25.4462 1.8398 3.8007 64.6532
#
#
#
# Elastic Compliance Matrix: (Units=1/GPa)
#
#
# Indices 1 2 3 4 5 6 
#
# 1 0.006646 -0.001840 -0.001652 -0.000106 0.002013 -0.001915
# 2 -0.001840 0.007383 -0.002327 0.000585 0.002354 -0.003433
# 3 -0.001652 -0.002327 0.006518 -0.000153 -0.003173 0.000208
# 4 -0.000106 0.000585 -0.000153 0.019202 -0.004006 -0.000605
# 5 0.002013 0.002354 -0.003173 -0.004006 0.018109 -0.002507
# 6 -0.001915 -0.003433 0.000208 -0.000605 -0.002507 0.019065
#
#
# Mechanical properties :
#
#
# Convention : Reuss Voigt Hill
#
# Bulk Modulus (GPa) = 112.25803 133.53903 122.89853
# Shear Modulus (GPa) = 54.62708 62.43757 58.53232
#
# Velocity S-wave (km/s) = 4.37058 4.67259 4.52410
# Velocity P-wave (km/s) = 8.04509 8.70670 8.38243
#
# Compressibility (1/GPa) = 0.00890805
#
# Stress axis : x y z
#
# Youngs Moduli (GPa) = 150.47263 135.44888 153.42273
#
# Poissons Ratio (x) = 0.24926 0.25340
# Poissons Ratio (y) = 0.27691 0.35707
# Poissons Ratio (z) = 0.24852 0.31524
#
# Static dielectric constant tensor:
#      x y z
#    x -6.886540 -5.676290 1.482680 
#    y -5.676290 -1.180370 0.951750 
#    z 1.482680 0.951750 2.078990 
# 
# From -- ./inp_files/376942.got.cif
#   From: 2010.05.17/outbox.cif.g08.bks.cpg/sg2_189_cif.got.tgz:376942.got - 2010.06.03 11:33:40.
