data_PCOD9048236
_publ_section_title
;
Structure prediction by ZEFSAII (Michael W. Deem and Ramdas Pophale) SiO2 
 PCOD9048236
Probable space group: P -1
;
_chemical_formula_sum "Si O2"
_cell_formula_units_Z 12
_cell_length_a 4.682987
_cell_length_b 10.761564
_cell_length_c 9.392847
_cell_angle_alpha 76.501052
_cell_angle_beta 76.156623
_cell_angle_gamma 86.279619
_cell_volume 446.897091
_symmetry_space_group_name_H-M "P -1"
_symmetry_group_IT_number 2
_symmetry_cell_setting 'triclinic'
loop_
_space_group_symop_operation_xyz
x,y,z
-x,-y,-z
loop_
_atom_site_type_symbol
_atom_site_label
_atom_site_fract_x
_atom_site_fract_y
_atom_site_fract_z
Si Si1 0.362499 0.516996 0.858002
Si Si2 0.607123 0.942738 0.652338
Si Si3 0.853256 0.232028 0.292756
Si Si4 0.044038 0.294381 0.781859
Si Si5 0.547932 0.115992 0.855778
Si Si6 0.628396 0.616991 0.540961
O O1 0.144124 0.640182 0.835762
O O2 0.180943 0.403515 0.836471
O O3 0.642806 0.555876 0.712728
O O4 0.500000 0.500000 0.000000
O O5 0.860873 0.833776 0.656967
O O6 0.294214 0.947442 0.282559
O O7 0.500000 0.000000 0.500000
O O8 0.686831 0.128760 0.243248
O O9 0.622356 0.275112 0.432589
O O10 0.239405 0.169240 0.823493
O O11 0.105788 0.335168 0.599376
O O12 0.719181 0.241207 0.855393
O O13 0.500000 0.000000 0.000000
O O14 0.500000 0.500000 0.500000
#
# Coordination Sequence:
#
# PCOD9048236 Si02
#       6
#     2   2   2   2   2   2
#     4   9  22  48  80 120 157 205 256 332 408 466
#     4  12  26  49  78 109 154 212 265 326 389 470
#     4  10  24  44  79 113 160 194 265 326 396 467
#     4  11  24  50  78 109 158 207 261 329 398 472
#     4  12  29  50  76 109 155 213 268 326 394 466
#     4   8  19  43  73 117 152 201 249 322 396 477
#
# _framework density 26.85182
#
# number of rings (size 3 to 8) (size 9 to 14) (size 15 to 20)
#    1.000    0.667    0.000    3.000    2.333    5.333 
#    0.000    5.000    0.000    0.000    0.000    0.000 
#    0.000    0.000    0.000    0.000    0.000    0.000 
#
# Total GULP energy -67141.567158 kJ/mol
# GULP energy per Si atom -5595.130597 kJ/mol
# Density = 2.679070 g / cm^3
# Si number density = 26.851820 Si / 1000 Ang^3
#
#
#
# Elastic Constant Matrix: (Units=GPa)
#
#
# Indices 1 2 3 4 5 6 
#
# 1 129.9128 35.0240 52.2909 -9.2742 36.7686 -3.1046
# 2 35.0240 160.2216 68.8603 -8.1729 28.0713 10.4908
# 3 52.2909 68.8603 208.4124 -15.5634 15.6651 15.6707
# 4 -9.2742 -8.1729 -15.5634 34.8108 8.5079 -0.2995
# 5 36.7686 28.0713 15.6651 8.5079 37.8204 -2.9347
# 6 -3.1046 10.4908 15.6707 -0.2995 -2.9347 50.0896
#
#
#
# Elastic Compliance Matrix: (Units=1/GPa)
#
#
# Indices 1 2 3 4 5 6 
#
# 1 0.012415 0.000672 -0.001967 0.005770 -0.013012 0.000516
# 2 0.000672 0.008437 -0.002124 0.002857 -0.006790 -0.001442
# 3 -0.001967 -0.002124 0.006202 0.001631 0.000430 -0.001582
# 4 0.005770 0.002857 0.001631 0.035697 -0.016554 -0.001508
# 5 -0.013012 -0.006790 0.000430 -0.016554 0.047924 0.003190
# 6 0.000516 -0.001442 -0.001582 -0.001508 0.003190 0.020971
#
#
# Mechanical properties :
#
#
# Convention : Reuss Voigt Hill
#
# Bulk Modulus (GPa) = 49.46647 90.09968 69.78308
# Shear Modulus (GPa) = 34.42989 47.36894 40.89941
#
# Velocity S-wave (km/s) = 3.58469 4.20466 3.90699
# Velocity P-wave (km/s) = 5.96619 7.56303 6.81156
#
# Compressibility (1/GPa) = 0.02021571
#
# Stress axis : x y z
#
# Youngs Moduli (GPa) = 80.54828 118.52240 161.24043
#
# Poissons Ratio (x) = -0.07960 0.31712
# Poissons Ratio (y) = -0.05410 0.34248
# Poissons Ratio (z) = 0.15842 0.25175
#
# Static dielectric constant tensor:
#      x y z
#    x 2.103250 0.001530 -0.078670 
#    y 0.001530 2.138990 0.004340 
#    z -0.078670 0.004340 2.129450 
# 
# From -- ./inp_files/131542.got.cif
#   From: 2010.05.17/outbox.cif.g08.bks.cpg/sg2_66_cif.got.tgz:131542.got - 2010.06.03 11:33:40.
