data_PCOD9048591
_publ_section_title
;
Structure prediction by ZEFSAII (Michael W. Deem and Ramdas Pophale) SiO2 
 PCOD9048591
Probable space group: P -1
;
_chemical_formula_sum "Si O2"
_cell_formula_units_Z 16
_cell_length_a 9.002854
_cell_length_b 18.973169
_cell_length_c 5.627477
_cell_angle_alpha 120.600661
_cell_angle_beta 102.948651
_cell_angle_gamma 54.893999
_cell_volume 673.642489
_symmetry_space_group_name_H-M "P -1"
_symmetry_group_IT_number 2
_symmetry_cell_setting 'triclinic'
loop_
_space_group_symop_operation_xyz
x,y,z
-x,-y,-z
loop_
_atom_site_type_symbol
_atom_site_label
_atom_site_fract_x
_atom_site_fract_y
_atom_site_fract_z
Si Si1 0.142996 0.422070 0.729978
Si Si2 0.211495 0.521462 0.540077
Si Si3 0.416914 0.312084 0.004479
Si Si4 0.056918 0.799254 0.466433
Si Si5 0.835715 0.053941 0.221040
Si Si6 0.522529 0.873647 0.073601
Si Si7 0.788382 0.296239 0.132259
Si Si8 0.731288 0.960887 0.383167
O O1 0.225312 0.477238 0.727084
O O2 0.005726 0.413823 0.492252
O O3 0.308862 0.325243 0.744465
O O4 0.000000 0.500000 0.000000
O O5 0.315425 0.423169 0.253367
O O6 0.286671 0.589846 0.666414
O O7 0.627548 0.276772 0.016182
O O8 0.394861 0.239255 0.036382
O O9 0.171007 0.848877 0.555133
O O10 0.103348 0.753651 0.668188
O O11 0.846525 0.887024 0.511723
O O12 0.103870 0.733667 0.132781
O O13 0.862208 0.981641 0.317502
O O14 0.642705 0.086978 0.097978
O O15 0.000000 0.000000 0.000000
O O16 0.658465 0.906290 0.111566
O O17 0.428257 0.935812 0.389715
#
# Coordination Sequence:
#
# PCOD9048591 Si02
#       8
#     2   2   2   2   2   2   2   2
#     4   9  22  43  70  97 137 187 244 293 371 425
#     4  10  24  45  70 102 141 194 238 303 362 440
#     4  11  24  43  71 104 143 192 236 310 359 438
#     4  12  27  46  73 110 147 196 242 304 364 437
#     4  12  23  46  74 101 150 194 242 302 370 436
#     4  11  25  45  70 108 145 189 251 297 376 434
#     4  12  28  45  74 110 147 189 252 296 366 436
#     4  11  26  44  73 105 147 194 242 309 363 445
#
# _framework density 23.751470999999999
#
# number of rings (size 3 to 8) (size 9 to 14) (size 15 to 20)
#    0.000    1.000    2.500    2.625    7.000    3.500 
#    0.000    0.000    0.000    0.000    0.000    0.000 
#    0.000    0.000    0.000    0.000    0.000    0.000 
#
# Total GULP energy -89414.221666 kJ/mol
# GULP energy per Si atom -5588.388854 kJ/mol
# Density = 2.369741 g / cm^3
# Si number density = 23.751471 Si / 1000 Ang^3
#
#
#
# Elastic Constant Matrix: (Units=GPa)
#
#
# Indices 1 2 3 4 5 6 
#
# 1 59.0595 6.8077 6.5762 0.6064 11.0058 3.0985
# 2 6.8077 80.6832 28.6749 -14.7860 3.4370 -11.0642
# 3 6.5762 28.6749 80.5815 7.1988 -0.8185 -1.2354
# 4 0.6064 -14.7860 7.1988 41.6983 7.1291 11.7168
# 5 11.0058 3.4370 -0.8185 7.1291 40.2022 -1.0084
# 6 3.0985 -11.0642 -1.2354 11.7168 -1.0084 33.9605
#
#
#
# Elastic Compliance Matrix: (Units=1/GPa)
#
#
# Indices 1 2 3 4 5 6 
#
# 1 0.018296 -0.000968 -0.001354 0.001258 -0.005242 -0.002624
# 2 -0.000968 0.016413 -0.006323 0.006516 -0.002350 0.002888
# 3 -0.001354 -0.006323 0.015282 -0.005388 0.002192 0.000543
# 4 0.001258 0.006516 -0.005388 0.030895 -0.006717 -0.009046
# 5 -0.005242 -0.002350 0.002192 -0.006717 0.027820 0.002936
# 6 -0.002624 0.002888 0.000543 -0.009046 0.002936 0.033854
#
#
# Mechanical properties :
#
#
# Convention : Reuss Voigt Hill
#
# Bulk Modulus (GPa) = 30.58123 33.82687 32.20405
# Shear Modulus (GPa) = 29.28205 35.05655 32.16930
#
# Velocity S-wave (km/s) = 3.51501 3.84601 3.68423
# Velocity P-wave (km/s) = 5.42007 5.83055 5.62905
#
# Compressibility (1/GPa) = 0.03269979
#
# Stress axis : x y z
#
# Youngs Moduli (GPa) = 54.65617 60.92547 65.43438
#
# Poissons Ratio (x) = 0.05900 0.08862
# Poissons Ratio (y) = 0.05293 0.41377
# Poissons Ratio (z) = 0.07403 0.38526
#
# Static dielectric constant tensor:
#      x y z
#    x 1.923780 -0.028360 -0.005780 
#    y -0.028360 1.898040 -0.011510 
#    z -0.005780 -0.011510 2.027940 
# 
# From -- ./inp_files/39959.got.cif
#   From: 2010.05.17/outbox.cif.g08.bks.cpg/sg2_20_cif.got.tgz:39959.got - 2010.06.03 11:33:40.
