data_PCOD9048678
_publ_section_title
;
Structure prediction by ZEFSAII (Michael W. Deem and Ramdas Pophale) SiO2 
 PCOD9048678
Probable space group: P -1
;
_chemical_formula_sum "Si O2"
_cell_formula_units_Z 16
_cell_length_a 5.465899
_cell_length_b 10.148877
_cell_length_c 18.109962
_cell_angle_alpha 123.258127
_cell_angle_beta 121.501629
_cell_angle_gamma 64.809061
_cell_volume 702.499017
_symmetry_space_group_name_H-M "P -1"
_symmetry_group_IT_number 2
_symmetry_cell_setting 'triclinic'
loop_
_space_group_symop_operation_xyz
x,y,z
-x,-y,-z
loop_
_atom_site_type_symbol
_atom_site_label
_atom_site_fract_x
_atom_site_fract_y
_atom_site_fract_z
Si Si1 0.739956 0.908653 0.449630
Si Si2 0.605183 0.974377 0.698334
Si Si3 0.816372 0.559809 0.384657
Si Si4 0.626760 0.637610 0.523434
Si Si5 0.306103 0.955543 0.805067
Si Si6 0.524206 0.371243 0.177426
Si Si7 0.070248 0.529398 0.935448
Si Si8 0.452566 0.739265 0.023074
O O1 0.907910 0.730998 0.445190
O O2 0.500000 0.000000 0.500000
O O3 0.558505 0.888820 0.340429
O O4 0.000000 0.000000 0.500000
O O5 0.560164 0.814945 0.598522
O O6 0.440177 0.965091 0.746980
O O7 0.950369 0.981544 0.760545
O O8 0.556996 0.615463 0.419911
O O9 0.737084 0.484475 0.273611
O O10 0.030457 0.417839 0.417344
O O11 0.500000 0.500000 0.500000
O O12 0.424678 0.784736 0.810261
O O13 0.439512 0.094762 0.909275
O O14 0.195945 0.472638 0.160998
O O15 0.554777 0.320305 0.080964
O O16 0.338488 0.380269 0.923455
O O17 0.143027 0.707676 0.994123
O O18 0.000000 0.500000 0.000000
#
# Coordination Sequence:
#
# PCOD9048678 Si02
#       8
#     2   2   2   2   2   2   2   2
#     4  12  26  48  72 106 143 190 239 295 361 430
#     4  12  27  47  70 106 149 185 245 294 355 434
#     4  11  25  42  72 104 137 188 234 294 357 426
#     4  11  23  44  72  98 144 185 232 297 358 422
#     4  12  28  46  73 106 147 193 239 295 362 420
#     4  11  24  44  71 107 139 186 246 289 359 436
#     4   9  22  43  70  98 140 179 244 293 361 418
#     4  10  24  45  71 102 144 190 236 302 356 423
#
# _framework density 22.775832000000001
#
# number of rings (size 3 to 8) (size 9 to 14) (size 15 to 20)
#    0.000    1.000    2.500    2.625    8.750    3.500 
#    0.000    0.000    0.000    0.000    0.000    0.000 
#    0.000    0.000    0.000    0.000    0.000    0.000 
#
# Total GULP energy -89167.736493 kJ/mol
# GULP energy per Si atom -5572.983531 kJ/mol
# Density = 2.272399 g / cm^3
# Si number density = 22.775832 Si / 1000 Ang^3
#
#
#
# Elastic Constant Matrix: (Units=GPa)
#
#
# Indices 1 2 3 4 5 6 
#
# 1 92.2115 5.7238 30.9638 -6.2099 -5.5392 22.8026
# 2 5.7238 76.1663 14.3703 -0.2918 -4.6407 12.8816
# 3 30.9638 14.3703 112.4096 2.1078 -10.4588 5.8122
# 4 -6.2099 -0.2918 2.1078 48.0473 1.6156 9.4787
# 5 -5.5392 -4.6407 -10.4588 1.6156 27.4103 -1.8559
# 6 22.8026 12.8816 5.8122 9.4787 -1.8559 39.8595
#
#
#
# Elastic Compliance Matrix: (Units=1/GPa)
#
#
# Indices 1 2 3 4 5 6 
#
# 1 0.014552 0.001199 -0.003682 0.003802 0.000903 -0.009037
# 2 0.001199 0.014372 -0.001772 0.001316 0.001562 -0.005312
# 3 -0.003682 -0.001772 0.010366 -0.001369 0.003103 0.001637
# 4 0.003802 0.001316 -0.001369 0.022985 -0.001423 -0.007933
# 5 0.000903 0.001562 0.003103 -0.001423 0.038241 0.000645
# 6 -0.009037 -0.005312 0.001637 -0.007933 0.000645 0.033653
#
#
# Mechanical properties :
#
#
# Convention : Reuss Voigt Hill
#
# Bulk Modulus (GPa) = 32.48807 42.54480 37.51643
# Shear Modulus (GPa) = 32.69287 38.37873 35.53580
#
# Velocity S-wave (km/s) = 3.79280 4.10941 3.95427
# Velocity P-wave (km/s) = 5.78582 6.42158 6.11197
#
# Compressibility (1/GPa) = 0.03078053
#
# Stress axis : x y z
#
# Youngs Moduli (GPa) = 68.72127 69.57932 96.46521
#
# Poissons Ratio (x) = -0.08343 0.35515
# Poissons Ratio (y) = -0.08240 0.17096
# Poissons Ratio (z) = 0.25300 0.12331
#
# Static dielectric constant tensor:
#      x y z
#    x 1.253830 -0.215760 -0.164830 
#    y -0.215760 1.909270 -0.037720 
#    z -0.164830 -0.037720 1.822340 
# 
# From -- ./inp_files/47816.got.cif
#   From: 2010.05.17/outbox.cif.g08.bks.cpg/sg2_24_cif.got.tgz:47816.got - 2010.06.03 11:33:40.
