data_PCOD9048713
_publ_section_title
;
Structure prediction by ZEFSAII (Michael W. Deem and Ramdas Pophale) SiO2 
 PCOD9048713
Probable space group: P -1
;
_chemical_formula_sum "Si O2"
_cell_formula_units_Z 16
_cell_length_a 8.797355
_cell_length_b 11.260282
_cell_length_c 11.764029
_cell_angle_alpha 83.318648
_cell_angle_beta 143.337626
_cell_angle_gamma 93.147096
_cell_volume 689.652169
_symmetry_space_group_name_H-M "P -1"
_symmetry_group_IT_number 2
_symmetry_cell_setting 'triclinic'
loop_
_space_group_symop_operation_xyz
x,y,z
-x,-y,-z
loop_
_atom_site_type_symbol
_atom_site_label
_atom_site_fract_x
_atom_site_fract_y
_atom_site_fract_z
Si Si1 0.648078 0.105886 0.714439
Si Si2 0.757733 0.517997 0.506263
Si Si3 0.577167 0.830226 0.656299
Si Si4 0.535337 0.356537 0.059462
Si Si5 0.808111 0.499384 0.780184
Si Si6 0.574543 0.751419 0.227213
Si Si7 0.887328 0.283788 0.487115
Si Si8 0.929827 0.740849 0.062084
O O1 0.454423 0.166673 0.497909
O O2 0.583639 0.161173 0.792914
O O3 0.933892 0.137552 0.846411
O O4 0.615169 0.965593 0.703506
O O5 0.871813 0.555915 0.691098
O O6 0.481729 0.463820 0.368619
O O7 0.672929 0.630168 0.365745
O O8 0.923345 0.409397 0.560166
O O9 0.319991 0.786851 0.562166
O O10 0.806360 0.751039 0.861294
O O11 0.566151 0.288870 0.965560
O O12 0.288415 0.304849 0.981376
O O13 0.500000 0.500000 0.000000
O O14 0.764673 0.324180 0.288156
O O15 0.835568 0.357961 0.782473
O O16 0.000000 0.500000 0.000000
O O17 0.849686 0.796173 0.353154
#
# Coordination Sequence:
#
# PCOD9048713 Si02
#       8
#     2   2   2   2   2   2   2   2
#     4  11  24  45  67  97 124 163 224 274 321 370
#     4  11  23  38  58  96 133 167 211 258 319 388
#     4  10  24  45  71  90 123 172 218 270 325 377
#     4  11  24  41  61  95 131 176 210 251 323 392
#     4  11  23  34  60  94 129 166 207 266 318 382
#     4  12  25  39  64  96 134 168 213 265 315 385
#     4  11  24  43  63  91 134 175 212 256 324 385
#     4  11  23  42  66  91 127 168 215 266 321 379
#
# _framework density 23.200099000000002
#
# number of rings (size 3 to 8) (size 9 to 14) (size 15 to 20)
#    0.000    1.000    2.500    4.500    5.250    1.500 
#    0.000    2.500    0.000    0.000    0.000    0.000 
#    0.000    0.000    0.000    0.000    0.000    0.000 
#
# Total GULP energy -89493.958315 kJ/mol
# GULP energy per Si atom -5593.372395 kJ/mol
# Density = 2.314729 g / cm^3
# Si number density = 23.200099 Si / 1000 Ang^3
#
#
#
# Elastic Constant Matrix: (Units=GPa)
#
#
# Indices 1 2 3 4 5 6 
#
# 1 92.7423 28.5610 35.8785 11.8122 -11.3916 -9.4351
# 2 28.5610 80.8522 7.5579 17.2433 -2.8266 8.2086
# 3 35.8785 7.5579 132.6562 2.1510 -32.3660 -12.4450
# 4 11.8122 17.2433 2.1510 35.7348 1.6154 -2.9875
# 5 -11.3916 -2.8266 -32.3660 1.6154 47.1385 10.2145
# 6 -9.4351 8.2086 -12.4450 -2.9875 10.2145 27.9099
#
#
#
# Elastic Compliance Matrix: (Units=1/GPa)
#
#
# Indices 1 2 3 4 5 6 
#
# 1 0.014156 -0.004793 -0.003073 -0.001801 0.000088 0.004600
# 2 -0.004793 0.016413 0.000208 -0.007087 0.001904 -0.007810
# 3 -0.003073 0.000208 0.009880 0.000160 0.005787 0.001205
# 4 -0.001801 -0.007087 0.000160 0.032655 -0.003217 0.006220
# 5 0.000088 0.001904 0.005787 -0.003217 0.027223 -0.008257
# 6 0.004600 -0.007810 0.001205 0.006220 -0.008257 0.043906
#
#
# Mechanical properties :
#
#
# Convention : Reuss Voigt Hill
#
# Bulk Modulus (GPa) = 39.78994 50.02727 44.90861
# Shear Modulus (GPa) = 29.77498 37.77353 33.77425
#
# Velocity S-wave (km/s) = 3.58634 4.03943 3.81961
# Velocity P-wave (km/s) = 5.85979 6.58530 6.23311
#
# Compressibility (1/GPa) = 0.02513198
#
# Stress axis : x y z
#
# Youngs Moduli (GPa) = 70.64281 60.92774 101.21474
#
# Poissons Ratio (x) = 0.29203 0.31106
# Poissons Ratio (y) = 0.33859 -0.02105
# Poissons Ratio (z) = 0.21710 -0.01267
#
# Static dielectric constant tensor:
#      x y z
#    x 1.978120 0.070550 0.007760 
#    y 0.070550 1.872860 0.026900 
#    z 0.007760 0.026900 1.901000 
# 
# From -- ./inp_files/390122.got.cif
#   From: 2010.05.17/outbox.cif.g08.bks.cpg/sg2_196_cif.got.tgz:390122.got - 2010.06.03 11:33:40.
