data_PCOD9048159
_publ_section_title
;
Structure prediction by ZEFSAII (Michael W. Deem and Ramdas Pophale) SiO2 
 PCOD9048159
Probable space group: P -1
;
_chemical_formula_sum "Si O2"
_cell_formula_units_Z 14
_cell_length_a 13.141021
_cell_length_b 8.660201
_cell_length_c 6.171811
_cell_angle_alpha 108.552342
_cell_angle_beta 69.675662
_cell_angle_gamma 116.875847
_cell_volume 576.498324
_symmetry_space_group_name_H-M "P -1"
_symmetry_group_IT_number 2
_symmetry_cell_setting 'triclinic'
loop_
_space_group_symop_operation_xyz
x,y,z
-x,-y,-z
loop_
_atom_site_type_symbol
_atom_site_label
_atom_site_fract_x
_atom_site_fract_y
_atom_site_fract_z
Si Si1 0.863803 0.260477 0.438280
Si Si2 0.264340 0.538588 0.630029
Si Si3 0.466816 0.870993 0.763606
Si Si4 0.730618 0.735094 0.833191
Si Si5 0.342823 0.083950 0.681603
Si Si6 0.916271 0.083715 0.711180
Si Si7 0.921020 0.669328 0.962486
O O1 0.778001 0.357511 0.477244
O O2 0.894767 0.231671 0.648883
O O3 0.984604 0.368462 0.272599
O O4 0.790182 0.054217 0.327763
O O5 0.369015 0.673853 0.757326
O O6 0.301923 0.401536 0.402603
O O7 0.157471 0.448644 0.837344
O O8 0.582418 0.858834 0.566717
O O9 0.404985 0.968681 0.700820
O O10 0.500000 0.000000 0.000000
O O11 0.832659 0.702645 0.877344
O O12 0.791686 0.931295 0.780794
O O13 0.646900 0.755695 0.094084
O O14 0.988160 0.161965 0.907134
O O15 0.000000 0.000000 0.500000
#
# Coordination Sequence:
#
# PCOD9048159 Si02
#       7
#     2   2   2   2   2   2   2
#     4  11  24  42  69 101 143 189 238 272 343 415
#     4  11  27  44  68 108 142 183 227 297 351 404
#     4  10  25  50  73  98 131 180 241 288 353 416
#     4  12  25  43  69 107 147 178 234 285 348 412
#     4  10  24  44  74  99 132 185 236 286 342 419
#     4  12  22  40  69 100 143 196 229 275 336 422
#     4  12  23  40  67 103 150 184 231 273 345 412
#
# _framework density 24.284545999999999
#
# number of rings (size 3 to 8) (size 9 to 14) (size 15 to 20)
#    0.000    0.857    4.286    1.714    2.000    7.429 
#    0.000    1.429    0.000    0.000    0.000    0.000 
#    0.000    0.000    0.000    0.000    0.000    0.000 
#
# Total GULP energy -78229.442252 kJ/mol
# GULP energy per Si atom -5587.817304 kJ/mol
# Density = 2.422927 g / cm^3
# Si number density = 24.284546 Si / 1000 Ang^3
#
#
#
# Elastic Constant Matrix: (Units=GPa)
#
#
# Indices 1 2 3 4 5 6 
#
# 1 81.6706 32.0103 31.7802 -3.0345 -0.1859 10.9502
# 2 32.0103 95.9662 54.3542 13.0571 -1.0958 12.8057
# 3 31.7802 54.3542 152.0467 23.3642 -20.9723 20.8483
# 4 -3.0345 13.0571 23.3642 35.2078 -1.3596 5.8759
# 5 -0.1859 -1.0958 -20.9723 -1.3596 41.0752 -7.9352
# 6 10.9502 12.8057 20.8483 5.8759 -7.9352 29.8451
#
#
#
# Elastic Compliance Matrix: (Units=1/GPa)
#
#
# Indices 1 2 3 4 5 6 
#
# 1 0.015384 -0.004040 -0.002245 0.004875 -0.001751 -0.003768
# 2 -0.004040 0.014655 -0.003966 -0.002894 -0.002141 -0.002035
# 3 -0.002245 -0.003966 0.010161 -0.004889 0.004441 -0.002429
# 4 0.004875 -0.002894 -0.004889 0.033785 -0.002281 -0.004390
# 5 -0.001751 -0.002141 0.004441 -0.002281 0.027683 0.006269
# 6 -0.003768 -0.002035 -0.002429 -0.004390 0.006269 0.039990
#
#
# Mechanical properties :
#
#
# Convention : Reuss Voigt Hill
#
# Bulk Modulus (GPa) = 50.76983 62.88588 56.82786
# Shear Modulus (GPa) = 29.63365 35.32822 32.48094
#
# Velocity S-wave (km/s) = 3.49702 3.81827 3.66117
# Velocity P-wave (km/s) = 6.10387 6.73725 6.42837
#
# Compressibility (1/GPa) = 0.01969674
#
# Stress axis : x y z
#
# Youngs Moduli (GPa) = 65.00295 68.23499 98.41683
#
# Poissons Ratio (x) = 0.27569 0.22097
# Poissons Ratio (y) = 0.26263 0.39033
# Poissons Ratio (z) = 0.14595 0.27063
#
# Static dielectric constant tensor:
#      x y z
#    x 1.949630 0.052290 0.068030 
#    y 0.052290 2.011490 0.077260 
#    z 0.068030 0.077260 2.181500 
# 
# From -- ./inp_files/90900.got.cif
#   From: 2010.05.17/outbox.cif.g08.bks.cpg/sg2_46_cif.got.tgz:90900.got - 2010.06.03 11:33:40.
