data_PCOD9048708
_publ_section_title
;
Structure prediction by ZEFSAII (Michael W. Deem and Ramdas Pophale) SiO2 
 PCOD9048708
Probable space group: P -1
;
_chemical_formula_sum "Si O2"
_cell_formula_units_Z 16
_cell_length_a 9.296888
_cell_length_b 12.560260
_cell_length_c 17.558632
_cell_angle_alpha 34.312479
_cell_angle_beta 40.811005
_cell_angle_gamma 38.419099
_cell_volume 682.071794
_symmetry_space_group_name_H-M "P -1"
_symmetry_group_IT_number 2
_symmetry_cell_setting 'triclinic'
loop_
_space_group_symop_operation_xyz
x,y,z
-x,-y,-z
loop_
_atom_site_type_symbol
_atom_site_label
_atom_site_fract_x
_atom_site_fract_y
_atom_site_fract_z
Si Si1 0.073483 0.753100 0.026916
Si Si2 0.718414 0.818447 0.900183
Si Si3 0.342969 0.022143 0.812336
Si Si4 0.995393 0.642933 0.348561
Si Si5 0.688178 0.638266 0.749188
Si Si6 0.293723 0.981174 0.542623
Si Si7 0.695368 0.402095 0.184531
Si Si8 0.122575 0.953552 0.204101
O O1 0.211087 0.506710 0.131800
O O2 0.846140 0.859547 0.113275
O O3 0.973804 0.841316 0.932483
O O4 0.264452 0.845412 0.918921
O O5 0.657068 0.025250 0.854024
O O6 0.011911 0.696135 0.859595
O O7 0.606858 0.911282 0.808506
O O8 0.622033 0.648967 0.064805
O O9 0.266443 0.190837 0.675532
O O10 0.000000 0.500000 0.500000
O O11 0.131166 0.497238 0.310267
O O12 0.132961 0.777565 0.245345
O O13 0.721298 0.852457 0.614052
O O14 0.435192 0.647120 0.809375
O O15 0.500000 0.000000 0.500000
O O16 0.371581 0.734170 0.644905
O O17 0.059043 0.052159 0.651769
#
# Coordination Sequence:
#
# PCOD9048708 Si02
#       8
#     2   2   2   2   2   2   2   2
#     4   9  18  32  54  84 110 135 184 231 268 315
#     4  10  19  35  54  78 113 148 181 218 271 332
#     4   9  18  33  55  80 111 146 174 222 278 325
#     4  10  19  34  59  87 108 136 181 231 276 322
#     4  10  17  34  59  81 110 143 182 226 276 318
#     4   9  18  33  54  79 102 145 188 224 259 314
#     4   9  19  33  55  74 105 154 186 212 268 324
#     4  10  20  33  54  87 109 137 183 226 269 325
#
# _framework density 23.457941000000002
#
# number of rings (size 3 to 8) (size 9 to 14) (size 15 to 20)
#    0.000    2.500    2.500    0.750    0.000    0.500 
#    0.000    6.250    0.000    1.500    0.000    0.000 
#    0.000    0.000    0.000    0.000    0.000    0.000 
#
# Total GULP energy -89127.401384 kJ/mol
# GULP energy per Si atom -5570.462586 kJ/mol
# Density = 2.340455 g / cm^3
# Si number density = 23.457941 Si / 1000 Ang^3
#
#
#
# Elastic Constant Matrix: (Units=GPa)
#
#
# Indices 1 2 3 4 5 6 
#
# 1 119.3616 29.1063 60.1765 -14.7263 8.4609 -18.3021
# 2 29.1063 62.4280 29.9190 -9.1276 7.0125 -9.0612
# 3 60.1765 29.9190 169.4529 -40.7412 8.6849 -18.2704
# 4 -14.7263 -9.1276 -40.7412 39.9803 -4.8410 1.9225
# 5 8.4609 7.0125 8.6849 -4.8410 40.7374 -10.7653
# 6 -18.3021 -9.0612 -18.2704 1.9225 -10.7653 28.4806
#
#
#
# Elastic Compliance Matrix: (Units=1/GPa)
#
#
# Indices 1 2 3 4 5 6 
#
# 1 0.011338 -0.003213 -0.002928 0.000250 0.000007 0.004371
# 2 -0.003213 0.018959 -0.001584 0.001238 -0.001504 0.002299
# 3 -0.002928 -0.001584 0.009524 0.008188 0.000735 0.003449
# 4 0.000250 0.001238 0.008188 0.033898 0.003275 0.004756
# 5 0.000007 -0.001504 0.000735 0.003275 0.027750 0.010266
# 6 0.004371 0.002299 0.003449 0.004756 0.010266 0.044424
#
#
# Mechanical properties :
#
#
# Convention : Reuss Voigt Hill
#
# Bulk Modulus (GPa) = 41.03178 65.51624 53.27401
# Shear Modulus (GPa) = 29.50426 37.30904 33.40665
#
# Velocity S-wave (km/s) = 3.55033 3.99239 3.77783
# Velocity P-wave (km/s) = 5.85970 7.01727 6.46445
#
# Compressibility (1/GPa) = 0.02437135
#
# Stress axis : x y z
#
# Youngs Moduli (GPa) = 88.19771 52.74501 105.00165
#
# Poissons Ratio (x) = 0.16946 0.30747
# Poissons Ratio (y) = 0.28336 0.16630
# Poissons Ratio (z) = 0.25826 0.08354
#
# Static dielectric constant tensor:
#      x y z
#    x 1.871250 0.042220 0.025430 
#    y 0.042220 2.096980 -0.002140 
#    z 0.025430 -0.002140 1.948520 
# 
# From -- ./inp_files/257103.got.cif
#   From: 2010.05.17/outbox.cif.g08.bks.cpg/sg2_129_cif.got.tgz:257103.got - 2010.06.03 11:33:40.
