data_PCOD9048094
_publ_section_title
;
Structure prediction by ZEFSAII (Michael W. Deem and Ramdas Pophale) SiO2 
 PCOD9048094
Probable space group: P -1
;
_chemical_formula_sum "Si O2"
_cell_formula_units_Z 12
_cell_length_a 18.152776
_cell_length_b 10.032197
_cell_length_c 14.870097
_cell_angle_alpha 153.244786
_cell_angle_beta 157.661468
_cell_angle_gamma 36.327746
_cell_volume 460.085029
_symmetry_space_group_name_H-M "P -1"
_symmetry_group_IT_number 2
_symmetry_cell_setting 'triclinic'
loop_
_space_group_symop_operation_xyz
x,y,z
-x,-y,-z
loop_
_atom_site_type_symbol
_atom_site_label
_atom_site_fract_x
_atom_site_fract_y
_atom_site_fract_z
Si Si1 0.567752 0.721449 0.629659
Si Si2 0.444638 0.237384 0.708318
Si Si3 0.020494 0.168409 0.871712
Si Si4 0.762136 0.543707 0.155004
Si Si5 0.606312 0.284161 0.246500
Si Si6 0.932137 0.608496 0.737660
O O1 0.500000 0.500000 0.500000
O O2 0.608751 0.528412 0.473280
O O3 0.418041 0.938476 0.558089
O O4 0.779010 0.898330 0.990690
O O5 0.755417 0.737474 0.558960
O O6 0.500000 0.500000 0.000000
O O7 0.661145 0.239703 0.906584
O O8 0.020308 0.225617 0.013971
O O9 0.882379 0.851249 0.511812
O O10 0.000000 0.500000 0.000000
O O11 0.889508 0.440543 0.154705
O O12 0.549949 0.644779 0.959191
O O13 0.820013 0.290226 0.452705
O O14 0.500000 0.000000 0.000000
#
# Coordination Sequence:
#
# PCOD9048094 Si02
#       6
#     2   2   2   2   2   2
#     4  11  27  48  76 104 149 199 250 313 386 447
#     4  11  27  50  78 112 151 200 258 315 378 455
#     4  11  26  45  75 116 151 195 255 310 379 457
#     4  11  25  47  77 109 151 198 254 311 382 450
#     4  10  24  44  73 108 149 196 249 308 375 451
#     4  10  25  48  75 108 153 198 251 312 381 446
#
# _framework density 26.082134
#
# number of rings (size 3 to 8) (size 9 to 14) (size 15 to 20)
#    0.000    1.333    0.000    3.000   11.667   10.000 
#    0.000    5.000    0.000    0.000    0.000    0.000 
#    0.000    0.000    0.000    0.000    0.000    0.000 
#
# Total GULP energy -66887.100215 kJ/mol
# GULP energy per Si atom -5573.925018 kJ/mol
# Density = 2.602277 g / cm^3
# Si number density = 26.082134 Si / 1000 Ang^3
#
#
#
# Elastic Constant Matrix: (Units=GPa)
#
#
# Indices 1 2 3 4 5 6 
#
# 1 160.3420 21.3008 55.5333 -13.4346 -1.7625 -12.4924
# 2 21.3008 50.6560 2.2893 0.7615 1.9060 11.7951
# 3 55.5333 2.2893 124.3233 -10.7268 1.1328 -13.4510
# 4 -13.4346 0.7615 -10.7268 42.1631 -5.1771 9.2700
# 5 -1.7625 1.9060 1.1328 -5.1771 65.4115 -1.9266
# 6 -12.4924 11.7951 -13.4510 9.2700 -1.9266 44.7891
#
#
#
# Elastic Compliance Matrix: (Units=1/GPa)
#
#
# Indices 1 2 3 4 5 6 
#
# 1 0.008145 -0.003793 -0.003228 0.001467 0.000562 0.002022
# 2 -0.003793 0.022976 0.000518 -0.000079 -0.000992 -0.006979
# 3 -0.003228 0.000518 0.009749 0.001059 -0.000138 0.001666
# 4 0.001467 -0.000079 0.001059 0.025678 0.001924 -0.004484
# 5 0.000562 -0.000992 -0.000138 0.001924 0.015506 0.000645
# 6 0.002022 -0.006979 0.001666 -0.004484 0.000645 0.026185
#
#
# Mechanical properties :
#
#
# Convention : Reuss Voigt Hill
#
# Bulk Modulus (GPa) = 35.88833 54.84089 45.36461
# Shear Modulus (GPa) = 38.30457 47.55261 42.92859
#
# Velocity S-wave (km/s) = 3.83641 4.27451 4.06137
# Velocity P-wave (km/s) = 5.78045 6.74046 6.27883
#
# Compressibility (1/GPa) = 0.02786421
#
# Stress axis : x y z
#
# Youngs Moduli (GPa) = 122.77035 43.52321 102.57565
#
# Poissons Ratio (x) = 0.16509 0.33115
# Poissons Ratio (y) = 0.46569 -0.05317
# Poissons Ratio (z) = 0.39634 -0.02256
#
# Static dielectric constant tensor:
#      x y z
#    x 1.353880 -0.794220 -0.595790 
#    y -0.794220 1.059580 -0.804340 
#    z -0.595790 -0.804340 1.642640 
# 
# From -- ./inp_files/577860.got.cif
#   From: 2010.05.17/outbox.cif.g08.bks.cpg/sg2_289_cif.got.tgz:577860.got - 2010.06.03 11:33:40.
