data_PCOD9048298
_publ_section_title
;
Structure prediction by ZEFSAII (Michael W. Deem and Ramdas Pophale) SiO2 
 PCOD9048298
Probable space group: P -1
;
_chemical_formula_sum "Si O2"
_cell_formula_units_Z 16
_cell_length_a 19.055021
_cell_length_b 12.069633
_cell_length_c 7.917839
_cell_angle_alpha 50.653014
_cell_angle_beta 139.652283
_cell_angle_gamma 149.263939
_cell_volume 601.326606
_symmetry_space_group_name_H-M "P -1"
_symmetry_group_IT_number 2
_symmetry_cell_setting 'triclinic'
loop_
_space_group_symop_operation_xyz
x,y,z
-x,-y,-z
loop_
_atom_site_type_symbol
_atom_site_label
_atom_site_fract_x
_atom_site_fract_y
_atom_site_fract_z
Si Si1 0.709103 0.418946 0.366302
Si Si2 0.977516 0.064039 0.571480
Si Si3 0.774456 0.140581 0.087052
Si Si4 0.565358 0.538027 0.848075
Si Si5 0.617780 0.250411 0.748497
Si Si6 0.930921 0.405581 0.649023
Si Si7 0.711019 0.968602 0.770667
Si Si8 0.257425 0.351007 0.281919
O O1 0.677544 0.340437 0.576972
O O2 0.768314 0.340725 0.445936
O O3 0.859678 0.679434 0.366615
O O4 0.562824 0.376629 0.076170
O O5 0.836380 0.046472 0.345010
O O6 0.918497 0.889974 0.767700
O O7 0.000000 0.000000 0.500000
O O8 0.934861 0.401862 0.157753
O O9 0.638620 0.103349 0.964920
O O10 0.717443 0.060672 0.868660
O O11 0.668509 0.760537 0.924105
O O12 0.384997 0.422091 0.592653
O O13 0.663717 0.624201 0.769806
O O14 0.432285 0.121396 0.530556
O O15 0.726251 0.461539 0.859984
O O16 0.000000 0.500000 0.500000
O O17 0.880730 0.190734 0.787266
#
# Coordination Sequence:
#
# PCOD9048298 Si02
#       8
#     2   2   2   2   2   2   2   2
#     4  11  24  42  64  97 134 168 228 272 323 394
#     4  11  23  40  65  98 129 172 224 266 327 395
#     4  11  25  43  69  97 132 177 216 279 329 391
#     4  10  25  44  66  98 132 180 218 278 329 389
#     4  11  24  43  68 103 130 175 229 272 325 394
#     4  11  27  45  64  98 137 173 219 273 336 404
#     4  11  24  43  70  96 133 174 226 271 329 396
#     4  10  24  45  66  93 138 175 223 270 336 392
#
# _framework density 26.607838000000001
#
# number of rings (size 3 to 8) (size 9 to 14) (size 15 to 20)
#    0.000    1.250    2.500    1.500    8.750    2.500 
#    0.000    0.625    0.000    0.000    0.000    0.000 
#    0.000    0.000    0.000    0.000    0.000    0.000 
#
# Total GULP energy -89574.395088 kJ/mol
# GULP energy per Si atom -5598.399693 kJ/mol
# Density = 2.654728 g / cm^3
# Si number density = 26.607838 Si / 1000 Ang^3
#
#
#
# Elastic Constant Matrix: (Units=GPa)
#
#
# Indices 1 2 3 4 5 6 
#
# 1 96.9772 16.9386 8.8409 -14.7668 4.1102 -11.7098
# 2 16.9386 141.3450 21.0532 -6.8821 -3.5395 -1.6366
# 3 8.8409 21.0532 79.8672 -7.2304 27.8731 -23.7369
# 4 -14.7668 -6.8821 -7.2304 28.3871 -13.2837 9.7073
# 5 4.1102 -3.5395 27.8731 -13.2837 41.1781 -14.4624
# 6 -11.7098 -1.6366 -23.7369 9.7073 -14.4624 35.6446
#
#
#
# Elastic Compliance Matrix: (Units=1/GPa)
#
#
# Indices 1 2 3 4 5 6 
#
# 1 0.011625 -0.001000 -0.000303 0.005597 0.001730 0.002749
# 2 -0.001000 0.007891 -0.003368 0.002643 0.003361 -0.001565
# 3 -0.000303 -0.003368 0.020028 -0.004742 -0.012008 0.009502
# 4 0.005597 0.002643 -0.004742 0.047484 0.015433 -0.007868
# 5 0.001730 0.003361 -0.012008 0.015433 0.039040 0.004363
# 6 0.002749 -0.001565 0.009502 -0.007868 0.004363 0.039126
#
#
# Mechanical properties :
#
#
# Convention : Reuss Voigt Hill
#
# Bulk Modulus (GPa) = 33.11235 45.76164 39.43699
# Shear Modulus (GPa) = 27.08490 39.13242 33.10866
#
# Velocity S-wave (km/s) = 3.19396 3.83914 3.53132
# Velocity P-wave (km/s) = 5.10622 6.07354 5.61077
#
# Compressibility (1/GPa) = 0.03020022
#
# Stress axis : x y z
#
# Youngs Moduli (GPa) = 86.02227 126.72366 49.93053
#
# Poissons Ratio (x) = 0.12676 0.01514
# Poissons Ratio (y) = 0.08605 0.16818
# Poissons Ratio (z) = 0.02608 0.42685
#
# Static dielectric constant tensor:
#      x y z
#    x 2.026690 0.025290 0.066270 
#    y 0.025290 2.056910 0.042110 
#    z 0.066270 0.042110 2.173980 
# 
# From -- ./inp_files/345988.got.cif
#   From: 2010.05.17/outbox.cif.g08.bks.cpg/sg2_173_cif.got.tgz:345988.got - 2010.06.03 11:33:40.
