data_PCOD9048276
_publ_section_title
;
Structure prediction by ZEFSAII (Michael W. Deem and Ramdas Pophale) SiO2 
 PCOD9048276
Probable space group: P -1
;
_chemical_formula_sum "Si O2"
_cell_formula_units_Z 14
_cell_length_a 10.421565
_cell_length_b 13.580578
_cell_length_c 17.722896
_cell_angle_alpha 146.270417
_cell_angle_beta 27.005868
_cell_angle_gamma 148.607137
_cell_volume 565.841150
_symmetry_space_group_name_H-M "P -1"
_symmetry_group_IT_number 2
_symmetry_cell_setting 'triclinic'
loop_
_space_group_symop_operation_xyz
x,y,z
-x,-y,-z
loop_
_atom_site_type_symbol
_atom_site_label
_atom_site_fract_x
_atom_site_fract_y
_atom_site_fract_z
Si Si1 0.468926 0.560171 0.468957
Si Si2 0.566647 0.042189 0.268150
Si Si3 0.760596 0.311086 0.113578
Si Si4 0.102739 0.998384 0.223920
Si Si5 0.779588 0.223749 0.600437
Si Si6 0.808776 0.849302 0.895842
Si Si7 0.605517 0.557247 0.067266
O O1 0.500000 0.500000 0.500000
O O2 0.539283 0.786667 0.574694
O O3 0.107082 0.420400 0.544803
O O4 0.691180 0.499533 0.261481
O O5 0.850642 0.112205 0.225341
O O6 0.294127 0.838973 0.313778
O O7 0.702298 0.989276 0.089158
O O8 0.022934 0.366978 0.075665
O O9 0.904956 0.216293 0.915315
O O10 0.410877 0.135122 0.199089
O O11 0.180681 0.097663 0.163094
O O12 0.817385 0.038840 0.427838
O O13 0.504596 0.274765 0.747308
O O14 0.567348 0.626101 0.902822
O O15 0.500000 0.500000 0.000000
#
# Coordination Sequence:
#
# PCOD9048276 Si02
#       7
#     2   2   2   2   2   2   2
#     4  11  23  43  68 100 142 178 227 292 341 407
#     4  11  24  43  71 106 133 184 233 291 337 410
#     4  10  24  45  65  97 146 181 220 283 353 409
#     4  10  24  48  68  99 139 190 222 287 346 416
#     4  11  24  45  71  99 137 178 238 282 344 405
#     4  11  24  42  72 102 139 177 239 283 347 405
#     4  12  23  43  72 105 138 181 232 292 342 405
#
# _framework density 24.741925999999999
#
# number of rings (size 3 to 8) (size 9 to 14) (size 15 to 20)
#    0.000    1.143    2.857    2.571    2.000    4.000 
#   12.857    0.000    0.000    0.000    0.000    0.000 
#    0.000    0.000    0.000    0.000    0.000    0.000 
#
# Total GULP energy -78357.526815 kJ/mol
# GULP energy per Si atom -5596.966201 kJ/mol
# Density = 2.468561 g / cm^3
# Si number density = 24.741926 Si / 1000 Ang^3
#
#
#
# Elastic Constant Matrix: (Units=GPa)
#
#
# Indices 1 2 3 4 5 6 
#
# 1 85.8800 27.4068 27.6057 -11.1670 -12.3085 1.4756
# 2 27.4068 96.7900 43.6734 17.4973 -9.3960 -15.4870
# 3 27.6057 43.6734 181.0310 35.5684 -22.7456 -7.8569
# 4 -11.1670 17.4973 35.5684 44.0166 -7.3058 1.8417
# 5 -12.3085 -9.3960 -22.7456 -7.3058 32.4327 -1.0335
# 6 1.4756 -15.4870 -7.8569 1.8417 -1.0335 37.8472
#
#
#
# Elastic Compliance Matrix: (Units=1/GPa)
#
#
# Indices 1 2 3 4 5 6 
#
# 1 0.016034 -0.005147 -0.002553 0.009114 0.004742 -0.003575
# 2 -0.005147 0.014472 -0.001168 -0.006343 0.000189 0.006194
# 3 -0.002553 -0.001168 0.007822 -0.006098 0.002857 0.001620
# 4 0.009114 -0.006343 -0.006098 0.033501 0.004709 -0.005718
# 5 0.004742 0.000189 0.002857 0.004709 0.035791 0.001234
# 6 -0.003575 0.006194 0.001620 -0.005718 0.001234 0.029744
#
#
# Mechanical properties :
#
#
# Convention : Reuss Voigt Hill
#
# Bulk Modulus (GPa) = 48.56281 62.34142 55.45212
# Shear Modulus (GPa) = 30.87097 40.52698 35.69897
#
# Velocity S-wave (km/s) = 3.53614 4.05160 3.80261
# Velocity P-wave (km/s) = 6.02849 6.86576 6.46070
#
# Compressibility (1/GPa) = 0.02059189
#
# Stress axis : x y z
#
# Youngs Moduli (GPa) = 62.36873 69.09856 127.83862
#
# Poissons Ratio (x) = 0.35567 0.32640
# Poissons Ratio (y) = 0.32103 0.14927
# Poissons Ratio (z) = 0.15924 0.08068
#
# Static dielectric constant tensor:
#      x y z
#    x 1.947970 0.038150 0.017530 
#    y 0.038150 1.960320 0.007780 
#    z 0.017530 0.007780 1.985890 
# 
# From -- ./inp_files/524029.got.cif
#   From: 2010.05.17/outbox.cif.g08.bks.cpg/sg2_263_cif.got.tgz:524029.got - 2010.06.03 11:33:40.
