data_PCOD9048223
_publ_section_title
;
Structure prediction by ZEFSAII (Michael W. Deem and Ramdas Pophale) SiO2 
 PCOD9048223
Probable space group: P -1
;
_chemical_formula_sum "Si O2"
_cell_formula_units_Z 13
_cell_length_a 9.381238
_cell_length_b 8.762068
_cell_length_c 13.035615
_cell_angle_alpha 110.656534
_cell_angle_beta 37.352539
_cell_angle_gamma 89.482037
_cell_volume 523.302450
_symmetry_space_group_name_H-M "P -1"
_symmetry_group_IT_number 2
_symmetry_cell_setting 'triclinic'
loop_
_space_group_symop_operation_xyz
x,y,z
-x,-y,-z
loop_
_atom_site_type_symbol
_atom_site_label
_atom_site_fract_x
_atom_site_fract_y
_atom_site_fract_z
Si Si1 0.701036 0.555115 0.844593
Si Si2 0.898917 0.663846 0.958651
Si Si3 0.539517 0.219364 0.163238
Si Si4 0.508905 0.551184 0.389126
Si Si5 0.608242 0.085573 0.542762
Si Si6 0.881193 0.861209 0.518093
Si Si7 0.000000 0.000000 0.000000
O O1 0.842184 0.602582 0.867206
O O2 0.539124 0.722070 0.895214
O O3 0.914209 0.356594 0.622716
O O4 0.500000 0.500000 0.000000
O O5 0.175980 0.495917 0.811820
O O6 0.619067 0.775022 0.210490
O O7 0.981871 0.820424 0.936120
O O8 0.439853 0.418049 0.328658
O O9 0.391610 0.107618 0.262659
O O10 0.848492 0.105525 0.999373
O O11 0.500000 0.500000 0.500000
O O12 0.318463 0.770373 0.519302
O O13 0.500000 0.000000 0.500000
O O14 0.817249 0.900447 0.443390
O O15 0.000000 0.000000 0.500000
#
# Coordination Sequence:
#
# PCOD9048223 Si02
#       7
#     2   2   2   2   2   2   1
#     4  12  27  48  75 108 153 206 244 311 389 459
#     4  11  24  46  70 107 150 189 256 298 384 442
#     4  11  24  48  75 107 149 195 254 303 383 448
#     4  11  24  44  74 105 148 199 248 307 374 448
#     4  12  25  45  72 106 148 192 250 315 369 446
#     4  12  26  48  72 109 151 195 256 309 378 450
#     4  10  24  44  78 106 142 186 252 320 356 440
#
# _framework density 24.842230000000001
#
# number of rings (size 3 to 8) (size 9 to 14) (size 15 to 20)
#    0.000    0.615    1.538    6.462    2.154    5.538 
#    0.000    0.000    0.000    0.000    0.000    0.000 
#    0.000    0.000    0.000    0.000    0.000    0.000 
#
# Total GULP energy -72388.288907 kJ/mol
# GULP energy per Si atom -5568.329916 kJ/mol
# Density = 2.478569 g / cm^3
# Si number density = 24.842230 Si / 1000 Ang^3
#
#
#
# Elastic Constant Matrix: (Units=GPa)
#
#
# Indices 1 2 3 4 5 6 
#
# 1 161.6471 65.7784 8.9096 -2.5281 8.1917 8.7013
# 2 65.7784 158.8782 -1.8490 -5.4913 9.7959 -12.7227
# 3 8.9096 -1.8490 55.3156 -10.0919 -2.8966 -0.6488
# 4 -2.5281 -5.4913 -10.0919 31.0914 -3.8719 -0.2441
# 5 8.1917 9.7959 -2.8966 -3.8719 25.5699 8.4941
# 6 8.7013 -12.7227 -0.6488 -0.2441 8.4941 65.5228
#
#
#
# Elastic Compliance Matrix: (Units=1/GPa)
#
#
# Indices 1 2 3 4 5 6 
#
# 1 0.007741 -0.003309 -0.001532 -0.000584 -0.000954 -0.001564
# 2 -0.003309 0.008058 0.000908 0.001152 -0.002529 0.002345
# 3 -0.001532 0.000908 0.019789 0.006880 0.003372 0.000164
# 4 -0.000584 0.001152 0.006880 0.035293 0.005959 -0.000272
# 5 -0.000954 -0.002529 0.003372 0.005959 0.043650 -0.005967
# 6 -0.001564 0.002345 0.000164 -0.000272 -0.005967 0.016699
#
#
# Mechanical properties :
#
#
# Convention : Reuss Voigt Hill
#
# Bulk Modulus (GPa) = 36.07425 57.94655 47.01040
# Shear Modulus (GPa) = 33.70695 44.63693 39.17194
#
# Velocity S-wave (km/s) = 3.68753 4.24349 3.97524
# Velocity P-wave (km/s) = 5.71694 6.88375 6.32730
#
# Compressibility (1/GPa) = 0.02772061
#
# Stress axis : x y z
#
# Youngs Moduli (GPa) = 129.18517 124.09518 50.53316
#
# Poissons Ratio (x) = 0.41066 0.07743
# Poissons Ratio (y) = 0.42751 -0.04587
# Poissons Ratio (z) = 0.19794 -0.11264
#
# Static dielectric constant tensor:
#      x y z
#    x 2.012640 -0.027460 -0.005640 
#    y -0.027460 1.910230 0.021670 
#    z -0.005640 0.021670 2.224470 
# 
# From -- ./inp_files/156817.got.cif
#   From: 2010.05.17/outbox.cif.g08.bks.cpg/sg2_79_cif.got.tgz:156817.got - 2010.06.03 11:33:40.
