data_PCOD9048297
_publ_section_title
;
Structure prediction by ZEFSAII (Michael W. Deem and Ramdas Pophale) SiO2 
 PCOD9048297
Probable space group: P -1
;
_chemical_formula_sum "Si O2"
_cell_formula_units_Z 16
_cell_length_a 17.991469
_cell_length_b 12.593738
_cell_length_c 9.247547
_cell_angle_alpha 45.877376
_cell_angle_beta 133.243180
_cell_angle_gamma 154.953437
_cell_volume 626.503636
_symmetry_space_group_name_H-M "P -1"
_symmetry_group_IT_number 2
_symmetry_cell_setting 'triclinic'
loop_
_space_group_symop_operation_xyz
x,y,z
-x,-y,-z
loop_
_atom_site_type_symbol
_atom_site_label
_atom_site_fract_x
_atom_site_fract_y
_atom_site_fract_z
Si Si1 0.418884 0.554699 0.399651
Si Si2 0.423237 0.804469 0.362199
Si Si3 0.095080 0.188219 0.761649
Si Si4 0.814828 0.629232 0.993897
Si Si5 0.456299 0.146001 0.223856
Si Si6 0.956458 0.389778 0.710661
Si Si7 0.267899 0.169821 0.805273
Si Si8 0.018047 0.335500 0.280728
O O1 0.500000 0.500000 0.500000
O O2 0.520582 0.807514 0.380383
O O3 0.336231 0.538980 0.167333
O O4 0.295882 0.334258 0.569784
O O5 0.426709 0.727135 0.595789
O O6 0.218247 0.584224 0.247637
O O7 0.493518 0.051164 0.257495
O O8 0.196140 0.168675 0.849979
O O9 0.034622 0.221575 0.522501
O O10 0.205101 0.400385 0.832127
O O11 0.910732 0.902576 0.846490
O O12 0.941764 0.643762 0.112411
O O13 0.255480 0.879301 0.281024
O O14 0.434753 0.271442 0.986031
O O15 0.022043 0.574246 0.753694
O O16 0.000000 0.500000 0.500000
O O17 0.130480 0.888624 0.819260
#
# Coordination Sequence:
#
# PCOD9048297 Si02
#       8
#     2   2   2   2   2   2   2   2
#     4  12  28  44  66  99 139 175 224 282 342 395
#     4  10  24  45  66  93 138 172 223 271 340 397
#     4  11  21  39  69  94 134 170 217 276 331 389
#     4  11  24  41  65 102 136 173 220 278 332 396
#     4  10  25  44  68  99 132 180 223 275 330 404
#     4  11  23  41  68 101 135 176 224 273 331 400
#     4  12  24  43  71 100 131 175 233 277 328 397
#     4  11  22  40  71 100 128 174 225 277 326 397
#
# _framework density 25.53856
#
# number of rings (size 3 to 8) (size 9 to 14) (size 15 to 20)
#    0.000    1.000    5.000    1.125    3.500    3.500 
#    2.250    0.625    0.000    0.000    0.000    0.000 
#    0.000    0.000    0.000    0.000    0.000    0.000 
#
# Total GULP energy -89487.061731 kJ/mol
# GULP energy per Si atom -5592.941358 kJ/mol
# Density = 2.548043 g / cm^3
# Si number density = 25.538560 Si / 1000 Ang^3
#
#
#
# Elastic Constant Matrix: (Units=GPa)
#
#
# Indices 1 2 3 4 5 6 
#
# 1 165.1912 26.5482 35.1580 12.6936 4.6666 -50.4321
# 2 26.5482 64.8266 5.6745 15.7501 -2.2287 -26.3197
# 3 35.1580 5.6745 120.5062 9.9311 16.6309 -7.3430
# 4 12.6936 15.7501 9.9311 37.0355 3.1483 -5.9701
# 5 4.6666 -2.2287 16.6309 3.1483 38.4649 -3.7920
# 6 -50.4321 -26.3197 -7.3430 -5.9701 -3.7920 40.2848
#
#
#
# Elastic Compliance Matrix: (Units=1/GPa)
#
#
# Indices 1 2 3 4 5 6 
#
# 1 0.010623 0.002036 -0.002388 -0.001716 0.001389 0.014070
# 2 0.002036 0.023682 -0.000504 -0.008198 0.003696 0.017062
# 3 -0.002388 -0.000504 0.009560 -0.001545 -0.003961 -0.002178
# 4 -0.001716 -0.008198 -0.001545 0.031152 -0.002484 -0.003403
# 5 0.001389 0.003696 -0.003961 -0.002484 0.028526 0.005749
# 6 0.014070 0.017062 -0.002178 -0.003403 0.005749 0.053224
#
#
# Mechanical properties :
#
#
# Convention : Reuss Voigt Hill
#
# Bulk Modulus (GPa) = 23.72327 53.92056 38.82192
# Shear Modulus (GPa) = 28.98030 42.03327 35.50679
#
# Velocity S-wave (km/s) = 3.37228 4.06134 3.73275
# Velocity P-wave (km/s) = 4.94696 6.56901 5.81482
#
# Compressibility (1/GPa) = 0.04215270
#
# Stress axis : x y z
#
# Youngs Moduli (GPa) = 94.13806 42.22570 104.60177
#
# Poissons Ratio (x) = -0.08596 0.24979
# Poissons Ratio (y) = -0.19165 0.05271
# Poissons Ratio (z) = 0.22480 0.02128
#
# Static dielectric constant tensor:
#      x y z
#    x 2.098340 0.123460 -0.069190 
#    y 0.123460 2.147690 -0.071850 
#    z -0.069190 -0.071850 2.009070 
# 
# From -- ./inp_files/332960.got.cif
#   From: 2010.05.17/outbox.cif.g08.bks.cpg/sg2_167_cif.got.tgz:332960.got - 2010.06.03 11:33:40.
